MODEL 1
REMARK VINA RESULT:     -11.7      0.000      0.000
REMARK SMILES O=C(CSc1ccc(NC(=O)c2cccc3ccccc23)cc1)NCCCCCCNC(=O)c1ccc(-c2c3nc(c(-c4ccc(S(=O)(=O)[O-])cc4)c4ccc([nH]4)c(-c4ccc(S(=O)(=O)[O-])cc4)c4nc(c(-c5ccc(S(=O)(=O)[O-])cc5)c5ccc2[nH]5)C=C4)C=C3)cc1
REMARK SMILES IDX 27 1 26 2 25 3 24 4 1 5 2 6 3 8 4 9 5 10 6 11 23 12 7 13
REMARK SMILES IDX 22 14 8 15 9 16 10 17 11 19 12 20 13 21 21 22 14 23 16 24
REMARK SMILES IDX 20 25 15 26 17 27 19 28 18 29 28 30 29 31 30 32 31 33 32 34
REMARK SMILES IDX 33 36 34 37 35 38 93 39 36 40 92 41 37 42 38 43 39 44 86 45
REMARK SMILES IDX 40 46 91 47 85 48 87 49 41 50 90 51 84 52 83 53 42 55 72 56
REMARK SMILES IDX 53 57 71 58 54 59 57 60 70 61 88 62 55 63 56 64 69 66 89 67
REMARK SMILES IDX 58 68 43 69 44 70 52 71 45 72 51 73 46 74 47 75 48 76 49 77
REMARK SMILES IDX 50 78 73 79 74 80 82 81 75 82 81 83 76 84 77 85 78 86 79 87
REMARK SMILES IDX 80 88 59 89 60 90 68 91 61 92 67 93 62 94 63 95 64 96 65 97
REMARK SMILES IDX 66 98
REMARK H PARENT 24 7 9 18 31 35 87 54 57 65
REMARK Flexibility Score: inf
ROOT
ATOM      1  C   UNL A   1      41.870  20.969  27.177  1.00  0.00     0.002 C 
ENDROOT
BRANCH   1   2
ATOM      2  C   UNL A   1      40.476  20.893  26.541  1.00  0.00     0.021 C 
BRANCH   2   3
ATOM      3  C   UNL A   1      39.767  22.238  26.405  1.00  0.00     0.116 C 
BRANCH   3   4
ATOM      4  N   UNL A   1      38.702  22.203  25.422  1.00  0.00    -0.355 N 
ATOM      5  O   UNL A   1      37.339  23.704  26.491  1.00  0.00    -0.274 OA
ATOM      6  C   UNL A   1      37.557  22.957  25.540  1.00  0.00     0.230 C 
ATOM      7  H   UNL A   1      38.803  21.617  24.636  1.00  0.00     0.163 HD
BRANCH   6   8
ATOM      8  C   UNL A   1      36.499  22.723  24.473  1.00  0.00     0.174 C 
BRANCH   8   9
ATOM      9  S   UNL A   1      35.359  21.352  24.841  1.00  0.00    -0.116 SA
BRANCH   9  10
ATOM     10  C   UNL A   1      33.744  22.117  24.895  1.00  0.00     0.008 A 
ATOM     11  C   UNL A   1      33.269  22.924  25.929  1.00  0.00     0.017 A 
ATOM     12  C   UNL A   1      32.921  21.924  23.778  1.00  0.00     0.017 A 
ATOM     13  C   UNL A   1      32.066  23.625  25.796  1.00  0.00     0.027 A 
ATOM     14  C   UNL A   1      31.721  22.629  23.641  1.00  0.00     0.027 A 
ATOM     15  C   UNL A   1      31.344  23.561  24.610  1.00  0.00     0.041 A 
BRANCH  15  16
ATOM     16  N   UNL A   1      30.308  24.439  24.271  1.00  0.00    -0.322 N 
ATOM     17  C   UNL A   1      30.272  25.796  24.045  1.00  0.00     0.256 C 
ATOM     18  H   UNL A   1      29.433  23.999  24.175  1.00  0.00     0.170 HD
ATOM     19  O   UNL A   1      29.171  26.312  23.831  1.00  0.00    -0.269 OA
BRANCH  17  20
ATOM     20  C   UNL A   1      31.461  26.685  24.035  1.00  0.00     0.048 A 
ATOM     21  C   UNL A   1      32.115  26.748  22.792  1.00  0.00     0.014 A 
ATOM     22  C   UNL A   1      31.992  27.371  25.169  1.00  0.00    -0.006 A 
ATOM     23  C   UNL A   1      33.291  27.472  22.645  1.00  0.00     0.001 A 
ATOM     24  C   UNL A   1      33.196  28.104  24.991  1.00  0.00    -0.018 A 
ATOM     25  C   UNL A   1      31.408  27.408  26.462  1.00  0.00     0.009 A 
ATOM     26  C   UNL A   1      33.834  28.129  23.743  1.00  0.00     0.009 A 
ATOM     27  C   UNL A   1      33.754  28.827  26.056  1.00  0.00     0.009 A 
ATOM     28  C   UNL A   1      31.926  28.208  27.483  1.00  0.00     0.001 A 
ATOM     29  C   UNL A   1      33.107  28.907  27.284  1.00  0.00     0.001 A 
ENDBRANCH  17  20
ENDBRANCH  15  16
ENDBRANCH   9  10
ENDBRANCH   8   9
ENDBRANCH   6   8
ENDBRANCH   3   4
ENDBRANCH   2   3
ENDBRANCH   1   2
BRANCH   1  30
ATOM     30  C   UNL A   1      42.151  22.230  27.999  1.00  0.00     0.002 C 
BRANCH  30  31
ATOM     31  C   UNL A   1      43.496  22.905  27.727  1.00  0.00     0.021 C 
BRANCH  31  32
ATOM     32  C   UNL A   1      43.419  24.386  27.366  1.00  0.00     0.116 C 
BRANCH  32  33
ATOM     33  N   UNL A   1      42.569  24.635  26.212  1.00  0.00    -0.352 N 
ATOM     34  C   UNL A   1      41.514  25.506  26.074  1.00  0.00     0.251 C 
ATOM     35  H   UNL A   1      42.782  24.102  25.412  1.00  0.00     0.163 HD
ATOM     36  O   UNL A   1      40.810  25.459  25.073  1.00  0.00    -0.269 OA
BRANCH  34  37
ATOM     37  C   UNL A   1      41.219  26.479  27.148  1.00  0.00     0.039 A 
ATOM     38  C   UNL A   1      40.304  26.127  28.145  1.00  0.00     0.014 A 
ATOM     39  C   UNL A   1      41.841  27.729  27.177  1.00  0.00     0.014 A 
ATOM     40  C   UNL A   1      40.070  27.003  29.208  1.00  0.00     0.010 A 
ATOM     41  C   UNL A   1      41.664  28.568  28.275  1.00  0.00     0.010 A 
ATOM     42  C   UNL A   1      40.778  28.213  29.303  1.00  0.00    -0.014 A 
BRANCH  42  43
ATOM     43  C   UNL A   1      40.617  29.111  30.477  1.00  0.00     0.031 A 
ATOM     44  C   UNL A   1      41.478  28.928  31.698  1.00  0.00     0.074 A 
ATOM     45  C   UNL A   1      39.651  30.052  30.468  1.00  0.00     0.049 A 
ATOM     46  N   UNL A   1      41.443  29.574  32.835  1.00  0.00    -0.248 NA
ATOM     47  C   UNL A   1      42.498  27.869  31.641  1.00  0.00     0.031 C 
ATOM     48  C   UNL A   1      38.727  30.307  29.359  1.00  0.00     0.029 A 
ATOM     49  N   UNL A   1      39.279  30.965  31.424  1.00  0.00    -0.354 N 
ATOM     50  C   UNL A   1      42.422  28.993  33.632  1.00  0.00     0.074 A 
ATOM     51  C   UNL A   1      42.999  27.909  32.868  1.00  0.00     0.031 C 
ATOM     52  C   UNL A   1      37.919  31.328  29.686  1.00  0.00     0.029 A 
ATOM     53  C   UNL A   1      38.229  31.768  31.043  1.00  0.00     0.049 A 
ATOM     54  H   UNL A   1      39.722  31.038  32.299  1.00  0.00     0.167 HD
ATOM     55  C   UNL A   1      42.819  29.341  34.880  1.00  0.00     0.031 A 
ATOM     56  C   UNL A   1      37.580  32.741  31.711  1.00  0.00     0.031 A 
ATOM     57  C   UNL A   1      42.243  30.423  35.636  1.00  0.00     0.049 A 
ATOM     58  C   UNL A   1      38.017  33.088  33.109  1.00  0.00     0.074 A 
ATOM     59  C   UNL A   1      42.608  30.884  36.889  1.00  0.00     0.029 A 
ATOM     60  N   UNL A   1      41.179  31.206  35.217  1.00  0.00    -0.354 N 
ATOM     61  N   UNL A   1      38.988  32.567  33.821  1.00  0.00    -0.248 NA
ATOM     62  C   UNL A   1      37.276  34.158  33.790  1.00  0.00     0.031 C 
ATOM     63  C   UNL A   1      41.725  31.904  37.254  1.00  0.00     0.029 A 
ATOM     64  C   UNL A   1      40.855  32.128  36.199  1.00  0.00     0.049 A 
ATOM     65  H   UNL A   1      40.721  31.119  34.350  1.00  0.00     0.167 HD
ATOM     66  C   UNL A   1      38.995  33.269  35.022  1.00  0.00     0.074 A 
ATOM     67  C   UNL A   1      37.942  34.260  34.933  1.00  0.00     0.031 C 
ATOM     68  C   UNL A   1      39.803  33.109  36.099  1.00  0.00     0.031 A 
BRANCH  55  69
ATOM     69  C   UNL A   1      43.927  28.539  35.512  1.00  0.00    -0.014 A 
ATOM     70  C   UNL A   1      45.278  28.828  35.247  1.00  0.00     0.010 A 
ATOM     71  C   UNL A   1      43.616  27.513  36.423  1.00  0.00     0.010 A 
ATOM     72  C   UNL A   1      46.295  28.082  35.849  1.00  0.00     0.020 A 
ATOM     73  C   UNL A   1      44.630  26.784  37.052  1.00  0.00     0.020 A 
ATOM     74  C   UNL A   1      45.965  27.065  36.749  1.00  0.00     0.054 A 
BRANCH  74  75
ATOM     75  S   UNL A   1      47.306  26.132  37.537  1.00  0.00     0.124 S 
ATOM     76  O   UNL A   1      48.305  27.175  37.761  1.00  0.00    -0.237 OA
ATOM     77  O   UNL A   1      46.665  25.608  38.740  1.00  0.00    -0.237 OA
ATOM     78  O   UNL A   1      47.666  25.129  36.539  1.00  0.00    -0.744 OA
ENDBRANCH  74  75
ENDBRANCH  55  69
BRANCH  56  79
ATOM     79  C   UNL A   1      36.452  33.467  31.063  1.00  0.00    -0.014 A 
ATOM     80  C   UNL A   1      35.297  33.796  31.796  1.00  0.00     0.010 A 
ATOM     81  C   UNL A   1      36.528  33.840  29.707  1.00  0.00     0.010 A 
ATOM     82  C   UNL A   1      34.234  34.465  31.182  1.00  0.00     0.020 A 
ATOM     83  C   UNL A   1      35.480  34.536  29.099  1.00  0.00     0.020 A 
ATOM     84  C   UNL A   1      34.334  34.833  29.838  1.00  0.00     0.054 A 
BRANCH  84  85
ATOM     85  S   UNL A   1      32.960  35.742  29.078  1.00  0.00     0.124 S 
ATOM     86  O   UNL A   1      33.650  36.861  28.445  1.00  0.00    -0.237 OA
ATOM     87  O   UNL A   1      32.393  34.751  28.168  1.00  0.00    -0.237 OA
ATOM     88  O   UNL A   1      32.111  36.092  30.215  1.00  0.00    -0.744 OA
ENDBRANCH  84  85
ENDBRANCH  56  79
BRANCH  68  89
ATOM     89  C   UNL A   1      39.609  34.049  37.261  1.00  0.00    -0.014 A 
ATOM     90  C   UNL A   1      38.855  33.677  38.387  1.00  0.00     0.010 A 
ATOM     91  C   UNL A   1      40.247  35.304  37.249  1.00  0.00     0.010 A 
ATOM     92  C   UNL A   1      38.718  34.553  39.467  1.00  0.00     0.020 A 
ATOM     93  C   UNL A   1      40.140  36.169  38.340  1.00  0.00     0.020 A 
ATOM     94  C   UNL A   1      39.365  35.793  39.438  1.00  0.00     0.054 A 
BRANCH  94  95
ATOM     95  S   UNL A   1      39.212  36.890  40.873  1.00  0.00     0.124 S 
ATOM     96  O   UNL A   1      38.481  38.025  40.315  1.00  0.00    -0.237 OA
ATOM     97  O   UNL A   1      38.468  36.069  41.824  1.00  0.00    -0.237 OA
ATOM     98  O   UNL A   1      40.597  37.167  41.249  1.00  0.00    -0.744 OA
ENDBRANCH  94  95
ENDBRANCH  68  89
ENDBRANCH  42  43
ENDBRANCH  34  37
ENDBRANCH  32  33
ENDBRANCH  31  32
ENDBRANCH  30  31
ENDBRANCH   1  30
TORSDOF 20
ENDMDL
MODEL 2
REMARK VINA RESULT:     -11.3      6.450      8.837
REMARK SMILES O=C(CSc1ccc(NC(=O)c2cccc3ccccc23)cc1)NCCCCCCNC(=O)c1ccc(-c2c3nc(c(-c4ccc(S(=O)(=O)[O-])cc4)c4ccc([nH]4)c(-c4ccc(S(=O)(=O)[O-])cc4)c4nc(c(-c5ccc(S(=O)(=O)[O-])cc5)c5ccc2[nH]5)C=C4)C=C3)cc1
REMARK SMILES IDX 27 1 26 2 25 3 24 4 1 5 2 6 3 8 4 9 5 10 6 11 23 12 7 13
REMARK SMILES IDX 22 14 8 15 9 16 10 17 11 19 12 20 13 21 21 22 14 23 16 24
REMARK SMILES IDX 20 25 15 26 17 27 19 28 18 29 28 30 29 31 30 32 31 33 32 34
REMARK SMILES IDX 33 36 34 37 35 38 93 39 36 40 92 41 37 42 38 43 39 44 86 45
REMARK SMILES IDX 40 46 91 47 85 48 87 49 41 50 90 51 84 52 83 53 42 55 72 56
REMARK SMILES IDX 53 57 71 58 54 59 57 60 70 61 88 62 55 63 56 64 69 66 89 67
REMARK SMILES IDX 58 68 43 69 44 70 52 71 45 72 51 73 46 74 47 75 48 76 49 77
REMARK SMILES IDX 50 78 73 79 74 80 82 81 75 82 81 83 76 84 77 85 78 86 79 87
REMARK SMILES IDX 80 88 59 89 60 90 68 91 61 92 67 93 62 94 63 95 64 96 65 97
REMARK SMILES IDX 66 98
REMARK H PARENT 24 7 9 18 31 35 87 54 57 65
REMARK Flexibility Score: inf
ROOT
ATOM      1  C   UNL A   1      42.079  21.221  27.782  1.00  0.00     0.002 C 
ENDROOT
BRANCH   1   2
ATOM      2  C   UNL A   1      40.975  22.284  27.730  1.00  0.00     0.021 C 
BRANCH   2   3
ATOM      3  C   UNL A   1      40.636  22.779  26.326  1.00  0.00     0.116 C 
BRANCH   3   4
ATOM      4  N   UNL A   1      39.208  22.926  26.122  1.00  0.00    -0.355 N 
ATOM      5  O   UNL A   1      38.848  20.781  25.395  1.00  0.00    -0.274 OA
ATOM      6  C   UNL A   1      38.412  21.897  25.672  1.00  0.00     0.230 C 
ATOM      7  H   UNL A   1      38.791  23.797  26.314  1.00  0.00     0.163 HD
BRANCH   6   8
ATOM      8  C   UNL A   1      36.956  22.252  25.418  1.00  0.00     0.174 C 
BRANCH   8   9
ATOM      9  S   UNL A   1      35.842  20.813  25.333  1.00  0.00    -0.116 SA
BRANCH   9  10
ATOM     10  C   UNL A   1      34.248  21.455  25.828  1.00  0.00     0.008 A 
ATOM     11  C   UNL A   1      33.933  21.935  27.099  1.00  0.00     0.017 A 
ATOM     12  C   UNL A   1      33.263  21.522  24.834  1.00  0.00     0.017 A 
ATOM     13  C   UNL A   1      32.717  22.584  27.339  1.00  0.00     0.027 A 
ATOM     14  C   UNL A   1      32.050  22.176  25.071  1.00  0.00     0.027 A 
ATOM     15  C   UNL A   1      31.820  22.799  26.299  1.00  0.00     0.041 A 
BRANCH  15  16
ATOM     16  N   UNL A   1      30.736  23.682  26.365  1.00  0.00    -0.322 N 
ATOM     17  C   UNL A   1      30.616  25.032  26.128  1.00  0.00     0.256 C 
ATOM     18  H   UNL A   1      29.892  23.252  26.634  1.00  0.00     0.170 HD
ATOM     19  O   UNL A   1      29.521  25.558  26.346  1.00  0.00    -0.269 OA
BRANCH  17  20
ATOM     20  C   UNL A   1      31.709  25.904  25.624  1.00  0.00     0.048 A 
ATOM     21  C   UNL A   1      32.307  26.697  26.619  1.00  0.00     0.014 A 
ATOM     22  C   UNL A   1      32.102  26.033  24.259  1.00  0.00    -0.006 A 
ATOM     23  C   UNL A   1      33.287  27.625  26.291  1.00  0.00     0.001 A 
ATOM     24  C   UNL A   1      33.108  26.989  23.951  1.00  0.00    -0.018 A 
ATOM     25  C   UNL A   1      31.596  25.269  23.176  1.00  0.00     0.009 A 
ATOM     26  C   UNL A   1      33.670  27.779  24.963  1.00  0.00     0.009 A 
ATOM     27  C   UNL A   1      33.564  27.144  22.633  1.00  0.00     0.009 A 
ATOM     28  C   UNL A   1      32.128  25.370  21.888  1.00  0.00     0.001 A 
ATOM     29  C   UNL A   1      33.103  26.318  21.614  1.00  0.00     0.001 A 
ENDBRANCH  17  20
ENDBRANCH  15  16
ENDBRANCH   9  10
ENDBRANCH   8   9
ENDBRANCH   6   8
ENDBRANCH   3   4
ENDBRANCH   2   3
ENDBRANCH   1   2
BRANCH   1  30
ATOM     30  C   UNL A   1      41.607  19.773  27.627  1.00  0.00     0.002 C 
BRANCH  30  31
ATOM     31  C   UNL A   1      42.518  18.870  26.793  1.00  0.00     0.021 C 
BRANCH  31  32
ATOM     32  C   UNL A   1      42.661  19.267  25.327  1.00  0.00     0.116 C 
BRANCH  32  33
ATOM     33  N   UNL A   1      43.933  18.850  24.757  1.00  0.00    -0.352 N 
ATOM     34  C   UNL A   1      45.037  19.605  24.438  1.00  0.00     0.251 C 
ATOM     35  H   UNL A   1      44.015  17.886  24.575  1.00  0.00     0.163 HD
ATOM     36  O   UNL A   1      45.961  19.101  23.811  1.00  0.00    -0.269 OA
BRANCH  34  37
ATOM     37  C   UNL A   1      45.092  21.030  24.831  1.00  0.00     0.039 A 
ATOM     38  C   UNL A   1      45.377  21.354  26.160  1.00  0.00     0.014 A 
ATOM     39  C   UNL A   1      44.868  22.043  23.895  1.00  0.00     0.014 A 
ATOM     40  C   UNL A   1      45.507  22.694  26.533  1.00  0.00     0.010 A 
ATOM     41  C   UNL A   1      45.073  23.374  24.251  1.00  0.00     0.010 A 
ATOM     42  C   UNL A   1      45.397  23.714  25.573  1.00  0.00    -0.014 A 
BRANCH  42  43
ATOM     43  C   UNL A   1      45.631  25.137  25.929  1.00  0.00     0.031 A 
ATOM     44  C   UNL A   1      47.022  25.713  25.882  1.00  0.00     0.074 A 
ATOM     45  C   UNL A   1      44.601  25.896  26.357  1.00  0.00     0.049 A 
ATOM     46  N   UNL A   1      47.428  26.912  26.213  1.00  0.00    -0.248 NA
ATOM     47  C   UNL A   1      48.098  24.820  25.424  1.00  0.00     0.031 C 
ATOM     48  C   UNL A   1      43.212  25.445  26.480  1.00  0.00     0.029 A 
ATOM     49  N   UNL A   1      44.563  27.203  26.773  1.00  0.00    -0.354 N 
ATOM     50  C   UNL A   1      48.804  26.914  26.016  1.00  0.00     0.074 A 
ATOM     51  C   UNL A   1      49.171  25.582  25.588  1.00  0.00     0.031 C 
ATOM     52  C   UNL A   1      42.455  26.468  26.910  1.00  0.00     0.029 A 
ATOM     53  C   UNL A   1      43.307  27.629  27.142  1.00  0.00     0.049 A 
ATOM     54  H   UNL A   1      45.358  27.782  26.805  1.00  0.00     0.167 HD
ATOM     55  C   UNL A   1      49.681  27.937  26.161  1.00  0.00     0.031 A 
ATOM     56  C   UNL A   1      42.888  28.816  27.623  1.00  0.00     0.031 A 
ATOM     57  C   UNL A   1      49.311  29.262  26.586  1.00  0.00     0.049 A 
ATOM     58  C   UNL A   1      43.888  29.926  27.807  1.00  0.00     0.074 A 
ATOM     59  C   UNL A   1      50.119  30.377  26.718  1.00  0.00     0.029 A 
ATOM     60  N   UNL A   1      48.033  29.649  26.956  1.00  0.00    -0.354 N 
ATOM     61  N   UNL A   1      45.175  29.926  27.555  1.00  0.00    -0.248 NA
ATOM     62  C   UNL A   1      43.376  31.199  28.333  1.00  0.00     0.031 C 
ATOM     63  C   UNL A   1      49.342  31.422  27.226  1.00  0.00     0.029 A 
ATOM     64  C   UNL A   1      48.035  30.979  27.344  1.00  0.00     0.049 A 
ATOM     65  H   UNL A   1      47.240  29.065  26.945  1.00  0.00     0.167 HD
ATOM     66  C   UNL A   1      45.621  31.207  27.861  1.00  0.00     0.074 A 
ATOM     67  C   UNL A   1      44.464  31.958  28.302  1.00  0.00     0.031 C 
ATOM     68  C   UNL A   1      46.876  31.717  27.781  1.00  0.00     0.031 A 
BRANCH  55  69
ATOM     69  C   UNL A   1      51.133  27.661  25.864  1.00  0.00    -0.014 A 
ATOM     70  C   UNL A   1      51.672  27.893  24.586  1.00  0.00     0.010 A 
ATOM     71  C   UNL A   1      51.984  27.211  26.891  1.00  0.00     0.010 A 
ATOM     72  C   UNL A   1      53.022  27.643  24.329  1.00  0.00     0.020 A 
ATOM     73  C   UNL A   1      53.343  26.990  26.647  1.00  0.00     0.020 A 
ATOM     74  C   UNL A   1      53.850  27.193  25.361  1.00  0.00     0.054 A 
BRANCH  74  75
ATOM     75  S   UNL A   1      55.605  26.905  25.005  1.00  0.00     0.124 S 
ATOM     76  O   UNL A   1      55.978  25.974  26.068  1.00  0.00    -0.237 OA
ATOM     77  O   UNL A   1      55.567  26.338  23.660  1.00  0.00    -0.237 OA
ATOM     78  O   UNL A   1      56.203  28.233  25.103  1.00  0.00    -0.744 OA
ENDBRANCH  74  75
ENDBRANCH  55  69
BRANCH  56  79
ATOM     79  C   UNL A   1      41.451  29.020  27.957  1.00  0.00    -0.014 A 
ATOM     80  C   UNL A   1      40.496  29.180  26.937  1.00  0.00     0.010 A 
ATOM     81  C   UNL A   1      41.028  29.049  29.299  1.00  0.00     0.010 A 
ATOM     82  C   UNL A   1      39.149  29.386  27.253  1.00  0.00     0.020 A 
ATOM     83  C   UNL A   1      39.677  29.223  29.617  1.00  0.00     0.020 A 
ATOM     84  C   UNL A   1      38.749  29.402  28.591  1.00  0.00     0.054 A 
BRANCH  84  85
ATOM     85  S   UNL A   1      36.988  29.623  28.972  1.00  0.00     0.124 S 
ATOM     86  O   UNL A   1      36.873  28.957  30.265  1.00  0.00    -0.237 OA
ATOM     87  O   UNL A   1      36.852  31.077  28.994  1.00  0.00    -0.237 OA
ATOM     88  O   UNL A   1      36.312  28.958  27.861  1.00  0.00    -0.744 OA
ENDBRANCH  84  85
ENDBRANCH  56  79
BRANCH  68  89
ATOM     89  C   UNL A   1      47.063  33.167  28.143  1.00  0.00    -0.014 A 
ATOM     90  C   UNL A   1      46.908  34.187  27.187  1.00  0.00     0.010 A 
ATOM     91  C   UNL A   1      47.337  33.517  29.479  1.00  0.00     0.010 A 
ATOM     92  C   UNL A   1      47.054  35.527  27.556  1.00  0.00     0.020 A 
ATOM     93  C   UNL A   1      47.450  34.856  29.857  1.00  0.00     0.020 A 
ATOM     94  C   UNL A   1      47.321  35.854  28.889  1.00  0.00     0.054 A 
BRANCH  94  95
ATOM     95  S   UNL A   1      47.454  37.602  29.349  1.00  0.00     0.124 S 
ATOM     96  O   UNL A   1      47.518  38.257  28.045  1.00  0.00    -0.237 OA
ATOM     97  O   UNL A   1      46.225  37.827  30.106  1.00  0.00    -0.237 OA
ATOM     98  O   UNL A   1      48.684  37.663  30.136  1.00  0.00    -0.744 OA
ENDBRANCH  94  95
ENDBRANCH  68  89
ENDBRANCH  42  43
ENDBRANCH  34  37
ENDBRANCH  32  33
ENDBRANCH  31  32
ENDBRANCH  30  31
ENDBRANCH   1  30
TORSDOF 20
ENDMDL
MODEL 3
REMARK VINA RESULT:     -10.8      1.896      2.958
REMARK SMILES O=C(CSc1ccc(NC(=O)c2cccc3ccccc23)cc1)NCCCCCCNC(=O)c1ccc(-c2c3nc(c(-c4ccc(S(=O)(=O)[O-])cc4)c4ccc([nH]4)c(-c4ccc(S(=O)(=O)[O-])cc4)c4nc(c(-c5ccc(S(=O)(=O)[O-])cc5)c5ccc2[nH]5)C=C4)C=C3)cc1
REMARK SMILES IDX 27 1 26 2 25 3 24 4 1 5 2 6 3 8 4 9 5 10 6 11 23 12 7 13
REMARK SMILES IDX 22 14 8 15 9 16 10 17 11 19 12 20 13 21 21 22 14 23 16 24
REMARK SMILES IDX 20 25 15 26 17 27 19 28 18 29 28 30 29 31 30 32 31 33 32 34
REMARK SMILES IDX 33 36 34 37 35 38 93 39 36 40 92 41 37 42 38 43 39 44 86 45
REMARK SMILES IDX 40 46 91 47 85 48 87 49 41 50 90 51 84 52 83 53 42 55 72 56
REMARK SMILES IDX 53 57 71 58 54 59 57 60 70 61 88 62 55 63 56 64 69 66 89 67
REMARK SMILES IDX 58 68 43 69 44 70 52 71 45 72 51 73 46 74 47 75 48 76 49 77
REMARK SMILES IDX 50 78 73 79 74 80 82 81 75 82 81 83 76 84 77 85 78 86 79 87
REMARK SMILES IDX 80 88 59 89 60 90 68 91 61 92 67 93 62 94 63 95 64 96 65 97
REMARK SMILES IDX 66 98
REMARK H PARENT 24 7 9 18 31 35 87 54 57 65
REMARK Flexibility Score: inf
ROOT
ATOM      1  C   UNL A   1      40.780  26.037  27.311  1.00  0.00     0.002 C 
ENDROOT
BRANCH   1   2
ATOM      2  C   UNL A   1      39.377  25.445  27.489  1.00  0.00     0.021 C 
BRANCH   2   3
ATOM      3  C   UNL A   1      39.294  23.934  27.283  1.00  0.00     0.116 C 
BRANCH   3   4
ATOM      4  N   UNL A   1      38.183  23.553  26.432  1.00  0.00    -0.355 N 
ATOM      5  O   UNL A   1      39.080  21.557  25.746  1.00  0.00    -0.274 OA
ATOM      6  C   UNL A   1      38.160  22.372  25.725  1.00  0.00     0.230 C 
ATOM      7  H   UNL A   1      37.414  24.163  26.358  1.00  0.00     0.163 HD
BRANCH   6   8
ATOM      8  C   UNL A   1      36.965  22.178  24.805  1.00  0.00     0.174 C 
BRANCH   8   9
ATOM      9  S   UNL A   1      35.965  20.704  25.183  1.00  0.00    -0.116 SA
BRANCH   9  10
ATOM     10  C   UNL A   1      34.406  21.360  25.763  1.00  0.00     0.008 A 
ATOM     11  C   UNL A   1      34.174  21.877  27.038  1.00  0.00     0.017 A 
ATOM     12  C   UNL A   1      33.358  21.399  24.834  1.00  0.00     0.017 A 
ATOM     13  C   UNL A   1      32.976  22.534  27.338  1.00  0.00     0.027 A 
ATOM     14  C   UNL A   1      32.162  22.061  25.131  1.00  0.00     0.027 A 
ATOM     15  C   UNL A   1      32.012  22.719  26.353  1.00  0.00     0.041 A 
BRANCH  15  16
ATOM     16  N   UNL A   1      30.934  23.604  26.464  1.00  0.00    -0.322 N 
ATOM     17  C   UNL A   1      30.806  24.954  26.227  1.00  0.00     0.256 C 
ATOM     18  H   UNL A   1      30.102  23.177  26.774  1.00  0.00     0.170 HD
ATOM     19  O   UNL A   1      29.722  25.482  26.492  1.00  0.00    -0.269 OA
BRANCH  17  20
ATOM     20  C   UNL A   1      31.875  25.821  25.670  1.00  0.00     0.048 A 
ATOM     21  C   UNL A   1      32.519  26.619  26.633  1.00  0.00     0.014 A 
ATOM     22  C   UNL A   1      32.207  25.942  24.288  1.00  0.00    -0.006 A 
ATOM     23  C   UNL A   1      33.484  27.543  26.256  1.00  0.00     0.001 A 
ATOM     24  C   UNL A   1      33.199  26.895  23.930  1.00  0.00    -0.018 A 
ATOM     25  C   UNL A   1      31.652  25.173  23.233  1.00  0.00     0.009 A 
ATOM     26  C   UNL A   1      33.807  27.690  24.912  1.00  0.00     0.009 A 
ATOM     27  C   UNL A   1      33.596  27.043  22.592  1.00  0.00     0.009 A 
ATOM     28  C   UNL A   1      32.126  25.267  21.922  1.00  0.00     0.001 A 
ATOM     29  C   UNL A   1      33.088  26.212  21.599  1.00  0.00     0.001 A 
ENDBRANCH  17  20
ENDBRANCH  15  16
ENDBRANCH   9  10
ENDBRANCH   8   9
ENDBRANCH   6   8
ENDBRANCH   3   4
ENDBRANCH   2   3
ENDBRANCH   1   2
BRANCH   1  30
ATOM     30  C   UNL A   1      41.238  26.219  25.861  1.00  0.00     0.002 C 
BRANCH  30  31
ATOM     31  C   UNL A   1      42.268  25.203  25.364  1.00  0.00     0.021 C 
BRANCH  31  32
ATOM     32  C   UNL A   1      43.697  25.727  25.254  1.00  0.00     0.116 C 
BRANCH  32  33
ATOM     33  N   UNL A   1      44.657  24.878  25.943  1.00  0.00    -0.352 N 
ATOM     34  C   UNL A   1      45.161  24.984  27.217  1.00  0.00     0.251 C 
ATOM     35  H   UNL A   1      44.993  24.115  25.420  1.00  0.00     0.163 HD
ATOM     36  O   UNL A   1      46.089  24.267  27.569  1.00  0.00    -0.269 OA
BRANCH  34  37
ATOM     37  C   UNL A   1      44.597  25.984  28.151  1.00  0.00     0.039 A 
ATOM     38  C   UNL A   1      43.742  25.551  29.168  1.00  0.00     0.014 A 
ATOM     39  C   UNL A   1      44.910  27.340  28.028  1.00  0.00     0.014 A 
ATOM     40  C   UNL A   1      43.259  26.470  30.103  1.00  0.00     0.010 A 
ATOM     41  C   UNL A   1      44.490  28.240  29.005  1.00  0.00     0.010 A 
ATOM     42  C   UNL A   1      43.662  27.815  30.054  1.00  0.00    -0.014 A 
BRANCH  42  43
ATOM     43  C   UNL A   1      43.241  28.785  31.098  1.00  0.00     0.031 A 
ATOM     44  C   UNL A   1      44.050  28.945  32.358  1.00  0.00     0.074 A 
ATOM     45  C   UNL A   1      42.095  29.478  30.940  1.00  0.00     0.049 A 
ATOM     46  N   UNL A   1      43.808  29.696  33.402  1.00  0.00    -0.248 NA
ATOM     47  C   UNL A   1      45.278  28.142  32.467  1.00  0.00     0.031 C 
ATOM     48  C   UNL A   1      41.204  29.388  29.780  1.00  0.00     0.029 A 
ATOM     49  N   UNL A   1      41.479  30.391  31.759  1.00  0.00    -0.354 N 
ATOM     50  C   UNL A   1      44.843  29.447  34.295  1.00  0.00     0.074 A 
ATOM     51  C   UNL A   1      45.686  28.437  33.694  1.00  0.00     0.031 C 
ATOM     52  C   UNL A   1      40.174  30.233  29.949  1.00  0.00     0.029 A 
ATOM     53  C   UNL A   1      40.302  30.888  31.247  1.00  0.00     0.049 A 
ATOM     54  H   UNL A   1      41.844  30.664  32.631  1.00  0.00     0.167 HD
ATOM     55  C   UNL A   1      45.082  30.020  35.500  1.00  0.00     0.031 A 
ATOM     56  C   UNL A   1      39.419  31.763  31.765  1.00  0.00     0.031 A 
ATOM     57  C   UNL A   1      44.240  31.026  36.094  1.00  0.00     0.049 A 
ATOM     58  C   UNL A   1      39.688  32.360  33.120  1.00  0.00     0.074 A 
ATOM     59  C   UNL A   1      44.422  31.701  37.288  1.00  0.00     0.029 A 
ATOM     60  N   UNL A   1      43.056  31.496  35.547  1.00  0.00    -0.354 N 
ATOM     61  N   UNL A   1      40.706  32.158  33.922  1.00  0.00    -0.248 NA
ATOM     62  C   UNL A   1      38.693  33.310  33.636  1.00  0.00     0.031 C 
ATOM     63  C   UNL A   1      43.318  32.533  37.493  1.00  0.00     0.029 A 
ATOM     64  C   UNL A   1      42.482  32.431  36.392  1.00  0.00     0.049 A 
ATOM     65  H   UNL A   1      42.679  31.207  34.684  1.00  0.00     0.167 HD
ATOM     66  C   UNL A   1      40.490  32.980  35.023  1.00  0.00     0.074 A 
ATOM     67  C   UNL A   1      39.253  33.692  34.777  1.00  0.00     0.031 C 
ATOM     68  C   UNL A   1      41.249  33.133  36.136  1.00  0.00     0.031 A 
BRANCH  55  69
ATOM     69  C   UNL A   1      46.300  29.566  36.263  1.00  0.00    -0.014 A 
ATOM     70  C   UNL A   1      47.539  30.212  36.106  1.00  0.00     0.010 A 
ATOM     71  C   UNL A   1      46.193  28.511  37.188  1.00  0.00     0.010 A 
ATOM     72  C   UNL A   1      48.658  29.786  36.828  1.00  0.00     0.020 A 
ATOM     73  C   UNL A   1      47.301  28.102  37.936  1.00  0.00     0.020 A 
ATOM     74  C   UNL A   1      48.531  28.734  37.739  1.00  0.00     0.054 A 
BRANCH  74  75
ATOM     75  S   UNL A   1      49.993  28.223  38.684  1.00  0.00     0.124 S 
ATOM     76  O   UNL A   1      50.557  27.184  37.825  1.00  0.00    -0.237 OA
ATOM     77  O   UNL A   1      50.768  29.458  38.765  1.00  0.00    -0.237 OA
ATOM     78  O   UNL A   1      49.442  27.751  39.951  1.00  0.00    -0.744 OA
ENDBRANCH  74  75
ENDBRANCH  55  69
BRANCH  56  79
ATOM     79  C   UNL A   1      38.199  32.135  30.996  1.00  0.00    -0.014 A 
ATOM     80  C   UNL A   1      38.226  33.209  30.087  1.00  0.00     0.010 A 
ATOM     81  C   UNL A   1      37.002  31.413  31.163  1.00  0.00     0.010 A 
ATOM     82  C   UNL A   1      37.076  33.565  29.376  1.00  0.00     0.020 A 
ATOM     83  C   UNL A   1      35.860  31.748  30.430  1.00  0.00     0.020 A 
ATOM     84  C   UNL A   1      35.901  32.830  29.550  1.00  0.00     0.054 A 
BRANCH  84  85
ATOM     85  S   UNL A   1      34.436  33.284  28.581  1.00  0.00     0.124 S 
ATOM     86  O   UNL A   1      33.962  31.982  28.122  1.00  0.00    -0.237 OA
ATOM     87  O   UNL A   1      33.597  33.951  29.573  1.00  0.00    -0.237 OA
ATOM     88  O   UNL A   1      34.972  34.158  27.540  1.00  0.00    -0.744 OA
ENDBRANCH  84  85
ENDBRANCH  56  79
BRANCH  68  89
ATOM     89  C   UNL A   1      40.788  34.136  37.162  1.00  0.00    -0.014 A 
ATOM     90  C   UNL A   1      41.207  35.477  37.116  1.00  0.00     0.010 A 
ATOM     91  C   UNL A   1      39.868  33.740  38.151  1.00  0.00     0.010 A 
ATOM     92  C   UNL A   1      40.738  36.396  38.059  1.00  0.00     0.020 A 
ATOM     93  C   UNL A   1      39.371  34.662  39.074  1.00  0.00     0.020 A 
ATOM     94  C   UNL A   1      39.820  35.983  39.030  1.00  0.00     0.054 A 
BRANCH  94  95
ATOM     95  S   UNL A   1      39.189  37.208  40.209  1.00  0.00     0.124 S 
ATOM     96  O   UNL A   1      40.419  37.717  40.809  1.00  0.00    -0.237 OA
ATOM     97  O   UNL A   1      38.476  38.144  39.345  1.00  0.00    -0.237 OA
ATOM     98  O   UNL A   1      38.339  36.424  41.103  1.00  0.00    -0.744 OA
ENDBRANCH  94  95
ENDBRANCH  68  89
ENDBRANCH  42  43
ENDBRANCH  34  37
ENDBRANCH  32  33
ENDBRANCH  31  32
ENDBRANCH  30  31
ENDBRANCH   1  30
TORSDOF 20
ENDMDL
