MODEL 1
REMARK VINA RESULT:     -10.8      0.000      0.000
REMARK SMILES C[C@@H](C(=O)NCCCCCCNC(=O)c1ccc(-c2c3nc(c(-c4ccc(S(=O)(=O)[O-])cc4)c4ccc([nH]4)c(-c4ccc(S(=O)(=O)[O-])cc4)c4nc(c(-c5ccc(S(=O)(=O)[O-])cc5)c5ccc2[nH]5)C=C4)C=C3)cc1)c1ccc(C[C@H]2CCC[C@H]2O)cc1
REMARK SMILES IDX 8 1 7 2 6 3 5 4 3 5 4 6 2 8 1 9 75 10 76 11 87 12 77 13
REMARK SMILES IDX 86 14 78 15 79 16 80 17 81 18 84 19 82 20 83 21 85 22 9 24
REMARK SMILES IDX 10 25 11 26 12 27 13 28 14 30 15 31 16 32 74 33 17 34 73 35
REMARK SMILES IDX 18 36 19 37 20 38 67 39 21 40 72 41 66 42 68 43 22 44 71 45
REMARK SMILES IDX 65 46 64 47 23 49 53 50 34 51 52 52 35 53 38 54 51 55 69 56
REMARK SMILES IDX 36 57 37 58 50 60 70 61 39 62 24 63 25 64 33 65 26 66 32 67
REMARK SMILES IDX 27 68 28 69 29 70 30 71 31 72 54 73 55 74 63 75 56 76 62 77
REMARK SMILES IDX 57 78 58 79 59 80 60 81 61 82 40 83 41 84 49 85 42 86 48 87
REMARK SMILES IDX 43 88 44 89 45 90 46 91 47 92
REMARK H PARENT 5 7 85 23 12 29 68 48 38 59
REMARK Flexibility Score: inf
ROOT
ATOM      1  C   UNL A   1      33.680  25.409  25.919  1.00  0.00     0.002 C 
ENDROOT
BRANCH   1   2
ATOM      2  C   UNL A   1      33.563  26.939  25.941  1.00  0.00     0.021 C 
BRANCH   2   3
ATOM      3  C   UNL A   1      32.632  27.499  24.861  1.00  0.00     0.116 C 
BRANCH   3   4
ATOM      4  N   UNL A   1      33.331  27.582  23.597  1.00  0.00    -0.356 N 
ATOM      5  C   UNL A   1      33.026  27.012  22.395  1.00  0.00     0.227 C 
ATOM      6  O   UNL A   1      33.887  27.089  21.514  1.00  0.00    -0.274 OA
ATOM      7  H   UNL A   1      34.148  28.131  23.605  1.00  0.00     0.163 HD
BRANCH   5   8
ATOM      8  C   UNL A   1      31.640  26.364  22.177  1.00  0.00     0.105 C 
ATOM      9  C   UNL A   1      30.510  27.274  22.678  1.00  0.00     0.023 C 
BRANCH   8  10
ATOM     10  C   UNL A   1      31.592  24.973  22.811  1.00  0.00    -0.036 A 
ATOM     11  C   UNL A   1      30.790  24.692  23.923  1.00  0.00     0.005 A 
ATOM     12  C   UNL A   1      32.434  23.958  22.327  1.00  0.00     0.005 A 
ATOM     13  C   UNL A   1      30.858  23.459  24.561  1.00  0.00     0.004 A 
ATOM     14  C   UNL A   1      32.539  22.738  23.002  1.00  0.00     0.004 A 
ATOM     15  C   UNL A   1      31.792  22.502  24.161  1.00  0.00    -0.048 A 
BRANCH  15  16
ATOM     16  C   UNL A   1      32.031  21.292  25.023  1.00  0.00     0.041 C 
BRANCH  16  17
ATOM     17  C   UNL A   1      33.104  20.295  24.541  1.00  0.00     0.022 C 
ATOM     18  C   UNL A   1      34.565  20.723  24.766  1.00  0.00     0.007 C 
ATOM     19  C   UNL A   1      33.054  18.836  25.030  1.00  0.00     0.117 C 
ATOM     20  C   UNL A   1      35.374  19.428  24.885  1.00  0.00     0.003 C 
ATOM     21  C   UNL A   1      34.404  18.292  24.572  1.00  0.00     0.032 C 
BRANCH  19  22
ATOM     22  O   UNL A   1      32.970  18.656  26.432  1.00  0.00    -0.393 OA
ATOM     23  H   UNL A   1      32.416  17.884  26.626  1.00  0.00     0.210 HD
ENDBRANCH  19  22
ENDBRANCH  16  17
ENDBRANCH  15  16
ENDBRANCH   8  10
ENDBRANCH   5   8
ENDBRANCH   3   4
ENDBRANCH   2   3
ENDBRANCH   1   2
BRANCH   1  24
ATOM     24  C   UNL A   1      34.774  24.864  24.994  1.00  0.00     0.002 C 
BRANCH  24  25
ATOM     25  C   UNL A   1      35.843  24.025  25.697  1.00  0.00     0.021 C 
BRANCH  25  26
ATOM     26  C   UNL A   1      37.066  23.727  24.836  1.00  0.00     0.116 C 
BRANCH  26  27
ATOM     27  N   UNL A   1      37.882  22.669  25.409  1.00  0.00    -0.352 N 
ATOM     28  C   UNL A   1      38.991  22.769  26.214  1.00  0.00     0.251 C 
ATOM     29  H   UNL A   1      37.601  21.752  25.189  1.00  0.00     0.163 HD
ATOM     30  O   UNL A   1      39.692  21.787  26.419  1.00  0.00    -0.269 OA
BRANCH  28  31
ATOM     31  C   UNL A   1      39.338  24.075  26.816  1.00  0.00     0.039 A 
ATOM     32  C   UNL A   1      38.921  24.354  28.119  1.00  0.00     0.014 A 
ATOM     33  C   UNL A   1      40.074  25.019  26.094  1.00  0.00     0.014 A 
ATOM     34  C   UNL A   1      39.294  25.558  28.718  1.00  0.00     0.010 A 
ATOM     35  C   UNL A   1      40.510  26.182  26.719  1.00  0.00     0.010 A 
ATOM     36  C   UNL A   1      40.120  26.468  28.037  1.00  0.00    -0.014 A 
BRANCH  36  37
ATOM     37  C   UNL A   1      40.589  27.719  28.685  1.00  0.00     0.031 A 
ATOM     38  C   UNL A   1      41.983  27.805  29.243  1.00  0.00     0.074 A 
ATOM     39  C   UNL A   1      39.740  28.758  28.819  1.00  0.00     0.049 A 
ATOM     40  N   UNL A   1      42.553  28.792  29.888  1.00  0.00    -0.248 NA
ATOM     41  C   UNL A   1      42.844  26.623  29.077  1.00  0.00     0.031 C 
ATOM     42  C   UNL A   1      38.353  28.786  28.347  1.00  0.00     0.029 A 
ATOM     43  N   UNL A   1      39.918  29.992  29.393  1.00  0.00    -0.354 N 
ATOM     44  C   UNL A   1      43.829  28.347  30.210  1.00  0.00     0.074 A 
ATOM     45  C   UNL A   1      43.932  26.982  29.742  1.00  0.00     0.031 C 
ATOM     46  C   UNL A   1      37.820  29.987  28.620  1.00  0.00     0.029 A 
ATOM     47  C   UNL A   1      38.806  30.797  29.328  1.00  0.00     0.049 A 
ATOM     48  H   UNL A   1      40.763  30.273  29.813  1.00  0.00     0.167 HD
ATOM     49  C   UNL A   1      44.834  29.020  30.820  1.00  0.00     0.031 A 
ATOM     50  C   UNL A   1      38.598  32.045  29.791  1.00  0.00     0.031 A 
ATOM     51  C   UNL A   1      44.728  30.379  31.283  1.00  0.00     0.049 A 
ATOM     52  C   UNL A   1      39.719  32.759  30.498  1.00  0.00     0.074 A 
ATOM     53  C   UNL A   1      45.703  31.162  31.877  1.00  0.00     0.029 A 
ATOM     54  N   UNL A   1      43.582  31.155  31.208  1.00  0.00    -0.354 N 
ATOM     55  N   UNL A   1      40.937  32.340  30.744  1.00  0.00    -0.248 NA
ATOM     56  C   UNL A   1      39.438  34.119  30.980  1.00  0.00     0.031 C 
ATOM     57  C   UNL A   1      45.128  32.391  32.215  1.00  0.00     0.029 A 
ATOM     58  C   UNL A   1      43.815  32.400  31.768  1.00  0.00     0.049 A 
ATOM     59  H   UNL A   1      42.728  30.865  30.814  1.00  0.00     0.167 HD
ATOM     60  C   UNL A   1      41.578  33.397  31.382  1.00  0.00     0.074 A 
ATOM     61  C   UNL A   1      40.618  34.478  31.470  1.00  0.00     0.031 C 
ATOM     62  C   UNL A   1      42.849  33.466  31.849  1.00  0.00     0.031 A 
BRANCH  49  63
ATOM     63  C   UNL A   1      46.138  28.290  31.028  1.00  0.00    -0.014 A 
ATOM     64  C   UNL A   1      46.366  27.526  32.187  1.00  0.00     0.010 A 
ATOM     65  C   UNL A   1      47.130  28.332  30.031  1.00  0.00     0.010 A 
ATOM     66  C   UNL A   1      47.577  26.853  32.365  1.00  0.00     0.020 A 
ATOM     67  C   UNL A   1      48.331  27.633  30.191  1.00  0.00     0.020 A 
ATOM     68  C   UNL A   1      48.552  26.912  31.365  1.00  0.00     0.054 A 
BRANCH  68  69
ATOM     69  S   UNL A   1      50.103  26.005  31.614  1.00  0.00     0.124 S 
ATOM     70  O   UNL A   1      50.210  25.245  30.370  1.00  0.00    -0.237 OA
ATOM     71  O   UNL A   1      51.079  27.080  31.779  1.00  0.00    -0.237 OA
ATOM     72  O   UNL A   1      49.852  25.206  32.810  1.00  0.00    -0.744 OA
ENDBRANCH  68  69
ENDBRANCH  49  63
BRANCH  50  73
ATOM     73  C   UNL A   1      37.280  32.707  29.586  1.00  0.00    -0.014 A 
ATOM     74  C   UNL A   1      36.326  32.734  30.619  1.00  0.00     0.010 A 
ATOM     75  C   UNL A   1      36.974  33.322  28.358  1.00  0.00     0.010 A 
ATOM     76  C   UNL A   1      35.085  33.348  30.423  1.00  0.00     0.020 A 
ATOM     77  C   UNL A   1      35.747  33.963  28.168  1.00  0.00     0.020 A 
ATOM     78  C   UNL A   1      34.805  33.962  29.199  1.00  0.00     0.054 A 
BRANCH  78  79
ATOM     79  S   UNL A   1      33.208  34.796  28.985  1.00  0.00     0.124 S 
ATOM     80  O   UNL A   1      33.616  36.124  28.541  1.00  0.00    -0.237 OA
ATOM     81  O   UNL A   1      32.551  33.964  27.980  1.00  0.00    -0.237 OA
ATOM     82  O   UNL A   1      32.610  34.737  30.318  1.00  0.00    -0.744 OA
ENDBRANCH  78  79
ENDBRANCH  50  73
BRANCH  62  83
ATOM     83  C   UNL A   1      43.293  34.768  32.465  1.00  0.00    -0.014 A 
ATOM     84  C   UNL A   1      43.900  35.775  31.693  1.00  0.00     0.010 A 
ATOM     85  C   UNL A   1      43.045  35.008  33.830  1.00  0.00     0.010 A 
ATOM     86  C   UNL A   1      44.279  36.984  32.282  1.00  0.00     0.020 A 
ATOM     87  C   UNL A   1      43.393  36.228  34.415  1.00  0.00     0.020 A 
ATOM     88  C   UNL A   1      44.020  37.204  33.639  1.00  0.00     0.054 A 
BRANCH  88  89
ATOM     89  S   UNL A   1      44.479  38.801  34.367  1.00  0.00     0.124 S 
ATOM     90  O   UNL A   1      45.704  39.124  33.642  1.00  0.00    -0.237 OA
ATOM     91  O   UNL A   1      43.324  39.638  34.054  1.00  0.00    -0.237 OA
ATOM     92  O   UNL A   1      44.656  38.497  35.786  1.00  0.00    -0.744 OA
ENDBRANCH  88  89
ENDBRANCH  62  83
ENDBRANCH  36  37
ENDBRANCH  28  31
ENDBRANCH  26  27
ENDBRANCH  25  26
ENDBRANCH  24  25
ENDBRANCH   1  24
TORSDOF 20
ENDMDL
MODEL 2
REMARK VINA RESULT:     -10.4      1.806      2.294
REMARK SMILES C[C@@H](C(=O)NCCCCCCNC(=O)c1ccc(-c2c3nc(c(-c4ccc(S(=O)(=O)[O-])cc4)c4ccc([nH]4)c(-c4ccc(S(=O)(=O)[O-])cc4)c4nc(c(-c5ccc(S(=O)(=O)[O-])cc5)c5ccc2[nH]5)C=C4)C=C3)cc1)c1ccc(C[C@H]2CCC[C@H]2O)cc1
REMARK SMILES IDX 8 1 7 2 6 3 5 4 3 5 4 6 2 8 1 9 75 10 76 11 87 12 77 13
REMARK SMILES IDX 86 14 78 15 79 16 80 17 81 18 84 19 82 20 83 21 85 22 9 24
REMARK SMILES IDX 10 25 11 26 12 27 13 28 14 30 15 31 16 32 74 33 17 34 73 35
REMARK SMILES IDX 18 36 19 37 20 38 67 39 21 40 72 41 66 42 68 43 22 44 71 45
REMARK SMILES IDX 65 46 64 47 23 49 53 50 34 51 52 52 35 53 38 54 51 55 69 56
REMARK SMILES IDX 36 57 37 58 50 60 70 61 39 62 24 63 25 64 33 65 26 66 32 67
REMARK SMILES IDX 27 68 28 69 29 70 30 71 31 72 54 73 55 74 63 75 56 76 62 77
REMARK SMILES IDX 57 78 58 79 59 80 60 81 61 82 40 83 41 84 49 85 42 86 48 87
REMARK SMILES IDX 43 88 44 89 45 90 46 91 47 92
REMARK H PARENT 5 7 85 23 12 29 68 48 38 59
REMARK Flexibility Score: inf
ROOT
ATOM      1  C   UNL A   1      33.689  25.286  26.030  1.00  0.00     0.002 C 
ENDROOT
BRANCH   1   2
ATOM      2  C   UNL A   1      33.357  26.778  25.884  1.00  0.00     0.021 C 
BRANCH   2   3
ATOM      3  C   UNL A   1      31.952  27.042  25.335  1.00  0.00     0.116 C 
BRANCH   3   4
ATOM      4  N   UNL A   1      31.974  27.032  23.888  1.00  0.00    -0.356 N 
ATOM      5  C   UNL A   1      31.454  26.118  23.017  1.00  0.00     0.227 C 
ATOM      6  O   UNL A   1      31.769  26.247  21.831  1.00  0.00    -0.274 OA
ATOM      7  H   UNL A   1      32.431  27.796  23.470  1.00  0.00     0.163 HD
BRANCH   5   8
ATOM      8  C   UNL A   1      30.483  25.031  23.526  1.00  0.00     0.105 C 
ATOM      9  C   UNL A   1      29.669  25.524  24.730  1.00  0.00     0.023 C 
BRANCH   8  10
ATOM     10  C   UNL A   1      31.237  23.734  23.825  1.00  0.00    -0.036 A 
ATOM     11  C   UNL A   1      31.132  23.082  25.060  1.00  0.00     0.005 A 
ATOM     12  C   UNL A   1      32.132  23.213  22.876  1.00  0.00     0.005 A 
ATOM     13  C   UNL A   1      31.923  21.979  25.356  1.00  0.00     0.004 A 
ATOM     14  C   UNL A   1      32.964  22.136  23.195  1.00  0.00     0.004 A 
ATOM     15  C   UNL A   1      32.905  21.547  24.463  1.00  0.00    -0.048 A 
BRANCH  15  16
ATOM     16  C   UNL A   1      33.920  20.530  24.909  1.00  0.00     0.041 C 
BRANCH  16  17
ATOM     17  C   UNL A   1      33.688  19.073  24.462  1.00  0.00     0.022 C 
ATOM     18  C   UNL A   1      34.924  18.158  24.494  1.00  0.00     0.007 C 
ATOM     19  C   UNL A   1      32.581  18.242  25.137  1.00  0.00     0.117 C 
ATOM     20  C   UNL A   1      34.396  16.735  24.703  1.00  0.00     0.003 C 
ATOM     21  C   UNL A   1      32.874  16.834  24.630  1.00  0.00     0.032 C 
BRANCH  19  22
ATOM     22  O   UNL A   1      32.611  18.206  26.552  1.00  0.00    -0.393 OA
ATOM     23  H   UNL A   1      32.202  17.383  26.863  1.00  0.00     0.210 HD
ENDBRANCH  19  22
ENDBRANCH  16  17
ENDBRANCH  15  16
ENDBRANCH   8  10
ENDBRANCH   5   8
ENDBRANCH   3   4
ENDBRANCH   2   3
ENDBRANCH   1   2
BRANCH   1  24
ATOM     24  C   UNL A   1      34.779  24.777  25.080  1.00  0.00     0.002 C 
BRANCH  24  25
ATOM     25  C   UNL A   1      35.705  23.719  25.681  1.00  0.00     0.021 C 
BRANCH  25  26
ATOM     26  C   UNL A   1      37.070  23.629  25.007  1.00  0.00     0.116 C 
BRANCH  26  27
ATOM     27  N   UNL A   1      37.870  22.544  25.553  1.00  0.00    -0.352 N 
ATOM     28  C   UNL A   1      39.066  22.604  26.225  1.00  0.00     0.251 C 
ATOM     29  H   UNL A   1      37.502  21.641  25.422  1.00  0.00     0.163 HD
ATOM     30  O   UNL A   1      39.716  21.583  26.414  1.00  0.00    -0.269 OA
BRANCH  28  31
ATOM     31  C   UNL A   1      39.569  23.910  26.704  1.00  0.00     0.039 A 
ATOM     32  C   UNL A   1      39.546  24.186  28.072  1.00  0.00     0.014 A 
ATOM     33  C   UNL A   1      40.061  24.858  25.802  1.00  0.00     0.014 A 
ATOM     34  C   UNL A   1      40.073  25.390  28.541  1.00  0.00     0.010 A 
ATOM     35  C   UNL A   1      40.656  26.021  26.277  1.00  0.00     0.010 A 
ATOM     36  C   UNL A   1      40.664  26.304  27.651  1.00  0.00    -0.014 A 
BRANCH  36  37
ATOM     37  C   UNL A   1      41.296  27.556  28.139  1.00  0.00     0.031 A 
ATOM     38  C   UNL A   1      42.794  27.699  28.133  1.00  0.00     0.074 A 
ATOM     39  C   UNL A   1      40.524  28.541  28.639  1.00  0.00     0.049 A 
ATOM     40  N   UNL A   1      43.528  28.693  28.565  1.00  0.00    -0.248 NA
ATOM     41  C   UNL A   1      43.570  26.572  27.592  1.00  0.00     0.031 C 
ATOM     42  C   UNL A   1      39.062  28.510  28.728  1.00  0.00     0.029 A 
ATOM     43  N   UNL A   1      40.860  29.763  29.166  1.00  0.00    -0.354 N 
ATOM     44  C   UNL A   1      44.847  28.307  28.357  1.00  0.00     0.074 A 
ATOM     45  C   UNL A   1      44.815  26.967  27.814  1.00  0.00     0.031 C 
ATOM     46  C   UNL A   1      38.627  29.670  29.245  1.00  0.00     0.029 A 
ATOM     47  C   UNL A   1      39.778  30.508  29.569  1.00  0.00     0.049 A 
ATOM     48  H   UNL A   1      41.790  30.076  29.250  1.00  0.00     0.167 HD
ATOM     49  C   UNL A   1      45.982  29.013  28.576  1.00  0.00     0.031 A 
ATOM     50  C   UNL A   1      39.714  31.726  30.141  1.00  0.00     0.031 A 
ATOM     51  C   UNL A   1      46.009  30.347  29.116  1.00  0.00     0.049 A 
ATOM     52  C   UNL A   1      40.992  32.476  30.409  1.00  0.00     0.074 A 
ATOM     53  C   UNL A   1      47.106  31.162  29.338  1.00  0.00     0.029 A 
ATOM     54  N   UNL A   1      44.892  31.062  29.520  1.00  0.00    -0.354 N 
ATOM     55  N   UNL A   1      42.227  32.116  30.153  1.00  0.00    -0.248 NA
ATOM     56  C   UNL A   1      40.864  33.801  31.031  1.00  0.00     0.031 C 
ATOM     57  C   UNL A   1      46.657  32.346  29.932  1.00  0.00     0.029 A 
ATOM     58  C   UNL A   1      45.274  32.298  30.015  1.00  0.00     0.049 A 
ATOM     59  H   UNL A   1      43.964  30.739  29.463  1.00  0.00     0.167 HD
ATOM     60  C   UNL A   1      43.022  33.184  30.556  1.00  0.00     0.074 A 
ATOM     61  C   UNL A   1      42.127  34.207  31.057  1.00  0.00     0.031 C 
ATOM     62  C   UNL A   1      44.372  33.306  30.511  1.00  0.00     0.031 A 
BRANCH  49  63
ATOM     63  C   UNL A   1      47.293  28.349  28.237  1.00  0.00    -0.014 A 
ATOM     64  C   UNL A   1      48.000  27.603  29.199  1.00  0.00     0.010 A 
ATOM     65  C   UNL A   1      47.803  28.433  26.929  1.00  0.00     0.010 A 
ATOM     66  C   UNL A   1      49.212  26.992  28.870  1.00  0.00     0.020 A 
ATOM     67  C   UNL A   1      49.000  27.795  26.587  1.00  0.00     0.020 A 
ATOM     68  C   UNL A   1      49.704  27.092  27.566  1.00  0.00     0.054 A 
BRANCH  68  69
ATOM     69  S   UNL A   1      51.267  26.263  27.163  1.00  0.00     0.124 S 
ATOM     70  O   UNL A   1      50.860  24.861  27.114  1.00  0.00    -0.237 OA
ATOM     71  O   UNL A   1      51.623  26.860  25.878  1.00  0.00    -0.237 OA
ATOM     72  O   UNL A   1      52.145  26.617  28.275  1.00  0.00    -0.744 OA
ENDBRANCH  68  69
ENDBRANCH  49  63
BRANCH  50  73
ATOM     73  C   UNL A   1      38.393  32.321  30.484  1.00  0.00    -0.014 A 
ATOM     74  C   UNL A   1      37.820  32.106  31.750  1.00  0.00     0.010 A 
ATOM     75  C   UNL A   1      37.704  33.116  29.549  1.00  0.00     0.010 A 
ATOM     76  C   UNL A   1      36.575  32.657  32.069  1.00  0.00     0.020 A 
ATOM     77  C   UNL A   1      36.474  33.694  29.875  1.00  0.00     0.020 A 
ATOM     78  C   UNL A   1      35.912  33.452  31.130  1.00  0.00     0.054 A 
BRANCH  78  79
ATOM     79  S   UNL A   1      34.322  34.198  31.584  1.00  0.00     0.124 S 
ATOM     80  O   UNL A   1      34.742  35.440  32.225  1.00  0.00    -0.237 OA
ATOM     81  O   UNL A   1      33.662  34.344  30.290  1.00  0.00    -0.237 OA
ATOM     82  O   UNL A   1      33.720  33.207  32.474  1.00  0.00    -0.744 OA
ENDBRANCH  78  79
ENDBRANCH  50  73
BRANCH  62  83
ATOM     83  C   UNL A   1      44.967  34.608  30.981  1.00  0.00    -0.014 A 
ATOM     84  C   UNL A   1      45.115  35.704  30.110  1.00  0.00     0.010 A 
ATOM     85  C   UNL A   1      45.332  34.754  32.333  1.00  0.00     0.010 A 
ATOM     86  C   UNL A   1      45.645  36.909  30.577  1.00  0.00     0.020 A 
ATOM     87  C   UNL A   1      45.832  35.969  32.810  1.00  0.00     0.020 A 
ATOM     88  C   UNL A   1      45.998  37.035  31.924  1.00  0.00     0.054 A 
BRANCH  88  89
ATOM     89  S   UNL A   1      46.640  38.626  32.514  1.00  0.00     0.124 S 
ATOM     90  O   UNL A   1      47.587  38.209  33.543  1.00  0.00    -0.237 OA
ATOM     91  O   UNL A   1      47.233  39.197  31.307  1.00  0.00    -0.237 OA
ATOM     92  O   UNL A   1      45.450  39.320  33.004  1.00  0.00    -0.744 OA
ENDBRANCH  88  89
ENDBRANCH  62  83
ENDBRANCH  36  37
ENDBRANCH  28  31
ENDBRANCH  26  27
ENDBRANCH  25  26
ENDBRANCH  24  25
ENDBRANCH   1  24
TORSDOF 20
ENDMDL
MODEL 3
REMARK VINA RESULT:     -10.2      2.154      8.332
REMARK SMILES C[C@@H](C(=O)NCCCCCCNC(=O)c1ccc(-c2c3nc(c(-c4ccc(S(=O)(=O)[O-])cc4)c4ccc([nH]4)c(-c4ccc(S(=O)(=O)[O-])cc4)c4nc(c(-c5ccc(S(=O)(=O)[O-])cc5)c5ccc2[nH]5)C=C4)C=C3)cc1)c1ccc(C[C@H]2CCC[C@H]2O)cc1
REMARK SMILES IDX 8 1 7 2 6 3 5 4 3 5 4 6 2 8 1 9 75 10 76 11 87 12 77 13
REMARK SMILES IDX 86 14 78 15 79 16 80 17 81 18 84 19 82 20 83 21 85 22 9 24
REMARK SMILES IDX 10 25 11 26 12 27 13 28 14 30 15 31 16 32 74 33 17 34 73 35
REMARK SMILES IDX 18 36 19 37 20 38 67 39 21 40 72 41 66 42 68 43 22 44 71 45
REMARK SMILES IDX 65 46 64 47 23 49 53 50 34 51 52 52 35 53 38 54 51 55 69 56
REMARK SMILES IDX 36 57 37 58 50 60 70 61 39 62 24 63 25 64 33 65 26 66 32 67
REMARK SMILES IDX 27 68 28 69 29 70 30 71 31 72 54 73 55 74 63 75 56 76 62 77
REMARK SMILES IDX 57 78 58 79 59 80 60 81 61 82 40 83 41 84 49 85 42 86 48 87
REMARK SMILES IDX 43 88 44 89 45 90 46 91 47 92
REMARK H PARENT 5 7 85 23 12 29 68 48 38 59
REMARK Flexibility Score: inf
ROOT
ATOM      1  C   UNL A   1      33.729  24.769  26.073  1.00  0.00     0.002 C 
ENDROOT
BRANCH   1   2
ATOM      2  C   UNL A   1      34.443  25.688  25.072  1.00  0.00     0.021 C 
BRANCH   2   3
ATOM      3  C   UNL A   1      33.544  26.786  24.497  1.00  0.00     0.116 C 
BRANCH   3   4
ATOM      4  N   UNL A   1      33.721  26.873  23.063  1.00  0.00    -0.356 N 
ATOM      5  C   UNL A   1      32.961  26.343  22.060  1.00  0.00     0.227 C 
ATOM      6  O   UNL A   1      33.431  26.407  20.921  1.00  0.00    -0.274 OA
ATOM      7  H   UNL A   1      34.504  27.389  22.768  1.00  0.00     0.163 HD
BRANCH   5   8
ATOM      8  C   UNL A   1      31.569  25.753  22.374  1.00  0.00     0.105 C 
ATOM      9  C   UNL A   1      30.769  26.671  23.309  1.00  0.00     0.023 C 
BRANCH   8  10
ATOM     10  C   UNL A   1      31.698  24.331  22.924  1.00  0.00    -0.036 A 
ATOM     11  C   UNL A   1      30.984  23.904  24.050  1.00  0.00     0.005 A 
ATOM     12  C   UNL A   1      32.619  23.442  22.346  1.00  0.00     0.005 A 
ATOM     13  C   UNL A   1      31.213  22.652  24.609  1.00  0.00     0.004 A 
ATOM     14  C   UNL A   1      32.885  22.206  22.941  1.00  0.00     0.004 A 
ATOM     15  C   UNL A   1      32.223  21.826  24.114  1.00  0.00    -0.048 A 
BRANCH  15  16
ATOM     16  C   UNL A   1      32.630  20.603  24.890  1.00  0.00     0.041 C 
BRANCH  16  17
ATOM     17  C   UNL A   1      33.307  19.468  24.096  1.00  0.00     0.022 C 
ATOM     18  C   UNL A   1      34.603  18.906  24.706  1.00  0.00     0.007 C 
ATOM     19  C   UNL A   1      32.490  18.219  23.717  1.00  0.00     0.117 C 
ATOM     20  C   UNL A   1      34.709  17.457  24.220  1.00  0.00     0.003 C 
ATOM     21  C   UNL A   1      33.569  17.261  23.223  1.00  0.00     0.032 C 
BRANCH  19  22
ATOM     22  O   UNL A   1      31.804  17.583  24.780  1.00  0.00    -0.393 OA
ATOM     23  H   UNL A   1      31.564  16.681  24.516  1.00  0.00     0.210 HD
ENDBRANCH  19  22
ENDBRANCH  16  17
ENDBRANCH  15  16
ENDBRANCH   8  10
ENDBRANCH   5   8
ENDBRANCH   3   4
ENDBRANCH   2   3
ENDBRANCH   1   2
BRANCH   1  24
ATOM     24  C   UNL A   1      34.501  23.496  26.436  1.00  0.00     0.002 C 
BRANCH  24  25
ATOM     25  C   UNL A   1      35.685  23.185  25.520  1.00  0.00     0.021 C 
BRANCH  25  26
ATOM     26  C   UNL A   1      37.048  23.456  26.148  1.00  0.00     0.116 C 
BRANCH  26  27
ATOM     27  N   UNL A   1      37.861  22.252  26.209  1.00  0.00    -0.352 N 
ATOM     28  C   UNL A   1      39.218  22.131  26.379  1.00  0.00     0.251 C 
ATOM     29  H   UNL A   1      37.370  21.405  26.114  1.00  0.00     0.163 HD
ATOM     30  O   UNL A   1      39.771  21.057  26.177  1.00  0.00    -0.269 OA
BRANCH  28  31
ATOM     31  C   UNL A   1      40.008  23.312  26.793  1.00  0.00     0.039 A 
ATOM     32  C   UNL A   1      40.054  24.426  25.953  1.00  0.00     0.014 A 
ATOM     33  C   UNL A   1      40.700  23.316  28.008  1.00  0.00     0.014 A 
ATOM     34  C   UNL A   1      40.745  25.568  26.360  1.00  0.00     0.010 A 
ATOM     35  C   UNL A   1      41.322  24.480  28.445  1.00  0.00     0.010 A 
ATOM     36  C   UNL A   1      41.357  25.618  27.624  1.00  0.00    -0.014 A 
BRANCH  36  37
ATOM     37  C   UNL A   1      42.034  26.849  28.106  1.00  0.00     0.031 A 
ATOM     38  C   UNL A   1      41.223  28.004  28.626  1.00  0.00     0.074 A 
ATOM     39  C   UNL A   1      43.376  26.947  28.022  1.00  0.00     0.049 A 
ATOM     40  N   UNL A   1      41.631  29.176  29.041  1.00  0.00    -0.248 NA
ATOM     41  C   UNL A   1      39.762  27.829  28.667  1.00  0.00     0.031 C 
ATOM     42  C   UNL A   1      44.272  25.908  27.507  1.00  0.00     0.029 A 
ATOM     43  N   UNL A   1      44.223  27.970  28.369  1.00  0.00    -0.354 N 
ATOM     44  C   UNL A   1      40.481  29.879  29.380  1.00  0.00     0.074 A 
ATOM     45  C   UNL A   1      39.356  29.025  29.070  1.00  0.00     0.031 C 
ATOM     46  C   UNL A   1      45.541  26.334  27.604  1.00  0.00     0.029 A 
ATOM     47  C   UNL A   1      45.549  27.691  28.140  1.00  0.00     0.049 A 
ATOM     48  H   UNL A   1      43.909  28.824  28.745  1.00  0.00     0.167 HD
ATOM     49  C   UNL A   1      40.371  31.115  29.923  1.00  0.00     0.031 A 
ATOM     50  C   UNL A   1      46.650  28.444  28.333  1.00  0.00     0.031 A 
ATOM     51  C   UNL A   1      41.493  31.962  30.231  1.00  0.00     0.049 A 
ATOM     52  C   UNL A   1      46.499  29.828  28.903  1.00  0.00     0.074 A 
ATOM     53  C   UNL A   1      41.488  33.215  30.820  1.00  0.00     0.029 A 
ATOM     54  N   UNL A   1      42.819  31.647  29.975  1.00  0.00    -0.354 N 
ATOM     55  N   UNL A   1      45.406  30.454  29.270  1.00  0.00    -0.248 NA
ATOM     56  C   UNL A   1      47.733  30.603  29.096  1.00  0.00     0.031 C 
ATOM     57  C   UNL A   1      42.805  33.682  30.864  1.00  0.00     0.029 A 
ATOM     58  C   UNL A   1      43.639  32.691  30.368  1.00  0.00     0.049 A 
ATOM     59  H   UNL A   1      43.131  30.805  29.573  1.00  0.00     0.167 HD
ATOM     60  C   UNL A   1      45.823  31.684  29.765  1.00  0.00     0.074 A 
ATOM     61  C   UNL A   1      47.268  31.708  29.665  1.00  0.00     0.031 C 
ATOM     62  C   UNL A   1      45.076  32.701  30.262  1.00  0.00     0.031 A 
BRANCH  49  63
ATOM     63  C   UNL A   1      38.983  31.630  30.212  1.00  0.00    -0.014 A 
ATOM     64  C   UNL A   1      38.241  32.312  29.230  1.00  0.00     0.010 A 
ATOM     65  C   UNL A   1      38.394  31.389  31.467  1.00  0.00     0.010 A 
ATOM     66  C   UNL A   1      36.956  32.780  29.511  1.00  0.00     0.020 A 
ATOM     67  C   UNL A   1      37.095  31.827  31.742  1.00  0.00     0.020 A 
ATOM     68  C   UNL A   1      36.391  32.535  30.766  1.00  0.00     0.054 A 
BRANCH  68  69
ATOM     69  S   UNL A   1      34.709  33.132  31.091  1.00  0.00     0.124 S 
ATOM     70  O   UNL A   1      34.938  34.551  31.351  1.00  0.00    -0.237 OA
ATOM     71  O   UNL A   1      34.014  32.825  29.843  1.00  0.00    -0.237 OA
ATOM     72  O   UNL A   1      34.280  32.350  32.248  1.00  0.00    -0.744 OA
ENDBRANCH  68  69
ENDBRANCH  49  63
BRANCH  50  73
ATOM     73  C   UNL A   1      47.995  27.897  28.000  1.00  0.00    -0.014 A 
ATOM     74  C   UNL A   1      48.557  28.108  26.729  1.00  0.00     0.010 A 
ATOM     75  C   UNL A   1      48.726  27.169  28.957  1.00  0.00     0.010 A 
ATOM     76  C   UNL A   1      49.815  27.587  26.413  1.00  0.00     0.020 A 
ATOM     77  C   UNL A   1      49.998  26.673  28.656  1.00  0.00     0.020 A 
ATOM     78  C   UNL A   1      50.530  26.876  27.381  1.00  0.00     0.054 A 
BRANCH  78  79
ATOM     79  S   UNL A   1      52.182  26.253  26.965  1.00  0.00     0.124 S 
ATOM     80  O   UNL A   1      51.899  24.874  26.583  1.00  0.00    -0.237 OA
ATOM     81  O   UNL A   1      52.589  27.142  25.880  1.00  0.00    -0.237 OA
ATOM     82  O   UNL A   1      52.932  26.416  28.209  1.00  0.00    -0.744 OA
ENDBRANCH  78  79
ENDBRANCH  50  73
BRANCH  62  83
ATOM     83  C   UNL A   1      45.807  33.915  30.774  1.00  0.00    -0.014 A 
ATOM     84  C   UNL A   1      46.069  35.019  29.942  1.00  0.00     0.010 A 
ATOM     85  C   UNL A   1      46.188  33.973  32.128  1.00  0.00     0.010 A 
ATOM     86  C   UNL A   1      46.724  36.145  30.448  1.00  0.00     0.020 A 
ATOM     87  C   UNL A   1      46.815  35.110  32.645  1.00  0.00     0.020 A 
ATOM     88  C   UNL A   1      47.091  36.184  31.798  1.00  0.00     0.054 A 
BRANCH  88  89
ATOM     89  S   UNL A   1      47.898  37.676  32.439  1.00  0.00     0.124 S 
ATOM     90  O   UNL A   1      48.331  37.241  33.764  1.00  0.00    -0.237 OA
ATOM     91  O   UNL A   1      48.968  37.901  31.471  1.00  0.00    -0.237 OA
ATOM     92  O   UNL A   1      46.834  38.678  32.429  1.00  0.00    -0.744 OA
ENDBRANCH  88  89
ENDBRANCH  62  83
ENDBRANCH  36  37
ENDBRANCH  28  31
ENDBRANCH  26  27
ENDBRANCH  25  26
ENDBRANCH  24  25
ENDBRANCH   1  24
TORSDOF 20
ENDMDL
