MODEL 1
REMARK VINA RESULT:     -11.0      0.000      0.000
REMARK SMILES CC1(C)CCN(C(=O)N[C@](C)(C(=O)NCCCCCCNC(=O)c2ccc(-c3c4nc(c(-c5ccc(S(=O)(=O)[O-])cc5)c5ccc([nH]5)c(-c5ccc(S(=O)(=O)[O-])cc5)c5nc(c(-c6ccc(S(=O)(=O)[O-])cc6)c6ccc3[nH]6)C=C5)C=C4)cc2)c2ccccc2)C1
REMARK SMILES IDX 18 1 17 2 16 3 15 4 14 5 12 6 13 7 10 9 11 10 9 11 7 12 8 13
REMARK SMILES IDX 6 15 1 16 2 17 3 18 4 19 90 20 5 21 84 22 85 23 89 24 86 25
REMARK SMILES IDX 88 26 87 27 19 28 20 29 21 30 22 31 23 33 24 34 25 35 83 36
REMARK SMILES IDX 26 37 82 38 27 39 28 40 29 41 76 42 30 43 81 44 75 45 77 46
REMARK SMILES IDX 31 47 80 48 74 49 73 50 32 52 62 53 43 54 61 55 44 56 47 57
REMARK SMILES IDX 60 58 78 59 45 60 46 61 59 63 79 64 48 65 33 66 34 67 42 68
REMARK SMILES IDX 35 69 41 70 36 71 37 72 38 73 39 74 40 75 63 76 64 77 72 78
REMARK SMILES IDX 65 79 71 80 66 81 67 82 68 83 69 84 70 85 49 86 50 87 58 88
REMARK SMILES IDX 51 89 57 90 52 91 53 92 54 93 55 94 56 95
REMARK H PARENT 14 8 9 14 21 32 77 51 47 62
REMARK Flexibility Score: inf
ROOT
ATOM      1  C   UNL A   1      34.963  22.416  24.140  1.00  0.00     0.002 C 
ENDROOT
BRANCH   1   2
ATOM      2  C   UNL A   1      33.604  23.038  23.811  1.00  0.00     0.002 C 
BRANCH   2   3
ATOM      3  C   UNL A   1      32.507  22.794  24.860  1.00  0.00     0.021 C 
BRANCH   3   4
ATOM      4  C   UNL A   1      32.621  23.674  26.114  1.00  0.00     0.116 C 
BRANCH   4   5
ATOM      5  N   UNL A   1      31.629  24.726  26.085  1.00  0.00    -0.354 N 
ATOM      6  C   UNL A   1      31.767  26.081  26.147  1.00  0.00     0.250 C 
ATOM      7  O   UNL A   1      30.909  26.625  26.855  1.00  0.00    -0.272 OA
ATOM      8  H   UNL A   1      30.699  24.411  26.008  1.00  0.00     0.163 HD
BRANCH   6   9
ATOM      9  C   UNL A   1      32.941  26.892  25.422  1.00  0.00     0.143 C 
ATOM     10  C   UNL A   1      34.284  26.140  25.606  1.00  0.00     0.051 C 
BRANCH   9  11
ATOM     11  N   UNL A   1      32.695  26.872  23.945  1.00  0.00    -0.320 N 
ATOM     12  C   UNL A   1      31.599  26.689  23.182  1.00  0.00     0.318 C 
ATOM     13  O   UNL A   1      31.644  25.726  22.409  1.00  0.00    -0.249 OA
ATOM     14  H   UNL A   1      33.511  27.024  23.416  1.00  0.00     0.166 HD
BRANCH  12  15
ATOM     15  N   UNL A   1      30.596  27.609  23.107  1.00  0.00    -0.324 N 
ATOM     16  C   UNL A   1      28.565  30.098  21.500  1.00  0.00     0.013 C 
ATOM     17  C   UNL A   1      29.206  29.537  22.773  1.00  0.00    -0.016 C 
ATOM     18  C   UNL A   1      29.333  30.686  23.787  1.00  0.00     0.013 C 
ATOM     19  C   UNL A   1      28.380  28.404  23.415  1.00  0.00     0.030 C 
ATOM     20  C   UNL A   1      30.561  28.885  22.423  1.00  0.00     0.127 C 
ATOM     21  C   UNL A   1      29.234  27.153  23.302  1.00  0.00     0.122 C 
ENDBRANCH  12  15
ENDBRANCH   9  11
BRANCH   9  22
ATOM     22  C   UNL A   1      33.058  28.303  26.042  1.00  0.00    -0.013 A 
ATOM     23  C   UNL A   1      34.200  28.657  26.791  1.00  0.00     0.007 A 
ATOM     24  C   UNL A   1      32.049  29.283  25.912  1.00  0.00     0.007 A 
ATOM     25  C   UNL A   1      34.331  29.924  27.364  1.00  0.00     0.000 A 
ATOM     26  C   UNL A   1      32.165  30.537  26.517  1.00  0.00     0.000 A 
ATOM     27  C   UNL A   1      33.308  30.857  27.240  1.00  0.00     0.000 A 
ENDBRANCH   9  22
ENDBRANCH   6   9
ENDBRANCH   4   5
ENDBRANCH   3   4
ENDBRANCH   2   3
ENDBRANCH   1   2
BRANCH   1  28
ATOM     28  C   UNL A   1      36.162  23.322  23.857  1.00  0.00     0.021 C 
BRANCH  28  29
ATOM     29  C   UNL A   1      36.947  23.720  25.100  1.00  0.00     0.116 C 
BRANCH  29  30
ATOM     30  N   UNL A   1      37.903  22.693  25.480  1.00  0.00    -0.352 N 
ATOM     31  C   UNL A   1      39.101  22.838  26.137  1.00  0.00     0.251 C 
ATOM     32  H   UNL A   1      37.658  21.771  25.236  1.00  0.00     0.163 HD
ATOM     33  O   UNL A   1      39.904  21.915  26.170  1.00  0.00    -0.269 OA
BRANCH  31  34
ATOM     34  C   UNL A   1      39.412  24.128  26.789  1.00  0.00     0.039 A 
ATOM     35  C   UNL A   1      38.996  24.344  28.103  1.00  0.00     0.014 A 
ATOM     36  C   UNL A   1      40.126  25.114  26.101  1.00  0.00     0.014 A 
ATOM     37  C   UNL A   1      39.341  25.534  28.746  1.00  0.00     0.010 A 
ATOM     38  C   UNL A   1      40.538  26.262  26.770  1.00  0.00     0.010 A 
ATOM     39  C   UNL A   1      40.141  26.489  28.096  1.00  0.00    -0.014 A 
BRANCH  39  40
ATOM     40  C   UNL A   1      40.560  27.737  28.782  1.00  0.00     0.031 A 
ATOM     41  C   UNL A   1      41.933  27.837  29.392  1.00  0.00     0.074 A 
ATOM     42  C   UNL A   1      39.691  28.762  28.895  1.00  0.00     0.049 A 
ATOM     43  N   UNL A   1      42.464  28.820  30.072  1.00  0.00    -0.248 NA
ATOM     44  C   UNL A   1      42.821  26.670  29.236  1.00  0.00     0.031 C 
ATOM     45  C   UNL A   1      38.322  28.775  28.374  1.00  0.00     0.029 A 
ATOM     46  N   UNL A   1      39.829  29.993  29.485  1.00  0.00    -0.354 N 
ATOM     47  C   UNL A   1      43.737  28.393  30.428  1.00  0.00     0.074 A 
ATOM     48  C   UNL A   1      43.881  27.038  29.943  1.00  0.00     0.031 C 
ATOM     49  C   UNL A   1      37.760  29.965  28.638  1.00  0.00     0.029 A 
ATOM     50  C   UNL A   1      38.708  30.784  29.387  1.00  0.00     0.049 A 
ATOM     51  H   UNL A   1      40.655  30.284  29.937  1.00  0.00     0.167 HD
ATOM     52  C   UNL A   1      44.712  29.074  31.075  1.00  0.00     0.031 A 
ATOM     53  C   UNL A   1      38.468  32.025  29.854  1.00  0.00     0.031 A 
ATOM     54  C   UNL A   1      44.569  30.425  31.550  1.00  0.00     0.049 A 
ATOM     55  C   UNL A   1      39.556  32.745  30.606  1.00  0.00     0.074 A 
ATOM     56  C   UNL A   1      45.509  31.215  32.187  1.00  0.00     0.029 A 
ATOM     57  N   UNL A   1      43.416  31.187  31.435  1.00  0.00    -0.354 N 
ATOM     58  N   UNL A   1      40.774  32.341  30.882  1.00  0.00    -0.248 NA
ATOM     59  C   UNL A   1      39.242  34.092  31.098  1.00  0.00     0.031 C 
ATOM     60  C   UNL A   1      44.907  32.436  32.507  1.00  0.00     0.029 A 
ATOM     61  C   UNL A   1      43.615  32.431  32.009  1.00  0.00     0.049 A 
ATOM     62  H   UNL A   1      42.581  30.888  31.009  1.00  0.00     0.167 HD
ATOM     63  C   UNL A   1      41.381  33.402  31.548  1.00  0.00     0.074 A 
ATOM     64  C   UNL A   1      40.403  34.467  31.617  1.00  0.00     0.031 C 
ATOM     65  C   UNL A   1      42.634  33.486  32.058  1.00  0.00     0.031 A 
BRANCH  52  66
ATOM     66  C   UNL A   1      46.025  28.374  31.304  1.00  0.00    -0.014 A 
ATOM     67  C   UNL A   1      46.238  27.596  32.457  1.00  0.00     0.010 A 
ATOM     68  C   UNL A   1      47.036  28.437  30.327  1.00  0.00     0.010 A 
ATOM     69  C   UNL A   1      47.445  26.916  32.641  1.00  0.00     0.020 A 
ATOM     70  C   UNL A   1      48.232  27.735  30.493  1.00  0.00     0.020 A 
ATOM     71  C   UNL A   1      48.433  26.987  31.656  1.00  0.00     0.054 A 
BRANCH  71  72
ATOM     72  S   UNL A   1      49.968  26.052  31.900  1.00  0.00     0.124 S 
ATOM     73  O   UNL A   1      49.569  25.075  32.909  1.00  0.00    -0.237 OA
ATOM     74  O   UNL A   1      50.226  25.509  30.568  1.00  0.00    -0.237 OA
ATOM     75  O   UNL A   1      50.921  27.061  32.353  1.00  0.00    -0.744 OA
ENDBRANCH  71  72
ENDBRANCH  52  66
BRANCH  53  76
ATOM     76  C   UNL A   1      37.147  32.675  29.627  1.00  0.00    -0.014 A 
ATOM     77  C   UNL A   1      36.878  33.352  28.424  1.00  0.00     0.010 A 
ATOM     78  C   UNL A   1      36.158  32.647  30.628  1.00  0.00     0.010 A 
ATOM     79  C   UNL A   1      35.665  34.025  28.243  1.00  0.00     0.020 A 
ATOM     80  C   UNL A   1      34.931  33.290  30.438  1.00  0.00     0.020 A 
ATOM     81  C   UNL A   1      34.701  33.992  29.254  1.00  0.00     0.054 A 
BRANCH  81  82
ATOM     82  S   UNL A   1      33.133  34.868  28.997  1.00  0.00     0.124 S 
ATOM     83  O   UNL A   1      32.505  34.063  27.953  1.00  0.00    -0.237 OA
ATOM     84  O   UNL A   1      32.511  34.794  30.316  1.00  0.00    -0.237 OA
ATOM     85  O   UNL A   1      33.554  36.207  28.588  1.00  0.00    -0.744 OA
ENDBRANCH  81  82
ENDBRANCH  53  76
BRANCH  65  86
ATOM     86  C   UNL A   1      43.041  34.790  32.690  1.00  0.00    -0.014 A 
ATOM     87  C   UNL A   1      42.837  35.039  34.058  1.00  0.00     0.010 A 
ATOM     88  C   UNL A   1      43.689  35.765  31.906  1.00  0.00     0.010 A 
ATOM     89  C   UNL A   1      43.241  36.251  34.624  1.00  0.00     0.020 A 
ATOM     90  C   UNL A   1      44.124  36.964  32.475  1.00  0.00     0.020 A 
ATOM     91  C   UNL A   1      43.883  37.205  33.828  1.00  0.00     0.054 A 
BRANCH  91  92
ATOM     92  S   UNL A   1      44.437  38.750  34.598  1.00  0.00     0.124 S 
ATOM     93  O   UNL A   1      43.414  39.694  34.156  1.00  0.00    -0.237 OA
ATOM     94  O   UNL A   1      44.417  38.424  36.022  1.00  0.00    -0.237 OA
ATOM     95  O   UNL A   1      45.767  38.964  34.031  1.00  0.00    -0.744 OA
ENDBRANCH  91  92
ENDBRANCH  65  86
ENDBRANCH  39  40
ENDBRANCH  31  34
ENDBRANCH  29  30
ENDBRANCH  28  29
ENDBRANCH   1  28
TORSDOF 19
ENDMDL
MODEL 2
REMARK VINA RESULT:     -10.7      3.585      8.178
REMARK SMILES CC1(C)CCN(C(=O)N[C@](C)(C(=O)NCCCCCCNC(=O)c2ccc(-c3c4nc(c(-c5ccc(S(=O)(=O)[O-])cc5)c5ccc([nH]5)c(-c5ccc(S(=O)(=O)[O-])cc5)c5nc(c(-c6ccc(S(=O)(=O)[O-])cc6)c6ccc3[nH]6)C=C5)C=C4)cc2)c2ccccc2)C1
REMARK SMILES IDX 18 1 17 2 16 3 15 4 14 5 12 6 13 7 10 9 11 10 9 11 7 12 8 13
REMARK SMILES IDX 6 15 1 16 2 17 3 18 4 19 90 20 5 21 84 22 85 23 89 24 86 25
REMARK SMILES IDX 88 26 87 27 19 28 20 29 21 30 22 31 23 33 24 34 25 35 83 36
REMARK SMILES IDX 26 37 82 38 27 39 28 40 29 41 76 42 30 43 81 44 75 45 77 46
REMARK SMILES IDX 31 47 80 48 74 49 73 50 32 52 62 53 43 54 61 55 44 56 47 57
REMARK SMILES IDX 60 58 78 59 45 60 46 61 59 63 79 64 48 65 33 66 34 67 42 68
REMARK SMILES IDX 35 69 41 70 36 71 37 72 38 73 39 74 40 75 63 76 64 77 72 78
REMARK SMILES IDX 65 79 71 80 66 81 67 82 68 83 69 84 70 85 49 86 50 87 58 88
REMARK SMILES IDX 51 89 57 90 52 91 53 92 54 93 55 94 56 95
REMARK H PARENT 14 8 9 14 21 32 77 51 47 62
REMARK Flexibility Score: inf
ROOT
ATOM      1  C   UNL A   1      31.574  30.639  26.201  1.00  0.00     0.002 C 
ENDROOT
BRANCH   1   2
ATOM      2  C   UNL A   1      32.682  29.852  26.905  1.00  0.00     0.002 C 
BRANCH   2   3
ATOM      3  C   UNL A   1      32.252  28.489  27.472  1.00  0.00     0.021 C 
BRANCH   3   4
ATOM      4  C   UNL A   1      31.035  27.866  26.772  1.00  0.00     0.116 C 
BRANCH   4   5
ATOM      5  N   UNL A   1      31.374  26.569  26.229  1.00  0.00    -0.354 N 
ATOM      6  C   UNL A   1      31.235  26.068  24.968  1.00  0.00     0.250 C 
ATOM      7  O   UNL A   1      30.848  24.892  24.953  1.00  0.00    -0.272 OA
ATOM      8  H   UNL A   1      31.771  25.944  26.877  1.00  0.00     0.163 HD
BRANCH   6   9
ATOM      9  C   UNL A   1      31.496  26.917  23.637  1.00  0.00     0.143 C 
ATOM     10  C   UNL A   1      32.784  27.763  23.804  1.00  0.00     0.051 C 
BRANCH   9  11
ATOM     11  N   UNL A   1      31.806  25.970  22.519  1.00  0.00    -0.320 N 
ATOM     12  C   UNL A   1      32.932  25.366  22.091  1.00  0.00     0.318 C 
ATOM     13  O   UNL A   1      33.271  25.629  20.932  1.00  0.00    -0.249 OA
ATOM     14  H   UNL A   1      31.017  25.739  21.978  1.00  0.00     0.166 HD
BRANCH  12  15
ATOM     15  N   UNL A   1      33.547  24.375  22.798  1.00  0.00    -0.324 N 
ATOM     16  C   UNL A   1      34.913  22.834  25.741  1.00  0.00     0.013 C 
ATOM     17  C   UNL A   1      34.931  23.027  24.222  1.00  0.00    -0.016 C 
ATOM     18  C   UNL A   1      36.340  22.678  23.716  1.00  0.00     0.013 C 
ATOM     19  C   UNL A   1      33.911  22.133  23.489  1.00  0.00     0.030 C 
ATOM     20  C   UNL A   1      34.506  24.471  23.880  1.00  0.00     0.127 C 
ATOM     21  C   UNL A   1      32.898  23.082  22.869  1.00  0.00     0.122 C 
ENDBRANCH  12  15
ENDBRANCH   9  11
BRANCH   9  22
ATOM     22  C   UNL A   1      30.298  27.858  23.378  1.00  0.00    -0.013 A 
ATOM     23  C   UNL A   1      28.978  27.374  23.486  1.00  0.00     0.007 A 
ATOM     24  C   UNL A   1      30.454  29.215  23.013  1.00  0.00     0.007 A 
ATOM     25  C   UNL A   1      27.877  28.201  23.256  1.00  0.00     0.000 A 
ATOM     26  C   UNL A   1      29.352  30.031  22.747  1.00  0.00     0.000 A 
ATOM     27  C   UNL A   1      28.064  29.525  22.872  1.00  0.00     0.000 A 
ENDBRANCH   9  22
ENDBRANCH   6   9
ENDBRANCH   4   5
ENDBRANCH   3   4
ENDBRANCH   2   3
ENDBRANCH   1   2
BRANCH   1  28
ATOM     28  C   UNL A   1      31.504  32.118  26.583  1.00  0.00     0.021 C 
BRANCH  28  29
ATOM     29  C   UNL A   1      32.765  32.647  27.253  1.00  0.00     0.116 C 
BRANCH  29  30
ATOM     30  N   UNL A   1      32.624  34.043  27.633  1.00  0.00    -0.352 N 
ATOM     31  C   UNL A   1      33.246  34.721  28.654  1.00  0.00     0.251 C 
ATOM     32  H   UNL A   1      32.000  34.573  27.086  1.00  0.00     0.163 HD
ATOM     33  O   UNL A   1      32.844  35.823  28.998  1.00  0.00    -0.269 OA
BRANCH  31  34
ATOM     34  C   UNL A   1      34.396  34.093  29.338  1.00  0.00     0.039 A 
ATOM     35  C   UNL A   1      35.690  34.394  28.909  1.00  0.00     0.014 A 
ATOM     36  C   UNL A   1      34.191  33.217  30.409  1.00  0.00     0.014 A 
ATOM     37  C   UNL A   1      36.782  33.854  29.591  1.00  0.00     0.010 A 
ATOM     38  C   UNL A   1      35.279  32.748  31.136  1.00  0.00     0.010 A 
ATOM     39  C   UNL A   1      36.588  33.053  30.728  1.00  0.00    -0.014 A 
BRANCH  39  40
ATOM     40  C   UNL A   1      37.737  32.512  31.495  1.00  0.00     0.031 A 
ATOM     41  C   UNL A   1      38.515  31.339  30.959  1.00  0.00     0.074 A 
ATOM     42  C   UNL A   1      38.052  33.046  32.693  1.00  0.00     0.049 A 
ATOM     43  N   UNL A   1      39.516  30.696  31.503  1.00  0.00    -0.248 NA
ATOM     44  C   UNL A   1      38.101  30.805  29.649  1.00  0.00     0.031 C 
ATOM     45  C   UNL A   1      37.355  34.164  33.334  1.00  0.00     0.029 A 
ATOM     46  N   UNL A   1      39.043  32.721  33.586  1.00  0.00    -0.354 N 
ATOM     47  C   UNL A   1      39.847  29.683  30.610  1.00  0.00     0.074 A 
ATOM     48  C   UNL A   1      38.903  29.757  29.517  1.00  0.00     0.031 C 
ATOM     49  C   UNL A   1      37.959  34.451  34.498  1.00  0.00     0.029 A 
ATOM     50  C   UNL A   1      39.056  33.512  34.711  1.00  0.00     0.049 A 
ATOM     51  H   UNL A   1      39.685  31.989  33.435  1.00  0.00     0.167 HD
ATOM     52  C   UNL A   1      40.862  28.790  30.679  1.00  0.00     0.031 A 
ATOM     53  C   UNL A   1      39.854  33.479  35.796  1.00  0.00     0.031 A 
ATOM     54  C   UNL A   1      41.804  28.725  31.764  1.00  0.00     0.049 A 
ATOM     55  C   UNL A   1      40.951  32.448  35.863  1.00  0.00     0.074 A 
ATOM     56  C   UNL A   1      42.889  27.878  31.909  1.00  0.00     0.029 A 
ATOM     57  N   UNL A   1      41.778  29.539  32.886  1.00  0.00    -0.354 N 
ATOM     58  N   UNL A   1      41.281  31.536  34.980  1.00  0.00    -0.248 NA
ATOM     59  C   UNL A   1      41.790  32.452  37.068  1.00  0.00     0.031 C 
ATOM     60  C   UNL A   1      43.486  28.143  33.145  1.00  0.00     0.029 A 
ATOM     61  C   UNL A   1      42.815  29.201  33.737  1.00  0.00     0.049 A 
ATOM     62  H   UNL A   1      41.120  30.253  33.051  1.00  0.00     0.167 HD
ATOM     63  C   UNL A   1      42.389  30.882  35.509  1.00  0.00     0.074 A 
ATOM     64  C   UNL A   1      42.682  31.515  36.778  1.00  0.00     0.031 C 
ATOM     65  C   UNL A   1      43.100  29.850  34.992  1.00  0.00     0.031 A 
BRANCH  52  66
ATOM     66  C   UNL A   1      41.013  27.812  29.543  1.00  0.00    -0.014 A 
ATOM     67  C   UNL A   1      42.019  27.981  28.574  1.00  0.00     0.010 A 
ATOM     68  C   UNL A   1      40.188  26.674  29.480  1.00  0.00     0.010 A 
ATOM     69  C   UNL A   1      42.179  27.046  27.548  1.00  0.00     0.020 A 
ATOM     70  C   UNL A   1      40.364  25.722  28.473  1.00  0.00     0.020 A 
ATOM     71  C   UNL A   1      41.353  25.920  27.506  1.00  0.00     0.054 A 
BRANCH  71  72
ATOM     72  S   UNL A   1      41.619  24.698  26.192  1.00  0.00     0.124 S 
ATOM     73  O   UNL A   1      40.402  23.894  26.278  1.00  0.00    -0.237 OA
ATOM     74  O   UNL A   1      41.736  25.534  25.000  1.00  0.00    -0.237 OA
ATOM     75  O   UNL A   1      42.845  24.015  26.595  1.00  0.00    -0.744 OA
ENDBRANCH  71  72
ENDBRANCH  52  66
BRANCH  53  76
ATOM     76  C   UNL A   1      39.658  34.449  36.909  1.00  0.00    -0.014 A 
ATOM     77  C   UNL A   1      40.293  35.704  36.887  1.00  0.00     0.010 A 
ATOM     78  C   UNL A   1      38.857  34.111  38.015  1.00  0.00     0.010 A 
ATOM     79  C   UNL A   1      40.167  36.583  37.967  1.00  0.00     0.020 A 
ATOM     80  C   UNL A   1      38.701  35.001  39.082  1.00  0.00     0.020 A 
ATOM     81  C   UNL A   1      39.374  36.223  39.060  1.00  0.00     0.054 A 
BRANCH  81  82
ATOM     82  S   UNL A   1      39.220  37.380  40.448  1.00  0.00     0.124 S 
ATOM     83  O   UNL A   1      40.557  37.963  40.507  1.00  0.00    -0.237 OA
ATOM     84  O   UNL A   1      38.157  38.275  39.996  1.00  0.00    -0.237 OA
ATOM     85  O   UNL A   1      38.862  36.518  41.573  1.00  0.00    -0.744 OA
ENDBRANCH  81  82
ENDBRANCH  53  76
BRANCH  65  86
ATOM     86  C   UNL A   1      44.297  29.372  35.771  1.00  0.00    -0.014 A 
ATOM     87  C   UNL A   1      44.189  28.348  36.727  1.00  0.00     0.010 A 
ATOM     88  C   UNL A   1      45.563  29.925  35.499  1.00  0.00     0.010 A 
ATOM     89  C   UNL A   1      45.319  27.909  37.423  1.00  0.00     0.020 A 
ATOM     90  C   UNL A   1      46.700  29.466  36.169  1.00  0.00     0.020 A 
ATOM     91  C   UNL A   1      46.568  28.471  37.137  1.00  0.00     0.054 A 
BRANCH  91  92
ATOM     92  S   UNL A   1      48.024  27.852  38.023  1.00  0.00     0.124 S 
ATOM     93  O   UNL A   1      49.023  28.870  37.714  1.00  0.00    -0.237 OA
ATOM     94  O   UNL A   1      47.566  27.822  39.410  1.00  0.00    -0.237 OA
ATOM     95  O   UNL A   1      48.264  26.540  37.424  1.00  0.00    -0.744 OA
ENDBRANCH  91  92
ENDBRANCH  65  86
ENDBRANCH  39  40
ENDBRANCH  31  34
ENDBRANCH  29  30
ENDBRANCH  28  29
ENDBRANCH   1  28
TORSDOF 19
ENDMDL
MODEL 3
REMARK VINA RESULT:     -10.5      2.523      9.321
REMARK SMILES CC1(C)CCN(C(=O)N[C@](C)(C(=O)NCCCCCCNC(=O)c2ccc(-c3c4nc(c(-c5ccc(S(=O)(=O)[O-])cc5)c5ccc([nH]5)c(-c5ccc(S(=O)(=O)[O-])cc5)c5nc(c(-c6ccc(S(=O)(=O)[O-])cc6)c6ccc3[nH]6)C=C5)C=C4)cc2)c2ccccc2)C1
REMARK SMILES IDX 18 1 17 2 16 3 15 4 14 5 12 6 13 7 10 9 11 10 9 11 7 12 8 13
REMARK SMILES IDX 6 15 1 16 2 17 3 18 4 19 90 20 5 21 84 22 85 23 89 24 86 25
REMARK SMILES IDX 88 26 87 27 19 28 20 29 21 30 22 31 23 33 24 34 25 35 83 36
REMARK SMILES IDX 26 37 82 38 27 39 28 40 29 41 76 42 30 43 81 44 75 45 77 46
REMARK SMILES IDX 31 47 80 48 74 49 73 50 32 52 62 53 43 54 61 55 44 56 47 57
REMARK SMILES IDX 60 58 78 59 45 60 46 61 59 63 79 64 48 65 33 66 34 67 42 68
REMARK SMILES IDX 35 69 41 70 36 71 37 72 38 73 39 74 40 75 63 76 64 77 72 78
REMARK SMILES IDX 65 79 71 80 66 81 67 82 68 83 69 84 70 85 49 86 50 87 58 88
REMARK SMILES IDX 51 89 57 90 52 91 53 92 54 93 55 94 56 95
REMARK H PARENT 14 8 9 14 21 32 77 51 47 62
REMARK Flexibility Score: inf
ROOT
ATOM      1  C   UNL A   1      32.014  28.644  25.289  1.00  0.00     0.002 C 
ENDROOT
BRANCH   1   2
ATOM      2  C   UNL A   1      33.278  28.870  24.455  1.00  0.00     0.002 C 
BRANCH   2   3
ATOM      3  C   UNL A   1      33.052  28.935  22.936  1.00  0.00     0.021 C 
BRANCH   3   4
ATOM      4  C   UNL A   1      33.952  27.996  22.120  1.00  0.00     0.116 C 
BRANCH   4   5
ATOM      5  N   UNL A   1      33.149  27.111  21.303  1.00  0.00    -0.354 N 
ATOM      6  C   UNL A   1      32.974  25.760  21.363  1.00  0.00     0.250 C 
ATOM      7  O   UNL A   1      32.952  25.223  20.247  1.00  0.00    -0.272 OA
ATOM      8  H   UNL A   1      32.646  27.559  20.585  1.00  0.00     0.163 HD
BRANCH   6   9
ATOM      9  C   UNL A   1      32.854  24.935  22.730  1.00  0.00     0.143 C 
ATOM     10  C   UNL A   1      32.795  23.418  22.418  1.00  0.00     0.051 C 
BRANCH   9  11
ATOM     11  N   UNL A   1      34.121  25.113  23.508  1.00  0.00    -0.320 N 
ATOM     12  C   UNL A   1      34.521  24.742  24.741  1.00  0.00     0.318 C 
ATOM     13  O   UNL A   1      34.835  25.666  25.499  1.00  0.00    -0.249 OA
ATOM     14  H   UNL A   1      34.812  25.608  23.013  1.00  0.00     0.166 HD
BRANCH  12  15
ATOM     15  N   UNL A   1      34.766  23.442  25.073  1.00  0.00    -0.324 N 
ATOM     16  C   UNL A   1      36.629  20.371  25.075  1.00  0.00     0.013 C 
ATOM     17  C   UNL A   1      35.283  21.100  25.140  1.00  0.00    -0.016 C 
ATOM     18  C   UNL A   1      34.191  20.120  24.682  1.00  0.00     0.013 C 
ATOM     19  C   UNL A   1      34.935  21.597  26.557  1.00  0.00     0.030 C 
ATOM     20  C   UNL A   1      35.348  22.380  24.279  1.00  0.00     0.127 C 
ATOM     21  C   UNL A   1      34.930  23.114  26.475  1.00  0.00     0.122 C 
ENDBRANCH  12  15
ENDBRANCH   9  11
BRANCH   9  22
ATOM     22  C   UNL A   1      31.568  25.352  23.477  1.00  0.00    -0.013 A 
ATOM     23  C   UNL A   1      30.666  26.262  22.886  1.00  0.00     0.007 A 
ATOM     24  C   UNL A   1      31.240  24.873  24.765  1.00  0.00     0.007 A 
ATOM     25  C   UNL A   1      29.497  26.658  23.539  1.00  0.00     0.000 A 
ATOM     26  C   UNL A   1      30.090  25.299  25.433  1.00  0.00     0.000 A 
ATOM     27  C   UNL A   1      29.217  26.189  24.818  1.00  0.00     0.000 A 
ENDBRANCH   9  22
ENDBRANCH   6   9
ENDBRANCH   4   5
ENDBRANCH   3   4
ENDBRANCH   2   3
ENDBRANCH   1   2
BRANCH   1  28
ATOM     28  C   UNL A   1      32.254  27.952  26.631  1.00  0.00     0.021 C 
BRANCH  28  29
ATOM     29  C   UNL A   1      33.446  28.496  27.407  1.00  0.00     0.116 C 
BRANCH  29  30
ATOM     30  N   UNL A   1      33.438  29.949  27.451  1.00  0.00    -0.352 N 
ATOM     31  C   UNL A   1      34.389  30.797  27.965  1.00  0.00     0.251 C 
ATOM     32  H   UNL A   1      32.646  30.383  27.058  1.00  0.00     0.163 HD
ATOM     33  O   UNL A   1      34.131  31.978  28.147  1.00  0.00    -0.269 OA
BRANCH  31  34
ATOM     34  C   UNL A   1      35.722  30.257  28.309  1.00  0.00     0.039 A 
ATOM     35  C   UNL A   1      36.734  30.281  27.350  1.00  0.00     0.014 A 
ATOM     36  C   UNL A   1      35.969  29.741  29.585  1.00  0.00     0.014 A 
ATOM     37  C   UNL A   1      38.012  29.833  27.688  1.00  0.00     0.010 A 
ATOM     38  C   UNL A   1      37.260  29.372  29.944  1.00  0.00     0.010 A 
ATOM     39  C   UNL A   1      38.295  29.404  28.995  1.00  0.00    -0.014 A 
BRANCH  39  40
ATOM     40  C   UNL A   1      39.659  28.971  29.386  1.00  0.00     0.031 A 
ATOM     41  C   UNL A   1      40.557  29.908  30.150  1.00  0.00     0.074 A 
ATOM     42  C   UNL A   1      40.106  27.754  29.015  1.00  0.00     0.049 A 
ATOM     43  N   UNL A   1      41.794  29.732  30.537  1.00  0.00    -0.248 NA
ATOM     44  C   UNL A   1      39.999  31.224  30.509  1.00  0.00     0.031 C 
ATOM     45  C   UNL A   1      39.344  26.768  28.245  1.00  0.00     0.029 A 
ATOM     46  N   UNL A   1      41.313  27.138  29.235  1.00  0.00    -0.354 N 
ATOM     47  C   UNL A   1      42.163  30.910  31.177  1.00  0.00     0.074 A 
ATOM     48  C   UNL A   1      41.041  31.818  31.074  1.00  0.00     0.031 C 
ATOM     49  C   UNL A   1      40.087  25.660  28.088  1.00  0.00     0.029 A 
ATOM     50  C   UNL A   1      41.394  25.872  28.702  1.00  0.00     0.049 A 
ATOM     51  H   UNL A   1      42.052  27.562  29.730  1.00  0.00     0.167 HD
ATOM     52  C   UNL A   1      43.319  31.202  31.817  1.00  0.00     0.031 A 
ATOM     53  C   UNL A   1      42.408  24.986  28.700  1.00  0.00     0.031 A 
ATOM     54  C   UNL A   1      44.430  30.294  31.925  1.00  0.00     0.049 A 
ATOM     55  C   UNL A   1      43.699  25.352  29.386  1.00  0.00     0.074 A 
ATOM     56  C   UNL A   1      45.633  30.482  32.583  1.00  0.00     0.029 A 
ATOM     57  N   UNL A   1      44.473  29.025  31.366  1.00  0.00    -0.354 N 
ATOM     58  N   UNL A   1      44.005  26.451  30.033  1.00  0.00    -0.248 NA
ATOM     59  C   UNL A   1      44.775  24.353  29.351  1.00  0.00     0.031 C 
ATOM     60  C   UNL A   1      46.425  29.350  32.375  1.00  0.00     0.029 A 
ATOM     61  C   UNL A   1      45.691  28.429  31.646  1.00  0.00     0.049 A 
ATOM     62  H   UNL A   1      43.746  28.611  30.847  1.00  0.00     0.167 HD
ATOM     63  C   UNL A   1      45.297  26.259  30.513  1.00  0.00     0.074 A 
ATOM     64  C   UNL A   1      45.705  24.933  30.097  1.00  0.00     0.031 C 
ATOM     65  C   UNL A   1      46.076  27.103  31.234  1.00  0.00     0.031 A 
BRANCH  52  66
ATOM     66  C   UNL A   1      43.443  32.558  32.461  1.00  0.00    -0.014 A 
ATOM     67  C   UNL A   1      43.921  33.662  31.732  1.00  0.00     0.010 A 
ATOM     68  C   UNL A   1      43.014  32.750  33.787  1.00  0.00     0.010 A 
ATOM     69  C   UNL A   1      43.994  34.925  32.324  1.00  0.00     0.020 A 
ATOM     70  C   UNL A   1      43.057  34.017  34.374  1.00  0.00     0.020 A 
ATOM     71  C   UNL A   1      43.557  35.096  33.641  1.00  0.00     0.054 A 
BRANCH  71  72
ATOM     72  S   UNL A   1      43.616  36.757  34.365  1.00  0.00     0.124 S 
ATOM     73  O   UNL A   1      44.857  36.708  35.133  1.00  0.00    -0.237 OA
ATOM     74  O   UNL A   1      43.641  37.618  33.185  1.00  0.00    -0.237 OA
ATOM     75  O   UNL A   1      42.394  36.833  35.162  1.00  0.00    -0.744 OA
ENDBRANCH  71  72
ENDBRANCH  52  66
BRANCH  53  76
ATOM     76  C   UNL A   1      42.255  23.663  28.033  1.00  0.00    -0.014 A 
ATOM     77  C   UNL A   1      41.497  22.641  28.631  1.00  0.00     0.010 A 
ATOM     78  C   UNL A   1      42.895  23.405  26.806  1.00  0.00     0.010 A 
ATOM     79  C   UNL A   1      41.416  21.376  28.040  1.00  0.00     0.020 A 
ATOM     80  C   UNL A   1      42.788  22.153  26.194  1.00  0.00     0.020 A 
ATOM     81  C   UNL A   1      42.066  21.140  26.826  1.00  0.00     0.054 A 
BRANCH  81  82
ATOM     82  S   UNL A   1      41.944  19.494  26.074  1.00  0.00     0.124 S 
ATOM     83  O   UNL A   1      42.754  19.650  24.870  1.00  0.00    -0.237 OA
ATOM     84  O   UNL A   1      42.505  18.631  27.110  1.00  0.00    -0.237 OA
ATOM     85  O   UNL A   1      40.509  19.330  25.846  1.00  0.00    -0.744 OA
ENDBRANCH  81  82
ENDBRANCH  53  76
BRANCH  65  86
ATOM     86  C   UNL A   1      47.429  26.602  31.664  1.00  0.00    -0.014 A 
ATOM     87  C   UNL A   1      47.618  25.966  32.902  1.00  0.00     0.010 A 
ATOM     88  C   UNL A   1      48.522  26.726  30.784  1.00  0.00     0.010 A 
ATOM     89  C   UNL A   1      48.881  25.494  33.269  1.00  0.00     0.020 A 
ATOM     90  C   UNL A   1      49.779  26.226  31.133  1.00  0.00     0.020 A 
ATOM     91  C   UNL A   1      49.953  25.626  32.381  1.00  0.00     0.054 A 
BRANCH  91  92
ATOM     92  S   UNL A   1      51.571  24.965  32.864  1.00  0.00     0.124 S 
ATOM     93  O   UNL A   1      51.774  23.908  31.878  1.00  0.00    -0.237 OA
ATOM     94  O   UNL A   1      52.445  26.128  32.728  1.00  0.00    -0.237 OA
ATOM     95  O   UNL A   1      51.363  24.506  34.236  1.00  0.00    -0.744 OA
ENDBRANCH  91  92
ENDBRANCH  65  86
ENDBRANCH  39  40
ENDBRANCH  31  34
ENDBRANCH  29  30
ENDBRANCH  28  29
ENDBRANCH   1  28
TORSDOF 19
ENDMDL
