MODEL 1
REMARK VINA RESULT:     -10.8      0.000      0.000
REMARK SMILES CC(C)[C@H]([NH2+]C[C@H]1CC[C@@H](C(=O)NCCCCCCNC(=O)c2ccc(-c3c4nc(c(-c5ccc(S(=O)(=O)[O-])cc5)c5ccc([nH]5)c(-c5ccc(S(=O)(=O)[O-])cc5)c5nc(c(-c6ccc(S(=O)(=O)[O-])cc6)c6ccc3[nH]6)C=C5)C=C4)cc2)CC1)c1ccccc1
REMARK SMILES IDX 16 1 15 2 14 3 13 4 11 5 12 6 10 8 7 9 8 10 84 11 9 12 83 13
REMARK SMILES IDX 6 14 5 15 4 18 2 19 1 20 3 21 85 22 86 23 90 24 87 25 89 26
REMARK SMILES IDX 88 27 17 28 18 29 19 30 20 31 21 32 22 34 23 35 24 36 82 37
REMARK SMILES IDX 25 38 81 39 26 40 27 41 28 42 75 43 29 44 80 45 74 46 76 47
REMARK SMILES IDX 30 48 79 49 73 50 72 51 31 53 61 54 42 55 60 56 43 57 46 58
REMARK SMILES IDX 59 59 77 60 44 61 45 62 58 64 78 65 47 66 32 67 33 68 41 69
REMARK SMILES IDX 34 70 40 71 35 72 36 73 37 74 38 75 39 76 62 77 63 78 71 79
REMARK SMILES IDX 64 80 70 81 65 82 66 83 67 84 68 85 69 86 48 87 49 88 57 89
REMARK SMILES IDX 50 90 56 91 51 92 52 93 53 94 54 95 55 96
REMARK H PARENT 13 7 5 16 5 17 20 33 76 52 46 63
REMARK Flexibility Score: inf
ROOT
ATOM      1  C   UNL A   1      39.338  22.901  26.764  1.00  0.00     0.002 C 
ENDROOT
BRANCH   1   2
ATOM      2  C   UNL A   1      38.181  22.618  25.799  1.00  0.00     0.021 C 
BRANCH   2   3
ATOM      3  C   UNL A   1      36.903  23.443  25.978  1.00  0.00     0.116 C 
BRANCH   3   4
ATOM      4  N   UNL A   1      35.881  22.756  26.740  1.00  0.00    -0.356 N 
ATOM      5  C   UNL A   1      34.867  21.926  26.390  1.00  0.00     0.223 C 
ATOM      6  O   UNL A   1      34.245  21.429  27.341  1.00  0.00    -0.275 OA
ATOM      7  H   UNL A   1      35.933  22.927  27.707  1.00  0.00     0.163 HD
BRANCH   5   8
ATOM      8  C   UNL A   1      34.415  21.583  24.955  1.00  0.00     0.078 C 
ATOM      9  C   UNL A   1      32.172  22.832  23.345  1.00  0.00     0.044 C 
ATOM     10  C   UNL A   1      33.566  23.490  23.394  1.00  0.00     0.010 C 
ATOM     11  C   UNL A   1      31.902  21.850  24.508  1.00  0.00     0.010 C 
ATOM     12  C   UNL A   1      34.712  22.590  23.845  1.00  0.00     0.014 C 
ATOM     13  C   UNL A   1      33.052  20.911  24.829  1.00  0.00     0.014 C 
BRANCH   9  14
ATOM     14  C   UNL A   1      31.048  23.914  23.237  1.00  0.00     0.264 C 
BRANCH  14  15
ATOM     15  N   UNL A   1      31.128  24.805  24.391  1.00  0.00    -0.340 N 
ATOM     16  H   UNL A   1      30.280  24.659  24.942  1.00  0.00     0.346 HD
ATOM     17  H   UNL A   1      32.006  24.549  24.843  1.00  0.00     0.346 HD
BRANCH  15  18
ATOM     18  C   UNL A   1      31.250  26.249  24.156  1.00  0.00     0.216 C 
BRANCH  18  19
ATOM     19  C   UNL A   1      30.045  26.862  23.381  1.00  0.00     0.046 C 
ATOM     20  C   UNL A   1      28.694  26.480  24.013  1.00  0.00     0.014 C 
ATOM     21  C   UNL A   1      30.105  28.405  23.396  1.00  0.00     0.014 C 
ENDBRANCH  18  19
BRANCH  18  22
ATOM     22  C   UNL A   1      31.888  26.969  25.341  1.00  0.00     0.009 A 
ATOM     23  C   UNL A   1      31.223  27.222  26.542  1.00  0.00     0.010 A 
ATOM     24  C   UNL A   1      33.210  27.453  25.211  1.00  0.00     0.010 A 
ATOM     25  C   UNL A   1      31.828  27.991  27.544  1.00  0.00     0.001 A 
ATOM     26  C   UNL A   1      33.823  28.200  26.216  1.00  0.00     0.001 A 
ATOM     27  C   UNL A   1      33.121  28.486  27.378  1.00  0.00     0.000 A 
ENDBRANCH  18  22
ENDBRANCH  15  18
ENDBRANCH  14  15
ENDBRANCH   9  14
ENDBRANCH   5   8
ENDBRANCH   3   4
ENDBRANCH   2   3
ENDBRANCH   1   2
BRANCH   1  28
ATOM     28  C   UNL A   1      40.323  21.753  27.046  1.00  0.00     0.002 C 
BRANCH  28  29
ATOM     29  C   UNL A   1      41.762  21.893  26.529  1.00  0.00     0.021 C 
BRANCH  29  30
ATOM     30  C   UNL A   1      42.542  23.153  26.938  1.00  0.00     0.116 C 
BRANCH  30  31
ATOM     31  N   UNL A   1      42.738  24.079  25.841  1.00  0.00    -0.352 N 
ATOM     32  C   UNL A   1      42.465  25.426  25.752  1.00  0.00     0.251 C 
ATOM     33  H   UNL A   1      43.130  23.681  25.030  1.00  0.00     0.163 HD
ATOM     34  O   UNL A   1      42.554  25.963  24.648  1.00  0.00    -0.269 OA
BRANCH  32  35
ATOM     35  C   UNL A   1      42.059  26.256  26.924  1.00  0.00     0.039 A 
ATOM     36  C   UNL A   1      42.778  27.432  27.179  1.00  0.00     0.014 A 
ATOM     37  C   UNL A   1      41.089  25.851  27.845  1.00  0.00     0.014 A 
ATOM     38  C   UNL A   1      42.518  28.203  28.324  1.00  0.00     0.010 A 
ATOM     39  C   UNL A   1      40.811  26.640  28.977  1.00  0.00     0.010 A 
ATOM     40  C   UNL A   1      41.521  27.823  29.237  1.00  0.00    -0.014 A 
BRANCH  40  41
ATOM     41  C   UNL A   1      41.227  28.659  30.444  1.00  0.00     0.031 A 
ATOM     42  C   UNL A   1      42.039  28.526  31.712  1.00  0.00     0.074 A 
ATOM     43  C   UNL A   1      40.210  29.546  30.421  1.00  0.00     0.049 A 
ATOM     44  N   UNL A   1      41.922  29.183  32.842  1.00  0.00    -0.248 NA
ATOM     45  C   UNL A   1      43.113  27.523  31.714  1.00  0.00     0.031 C 
ATOM     46  C   UNL A   1      39.319  29.782  29.285  1.00  0.00     0.029 A 
ATOM     47  N   UNL A   1      39.753  30.417  31.384  1.00  0.00    -0.354 N 
ATOM     48  C   UNL A   1      42.898  28.671  33.690  1.00  0.00     0.074 A 
ATOM     49  C   UNL A   1      43.572  27.619  32.956  1.00  0.00     0.031 C 
ATOM     50  C   UNL A   1      38.440  30.744  29.607  1.00  0.00     0.029 A 
ATOM     51  C   UNL A   1      38.681  31.178  30.981  1.00  0.00     0.049 A 
ATOM     52  H   UNL A   1      40.157  30.488  32.280  1.00  0.00     0.167 HD
ATOM     53  C   UNL A   1      43.220  29.043  34.955  1.00  0.00     0.031 A 
ATOM     54  C   UNL A   1      37.966  32.121  31.630  1.00  0.00     0.031 A 
ATOM     55  C   UNL A   1      42.564  30.090  35.699  1.00  0.00     0.049 A 
ATOM     56  C   UNL A   1      38.327  32.505  33.040  1.00  0.00     0.074 A 
ATOM     57  C   UNL A   1      42.867  30.561  36.968  1.00  0.00     0.029 A 
ATOM     58  N   UNL A   1      41.479  30.826  35.253  1.00  0.00    -0.354 N 
ATOM     59  N   UNL A   1      39.292  32.045  33.798  1.00  0.00    -0.248 NA
ATOM     60  C   UNL A   1      37.506  33.547  33.677  1.00  0.00     0.031 C 
ATOM     61  C   UNL A   1      41.932  31.546  37.307  1.00  0.00     0.029 A 
ATOM     62  C   UNL A   1      41.083  31.728  36.229  1.00  0.00     0.049 A 
ATOM     63  H   UNL A   1      41.051  30.724  34.373  1.00  0.00     0.167 HD
ATOM     64  C   UNL A   1      39.211  32.760  34.989  1.00  0.00     0.074 A 
ATOM     65  C   UNL A   1      38.112  33.690  34.849  1.00  0.00     0.031 C 
ATOM     66  C   UNL A   1      39.986  32.654  36.096  1.00  0.00     0.031 A 
BRANCH  53  67
ATOM     67  C   UNL A   1      44.343  28.302  35.635  1.00  0.00    -0.014 A 
ATOM     68  C   UNL A   1      44.092  27.150  36.404  1.00  0.00     0.010 A 
ATOM     69  C   UNL A   1      45.673  28.726  35.458  1.00  0.00     0.010 A 
ATOM     70  C   UNL A   1      45.143  26.465  37.019  1.00  0.00     0.020 A 
ATOM     71  C   UNL A   1      46.730  28.028  36.050  1.00  0.00     0.020 A 
ATOM     72  C   UNL A   1      46.456  26.913  36.843  1.00  0.00     0.054 A 
BRANCH  72  73
ATOM     73  S   UNL A   1      47.805  26.002  37.645  1.00  0.00     0.124 S 
ATOM     74  O   UNL A   1      47.611  24.654  37.115  1.00  0.00    -0.237 OA
ATOM     75  O   UNL A   1      48.996  26.700  37.158  1.00  0.00    -0.237 OA
ATOM     76  O   UNL A   1      47.534  26.158  39.068  1.00  0.00    -0.744 OA
ENDBRANCH  72  73
ENDBRANCH  53  67
BRANCH  54  77
ATOM     77  C   UNL A   1      36.830  32.790  30.939  1.00  0.00    -0.014 A 
ATOM     78  C   UNL A   1      35.518  32.308  31.091  1.00  0.00     0.010 A 
ATOM     79  C   UNL A   1      37.056  33.919  30.131  1.00  0.00     0.010 A 
ATOM     80  C   UNL A   1      34.454  32.936  30.439  1.00  0.00     0.020 A 
ATOM     81  C   UNL A   1      35.991  34.566  29.500  1.00  0.00     0.020 A 
ATOM     82  C   UNL A   1      34.696  34.063  29.650  1.00  0.00     0.054 A 
BRANCH  82  83
ATOM     83  S   UNL A   1      33.292  34.902  28.864  1.00  0.00     0.124 S 
ATOM     84  O   UNL A   1      32.783  33.868  27.969  1.00  0.00    -0.237 OA
ATOM     85  O   UNL A   1      32.440  35.229  30.004  1.00  0.00    -0.237 OA
ATOM     86  O   UNL A   1      33.909  36.053  28.207  1.00  0.00    -0.744 OA
ENDBRANCH  82  83
ENDBRANCH  54  77
BRANCH  66  87
ATOM     87  C   UNL A   1      39.697  33.585  37.246  1.00  0.00    -0.014 A 
ATOM     88  C   UNL A   1      38.940  33.164  38.354  1.00  0.00     0.010 A 
ATOM     89  C   UNL A   1      40.235  34.885  37.242  1.00  0.00     0.010 A 
ATOM     90  C   UNL A   1      38.701  34.037  39.422  1.00  0.00     0.020 A 
ATOM     91  C   UNL A   1      40.018  35.752  38.318  1.00  0.00     0.020 A 
ATOM     92  C   UNL A   1      39.241  35.326  39.395  1.00  0.00     0.054 A 
BRANCH  92  93
ATOM     93  S   UNL A   1      38.955  36.424  40.812  1.00  0.00     0.124 S 
ATOM     94  O   UNL A   1      37.872  35.739  41.514  1.00  0.00    -0.237 OA
ATOM     95  O   UNL A   1      40.248  36.417  41.493  1.00  0.00    -0.237 OA
ATOM     96  O   UNL A   1      38.590  37.697  40.196  1.00  0.00    -0.744 OA
ENDBRANCH  92  93
ENDBRANCH  66  87
ENDBRANCH  40  41
ENDBRANCH  32  35
ENDBRANCH  30  31
ENDBRANCH  29  30
ENDBRANCH  28  29
ENDBRANCH   1  28
TORSDOF 21
ENDMDL
MODEL 2
REMARK VINA RESULT:     -10.5      4.908      6.384
REMARK SMILES CC(C)[C@H]([NH2+]C[C@H]1CC[C@@H](C(=O)NCCCCCCNC(=O)c2ccc(-c3c4nc(c(-c5ccc(S(=O)(=O)[O-])cc5)c5ccc([nH]5)c(-c5ccc(S(=O)(=O)[O-])cc5)c5nc(c(-c6ccc(S(=O)(=O)[O-])cc6)c6ccc3[nH]6)C=C5)C=C4)cc2)CC1)c1ccccc1
REMARK SMILES IDX 16 1 15 2 14 3 13 4 11 5 12 6 10 8 7 9 8 10 84 11 9 12 83 13
REMARK SMILES IDX 6 14 5 15 4 18 2 19 1 20 3 21 85 22 86 23 90 24 87 25 89 26
REMARK SMILES IDX 88 27 17 28 18 29 19 30 20 31 21 32 22 34 23 35 24 36 82 37
REMARK SMILES IDX 25 38 81 39 26 40 27 41 28 42 75 43 29 44 80 45 74 46 76 47
REMARK SMILES IDX 30 48 79 49 73 50 72 51 31 53 61 54 42 55 60 56 43 57 46 58
REMARK SMILES IDX 59 59 77 60 44 61 45 62 58 64 78 65 47 66 32 67 33 68 41 69
REMARK SMILES IDX 34 70 40 71 35 72 36 73 37 74 38 75 39 76 62 77 63 78 71 79
REMARK SMILES IDX 64 80 70 81 65 82 66 83 67 84 68 85 69 86 48 87 49 88 57 89
REMARK SMILES IDX 50 90 56 91 51 92 52 93 53 94 54 95 55 96
REMARK H PARENT 13 7 5 16 5 17 20 33 76 52 46 63
REMARK Flexibility Score: inf
ROOT
ATOM      1  C   UNL A   1      34.469  23.697  23.118  1.00  0.00     0.002 C 
ENDROOT
BRANCH   1   2
ATOM      2  C   UNL A   1      33.261  22.997  22.483  1.00  0.00     0.021 C 
BRANCH   2   3
ATOM      3  C   UNL A   1      32.192  22.447  23.431  1.00  0.00     0.116 C 
BRANCH   3   4
ATOM      4  N   UNL A   1      32.705  21.464  24.362  1.00  0.00    -0.356 N 
ATOM      5  C   UNL A   1      32.799  21.431  25.715  1.00  0.00     0.223 C 
ATOM      6  O   UNL A   1      33.202  20.357  26.187  1.00  0.00    -0.275 OA
ATOM      7  H   UNL A   1      33.058  20.656  23.925  1.00  0.00     0.163 HD
BRANCH   5   8
ATOM      8  C   UNL A   1      32.487  22.591  26.685  1.00  0.00     0.078 C 
ATOM      9  C   UNL A   1      31.374  25.333  26.033  1.00  0.00     0.044 C 
ATOM     10  C   UNL A   1      30.432  24.126  26.219  1.00  0.00     0.010 C 
ATOM     11  C   UNL A   1      32.836  24.944  25.722  1.00  0.00     0.010 C 
ATOM     12  C   UNL A   1      31.022  22.928  26.958  1.00  0.00     0.014 C 
ATOM     13  C   UNL A   1      33.391  23.814  26.572  1.00  0.00     0.014 C 
BRANCH   9  14
ATOM     14  C   UNL A   1      30.805  26.324  24.966  1.00  0.00     0.264 C 
BRANCH  14  15
ATOM     15  N   UNL A   1      31.274  27.674  25.268  1.00  0.00    -0.340 N 
ATOM     16  H   UNL A   1      30.613  28.325  24.842  1.00  0.00     0.346 HD
ATOM     17  H   UNL A   1      31.332  27.696  26.286  1.00  0.00     0.346 HD
BRANCH  15  18
ATOM     18  C   UNL A   1      32.617  28.066  24.822  1.00  0.00     0.216 C 
BRANCH  18  19
ATOM     19  C   UNL A   1      32.710  28.359  23.295  1.00  0.00     0.046 C 
ATOM     20  C   UNL A   1      34.123  28.804  22.874  1.00  0.00     0.014 C 
ATOM     21  C   UNL A   1      32.395  27.091  22.469  1.00  0.00     0.014 C 
ENDBRANCH  18  19
BRANCH  18  22
ATOM     22  C   UNL A   1      33.327  28.943  25.850  1.00  0.00     0.009 A 
ATOM     23  C   UNL A   1      34.537  28.599  26.456  1.00  0.00     0.010 A 
ATOM     24  C   UNL A   1      32.713  30.151  26.255  1.00  0.00     0.010 A 
ATOM     25  C   UNL A   1      35.074  29.393  27.477  1.00  0.00     0.001 A 
ATOM     26  C   UNL A   1      33.258  30.954  27.255  1.00  0.00     0.001 A 
ATOM     27  C   UNL A   1      34.431  30.562  27.882  1.00  0.00     0.000 A 
ENDBRANCH  18  22
ENDBRANCH  15  18
ENDBRANCH  14  15
ENDBRANCH   9  14
ENDBRANCH   5   8
ENDBRANCH   3   4
ENDBRANCH   2   3
ENDBRANCH   1   2
BRANCH   1  28
ATOM     28  C   UNL A   1      35.697  22.831  23.449  1.00  0.00     0.002 C 
BRANCH  28  29
ATOM     29  C   UNL A   1      36.843  23.475  24.242  1.00  0.00     0.021 C 
BRANCH  29  30
ATOM     30  C   UNL A   1      36.950  23.134  25.737  1.00  0.00     0.116 C 
BRANCH  30  31
ATOM     31  N   UNL A   1      37.913  22.087  26.012  1.00  0.00    -0.352 N 
ATOM     32  C   UNL A   1      39.240  22.169  26.370  1.00  0.00     0.251 C 
ATOM     33  H   UNL A   1      37.562  21.171  25.931  1.00  0.00     0.163 HD
ATOM     34  O   UNL A   1      39.903  21.132  26.375  1.00  0.00    -0.269 OA
BRANCH  32  35
ATOM     35  C   UNL A   1      39.909  23.451  26.739  1.00  0.00     0.039 A 
ATOM     36  C   UNL A   1      40.524  23.536  27.996  1.00  0.00     0.014 A 
ATOM     37  C   UNL A   1      39.838  24.602  25.950  1.00  0.00     0.014 A 
ATOM     38  C   UNL A   1      41.078  24.744  28.448  1.00  0.00     0.010 A 
ATOM     39  C   UNL A   1      40.419  25.805  26.394  1.00  0.00     0.010 A 
ATOM     40  C   UNL A   1      41.043  25.898  27.648  1.00  0.00    -0.014 A 
BRANCH  40  41
ATOM     41  C   UNL A   1      41.656  27.179  28.121  1.00  0.00     0.031 A 
ATOM     42  C   UNL A   1      43.153  27.387  28.110  1.00  0.00     0.074 A 
ATOM     43  C   UNL A   1      40.872  28.176  28.582  1.00  0.00     0.049 A 
ATOM     44  N   UNL A   1      43.845  28.440  28.474  1.00  0.00    -0.248 NA
ATOM     45  C   UNL A   1      43.979  26.266  27.639  1.00  0.00     0.031 C 
ATOM     46  C   UNL A   1      39.413  28.128  28.677  1.00  0.00     0.029 A 
ATOM     47  N   UNL A   1      41.192  29.427  29.058  1.00  0.00    -0.354 N 
ATOM     48  C   UNL A   1      45.183  28.110  28.284  1.00  0.00     0.074 A 
ATOM     49  C   UNL A   1      45.206  26.742  27.810  1.00  0.00     0.031 C 
ATOM     50  C   UNL A   1      38.964  29.298  29.158  1.00  0.00     0.029 A 
ATOM     51  C   UNL A   1      40.101  30.174  29.435  1.00  0.00     0.049 A 
ATOM     52  H   UNL A   1      42.118  29.757  29.123  1.00  0.00     0.167 HD
ATOM     53  C   UNL A   1      46.291  28.872  28.470  1.00  0.00     0.031 A 
ATOM     54  C   UNL A   1      40.010  31.420  29.944  1.00  0.00     0.031 A 
ATOM     55  C   UNL A   1      46.287  30.236  28.935  1.00  0.00     0.049 A 
ATOM     56  C   UNL A   1      41.254  32.240  30.161  1.00  0.00     0.074 A 
ATOM     57  C   UNL A   1      47.366  31.091  29.100  1.00  0.00     0.029 A 
ATOM     58  N   UNL A   1      45.159  30.946  29.313  1.00  0.00    -0.354 N 
ATOM     59  N   UNL A   1      42.502  31.924  29.918  1.00  0.00    -0.248 NA
ATOM     60  C   UNL A   1      41.071  33.593  30.711  1.00  0.00     0.031 C 
ATOM     61  C   UNL A   1      46.895  32.300  29.625  1.00  0.00     0.029 A 
ATOM     62  C   UNL A   1      45.518  32.218  29.734  1.00  0.00     0.049 A 
ATOM     63  H   UNL A   1      44.239  30.600  29.286  1.00  0.00     0.167 HD
ATOM     64  C   UNL A   1      43.250  33.046  30.259  1.00  0.00     0.074 A 
ATOM     65  C   UNL A   1      42.315  34.053  30.715  1.00  0.00     0.031 C 
ATOM     66  C   UNL A   1      44.592  33.223  30.193  1.00  0.00     0.031 A 
BRANCH  53  67
ATOM     67  C   UNL A   1      47.628  28.240  28.172  1.00  0.00    -0.014 A 
ATOM     68  C   UNL A   1      48.329  27.524  29.161  1.00  0.00     0.010 A 
ATOM     69  C   UNL A   1      48.165  28.312  26.873  1.00  0.00     0.010 A 
ATOM     70  C   UNL A   1      49.560  26.933  28.869  1.00  0.00     0.020 A 
ATOM     71  C   UNL A   1      49.385  27.699  26.570  1.00  0.00     0.020 A 
ATOM     72  C   UNL A   1      50.084  27.031  27.576  1.00  0.00     0.054 A 
BRANCH  72  73
ATOM     73  S   UNL A   1      51.682  26.248  27.219  1.00  0.00     0.124 S 
ATOM     74  O   UNL A   1      51.281  24.873  26.923  1.00  0.00    -0.237 OA
ATOM     75  O   UNL A   1      52.167  27.018  26.073  1.00  0.00    -0.237 OA
ATOM     76  O   UNL A   1      52.440  26.425  28.449  1.00  0.00    -0.744 OA
ENDBRANCH  72  73
ENDBRANCH  53  67
BRANCH  54  77
ATOM     77  C   UNL A   1      38.673  31.985  30.275  1.00  0.00    -0.014 A 
ATOM     78  C   UNL A   1      37.873  32.561  29.273  1.00  0.00     0.010 A 
ATOM     79  C   UNL A   1      38.191  31.942  31.596  1.00  0.00     0.010 A 
ATOM     80  C   UNL A   1      36.620  33.093  29.586  1.00  0.00     0.020 A 
ATOM     81  C   UNL A   1      36.927  32.449  31.908  1.00  0.00     0.020 A 
ATOM     82  C   UNL A   1      36.153  33.031  30.902  1.00  0.00     0.054 A 
BRANCH  82  83
ATOM     83  S   UNL A   1      34.497  33.671  31.276  1.00  0.00     0.124 S 
ATOM     84  O   UNL A   1      34.801  34.948  31.913  1.00  0.00    -0.237 OA
ATOM     85  O   UNL A   1      33.882  33.751  29.954  1.00  0.00    -0.237 OA
ATOM     86  O   UNL A   1      33.929  32.650  32.156  1.00  0.00    -0.744 OA
ENDBRANCH  82  83
ENDBRANCH  54  77
BRANCH  66  87
ATOM     87  C   UNL A   1      45.143  34.567  30.599  1.00  0.00    -0.014 A 
ATOM     88  C   UNL A   1      45.546  34.822  31.922  1.00  0.00     0.010 A 
ATOM     89  C   UNL A   1      45.308  35.573  29.630  1.00  0.00     0.010 A 
ATOM     90  C   UNL A   1      46.076  36.068  32.273  1.00  0.00     0.020 A 
ATOM     91  C   UNL A   1      45.859  36.812  29.972  1.00  0.00     0.020 A 
ATOM     92  C   UNL A   1      46.227  37.056  31.295  1.00  0.00     0.054 A 
BRANCH  92  93
ATOM     93  S   UNL A   1      46.958  38.650  31.767  1.00  0.00     0.124 S 
ATOM     94  O   UNL A   1      45.932  39.595  31.332  1.00  0.00    -0.237 OA
ATOM     95  O   UNL A   1      47.117  38.517  33.213  1.00  0.00    -0.237 OA
ATOM     96  O   UNL A   1      48.207  38.695  31.011  1.00  0.00    -0.744 OA
ENDBRANCH  92  93
ENDBRANCH  66  87
ENDBRANCH  40  41
ENDBRANCH  32  35
ENDBRANCH  30  31
ENDBRANCH  29  30
ENDBRANCH  28  29
ENDBRANCH   1  28
TORSDOF 21
ENDMDL
MODEL 3
REMARK VINA RESULT:     -10.4      1.083      8.160
REMARK SMILES CC(C)[C@H]([NH2+]C[C@H]1CC[C@@H](C(=O)NCCCCCCNC(=O)c2ccc(-c3c4nc(c(-c5ccc(S(=O)(=O)[O-])cc5)c5ccc([nH]5)c(-c5ccc(S(=O)(=O)[O-])cc5)c5nc(c(-c6ccc(S(=O)(=O)[O-])cc6)c6ccc3[nH]6)C=C5)C=C4)cc2)CC1)c1ccccc1
REMARK SMILES IDX 16 1 15 2 14 3 13 4 11 5 12 6 10 8 7 9 8 10 84 11 9 12 83 13
REMARK SMILES IDX 6 14 5 15 4 18 2 19 1 20 3 21 85 22 86 23 90 24 87 25 89 26
REMARK SMILES IDX 88 27 17 28 18 29 19 30 20 31 21 32 22 34 23 35 24 36 82 37
REMARK SMILES IDX 25 38 81 39 26 40 27 41 28 42 75 43 29 44 80 45 74 46 76 47
REMARK SMILES IDX 30 48 79 49 73 50 72 51 31 53 61 54 42 55 60 56 43 57 46 58
REMARK SMILES IDX 59 59 77 60 44 61 45 62 58 64 78 65 47 66 32 67 33 68 41 69
REMARK SMILES IDX 34 70 40 71 35 72 36 73 37 74 38 75 39 76 62 77 63 78 71 79
REMARK SMILES IDX 64 80 70 81 65 82 66 83 67 84 68 85 69 86 48 87 49 88 57 89
REMARK SMILES IDX 50 90 56 91 51 92 52 93 53 94 54 95 55 96
REMARK H PARENT 13 7 5 16 5 17 20 33 76 52 46 63
REMARK Flexibility Score: inf
ROOT
ATOM      1  C   UNL A   1      36.139  22.046  25.751  1.00  0.00     0.002 C 
ENDROOT
BRANCH   1   2
ATOM      2  C   UNL A   1      35.787  20.757  24.999  1.00  0.00     0.021 C 
BRANCH   2   3
ATOM      3  C   UNL A   1      34.319  20.322  25.005  1.00  0.00     0.116 C 
BRANCH   3   4
ATOM      4  N   UNL A   1      33.434  21.304  25.593  1.00  0.00    -0.356 N 
ATOM      5  C   UNL A   1      32.616  22.249  25.064  1.00  0.00     0.223 C 
ATOM      6  O   UNL A   1      31.908  22.849  25.886  1.00  0.00    -0.275 OA
ATOM      7  H   UNL A   1      33.422  21.283  26.577  1.00  0.00     0.163 HD
BRANCH   5   8
ATOM      8  C   UNL A   1      32.519  22.648  23.576  1.00  0.00     0.078 C 
ATOM      9  C   UNL A   1      32.541  25.431  22.376  1.00  0.00     0.044 C 
ATOM     10  C   UNL A   1      33.861  24.712  22.718  1.00  0.00     0.010 C 
ATOM     11  C   UNL A   1      31.309  24.865  23.118  1.00  0.00     0.010 C 
ATOM     12  C   UNL A   1      33.770  23.199  22.893  1.00  0.00     0.014 C 
ATOM     13  C   UNL A   1      31.230  23.349  23.158  1.00  0.00     0.014 C 
BRANCH   9  14
ATOM     14  C   UNL A   1      32.677  26.975  22.585  1.00  0.00     0.264 C 
BRANCH  14  15
ATOM     15  N   UNL A   1      31.411  27.618  22.240  1.00  0.00    -0.340 N 
ATOM     16  H   UNL A   1      31.500  27.961  21.283  1.00  0.00     0.346 HD
ATOM     17  H   UNL A   1      30.712  26.890  22.392  1.00  0.00     0.346 HD
BRANCH  15  18
ATOM     18  C   UNL A   1      30.948  28.742  23.063  1.00  0.00     0.216 C 
BRANCH  18  19
ATOM     19  C   UNL A   1      29.508  29.224  22.711  1.00  0.00     0.046 C 
ATOM     20  C   UNL A   1      28.438  28.187  23.101  1.00  0.00     0.014 C 
ATOM     21  C   UNL A   1      29.155  30.516  23.481  1.00  0.00     0.014 C 
ENDBRANCH  18  19
BRANCH  18  22
ATOM     22  C   UNL A   1      31.422  28.625  24.509  1.00  0.00     0.009 A 
ATOM     23  C   UNL A   1      31.032  27.598  25.371  1.00  0.00     0.010 A 
ATOM     24  C   UNL A   1      32.265  29.632  25.033  1.00  0.00     0.010 A 
ATOM     25  C   UNL A   1      31.409  27.616  26.719  1.00  0.00     0.001 A 
ATOM     26  C   UNL A   1      32.661  29.640  26.369  1.00  0.00     0.001 A 
ATOM     27  C   UNL A   1      32.214  28.639  27.219  1.00  0.00     0.000 A 
ENDBRANCH  18  22
ENDBRANCH  15  18
ENDBRANCH  14  15
ENDBRANCH   9  14
ENDBRANCH   5   8
ENDBRANCH   3   4
ENDBRANCH   2   3
ENDBRANCH   1   2
BRANCH   1  28
ATOM     28  C   UNL A   1      37.488  22.710  25.426  1.00  0.00     0.002 C 
BRANCH  28  29
ATOM     29  C   UNL A   1      38.746  22.168  26.121  1.00  0.00     0.021 C 
BRANCH  29  30
ATOM     30  C   UNL A   1      39.629  23.175  26.875  1.00  0.00     0.116 C 
BRANCH  30  31
ATOM     31  N   UNL A   1      40.812  23.560  26.133  1.00  0.00    -0.352 N 
ATOM     32  C   UNL A   1      41.640  24.651  26.279  1.00  0.00     0.251 C 
ATOM     33  H   UNL A   1      41.064  22.943  25.409  1.00  0.00     0.163 HD
ATOM     34  O   UNL A   1      42.485  24.857  25.408  1.00  0.00    -0.269 OA
BRANCH  32  35
ATOM     35  C   UNL A   1      41.552  25.594  27.432  1.00  0.00     0.039 A 
ATOM     36  C   UNL A   1      40.460  25.471  28.302  1.00  0.00     0.014 A 
ATOM     37  C   UNL A   1      42.431  26.666  27.608  1.00  0.00     0.014 A 
ATOM     38  C   UNL A   1      40.260  26.391  29.344  1.00  0.00     0.010 A 
ATOM     39  C   UNL A   1      42.244  27.571  28.670  1.00  0.00     0.010 A 
ATOM     40  C   UNL A   1      41.157  27.452  29.550  1.00  0.00    -0.014 A 
BRANCH  40  41
ATOM     41  C   UNL A   1      40.957  28.418  30.677  1.00  0.00     0.031 A 
ATOM     42  C   UNL A   1      39.885  29.482  30.622  1.00  0.00     0.074 A 
ATOM     43  C   UNL A   1      41.751  28.361  31.767  1.00  0.00     0.049 A 
ATOM     44  N   UNL A   1      39.573  30.389  31.517  1.00  0.00    -0.248 NA
ATOM     45  C   UNL A   1      39.065  29.542  29.403  1.00  0.00     0.031 C 
ATOM     46  C   UNL A   1      42.843  27.408  31.967  1.00  0.00     0.029 A 
ATOM     47  N   UNL A   1      41.762  29.121  32.914  1.00  0.00    -0.354 N 
ATOM     48  C   UNL A   1      38.530  31.130  30.971  1.00  0.00     0.074 A 
ATOM     49  C   UNL A   1      38.289  30.590  29.649  1.00  0.00     0.031 C 
ATOM     50  C   UNL A   1      43.403  27.626  33.169  1.00  0.00     0.029 A 
ATOM     51  C   UNL A   1      42.732  28.750  33.817  1.00  0.00     0.049 A 
ATOM     52  H   UNL A   1      41.133  29.862  33.074  1.00  0.00     0.167 HD
ATOM     53  C   UNL A   1      37.823  32.152  31.517  1.00  0.00     0.031 A 
ATOM     54  C   UNL A   1      43.054  29.248  35.028  1.00  0.00     0.031 A 
ATOM     55  C   UNL A   1      38.044  32.698  32.833  1.00  0.00     0.049 A 
ATOM     56  C   UNL A   1      42.270  30.396  35.606  1.00  0.00     0.074 A 
ATOM     57  C   UNL A   1      37.336  33.701  33.477  1.00  0.00     0.029 A 
ATOM     58  N   UNL A   1      39.043  32.297  33.705  1.00  0.00    -0.354 N 
ATOM     59  N   UNL A   1      41.251  31.039  35.093  1.00  0.00    -0.248 NA
ATOM     60  C   UNL A   1      42.677  30.876  36.937  1.00  0.00     0.031 C 
ATOM     61  C   UNL A   1      37.938  33.941  34.718  1.00  0.00     0.029 A 
ATOM     62  C   UNL A   1      38.986  33.049  34.870  1.00  0.00     0.049 A 
ATOM     63  H   UNL A   1      39.696  31.584  33.526  1.00  0.00     0.167 HD
ATOM     64  C   UNL A   1      40.877  31.980  36.047  1.00  0.00     0.074 A 
ATOM     65  C   UNL A   1      41.771  31.816  37.173  1.00  0.00     0.031 C 
ATOM     66  C   UNL A   1      39.877  32.893  35.992  1.00  0.00     0.031 A 
BRANCH  53  67
ATOM     67  C   UNL A   1      36.729  32.767  30.681  1.00  0.00    -0.014 A 
ATOM     68  C   UNL A   1      37.003  33.818  29.786  1.00  0.00     0.010 A 
ATOM     69  C   UNL A   1      35.421  32.251  30.747  1.00  0.00     0.010 A 
ATOM     70  C   UNL A   1      35.983  34.371  29.008  1.00  0.00     0.020 A 
ATOM     71  C   UNL A   1      34.403  32.784  29.950  1.00  0.00     0.020 A 
ATOM     72  C   UNL A   1      34.687  33.854  29.101  1.00  0.00     0.054 A 
BRANCH  72  73
ATOM     73  S   UNL A   1      33.379  34.583  28.074  1.00  0.00     0.124 S 
ATOM     74  O   UNL A   1      34.156  35.250  27.031  1.00  0.00    -0.237 OA
ATOM     75  O   UNL A   1      32.623  33.409  27.637  1.00  0.00    -0.237 OA
ATOM     76  O   UNL A   1      32.672  35.470  28.988  1.00  0.00    -0.744 OA
ENDBRANCH  72  73
ENDBRANCH  53  67
BRANCH  54  77
ATOM     77  C   UNL A   1      44.178  28.645  35.797  1.00  0.00    -0.014 A 
ATOM     78  C   UNL A   1      45.488  29.130  35.645  1.00  0.00     0.010 A 
ATOM     79  C   UNL A   1      43.938  27.587  36.693  1.00  0.00     0.010 A 
ATOM     80  C   UNL A   1      46.542  28.561  36.365  1.00  0.00     0.020 A 
ATOM     81  C   UNL A   1      44.984  27.034  37.435  1.00  0.00     0.020 A 
ATOM     82  C   UNL A   1      46.282  27.518  37.259  1.00  0.00     0.054 A 
BRANCH  82  83
ATOM     83  S   UNL A   1      47.653  26.836  38.232  1.00  0.00     0.124 S 
ATOM     84  O   UNL A   1      47.148  26.959  39.596  1.00  0.00    -0.237 OA
ATOM     85  O   UNL A   1      47.761  25.474  37.716  1.00  0.00    -0.237 OA
ATOM     86  O   UNL A   1      48.776  27.710  37.897  1.00  0.00    -0.744 OA
ENDBRANCH  82  83
ENDBRANCH  54  77
BRANCH  66  87
ATOM     87  C   UNL A   1      39.669  33.779  37.194  1.00  0.00    -0.014 A 
ATOM     88  C   UNL A   1      40.294  35.034  37.294  1.00  0.00     0.010 A 
ATOM     89  C   UNL A   1      38.794  33.370  38.217  1.00  0.00     0.010 A 
ATOM     90  C   UNL A   1      40.070  35.852  38.408  1.00  0.00     0.020 A 
ATOM     91  C   UNL A   1      38.549  34.193  39.321  1.00  0.00     0.020 A 
ATOM     92  C   UNL A   1      39.200  35.424  39.415  1.00  0.00     0.054 A 
BRANCH  92  93
ATOM     93  S   UNL A   1      38.892  36.521  40.829  1.00  0.00     0.124 S 
ATOM     94  O   UNL A   1      38.267  37.675  40.188  1.00  0.00    -0.237 OA
ATOM     95  O   UNL A   1      38.011  35.718  41.674  1.00  0.00    -0.237 OA
ATOM     96  O   UNL A   1      40.224  36.759  41.379  1.00  0.00    -0.744 OA
ENDBRANCH  92  93
ENDBRANCH  66  87
ENDBRANCH  40  41
ENDBRANCH  32  35
ENDBRANCH  30  31
ENDBRANCH  29  30
ENDBRANCH  28  29
ENDBRANCH   1  28
TORSDOF 21
ENDMDL
