MODEL 1
REMARK VINA RESULT:     -11.2      0.000      0.000
REMARK SMILES Cc1nonc1C[C@@H](C(=O)NCCCCCCNC(=O)c1ccc(-c2c3nc(c(-c4ccc(S(=O)(=O)[O-])cc4)c4ccc([nH]4)c(-c4ccc(S(=O)(=O)[O-])cc4)c4nc(c(-c5ccc(S(=O)(=O)[O-])cc5)c5ccc2[nH]5)C=C4)C=C3)cc1)c1ccccc1Br
REMARK SMILES IDX 15 1 14 2 13 3 12 4 11 5 9 6 10 7 8 9 7 10 6 11 1 12 2 13
REMARK SMILES IDX 3 14 4 15 5 16 81 17 82 18 86 19 83 20 85 21 87 22 84 23
REMARK SMILES IDX 16 24 17 25 18 26 19 27 20 29 21 30 22 31 80 32 23 33 79 34
REMARK SMILES IDX 24 35 25 36 26 37 73 38 27 39 78 40 72 41 74 42 28 43 77 44
REMARK SMILES IDX 71 45 70 46 29 48 59 49 40 50 58 51 41 52 44 53 57 54 75 55
REMARK SMILES IDX 42 56 43 57 56 59 76 60 45 61 30 62 31 63 39 64 32 65 38 66
REMARK SMILES IDX 33 67 34 68 35 69 36 70 37 71 60 72 61 73 69 74 62 75 68 76
REMARK SMILES IDX 63 77 64 78 65 79 66 80 67 81 46 82 47 83 55 84 48 85 54 86
REMARK SMILES IDX 49 87 50 88 51 89 52 90 53 91
REMARK H PARENT 11 8 18 28 74 47 44 58
REMARK Flexibility Score: inf
ROOT
ATOM      1  C   UNL A   1      33.223  26.543  25.232  1.00  0.00     0.002 C 
ENDROOT
BRANCH   1   2
ATOM      2  C   UNL A   1      32.364  25.660  26.139  1.00  0.00     0.002 C 
BRANCH   2   3
ATOM      3  C   UNL A   1      31.410  24.712  25.407  1.00  0.00     0.021 C 
BRANCH   3   4
ATOM      4  C   UNL A   1      31.087  23.422  26.165  1.00  0.00     0.116 C 
BRANCH   4   5
ATOM      5  N   UNL A   1      32.290  22.958  26.831  1.00  0.00    -0.356 N 
ATOM      6  C   UNL A   1      33.016  21.820  26.620  1.00  0.00     0.227 C 
ATOM      7  O   UNL A   1      33.673  21.380  27.568  1.00  0.00    -0.274 OA
ATOM      8  H   UNL A   1      32.633  23.550  27.539  1.00  0.00     0.163 HD
BRANCH   6   9
ATOM      9  C   UNL A   1      33.097  21.186  25.214  1.00  0.00     0.116 C 
BRANCH   9  10
ATOM     10  C   UNL A   1      33.076  19.645  25.377  1.00  0.00     0.080 C 
BRANCH  10  11
ATOM     11  C   UNL A   1      33.091  18.812  24.145  1.00  0.00     0.109 A 
ATOM     12  C   UNL A   1      34.806  16.892  24.660  1.00  0.00     0.073 C 
ATOM     13  C   UNL A   1      33.821  17.641  23.851  1.00  0.00     0.105 A 
ATOM     14  N   UNL A   1      33.465  17.192  22.646  1.00  0.00    -0.055 NA
ATOM     15  O   UNL A   1      32.458  18.047  22.221  1.00  0.00    -0.244 OA
ATOM     16  N   UNL A   1      32.218  19.040  23.163  1.00  0.00    -0.055 NA
ENDBRANCH  10  11
ENDBRANCH   9  10
BRANCH   9  17
ATOM     17  C   UNL A   1      34.390  21.685  24.491  1.00  0.00    -0.021 A 
ATOM     18  C   UNL A   1      35.669  21.234  24.894  1.00  0.00     0.006 A 
ATOM     19  C   UNL A   1      34.371  22.635  23.445  1.00  0.00     0.021 A 
ATOM     20  C   UNL A   1      36.852  21.771  24.375  1.00  0.00     0.000 A 
ATOM     21  C   UNL A   1      35.561  23.205  22.958  1.00  0.00     0.016 A 
ATOM     22  Br  UNL A   1      32.788  23.188  22.542  1.00  0.00    -0.051 Br
ATOM     23  C   UNL A   1      36.798  22.786  23.435  1.00  0.00     0.001 A 
ENDBRANCH   9  17
ENDBRANCH   6   9
ENDBRANCH   4   5
ENDBRANCH   3   4
ENDBRANCH   2   3
ENDBRANCH   1   2
BRANCH   1  24
ATOM     24  C   UNL A   1      33.959  27.694  25.926  1.00  0.00     0.021 C 
BRANCH  24  25
ATOM     25  C   UNL A   1      33.353  28.166  27.247  1.00  0.00     0.116 C 
BRANCH  25  26
ATOM     26  N   UNL A   1      33.291  29.614  27.343  1.00  0.00    -0.352 N 
ATOM     27  C   UNL A   1      34.223  30.502  27.821  1.00  0.00     0.251 C 
ATOM     28  H   UNL A   1      32.457  30.020  27.013  1.00  0.00     0.163 HD
ATOM     29  O   UNL A   1      33.917  31.680  27.984  1.00  0.00    -0.269 OA
BRANCH  27  30
ATOM     30  C   UNL A   1      35.586  30.040  28.167  1.00  0.00     0.039 A 
ATOM     31  C   UNL A   1      36.573  30.061  27.178  1.00  0.00     0.014 A 
ATOM     32  C   UNL A   1      35.889  29.564  29.447  1.00  0.00     0.014 A 
ATOM     33  C   UNL A   1      37.875  29.658  27.486  1.00  0.00     0.010 A 
ATOM     34  C   UNL A   1      37.201  29.222  29.769  1.00  0.00     0.010 A 
ATOM     35  C   UNL A   1      38.207  29.262  28.791  1.00  0.00    -0.014 A 
BRANCH  35  36
ATOM     36  C   UNL A   1      39.600  28.889  29.149  1.00  0.00     0.031 A 
ATOM     37  C   UNL A   1      40.501  29.881  29.832  1.00  0.00     0.074 A 
ATOM     38  C   UNL A   1      40.074  27.674  28.808  1.00  0.00     0.049 A 
ATOM     39  N   UNL A   1      41.756  29.752  30.180  1.00  0.00    -0.248 NA
ATOM     40  C   UNL A   1      39.923  31.197  30.147  1.00  0.00     0.031 C 
ATOM     41  C   UNL A   1      39.315  26.636  28.108  1.00  0.00     0.029 A 
ATOM     42  N   UNL A   1      41.311  27.112  28.996  1.00  0.00    -0.354 N 
ATOM     43  C   UNL A   1      42.124  30.971  30.736  1.00  0.00     0.074 A 
ATOM     44  C   UNL A   1      40.970  31.840  30.642  1.00  0.00     0.031 C 
ATOM     45  C   UNL A   1      40.096  25.557  27.943  1.00  0.00     0.029 A 
ATOM     46  C   UNL A   1      41.420  25.837  28.492  1.00  0.00     0.049 A 
ATOM     47  H   UNL A   1      42.052  27.577  29.447  1.00  0.00     0.167 HD
ATOM     48  C   UNL A   1      43.307  31.332  31.288  1.00  0.00     0.031 A 
ATOM     49  C   UNL A   1      42.465  24.989  28.469  1.00  0.00     0.031 A 
ATOM     50  C   UNL A   1      44.452  30.466  31.387  1.00  0.00     0.049 A 
ATOM     51  C   UNL A   1      43.768  25.407  29.089  1.00  0.00     0.074 A 
ATOM     52  C   UNL A   1      45.677  30.722  31.978  1.00  0.00     0.029 A 
ATOM     53  N   UNL A   1      44.515  29.177  30.880  1.00  0.00    -0.354 N 
ATOM     54  N   UNL A   1      44.077  26.544  29.666  1.00  0.00    -0.248 NA
ATOM     55  C   UNL A   1      44.861  24.425  29.067  1.00  0.00     0.031 C 
ATOM     56  C   UNL A   1      46.496  29.602  31.790  1.00  0.00     0.029 A 
ATOM     57  C   UNL A   1      45.764  28.631  31.125  1.00  0.00     0.049 A 
ATOM     58  H   UNL A   1      43.779  28.717  30.414  1.00  0.00     0.167 HD
ATOM     59  C   UNL A   1      45.392  26.406  30.095  1.00  0.00     0.074 A 
ATOM     60  C   UNL A   1      45.816  25.072  29.721  1.00  0.00     0.031 C 
ATOM     61  C   UNL A   1      46.176  27.304  30.743  1.00  0.00     0.031 A 
BRANCH  48  62
ATOM     62  C   UNL A   1      43.421  32.739  31.817  1.00  0.00    -0.014 A 
ATOM     63  C   UNL A   1      43.860  33.790  30.993  1.00  0.00     0.010 A 
ATOM     64  C   UNL A   1      43.070  33.015  33.151  1.00  0.00     0.010 A 
ATOM     65  C   UNL A   1      43.999  35.082  31.509  1.00  0.00     0.020 A 
ATOM     66  C   UNL A   1      43.182  34.311  33.663  1.00  0.00     0.020 A 
ATOM     67  C   UNL A   1      43.669  35.332  32.843  1.00  0.00     0.054 A 
BRANCH  67  68
ATOM     68  S   UNL A   1      43.862  37.015  33.490  1.00  0.00     0.124 S 
ATOM     69  O   UNL A   1      43.874  37.809  32.264  1.00  0.00    -0.237 OA
ATOM     70  O   UNL A   1      42.678  37.176  34.330  1.00  0.00    -0.237 OA
ATOM     71  O   UNL A   1      45.131  36.966  34.212  1.00  0.00    -0.744 OA
ENDBRANCH  67  68
ENDBRANCH  48  62
BRANCH  49  72
ATOM     72  C   UNL A   1      42.308  23.645  27.850  1.00  0.00    -0.014 A 
ATOM     73  C   UNL A   1      42.927  23.349  26.625  1.00  0.00     0.010 A 
ATOM     74  C   UNL A   1      41.572  22.642  28.507  1.00  0.00     0.010 A 
ATOM     75  C   UNL A   1      42.811  22.074  26.063  1.00  0.00     0.020 A 
ATOM     76  C   UNL A   1      41.472  21.360  27.959  1.00  0.00     0.020 A 
ATOM     77  C   UNL A   1      42.088  21.086  26.737  1.00  0.00     0.054 A 
BRANCH  77  78
ATOM     78  S   UNL A   1      42.015  19.416  26.029  1.00  0.00     0.124 S 
ATOM     79  O   UNL A   1      40.580  19.231  25.834  1.00  0.00    -0.237 OA
ATOM     80  O   UNL A   1      42.808  19.553  24.811  1.00  0.00    -0.237 OA
ATOM     81  O   UNL A   1      42.620  18.581  27.064  1.00  0.00    -0.744 OA
ENDBRANCH  77  78
ENDBRANCH  49  72
BRANCH  61  82
ATOM     82  C   UNL A   1      47.566  26.867  31.113  1.00  0.00    -0.014 A 
ATOM     83  C   UNL A   1      48.671  27.195  30.308  1.00  0.00     0.010 A 
ATOM     84  C   UNL A   1      47.777  26.162  32.314  1.00  0.00     0.010 A 
ATOM     85  C   UNL A   1      49.960  26.803  30.683  1.00  0.00     0.020 A 
ATOM     86  C   UNL A   1      49.065  25.790  32.704  1.00  0.00     0.020 A 
ATOM     87  C   UNL A   1      50.148  26.102  31.879  1.00  0.00     0.054 A 
BRANCH  87  88
ATOM     88  S   UNL A   1      51.834  25.643  32.368  1.00  0.00     0.124 S 
ATOM     89  O   UNL A   1      52.643  26.427  31.439  1.00  0.00    -0.237 OA
ATOM     90  O   UNL A   1      51.891  26.067  33.765  1.00  0.00    -0.237 OA
ATOM     91  O   UNL A   1      51.871  24.197  32.161  1.00  0.00    -0.744 OA
ENDBRANCH  87  88
ENDBRANCH  61  82
ENDBRANCH  35  36
ENDBRANCH  27  30
ENDBRANCH  25  26
ENDBRANCH  24  25
ENDBRANCH   1  24
TORSDOF 19
ENDMDL
MODEL 2
REMARK VINA RESULT:     -10.9      3.312      9.827
REMARK SMILES Cc1nonc1C[C@@H](C(=O)NCCCCCCNC(=O)c1ccc(-c2c3nc(c(-c4ccc(S(=O)(=O)[O-])cc4)c4ccc([nH]4)c(-c4ccc(S(=O)(=O)[O-])cc4)c4nc(c(-c5ccc(S(=O)(=O)[O-])cc5)c5ccc2[nH]5)C=C4)C=C3)cc1)c1ccccc1Br
REMARK SMILES IDX 15 1 14 2 13 3 12 4 11 5 9 6 10 7 8 9 7 10 6 11 1 12 2 13
REMARK SMILES IDX 3 14 4 15 5 16 81 17 82 18 86 19 83 20 85 21 87 22 84 23
REMARK SMILES IDX 16 24 17 25 18 26 19 27 20 29 21 30 22 31 80 32 23 33 79 34
REMARK SMILES IDX 24 35 25 36 26 37 73 38 27 39 78 40 72 41 74 42 28 43 77 44
REMARK SMILES IDX 71 45 70 46 29 48 59 49 40 50 58 51 41 52 44 53 57 54 75 55
REMARK SMILES IDX 42 56 43 57 56 59 76 60 45 61 30 62 31 63 39 64 32 65 38 66
REMARK SMILES IDX 33 67 34 68 35 69 36 70 37 71 60 72 61 73 69 74 62 75 68 76
REMARK SMILES IDX 63 77 64 78 65 79 66 80 67 81 46 82 47 83 55 84 48 85 54 86
REMARK SMILES IDX 49 87 50 88 51 89 52 90 53 91
REMARK H PARENT 11 8 18 28 74 47 44 58
REMARK Flexibility Score: inf
ROOT
ATOM      1  C   UNL A   1      35.022  23.013  23.361  1.00  0.00     0.002 C 
ENDROOT
BRANCH   1   2
ATOM      2  C   UNL A   1      33.839  23.976  23.482  1.00  0.00     0.002 C 
BRANCH   2   3
ATOM      3  C   UNL A   1      32.940  24.057  22.245  1.00  0.00     0.021 C 
BRANCH   3   4
ATOM      4  C   UNL A   1      32.065  25.311  22.175  1.00  0.00     0.116 C 
BRANCH   4   5
ATOM      5  N   UNL A   1      32.886  26.471  22.469  1.00  0.00    -0.356 N 
ATOM      6  C   UNL A   1      32.509  27.755  22.746  1.00  0.00     0.227 C 
ATOM      7  O   UNL A   1      33.313  28.654  22.483  1.00  0.00    -0.274 OA
ATOM      8  H   UNL A   1      33.857  26.310  22.469  1.00  0.00     0.163 HD
BRANCH   6   9
ATOM      9  C   UNL A   1      31.174  28.047  23.467  1.00  0.00     0.116 C 
BRANCH   9  10
ATOM     10  C   UNL A   1      30.366  29.047  22.601  1.00  0.00     0.080 C 
BRANCH  10  11
ATOM     11  C   UNL A   1      28.958  29.326  22.989  1.00  0.00     0.109 A 
ATOM     12  C   UNL A   1      28.824  31.941  23.178  1.00  0.00     0.073 C 
ATOM     13  C   UNL A   1      28.309  30.557  23.224  1.00  0.00     0.105 A 
ATOM     14  N   UNL A   1      27.018  30.332  23.478  1.00  0.00    -0.055 NA
ATOM     15  O   UNL A   1      26.851  28.963  23.330  1.00  0.00    -0.244 OA
ATOM     16  N   UNL A   1      28.053  28.345  23.009  1.00  0.00    -0.055 NA
ENDBRANCH  10  11
ENDBRANCH   9  10
BRANCH   9  17
ATOM     17  C   UNL A   1      31.466  28.607  24.897  1.00  0.00    -0.021 A 
ATOM     18  C   UNL A   1      31.477  29.999  25.145  1.00  0.00     0.006 A 
ATOM     19  C   UNL A   1      31.780  27.780  25.999  1.00  0.00     0.021 A 
ATOM     20  C   UNL A   1      31.881  30.540  26.369  1.00  0.00     0.000 A 
ATOM     21  C   UNL A   1      32.230  28.327  27.214  1.00  0.00     0.016 A 
ATOM     22  Br  UNL A   1      31.569  25.887  26.000  1.00  0.00    -0.051 Br
ATOM     23  C   UNL A   1      32.297  29.705  27.393  1.00  0.00     0.001 A 
ENDBRANCH   9  17
ENDBRANCH   6   9
ENDBRANCH   4   5
ENDBRANCH   3   4
ENDBRANCH   2   3
ENDBRANCH   1   2
BRANCH   1  24
ATOM     24  C   UNL A   1      36.401  23.613  23.653  1.00  0.00     0.021 C 
BRANCH  24  25
ATOM     25  C   UNL A   1      36.798  23.674  25.127  1.00  0.00     0.116 C 
BRANCH  25  26
ATOM     26  N   UNL A   1      37.791  22.672  25.476  1.00  0.00    -0.352 N 
ATOM     27  C   UNL A   1      38.994  22.817  26.122  1.00  0.00     0.251 C 
ATOM     28  H   UNL A   1      37.567  21.750  25.211  1.00  0.00     0.163 HD
ATOM     29  O   UNL A   1      39.778  21.874  26.170  1.00  0.00    -0.269 OA
BRANCH  27  30
ATOM     30  C   UNL A   1      39.360  24.112  26.738  1.00  0.00     0.039 A 
ATOM     31  C   UNL A   1      38.945  24.374  28.046  1.00  0.00     0.014 A 
ATOM     32  C   UNL A   1      40.083  25.076  26.027  1.00  0.00     0.014 A 
ATOM     33  C   UNL A   1      39.302  25.577  28.662  1.00  0.00     0.010 A 
ATOM     34  C   UNL A   1      40.490  26.248  26.662  1.00  0.00     0.010 A 
ATOM     35  C   UNL A   1      40.102  26.512  27.985  1.00  0.00    -0.014 A 
BRANCH  35  36
ATOM     36  C   UNL A   1      40.540  27.768  28.647  1.00  0.00     0.031 A 
ATOM     37  C   UNL A   1      41.919  27.874  29.240  1.00  0.00     0.074 A 
ATOM     38  C   UNL A   1      39.677  28.796  28.765  1.00  0.00     0.049 A 
ATOM     39  N   UNL A   1      42.461  28.870  29.893  1.00  0.00    -0.248 NA
ATOM     40  C   UNL A   1      42.795  26.700  29.097  1.00  0.00     0.031 C 
ATOM     41  C   UNL A   1      38.299  28.806  28.268  1.00  0.00     0.029 A 
ATOM     42  N   UNL A   1      39.828  30.029  29.349  1.00  0.00    -0.354 N 
ATOM     43  C   UNL A   1      43.731  28.439  30.257  1.00  0.00     0.074 A 
ATOM     44  C   UNL A   1      43.863  27.077  29.785  1.00  0.00     0.031 C 
ATOM     45  C   UNL A   1      37.739  29.992  28.551  1.00  0.00     0.029 A 
ATOM     46  C   UNL A   1      38.702  30.814  29.278  1.00  0.00     0.049 A 
ATOM     47  H   UNL A   1      40.664  30.323  29.778  1.00  0.00     0.167 HD
ATOM     48  C   UNL A   1      44.705  29.117  30.909  1.00  0.00     0.031 A 
ATOM     49  C   UNL A   1      38.466  32.054  29.749  1.00  0.00     0.031 A 
ATOM     50  C   UNL A   1      44.576  30.474  31.373  1.00  0.00     0.049 A 
ATOM     51  C   UNL A   1      39.560  32.790  30.468  1.00  0.00     0.074 A 
ATOM     52  C   UNL A   1      45.525  31.265  31.996  1.00  0.00     0.029 A 
ATOM     53  N   UNL A   1      43.425  31.240  31.266  1.00  0.00    -0.354 N 
ATOM     54  N   UNL A   1      40.777  32.388  30.747  1.00  0.00    -0.248 NA
ATOM     55  C   UNL A   1      39.255  34.153  30.924  1.00  0.00     0.031 C 
ATOM     56  C   UNL A   1      44.933  32.496  32.305  1.00  0.00     0.029 A 
ATOM     57  C   UNL A   1      43.631  32.487  31.830  1.00  0.00     0.049 A 
ATOM     58  H   UNL A   1      42.584  30.940  30.851  1.00  0.00     0.167 HD
ATOM     59  C   UNL A   1      41.390  33.455  31.393  1.00  0.00     0.074 A 
ATOM     60  C   UNL A   1      40.414  34.525  31.452  1.00  0.00     0.031 C 
ATOM     61  C   UNL A   1      42.650  33.542  31.889  1.00  0.00     0.031 A 
BRANCH  48  62
ATOM     62  C   UNL A   1      45.997  28.387  31.171  1.00  0.00    -0.014 A 
ATOM     63  C   UNL A   1      47.101  28.535  30.312  1.00  0.00     0.010 A 
ATOM     64  C   UNL A   1      46.113  27.554  32.298  1.00  0.00     0.010 A 
ATOM     65  C   UNL A   1      48.279  27.820  30.546  1.00  0.00     0.020 A 
ATOM     66  C   UNL A   1      47.299  26.857  32.550  1.00  0.00     0.020 A 
ATOM     67  C   UNL A   1      48.367  26.978  31.657  1.00  0.00     0.054 A 
BRANCH  67  68
ATOM     68  S   UNL A   1      49.905  26.057  31.936  1.00  0.00     0.124 S 
ATOM     69  O   UNL A   1      49.799  24.989  30.945  1.00  0.00    -0.237 OA
ATOM     70  O   UNL A   1      50.934  27.060  31.670  1.00  0.00    -0.237 OA
ATOM     71  O   UNL A   1      49.805  25.628  33.328  1.00  0.00    -0.744 OA
ENDBRANCH  67  68
ENDBRANCH  48  62
BRANCH  49  72
ATOM     72  C   UNL A   1      37.135  32.681  29.531  1.00  0.00    -0.014 A 
ATOM     73  C   UNL A   1      36.253  32.872  30.608  1.00  0.00     0.010 A 
ATOM     74  C   UNL A   1      36.762  33.130  28.252  1.00  0.00     0.010 A 
ATOM     75  C   UNL A   1      35.018  33.496  30.409  1.00  0.00     0.020 A 
ATOM     76  C   UNL A   1      35.538  33.775  28.053  1.00  0.00     0.020 A 
ATOM     77  C   UNL A   1      34.670  33.949  29.133  1.00  0.00     0.054 A 
BRANCH  77  78
ATOM     78  S   UNL A   1      33.098  34.828  28.913  1.00  0.00     0.124 S 
ATOM     79  O   UNL A   1      32.420  33.993  27.926  1.00  0.00    -0.237 OA
ATOM     80  O   UNL A   1      32.531  34.806  30.258  1.00  0.00    -0.237 OA
ATOM     81  O   UNL A   1      33.509  36.148  28.441  1.00  0.00    -0.744 OA
ENDBRANCH  77  78
ENDBRANCH  49  72
BRANCH  61  82
ATOM     82  C   UNL A   1      43.057  34.845  32.518  1.00  0.00    -0.014 A 
ATOM     83  C   UNL A   1      42.899  35.068  33.897  1.00  0.00     0.010 A 
ATOM     84  C   UNL A   1      43.657  35.842  31.726  1.00  0.00     0.010 A 
ATOM     85  C   UNL A   1      43.308  36.276  34.469  1.00  0.00     0.020 A 
ATOM     86  C   UNL A   1      44.089  37.041  32.298  1.00  0.00     0.020 A 
ATOM     87  C   UNL A   1      43.900  37.256  33.665  1.00  0.00     0.054 A 
BRANCH  87  88
ATOM     88  S   UNL A   1      44.465  38.798  34.437  1.00  0.00     0.124 S 
ATOM     89  O   UNL A   1      44.172  38.556  35.846  1.00  0.00    -0.237 OA
ATOM     90  O   UNL A   1      45.883  38.833  34.085  1.00  0.00    -0.237 OA
ATOM     91  O   UNL A   1      43.645  39.824  33.796  1.00  0.00    -0.744 OA
ENDBRANCH  87  88
ENDBRANCH  61  82
ENDBRANCH  35  36
ENDBRANCH  27  30
ENDBRANCH  25  26
ENDBRANCH  24  25
ENDBRANCH   1  24
TORSDOF 19
ENDMDL
MODEL 3
REMARK VINA RESULT:     -10.8      0.637      8.162
REMARK SMILES Cc1nonc1C[C@@H](C(=O)NCCCCCCNC(=O)c1ccc(-c2c3nc(c(-c4ccc(S(=O)(=O)[O-])cc4)c4ccc([nH]4)c(-c4ccc(S(=O)(=O)[O-])cc4)c4nc(c(-c5ccc(S(=O)(=O)[O-])cc5)c5ccc2[nH]5)C=C4)C=C3)cc1)c1ccccc1Br
REMARK SMILES IDX 15 1 14 2 13 3 12 4 11 5 9 6 10 7 8 9 7 10 6 11 1 12 2 13
REMARK SMILES IDX 3 14 4 15 5 16 81 17 82 18 86 19 83 20 85 21 87 22 84 23
REMARK SMILES IDX 16 24 17 25 18 26 19 27 20 29 21 30 22 31 80 32 23 33 79 34
REMARK SMILES IDX 24 35 25 36 26 37 73 38 27 39 78 40 72 41 74 42 28 43 77 44
REMARK SMILES IDX 71 45 70 46 29 48 59 49 40 50 58 51 41 52 44 53 57 54 75 55
REMARK SMILES IDX 42 56 43 57 56 59 76 60 45 61 30 62 31 63 39 64 32 65 38 66
REMARK SMILES IDX 33 67 34 68 35 69 36 70 37 71 60 72 61 73 69 74 62 75 68 76
REMARK SMILES IDX 63 77 64 78 65 79 66 80 67 81 46 82 47 83 55 84 48 85 54 86
REMARK SMILES IDX 49 87 50 88 51 89 52 90 53 91
REMARK H PARENT 11 8 18 28 74 47 44 58
REMARK Flexibility Score: inf
ROOT
ATOM      1  C   UNL A   1      32.656  26.027  25.934  1.00  0.00     0.002 C 
ENDROOT
BRANCH   1   2
ATOM      2  C   UNL A   1      31.263  25.438  26.165  1.00  0.00     0.002 C 
BRANCH   2   3
ATOM      3  C   UNL A   1      30.947  24.180  25.351  1.00  0.00     0.021 C 
BRANCH   3   4
ATOM      4  C   UNL A   1      30.776  22.907  26.184  1.00  0.00     0.116 C 
BRANCH   4   5
ATOM      5  N   UNL A   1      32.030  22.616  26.855  1.00  0.00    -0.356 N 
ATOM      6  C   UNL A   1      32.914  21.596  26.640  1.00  0.00     0.227 C 
ATOM      7  O   UNL A   1      33.622  21.247  27.589  1.00  0.00    -0.274 OA
ATOM      8  H   UNL A   1      32.280  23.246  27.569  1.00  0.00     0.163 HD
BRANCH   6   9
ATOM      9  C   UNL A   1      33.092  20.992  25.230  1.00  0.00     0.116 C 
BRANCH   9  10
ATOM     10  C   UNL A   1      33.055  19.447  25.359  1.00  0.00     0.080 C 
BRANCH  10  11
ATOM     11  C   UNL A   1      33.109  18.642  24.110  1.00  0.00     0.109 A 
ATOM     12  C   UNL A   1      34.737  16.658  24.665  1.00  0.00     0.073 C 
ATOM     13  C   UNL A   1      33.818  17.455  23.825  1.00  0.00     0.105 A 
ATOM     14  N   UNL A   1      33.510  17.043  22.594  1.00  0.00    -0.055 NA
ATOM     15  O   UNL A   1      32.552  17.938  22.139  1.00  0.00    -0.244 OA
ATOM     16  N   UNL A   1      32.294  18.918  23.090  1.00  0.00    -0.055 NA
ENDBRANCH  10  11
ENDBRANCH   9  10
BRANCH   9  17
ATOM     17  C   UNL A   1      34.434  21.500  24.611  1.00  0.00    -0.021 A 
ATOM     18  C   UNL A   1      35.679  21.011  25.071  1.00  0.00     0.006 A 
ATOM     19  C   UNL A   1      34.493  22.495  23.609  1.00  0.00     0.021 A 
ATOM     20  C   UNL A   1      36.899  21.550  24.651  1.00  0.00     0.000 A 
ATOM     21  C   UNL A   1      35.719  23.067  23.223  1.00  0.00     0.016 A 
ATOM     22  Br  UNL A   1      32.977  23.114  22.637  1.00  0.00    -0.051 Br
ATOM     23  C   UNL A   1      36.918  22.606  23.755  1.00  0.00     0.001 A 
ENDBRANCH   9  17
ENDBRANCH   6   9
ENDBRANCH   4   5
ENDBRANCH   3   4
ENDBRANCH   2   3
ENDBRANCH   1   2
BRANCH   1  24
ATOM     24  C   UNL A   1      32.756  27.553  26.017  1.00  0.00     0.021 C 
BRANCH  24  25
ATOM     25  C   UNL A   1      33.891  28.096  26.885  1.00  0.00     0.116 C 
BRANCH  25  26
ATOM     26  N   UNL A   1      33.656  29.464  27.312  1.00  0.00    -0.352 N 
ATOM     27  C   UNL A   1      34.476  30.320  28.006  1.00  0.00     0.251 C 
ATOM     28  H   UNL A   1      32.777  29.835  27.067  1.00  0.00     0.163 HD
ATOM     29  O   UNL A   1      34.031  31.382  28.430  1.00  0.00    -0.269 OA
BRANCH  27  30
ATOM     30  C   UNL A   1      35.886  29.954  28.267  1.00  0.00     0.039 A 
ATOM     31  C   UNL A   1      36.816  30.084  27.232  1.00  0.00     0.014 A 
ATOM     32  C   UNL A   1      36.291  29.461  29.512  1.00  0.00     0.014 A 
ATOM     33  C   UNL A   1      38.160  29.774  27.460  1.00  0.00     0.010 A 
ATOM     34  C   UNL A   1      37.640  29.211  29.756  1.00  0.00     0.010 A 
ATOM     35  C   UNL A   1      38.588  29.362  28.732  1.00  0.00    -0.014 A 
BRANCH  35  36
ATOM     36  C   UNL A   1      40.022  29.087  29.007  1.00  0.00     0.031 A 
ATOM     37  C   UNL A   1      40.619  27.748  28.669  1.00  0.00     0.074 A 
ATOM     38  C   UNL A   1      40.776  30.025  29.615  1.00  0.00     0.049 A 
ATOM     39  N   UNL A   1      41.835  27.311  28.876  1.00  0.00    -0.248 NA
ATOM     40  C   UNL A   1      39.727  26.766  28.033  1.00  0.00     0.031 C 
ATOM     41  C   UNL A   1      40.308  31.348  30.031  1.00  0.00     0.029 A 
ATOM     42  N   UNL A   1      42.094  30.002  29.998  1.00  0.00    -0.354 N 
ATOM     43  C   UNL A   1      41.850  26.000  28.415  1.00  0.00     0.074 A 
ATOM     44  C   UNL A   1      40.511  25.701  27.955  1.00  0.00     0.031 C 
ATOM     45  C   UNL A   1      41.327  32.018  30.594  1.00  0.00     0.029 A 
ATOM     46  C   UNL A   1      42.510  31.161  30.610  1.00  0.00     0.049 A 
ATOM     47  H   UNL A   1      42.685  29.230  29.850  1.00  0.00     0.167 HD
ATOM     48  C   UNL A   1      42.886  25.129  28.365  1.00  0.00     0.031 A 
ATOM     49  C   UNL A   1      43.705  31.499  31.131  1.00  0.00     0.031 A 
ATOM     50  C   UNL A   1      44.219  25.429  28.817  1.00  0.00     0.049 A 
ATOM     51  C   UNL A   1      44.842  30.519  31.063  1.00  0.00     0.074 A 
ATOM     52  C   UNL A   1      45.348  24.631  28.758  1.00  0.00     0.029 A 
ATOM     53  N   UNL A   1      44.602  26.620  29.414  1.00  0.00    -0.354 N 
ATOM     54  N   UNL A   1      44.852  29.304  30.566  1.00  0.00    -0.248 NA
ATOM     55  C   UNL A   1      46.131  30.958  31.614  1.00  0.00     0.031 C 
ATOM     56  C   UNL A   1      46.405  25.324  29.360  1.00  0.00     0.029 A 
ATOM     57  C   UNL A   1      45.946  26.572  29.749  1.00  0.00     0.049 A 
ATOM     58  H   UNL A   1      44.007  27.387  29.578  1.00  0.00     0.167 HD
ATOM     59  C   UNL A   1      46.153  28.842  30.725  1.00  0.00     0.074 A 
ATOM     60  C   UNL A   1      46.904  29.911  31.353  1.00  0.00     0.031 C 
ATOM     61  C   UNL A   1      46.680  27.641  30.379  1.00  0.00     0.031 A 
BRANCH  48  62
ATOM     62  C   UNL A   1      42.606  23.756  27.810  1.00  0.00    -0.014 A 
ATOM     63  C   UNL A   1      42.419  22.653  28.662  1.00  0.00     0.010 A 
ATOM     64  C   UNL A   1      42.516  23.570  26.418  1.00  0.00     0.010 A 
ATOM     65  C   UNL A   1      42.200  21.378  28.131  1.00  0.00     0.020 A 
ATOM     66  C   UNL A   1      42.271  22.301  25.884  1.00  0.00     0.020 A 
ATOM     67  C   UNL A   1      42.137  21.210  26.745  1.00  0.00     0.054 A 
BRANCH  67  68
ATOM     68  S   UNL A   1      41.858  19.545  26.081  1.00  0.00     0.124 S 
ATOM     69  O   UNL A   1      42.762  19.523  24.934  1.00  0.00    -0.237 OA
ATOM     70  O   UNL A   1      42.239  18.683  27.198  1.00  0.00    -0.237 OA
ATOM     71  O   UNL A   1      40.434  19.537  25.753  1.00  0.00    -0.744 OA
ENDBRANCH  67  68
ENDBRANCH  48  62
BRANCH  49  72
ATOM     72  C   UNL A   1      43.886  32.841  31.745  1.00  0.00    -0.014 A 
ATOM     73  C   UNL A   1      44.246  33.944  30.952  1.00  0.00     0.010 A 
ATOM     74  C   UNL A   1      43.656  33.031  33.119  1.00  0.00     0.010 A 
ATOM     75  C   UNL A   1      44.379  35.213  31.524  1.00  0.00     0.020 A 
ATOM     76  C   UNL A   1      43.766  34.302  33.690  1.00  0.00     0.020 A 
ATOM     77  C   UNL A   1      44.132  35.385  32.889  1.00  0.00     0.054 A 
BRANCH  77  78
ATOM     78  S   UNL A   1      44.233  37.054  33.594  1.00  0.00     0.124 S 
ATOM     79  O   UNL A   1      43.341  36.951  34.745  1.00  0.00    -0.237 OA
ATOM     80  O   UNL A   1      45.654  37.183  33.903  1.00  0.00    -0.237 OA
ATOM     81  O   UNL A   1      43.760  37.911  32.509  1.00  0.00    -0.744 OA
ENDBRANCH  77  78
ENDBRANCH  49  72
BRANCH  61  82
ATOM     82  C   UNL A   1      48.143  27.424  30.647  1.00  0.00    -0.014 A 
ATOM     83  C   UNL A   1      48.582  26.802  31.829  1.00  0.00     0.010 A 
ATOM     84  C   UNL A   1      49.091  27.799  29.676  1.00  0.00     0.010 A 
ATOM     85  C   UNL A   1      49.946  26.585  32.049  1.00  0.00     0.020 A 
ATOM     86  C   UNL A   1      50.452  27.562  29.881  1.00  0.00     0.020 A 
ATOM     87  C   UNL A   1      50.872  26.967  31.073  1.00  0.00     0.054 A 
BRANCH  87  88
ATOM     88  S   UNL A   1      52.633  26.634  31.360  1.00  0.00     0.124 S 
ATOM     89  O   UNL A   1      53.205  26.869  30.038  1.00  0.00    -0.237 OA
ATOM     90  O   UNL A   1      52.984  27.616  32.383  1.00  0.00    -0.237 OA
ATOM     91  O   UNL A   1      52.651  25.244  31.809  1.00  0.00    -0.744 OA
ENDBRANCH  87  88
ENDBRANCH  61  82
ENDBRANCH  35  36
ENDBRANCH  27  30
ENDBRANCH  25  26
ENDBRANCH  24  25
ENDBRANCH   1  24
TORSDOF 19
ENDMDL
