MODEL 1
REMARK VINA RESULT:     -13.0      0.000      0.000
REMARK SMILES Cc1ccccc1OC1(C(=O)NCCCCCCNC(=O)c2ccc(-c3c4nc(c(-c5ccc(S(=O)(=O)[O-])cc5)c5ccc([nH]5)c(-c5ccc(S(=O)(=O)[O-])cc5)c5nc(c(-c6ccc(S(=O)(=O)[O-])cc6)c6ccc3[nH]6)C=C5)C=C4)cc2)CCN(C(=O)[C@H]2CCCCO2)CC1
REMARK SMILES IDX 16 1 15 2 14 3 13 4 12 5 10 6 11 7 9 9 82 10 94 11 83 12
REMARK SMILES IDX 93 13 84 14 85 15 86 16 8 17 7 18 1 19 2 20 3 21 4 22 6 23
REMARK SMILES IDX 5 24 87 25 88 26 92 27 89 28 91 29 90 30 17 31 18 32 19 33
REMARK SMILES IDX 20 34 21 36 22 37 23 38 81 39 24 40 80 41 25 42 26 43 27 44
REMARK SMILES IDX 74 45 28 46 79 47 73 48 75 49 29 50 78 51 72 52 71 53 30 55
REMARK SMILES IDX 60 56 41 57 59 58 42 59 45 60 58 61 76 62 43 63 44 64 57 66
REMARK SMILES IDX 77 67 46 68 31 69 32 70 40 71 33 72 39 73 34 74 35 75 36 76
REMARK SMILES IDX 37 77 38 78 61 79 62 80 70 81 63 82 69 83 64 84 65 85 66 86
REMARK SMILES IDX 67 87 68 88 47 89 48 90 56 91 49 92 55 93 50 94 51 95 52 96
REMARK SMILES IDX 53 97 54 98
REMARK H PARENT 12 8 19 35 75 54 45 65
REMARK Flexibility Score: inf
ROOT
ATOM      1  C   UNL A   1      32.246  28.346  25.020  1.00  0.00     0.002 C 
ENDROOT
BRANCH   1   2
ATOM      2  C   UNL A   1      31.651  27.036  25.567  1.00  0.00     0.002 C 
BRANCH   2   3
ATOM      3  C   UNL A   1      32.409  25.745  25.238  1.00  0.00     0.021 C 
BRANCH   3   4
ATOM      4  C   UNL A   1      32.384  24.673  26.329  1.00  0.00     0.116 C 
BRANCH   4   5
ATOM      5  N   UNL A   1      31.318  23.711  26.161  1.00  0.00    -0.353 N 
ATOM      6  C   UNL A   1      31.315  22.375  25.879  1.00  0.00     0.264 C 
ATOM      7  O   UNL A   1      30.203  21.838  25.981  1.00  0.00    -0.270 OA
ATOM      8  H   UNL A   1      30.417  24.095  26.272  1.00  0.00     0.163 HD
BRANCH   6   9
ATOM      9  C   UNL A   1      32.609  21.559  25.459  1.00  0.00     0.190 C 
ATOM     10  C   UNL A   1      33.125  22.130  24.139  1.00  0.00     0.080 C 
ATOM     11  C   UNL A   1      33.553  21.481  26.664  1.00  0.00     0.080 C 
ATOM     12  C   UNL A   1      34.426  22.914  24.210  1.00  0.00     0.124 C 
ATOM     13  C   UNL A   1      34.929  22.133  26.539  1.00  0.00     0.124 C 
ATOM     14  N   UNL A   1      35.395  22.425  25.191  1.00  0.00    -0.340 N 
ATOM     15  C   UNL A   1      36.750  22.522  24.839  1.00  0.00     0.251 C 
ATOM     16  O   UNL A   1      37.082  22.914  23.716  1.00  0.00    -0.272 OA
BRANCH   9  17
ATOM     17  O   UNL A   1      31.998  20.257  25.209  1.00  0.00    -0.477 OA
BRANCH  17  18
ATOM     18  C   UNL A   1      32.447  19.083  24.695  1.00  0.00     0.123 A 
ATOM     19  C   UNL A   1      32.206  19.298  22.122  1.00  0.00     0.048 C 
ATOM     20  C   UNL A   1      32.577  18.601  23.385  1.00  0.00    -0.009 A 
ATOM     21  C   UNL A   1      33.025  17.272  23.173  1.00  0.00     0.007 A 
ATOM     22  C   UNL A   1      33.348  16.426  24.224  1.00  0.00     0.001 A 
ATOM     23  C   UNL A   1      32.782  18.200  25.743  1.00  0.00     0.047 A 
ATOM     24  C   UNL A   1      33.227  16.893  25.520  1.00  0.00     0.004 A 
ENDBRANCH  17  18
ENDBRANCH   9  17
BRANCH  15  25
ATOM     25  C   UNL A   1      37.829  22.083  25.863  1.00  0.00     0.207 C 
ATOM     26  C   UNL A   1      38.574  20.863  25.300  1.00  0.00     0.042 C 
ATOM     27  O   UNL A   1      38.731  23.177  26.072  1.00  0.00    -0.368 OA
ATOM     28  C   UNL A   1      39.836  20.529  26.085  1.00  0.00     0.006 C 
ATOM     29  C   UNL A   1      39.831  22.870  26.916  1.00  0.00     0.161 C 
ATOM     30  C   UNL A   1      40.682  21.776  26.294  1.00  0.00     0.029 C 
ENDBRANCH  15  25
ENDBRANCH   6   9
ENDBRANCH   4   5
ENDBRANCH   3   4
ENDBRANCH   2   3
ENDBRANCH   1   2
BRANCH   1  31
ATOM     31  C   UNL A   1      33.400  28.953  25.822  1.00  0.00     0.021 C 
BRANCH  31  32
ATOM     32  C   UNL A   1      33.019  29.350  27.244  1.00  0.00     0.116 C 
BRANCH  32  33
ATOM     33  N   UNL A   1      33.341  30.735  27.550  1.00  0.00    -0.352 N 
ATOM     34  C   UNL A   1      34.374  31.195  28.351  1.00  0.00     0.251 C 
ATOM     35  H   UNL A   1      32.762  31.420  27.144  1.00  0.00     0.163 HD
ATOM     36  O   UNL A   1      34.398  32.307  28.838  1.00  0.00    -0.269 OA
BRANCH  34  37
ATOM     37  C   UNL A   1      35.548  30.302  28.457  1.00  0.00     0.039 A 
ATOM     38  C   UNL A   1      35.797  29.732  29.711  1.00  0.00     0.014 A 
ATOM     39  C   UNL A   1      36.504  30.279  27.447  1.00  0.00     0.014 A 
ATOM     40  C   UNL A   1      37.077  29.277  30.009  1.00  0.00     0.010 A 
ATOM     41  C   UNL A   1      37.793  29.901  27.771  1.00  0.00     0.010 A 
ATOM     42  C   UNL A   1      38.089  29.448  29.065  1.00  0.00    -0.014 A 
BRANCH  42  43
ATOM     43  C   UNL A   1      39.501  29.215  29.346  1.00  0.00     0.031 A 
ATOM     44  C   UNL A   1      40.115  27.926  28.938  1.00  0.00     0.074 A 
ATOM     45  C   UNL A   1      40.261  30.180  29.914  1.00  0.00     0.049 A 
ATOM     46  N   UNL A   1      41.242  27.478  29.377  1.00  0.00    -0.248 NA
ATOM     47  C   UNL A   1      39.456  27.001  28.019  1.00  0.00     0.031 C 
ATOM     48  C   UNL A   1      41.721  30.201  30.008  1.00  0.00     0.029 A 
ATOM     49  N   UNL A   1      39.899  31.296  30.666  1.00  0.00    -0.354 N 
ATOM     50  C   UNL A   1      41.586  26.381  28.621  1.00  0.00     0.074 A 
ATOM     51  C   UNL A   1      40.411  26.083  27.837  1.00  0.00     0.031 C 
ATOM     52  C   UNL A   1      42.074  31.027  31.005  1.00  0.00     0.029 A 
ATOM     53  C   UNL A   1      40.852  31.409  31.688  1.00  0.00     0.049 A 
ATOM     54  H   UNL A   1      39.126  31.887  30.512  1.00  0.00     0.167 HD
ATOM     55  C   UNL A   1      42.866  25.910  28.664  1.00  0.00     0.031 A 
ATOM     56  C   UNL A   1      40.598  31.163  33.012  1.00  0.00     0.031 A 
ATOM     57  C   UNL A   1      43.660  26.583  29.693  1.00  0.00     0.049 A 
ATOM     58  C   UNL A   1      41.433  30.026  33.605  1.00  0.00     0.074 A 
ATOM     59  C   UNL A   1      44.632  27.570  29.691  1.00  0.00     0.029 A 
ATOM     60  N   UNL A   1      43.269  26.438  31.015  1.00  0.00    -0.354 N 
ATOM     61  N   UNL A   1      42.279  29.298  32.926  1.00  0.00    -0.248 NA
ATOM     62  C   UNL A   1      41.308  29.562  34.991  1.00  0.00     0.031 C 
ATOM     63  C   UNL A   1      44.792  28.036  31.031  1.00  0.00     0.029 A 
ATOM     64  C   UNL A   1      43.935  27.318  31.844  1.00  0.00     0.049 A 
ATOM     65  H   UNL A   1      42.598  25.787  31.324  1.00  0.00     0.167 HD
ATOM     66  C   UNL A   1      42.763  28.290  33.715  1.00  0.00     0.074 A 
ATOM     67  C   UNL A   1      42.137  28.503  35.006  1.00  0.00     0.031 C 
ATOM     68  C   UNL A   1      43.607  27.320  33.259  1.00  0.00     0.031 A 
BRANCH  55  69
ATOM     69  C   UNL A   1      43.451  24.976  27.629  1.00  0.00    -0.014 A 
ATOM     70  C   UNL A   1      44.580  24.195  27.952  1.00  0.00     0.010 A 
ATOM     71  C   UNL A   1      42.977  24.857  26.309  1.00  0.00     0.010 A 
ATOM     72  C   UNL A   1      45.253  23.422  26.990  1.00  0.00     0.020 A 
ATOM     73  C   UNL A   1      43.660  24.123  25.327  1.00  0.00     0.020 A 
ATOM     74  C   UNL A   1      44.804  23.415  25.673  1.00  0.00     0.054 A 
BRANCH  74  75
ATOM     75  S   UNL A   1      45.724  22.484  24.421  1.00  0.00     0.124 S 
ATOM     76  O   UNL A   1      44.666  22.030  23.522  1.00  0.00    -0.237 OA
ATOM     77  O   UNL A   1      46.625  23.495  23.876  1.00  0.00    -0.237 OA
ATOM     78  O   UNL A   1      46.376  21.422  25.188  1.00  0.00    -0.744 OA
ENDBRANCH  74  75
ENDBRANCH  55  69
BRANCH  56  79
ATOM     79  C   UNL A   1      39.217  31.521  33.441  1.00  0.00    -0.014 A 
ATOM     80  C   UNL A   1      38.962  32.875  33.746  1.00  0.00     0.010 A 
ATOM     81  C   UNL A   1      38.133  30.673  33.159  1.00  0.00     0.010 A 
ATOM     82  C   UNL A   1      37.686  33.415  33.574  1.00  0.00     0.020 A 
ATOM     83  C   UNL A   1      36.846  31.210  33.005  1.00  0.00     0.020 A 
ATOM     84  C   UNL A   1      36.651  32.589  33.139  1.00  0.00     0.054 A 
BRANCH  84  85
ATOM     85  S   UNL A   1      35.111  33.372  32.573  1.00  0.00     0.124 S 
ATOM     86  O   UNL A   1      34.363  32.240  32.035  1.00  0.00    -0.237 OA
ATOM     87  O   UNL A   1      34.582  33.942  33.813  1.00  0.00    -0.237 OA
ATOM     88  O   UNL A   1      35.569  34.348  31.591  1.00  0.00    -0.744 OA
ENDBRANCH  84  85
ENDBRANCH  56  79
BRANCH  68  89
ATOM     89  C   UNL A   1      44.166  26.248  34.147  1.00  0.00    -0.014 A 
ATOM     90  C   UNL A   1      45.376  26.423  34.840  1.00  0.00     0.010 A 
ATOM     91  C   UNL A   1      43.548  24.981  34.212  1.00  0.00     0.010 A 
ATOM     92  C   UNL A   1      45.914  25.390  35.619  1.00  0.00     0.020 A 
ATOM     93  C   UNL A   1      44.087  23.940  34.972  1.00  0.00     0.020 A 
ATOM     94  C   UNL A   1      45.258  24.159  35.690  1.00  0.00     0.054 A 
BRANCH  94  95
ATOM     95  S   UNL A   1      45.975  22.830  36.690  1.00  0.00     0.124 S 
ATOM     96  O   UNL A   1      45.533  23.166  38.042  1.00  0.00    -0.237 OA
ATOM     97  O   UNL A   1      45.352  21.646  36.104  1.00  0.00    -0.237 OA
ATOM     98  O   UNL A   1      47.412  22.959  36.461  1.00  0.00    -0.744 OA
ENDBRANCH  94  95
ENDBRANCH  68  89
ENDBRANCH  42  43
ENDBRANCH  34  37
ENDBRANCH  32  33
ENDBRANCH  31  32
ENDBRANCH   1  31
TORSDOF 19
ENDMDL
MODEL 2
REMARK VINA RESULT:     -13.0      2.013      3.791
REMARK SMILES Cc1ccccc1OC1(C(=O)NCCCCCCNC(=O)c2ccc(-c3c4nc(c(-c5ccc(S(=O)(=O)[O-])cc5)c5ccc([nH]5)c(-c5ccc(S(=O)(=O)[O-])cc5)c5nc(c(-c6ccc(S(=O)(=O)[O-])cc6)c6ccc3[nH]6)C=C5)C=C4)cc2)CCN(C(=O)[C@H]2CCCCO2)CC1
REMARK SMILES IDX 16 1 15 2 14 3 13 4 12 5 10 6 11 7 9 9 82 10 94 11 83 12
REMARK SMILES IDX 93 13 84 14 85 15 86 16 8 17 7 18 1 19 2 20 3 21 4 22 6 23
REMARK SMILES IDX 5 24 87 25 88 26 92 27 89 28 91 29 90 30 17 31 18 32 19 33
REMARK SMILES IDX 20 34 21 36 22 37 23 38 81 39 24 40 80 41 25 42 26 43 27 44
REMARK SMILES IDX 74 45 28 46 79 47 73 48 75 49 29 50 78 51 72 52 71 53 30 55
REMARK SMILES IDX 60 56 41 57 59 58 42 59 45 60 58 61 76 62 43 63 44 64 57 66
REMARK SMILES IDX 77 67 46 68 31 69 32 70 40 71 33 72 39 73 34 74 35 75 36 76
REMARK SMILES IDX 37 77 38 78 61 79 62 80 70 81 63 82 69 83 64 84 65 85 66 86
REMARK SMILES IDX 67 87 68 88 47 89 48 90 56 91 49 92 55 93 50 94 51 95 52 96
REMARK SMILES IDX 53 97 54 98
REMARK H PARENT 12 8 19 35 75 54 45 65
REMARK Flexibility Score: inf
ROOT
ATOM      1  C   UNL A   1      33.718  28.536  25.161  1.00  0.00     0.002 C 
ENDROOT
BRANCH   1   2
ATOM      2  C   UNL A   1      32.329  28.989  25.648  1.00  0.00     0.002 C 
BRANCH   2   3
ATOM      3  C   UNL A   1      31.358  27.884  26.083  1.00  0.00     0.021 C 
BRANCH   3   4
ATOM      4  C   UNL A   1      32.012  26.562  26.492  1.00  0.00     0.116 C 
BRANCH   4   5
ATOM      5  N   UNL A   1      31.064  25.579  26.966  1.00  0.00    -0.353 N 
ATOM      6  C   UNL A   1      30.860  24.265  26.654  1.00  0.00     0.264 C 
ATOM      7  O   UNL A   1      30.055  23.686  27.396  1.00  0.00    -0.270 OA
ATOM      8  H   UNL A   1      30.443  25.924  27.649  1.00  0.00     0.163 HD
BRANCH   6   9
ATOM      9  C   UNL A   1      31.583  23.522  25.453  1.00  0.00     0.190 C 
ATOM     10  C   UNL A   1      33.091  23.685  25.630  1.00  0.00     0.080 C 
ATOM     11  C   UNL A   1      30.990  22.115  25.317  1.00  0.00     0.080 C 
ATOM     12  C   UNL A   1      33.860  22.432  26.022  1.00  0.00     0.124 C 
ATOM     13  C   UNL A   1      31.921  20.922  25.531  1.00  0.00     0.124 C 
ATOM     14  N   UNL A   1      33.350  21.185  25.453  1.00  0.00    -0.340 N 
ATOM     15  C   UNL A   1      34.304  20.214  25.110  1.00  0.00     0.251 C 
ATOM     16  O   UNL A   1      35.511  20.458  25.202  1.00  0.00    -0.272 OA
BRANCH   9  17
ATOM     17  O   UNL A   1      31.137  24.367  24.349  1.00  0.00    -0.477 OA
BRANCH  17  18
ATOM     18  C   UNL A   1      31.695  24.762  23.175  1.00  0.00     0.123 A 
ATOM     19  C   UNL A   1      32.970  22.696  22.264  1.00  0.00     0.048 C 
ATOM     20  C   UNL A   1      32.483  24.103  22.222  1.00  0.00    -0.009 A 
ATOM     21  C   UNL A   1      32.980  24.827  21.108  1.00  0.00     0.007 A 
ATOM     22  C   UNL A   1      32.708  26.175  20.923  1.00  0.00     0.001 A 
ATOM     23  C   UNL A   1      31.435  26.132  22.961  1.00  0.00     0.047 A 
ATOM     24  C   UNL A   1      31.928  26.834  21.856  1.00  0.00     0.004 A 
ENDBRANCH  17  18
ENDBRANCH   9  17
BRANCH  15  25
ATOM     25  C   UNL A   1      33.823  18.843  24.566  1.00  0.00     0.207 C 
ATOM     26  C   UNL A   1      35.045  17.933  24.376  1.00  0.00     0.042 C 
ATOM     27  O   UNL A   1      32.906  18.274  25.509  1.00  0.00    -0.368 OA
ATOM     28  C   UNL A   1      34.664  16.479  24.124  1.00  0.00     0.006 C 
ATOM     29  C   UNL A   1      32.467  16.965  25.176  1.00  0.00     0.161 C 
ATOM     30  C   UNL A   1      33.646  16.007  25.149  1.00  0.00     0.029 C 
ENDBRANCH  15  25
ENDBRANCH   6   9
ENDBRANCH   4   5
ENDBRANCH   3   4
ENDBRANCH   2   3
ENDBRANCH   1   2
BRANCH   1  31
ATOM     31  C   UNL A   1      34.908  28.951  26.029  1.00  0.00     0.021 C 
BRANCH  31  32
ATOM     32  C   UNL A   1      34.527  29.327  27.457  1.00  0.00     0.116 C 
BRANCH  32  33
ATOM     33  N   UNL A   1      35.112  30.588  27.885  1.00  0.00    -0.352 N 
ATOM     34  C   UNL A   1      36.253  30.762  28.652  1.00  0.00     0.251 C 
ATOM     35  H   UNL A   1      34.647  31.407  27.598  1.00  0.00     0.163 HD
ATOM     36  O   UNL A   1      36.505  31.787  29.251  1.00  0.00    -0.269 OA
BRANCH  34  37
ATOM     37  C   UNL A   1      37.249  29.672  28.574  1.00  0.00     0.039 A 
ATOM     38  C   UNL A   1      37.389  28.864  29.708  1.00  0.00     0.014 A 
ATOM     39  C   UNL A   1      38.187  29.651  27.547  1.00  0.00     0.014 A 
ATOM     40  C   UNL A   1      38.567  28.146  29.890  1.00  0.00     0.010 A 
ATOM     41  C   UNL A   1      39.387  29.003  27.768  1.00  0.00     0.010 A 
ATOM     42  C   UNL A   1      39.595  28.294  28.959  1.00  0.00    -0.014 A 
BRANCH  42  43
ATOM     43  C   UNL A   1      40.943  27.771  29.157  1.00  0.00     0.031 A 
ATOM     44  C   UNL A   1      41.261  26.399  28.688  1.00  0.00     0.074 A 
ATOM     45  C   UNL A   1      41.909  28.544  29.704  1.00  0.00     0.049 A 
ATOM     46  N   UNL A   1      42.294  25.718  29.055  1.00  0.00    -0.248 NA
ATOM     47  C   UNL A   1      40.383  25.656  27.786  1.00  0.00     0.031 C 
ATOM     48  C   UNL A   1      43.346  28.266  29.718  1.00  0.00     0.029 A 
ATOM     49  N   UNL A   1      41.819  29.685  30.499  1.00  0.00    -0.354 N 
ATOM     50  C   UNL A   1      42.370  24.600  28.257  1.00  0.00     0.074 A 
ATOM     51  C   UNL A   1      41.121  24.571  27.532  1.00  0.00     0.031 C 
ATOM     52  C   UNL A   1      43.908  28.972  30.712  1.00  0.00     0.029 A 
ATOM     53  C   UNL A   1      42.825  29.570  31.469  1.00  0.00     0.049 A 
ATOM     54  H   UNL A   1      41.176  30.424  30.400  1.00  0.00     0.167 HD
ATOM     55  C   UNL A   1      43.528  23.879  28.220  1.00  0.00     0.031 A 
ATOM     56  C   UNL A   1      42.591  29.337  32.799  1.00  0.00     0.031 A 
ATOM     57  C   UNL A   1      44.492  24.344  29.219  1.00  0.00     0.049 A 
ATOM     58  C   UNL A   1      43.205  28.036  33.321  1.00  0.00     0.074 A 
ATOM     59  C   UNL A   1      45.643  25.115  29.185  1.00  0.00     0.029 A 
ATOM     60  N   UNL A   1      44.144  24.238  30.556  1.00  0.00    -0.354 N 
ATOM     61  N   UNL A   1      43.852  27.175  32.581  1.00  0.00    -0.248 NA
ATOM     62  C   UNL A   1      43.057  27.563  34.701  1.00  0.00     0.031 C 
ATOM     63  C   UNL A   1      45.960  25.495  30.524  1.00  0.00     0.029 A 
ATOM     64  C   UNL A   1      45.016  24.938  31.366  1.00  0.00     0.049 A 
ATOM     65  H   UNL A   1      43.372  23.726  30.887  1.00  0.00     0.167 HD
ATOM     66  C   UNL A   1      44.159  26.065  33.320  1.00  0.00     0.074 A 
ATOM     67  C   UNL A   1      43.654  26.358  34.648  1.00  0.00     0.031 C 
ATOM     68  C   UNL A   1      44.765  24.960  32.797  1.00  0.00     0.031 A 
BRANCH  55  69
ATOM     69  C   UNL A   1      43.859  22.880  27.134  1.00  0.00    -0.014 A 
ATOM     70  C   UNL A   1      42.952  21.842  26.840  1.00  0.00     0.010 A 
ATOM     71  C   UNL A   1      45.064  22.871  26.405  1.00  0.00     0.010 A 
ATOM     72  C   UNL A   1      43.270  20.804  25.947  1.00  0.00     0.020 A 
ATOM     73  C   UNL A   1      45.414  21.822  25.541  1.00  0.00     0.020 A 
ATOM     74  C   UNL A   1      44.515  20.786  25.325  1.00  0.00     0.054 A 
BRANCH  74  75
ATOM     75  S   UNL A   1      44.950  19.401  24.240  1.00  0.00     0.124 S 
ATOM     76  O   UNL A   1      44.480  19.860  22.936  1.00  0.00    -0.237 OA
ATOM     77  O   UNL A   1      46.399  19.323  24.397  1.00  0.00    -0.237 OA
ATOM     78  O   UNL A   1      44.205  18.274  24.800  1.00  0.00    -0.744 OA
ENDBRANCH  74  75
ENDBRANCH  55  69
BRANCH  56  79
ATOM     79  C   UNL A   1      41.334  29.952  33.311  1.00  0.00    -0.014 A 
ATOM     80  C   UNL A   1      41.394  31.299  33.731  1.00  0.00     0.010 A 
ATOM     81  C   UNL A   1      40.083  29.391  33.009  1.00  0.00     0.010 A 
ATOM     82  C   UNL A   1      40.266  32.118  33.653  1.00  0.00     0.020 A 
ATOM     83  C   UNL A   1      38.945  30.208  32.950  1.00  0.00     0.020 A 
ATOM     84  C   UNL A   1      39.064  31.579  33.198  1.00  0.00     0.054 A 
BRANCH  84  85
ATOM     85  S   UNL A   1      37.724  32.728  32.758  1.00  0.00     0.124 S 
ATOM     86  O   UNL A   1      38.204  33.303  31.505  1.00  0.00    -0.237 OA
ATOM     87  O   UNL A   1      36.576  31.828  32.638  1.00  0.00    -0.237 OA
ATOM     88  O   UNL A   1      37.676  33.642  33.894  1.00  0.00    -0.744 OA
ENDBRANCH  84  85
ENDBRANCH  56  79
BRANCH  68  89
ATOM     89  C   UNL A   1      45.137  23.769  33.629  1.00  0.00    -0.014 A 
ATOM     90  C   UNL A   1      44.202  22.768  33.942  1.00  0.00     0.010 A 
ATOM     91  C   UNL A   1      46.414  23.687  34.225  1.00  0.00     0.010 A 
ATOM     92  C   UNL A   1      44.550  21.692  34.769  1.00  0.00     0.020 A 
ATOM     93  C   UNL A   1      46.764  22.626  35.065  1.00  0.00     0.020 A 
ATOM     94  C   UNL A   1      45.835  21.622  35.314  1.00  0.00     0.054 A 
BRANCH  94  95
ATOM     95  S   UNL A   1      46.264  20.231  36.393  1.00  0.00     0.124 S 
ATOM     96  O   UNL A   1      47.700  20.082  36.175  1.00  0.00    -0.237 OA
ATOM     97  O   UNL A   1      45.880  20.743  37.706  1.00  0.00    -0.237 OA
ATOM     98  O   UNL A   1      45.445  19.133  35.886  1.00  0.00    -0.744 OA
ENDBRANCH  94  95
ENDBRANCH  68  89
ENDBRANCH  42  43
ENDBRANCH  34  37
ENDBRANCH  32  33
ENDBRANCH  31  32
ENDBRANCH   1  31
TORSDOF 19
ENDMDL
MODEL 3
REMARK VINA RESULT:     -12.4      3.827     10.703
REMARK SMILES Cc1ccccc1OC1(C(=O)NCCCCCCNC(=O)c2ccc(-c3c4nc(c(-c5ccc(S(=O)(=O)[O-])cc5)c5ccc([nH]5)c(-c5ccc(S(=O)(=O)[O-])cc5)c5nc(c(-c6ccc(S(=O)(=O)[O-])cc6)c6ccc3[nH]6)C=C5)C=C4)cc2)CCN(C(=O)[C@H]2CCCCO2)CC1
REMARK SMILES IDX 16 1 15 2 14 3 13 4 12 5 10 6 11 7 9 9 82 10 94 11 83 12
REMARK SMILES IDX 93 13 84 14 85 15 86 16 8 17 7 18 1 19 2 20 3 21 4 22 6 23
REMARK SMILES IDX 5 24 87 25 88 26 92 27 89 28 91 29 90 30 17 31 18 32 19 33
REMARK SMILES IDX 20 34 21 36 22 37 23 38 81 39 24 40 80 41 25 42 26 43 27 44
REMARK SMILES IDX 74 45 28 46 79 47 73 48 75 49 29 50 78 51 72 52 71 53 30 55
REMARK SMILES IDX 60 56 41 57 59 58 42 59 45 60 58 61 76 62 43 63 44 64 57 66
REMARK SMILES IDX 77 67 46 68 31 69 32 70 40 71 33 72 39 73 34 74 35 75 36 76
REMARK SMILES IDX 37 77 38 78 61 79 62 80 70 81 63 82 69 83 64 84 65 85 66 86
REMARK SMILES IDX 67 87 68 88 47 89 48 90 56 91 49 92 55 93 50 94 51 95 52 96
REMARK SMILES IDX 53 97 54 98
REMARK H PARENT 12 8 19 35 75 54 45 65
REMARK Flexibility Score: inf
ROOT
ATOM      1  C   UNL A   1      35.914  22.618  23.417  1.00  0.00     0.002 C 
ENDROOT
BRANCH   1   2
ATOM      2  C   UNL A   1      34.389  22.700  23.616  1.00  0.00     0.002 C 
BRANCH   2   3
ATOM      3  C   UNL A   1      33.835  24.025  24.154  1.00  0.00     0.021 C 
BRANCH   3   4
ATOM      4  C   UNL A   1      34.042  25.238  23.244  1.00  0.00     0.116 C 
BRANCH   4   5
ATOM      5  N   UNL A   1      33.076  25.319  22.172  1.00  0.00    -0.353 N 
ATOM      6  C   UNL A   1      32.090  26.218  21.882  1.00  0.00     0.264 C 
ATOM      7  O   UNL A   1      31.566  26.055  20.771  1.00  0.00    -0.270 OA
ATOM      8  H   UNL A   1      33.144  24.581  21.522  1.00  0.00     0.163 HD
BRANCH   6   9
ATOM      9  C   UNL A   1      31.640  27.380  22.863  1.00  0.00     0.190 C 
ATOM     10  C   UNL A   1      31.172  26.745  24.171  1.00  0.00     0.080 C 
ATOM     11  C   UNL A   1      32.740  28.448  22.898  1.00  0.00     0.080 C 
ATOM     12  C   UNL A   1      32.075  26.950  25.377  1.00  0.00     0.124 C 
ATOM     13  C   UNL A   1      33.438  28.712  24.230  1.00  0.00     0.124 C 
ATOM     14  N   UNL A   1      32.762  28.240  25.429  1.00  0.00    -0.340 N 
ATOM     15  C   UNL A   1      32.945  28.804  26.701  1.00  0.00     0.251 C 
ATOM     16  O   UNL A   1      32.457  28.270  27.702  1.00  0.00    -0.272 OA
BRANCH   9  17
ATOM     17  O   UNL A   1      30.479  27.874  22.129  1.00  0.00    -0.477 OA
BRANCH  17  18
ATOM     18  C   UNL A   1      29.501  28.777  22.400  1.00  0.00     0.123 A 
ATOM     19  C   UNL A   1      27.628  27.454  23.611  1.00  0.00     0.048 C 
ATOM     20  C   UNL A   1      28.258  28.676  23.039  1.00  0.00    -0.009 A 
ATOM     21  C   UNL A   1      27.414  29.815  23.105  1.00  0.00     0.007 A 
ATOM     22  C   UNL A   1      27.780  31.037  22.560  1.00  0.00     0.001 A 
ATOM     23  C   UNL A   1      29.846  30.032  21.855  1.00  0.00     0.047 A 
ATOM     24  C   UNL A   1      29.007  31.148  21.930  1.00  0.00     0.004 A 
ENDBRANCH  17  18
ENDBRANCH   9  17
BRANCH  15  25
ATOM     25  C   UNL A   1      33.726  30.138  26.830  1.00  0.00     0.207 C 
ATOM     26  C   UNL A   1      32.755  31.235  27.291  1.00  0.00     0.042 C 
ATOM     27  O   UNL A   1      34.781  29.958  27.783  1.00  0.00    -0.368 OA
ATOM     28  C   UNL A   1      33.468  32.509  27.726  1.00  0.00     0.006 C 
ATOM     29  C   UNL A   1      35.512  31.141  28.070  1.00  0.00     0.161 C 
ATOM     30  C   UNL A   1      34.600  32.187  28.689  1.00  0.00     0.029 C 
ENDBRANCH  15  25
ENDBRANCH   6   9
ENDBRANCH   4   5
ENDBRANCH   3   4
ENDBRANCH   2   3
ENDBRANCH   1   2
BRANCH   1  31
ATOM     31  C   UNL A   1      36.716  22.007  24.567  1.00  0.00     0.021 C 
BRANCH  31  32
ATOM     32  C   UNL A   1      37.751  22.951  25.167  1.00  0.00     0.116 C 
BRANCH  32  33
ATOM     33  N   UNL A   1      38.864  22.251  25.789  1.00  0.00    -0.352 N 
ATOM     34  C   UNL A   1      40.036  22.809  26.272  1.00  0.00     0.251 C 
ATOM     35  H   UNL A   1      38.773  21.274  25.877  1.00  0.00     0.163 HD
ATOM     36  O   UNL A   1      41.049  22.168  26.468  1.00  0.00    -0.269 OA
BRANCH  34  37
ATOM     37  C   UNL A   1      39.946  24.221  26.698  1.00  0.00     0.039 A 
ATOM     38  C   UNL A   1      40.778  25.134  26.040  1.00  0.00     0.014 A 
ATOM     39  C   UNL A   1      39.291  24.557  27.879  1.00  0.00     0.014 A 
ATOM     40  C   UNL A   1      41.087  26.341  26.659  1.00  0.00     0.010 A 
ATOM     41  C   UNL A   1      39.663  25.719  28.528  1.00  0.00     0.010 A 
ATOM     42  C   UNL A   1      40.597  26.585  27.941  1.00  0.00    -0.014 A 
BRANCH  42  43
ATOM     43  C   UNL A   1      41.029  27.704  28.770  1.00  0.00     0.031 A 
ATOM     44  C   UNL A   1      40.094  28.834  29.001  1.00  0.00     0.074 A 
ATOM     45  C   UNL A   1      42.241  27.690  29.373  1.00  0.00     0.049 A 
ATOM     46  N   UNL A   1      40.439  29.993  29.452  1.00  0.00    -0.248 NA
ATOM     47  C   UNL A   1      38.670  28.751  28.683  1.00  0.00     0.031 C 
ATOM     48  C   UNL A   1      42.700  28.590  30.431  1.00  0.00     0.029 A 
ATOM     49  N   UNL A   1      43.392  26.962  29.080  1.00  0.00    -0.354 N 
ATOM     50  C   UNL A   1      39.291  30.695  29.740  1.00  0.00     0.074 A 
ATOM     51  C   UNL A   1      38.219  29.907  29.179  1.00  0.00     0.031 C 
ATOM     52  C   UNL A   1      44.043  28.587  30.441  1.00  0.00     0.029 A 
ATOM     53  C   UNL A   1      44.472  27.835  29.277  1.00  0.00     0.049 A 
ATOM     54  H   UNL A   1      43.438  26.022  28.792  1.00  0.00     0.167 HD
ATOM     55  C   UNL A   1      39.367  31.815  30.515  1.00  0.00     0.031 A 
ATOM     56  C   UNL A   1      45.245  28.346  28.268  1.00  0.00     0.031 A 
ATOM     57  C   UNL A   1      40.753  32.199  30.786  1.00  0.00     0.049 A 
ATOM     58  C   UNL A   1      45.208  29.873  28.168  1.00  0.00     0.074 A 
ATOM     59  C   UNL A   1      41.607  32.086  31.871  1.00  0.00     0.029 A 
ATOM     60  N   UNL A   1      41.551  32.556  29.711  1.00  0.00    -0.354 N 
ATOM     61  N   UNL A   1      44.474  30.645  28.924  1.00  0.00    -0.248 NA
ATOM     62  C   UNL A   1      45.928  30.638  27.145  1.00  0.00     0.031 C 
ATOM     63  C   UNL A   1      42.935  32.349  31.419  1.00  0.00     0.029 A 
ATOM     64  C   UNL A   1      42.881  32.642  30.069  1.00  0.00     0.049 A 
ATOM     65  H   UNL A   1      41.210  32.727  28.803  1.00  0.00     0.167 HD
ATOM     66  C   UNL A   1      44.572  31.942  28.497  1.00  0.00     0.074 A 
ATOM     67  C   UNL A   1      45.506  31.893  27.388  1.00  0.00     0.031 C 
ATOM     68  C   UNL A   1      43.855  32.967  29.042  1.00  0.00     0.031 A 
BRANCH  55  69
ATOM     69  C   UNL A   1      38.172  32.445  31.197  1.00  0.00    -0.014 A 
ATOM     70  C   UNL A   1      38.188  33.822  31.502  1.00  0.00     0.010 A 
ATOM     71  C   UNL A   1      37.030  31.735  31.613  1.00  0.00     0.010 A 
ATOM     72  C   UNL A   1      37.174  34.430  32.262  1.00  0.00     0.020 A 
ATOM     73  C   UNL A   1      36.029  32.316  32.406  1.00  0.00     0.020 A 
ATOM     74  C   UNL A   1      36.113  33.662  32.736  1.00  0.00     0.054 A 
BRANCH  74  75
ATOM     75  S   UNL A   1      34.853  34.434  33.784  1.00  0.00     0.124 S 
ATOM     76  O   UNL A   1      33.613  33.879  33.250  1.00  0.00    -0.237 OA
ATOM     77  O   UNL A   1      35.229  33.973  35.117  1.00  0.00    -0.237 OA
ATOM     78  O   UNL A   1      35.036  35.866  33.550  1.00  0.00    -0.744 OA
ENDBRANCH  74  75
ENDBRANCH  55  69
BRANCH  56  79
ATOM     79  C   UNL A   1      45.427  27.419  27.115  1.00  0.00    -0.014 A 
ATOM     80  C   UNL A   1      46.290  26.318  27.298  1.00  0.00     0.010 A 
ATOM     81  C   UNL A   1      44.496  27.386  26.065  1.00  0.00     0.010 A 
ATOM     82  C   UNL A   1      46.092  25.134  26.586  1.00  0.00     0.020 A 
ATOM     83  C   UNL A   1      44.309  26.203  25.334  1.00  0.00     0.020 A 
ATOM     84  C   UNL A   1      45.056  25.065  25.654  1.00  0.00     0.054 A 
BRANCH  84  85
ATOM     85  S   UNL A   1      44.586  23.429  25.017  1.00  0.00     0.124 S 
ATOM     86  O   UNL A   1      43.167  23.603  24.723  1.00  0.00    -0.237 OA
ATOM     87  O   UNL A   1      45.457  23.292  23.849  1.00  0.00    -0.237 OA
ATOM     88  O   UNL A   1      44.894  22.532  26.126  1.00  0.00    -0.744 OA
ENDBRANCH  84  85
ENDBRANCH  56  79
BRANCH  68  89
ATOM     89  C   UNL A   1      44.008  34.391  28.594  1.00  0.00    -0.014 A 
ATOM     90  C   UNL A   1      43.499  34.834  27.362  1.00  0.00     0.010 A 
ATOM     91  C   UNL A   1      44.779  35.297  29.352  1.00  0.00     0.010 A 
ATOM     92  C   UNL A   1      43.700  36.152  26.932  1.00  0.00     0.020 A 
ATOM     93  C   UNL A   1      45.000  36.609  28.922  1.00  0.00     0.020 A 
ATOM     94  C   UNL A   1      44.439  37.035  27.724  1.00  0.00     0.054 A 
BRANCH  94  95
ATOM     95  S   UNL A   1      44.702  38.732  27.146  1.00  0.00     0.124 S 
ATOM     96  O   UNL A   1      45.017  39.449  28.380  1.00  0.00    -0.237 OA
ATOM     97  O   UNL A   1      45.818  38.562  26.219  1.00  0.00    -0.237 OA
ATOM     98  O   UNL A   1      43.427  39.091  26.531  1.00  0.00    -0.744 OA
ENDBRANCH  94  95
ENDBRANCH  68  89
ENDBRANCH  42  43
ENDBRANCH  34  37
ENDBRANCH  32  33
ENDBRANCH  31  32
ENDBRANCH   1  31
TORSDOF 19
ENDMDL
