MODEL 1
REMARK VINA RESULT:     -11.1      0.000      0.000
REMARK SMILES [NH3+]C[C@H]1CC[C@@H](C(=O)Nc2ccc(O)c(C(=O)NCCCCCCNC(=O)c3ccc(-c4c5nc(c(-c6ccc(S(=O)(=O)[O-])cc6)c6ccc([nH]6)c(-c6ccc(S(=O)(=O)[O-])cc6)c6nc(c(-c7ccc(S(=O)(=O)[O-])cc7)c7ccc4[nH]7)C=C6)C=C5)cc3)c2)O1
REMARK SMILES IDX 21 1 20 2 19 3 18 4 16 5 17 6 15 8 10 9 11 10 88 11 12 12
REMARK SMILES IDX 13 13 9 14 7 15 8 16 6 18 3 19 4 20 89 21 5 22 2 23 1 24
REMARK SMILES IDX 14 28 22 30 23 31 24 32 25 33 26 34 27 36 28 37 29 38 87 39
REMARK SMILES IDX 30 40 86 41 31 42 32 43 33 44 80 45 34 46 85 47 79 48 81 49
REMARK SMILES IDX 35 50 84 51 78 52 77 53 36 55 66 56 47 57 65 58 48 59 51 60
REMARK SMILES IDX 64 61 82 62 49 63 50 64 63 66 83 67 52 68 37 69 38 70 46 71
REMARK SMILES IDX 39 72 45 73 40 74 41 75 42 76 43 77 44 78 67 79 68 80 76 81
REMARK SMILES IDX 69 82 75 83 70 84 71 85 72 86 73 87 74 88 53 89 54 90 62 91
REMARK SMILES IDX 55 92 61 93 56 94 57 95 58 96 59 97 60 98
REMARK H PARENT 18 7 9 17 1 25 1 26 1 27 14 29 25 35 81 54 51 65
REMARK Flexibility Score: inf
ROOT
ATOM      1  C   UNL A   1      37.309  21.983  24.565  1.00  0.00     0.002 C 
ENDROOT
BRANCH   1   2
ATOM      2  C   UNL A   1      37.468  22.960  25.730  1.00  0.00     0.021 C 
BRANCH   2   3
ATOM      3  C   UNL A   1      36.179  23.692  26.122  1.00  0.00     0.116 C 
BRANCH   3   4
ATOM      4  N   UNL A   1      35.319  22.822  26.895  1.00  0.00    -0.352 N 
ATOM      5  C   UNL A   1      34.150  22.176  26.597  1.00  0.00     0.255 C 
ATOM      6  O   UNL A   1      33.654  21.504  27.508  1.00  0.00    -0.269 OA
ATOM      7  H   UNL A   1      35.637  22.664  27.814  1.00  0.00     0.163 HD
BRANCH   5   8
ATOM      8  C   UNL A   1      33.465  22.163  25.267  1.00  0.00     0.083 A 
ATOM      9  C   UNL A   1      33.356  23.320  23.111  1.00  0.00     0.042 A 
ATOM     10  C   UNL A   1      32.554  22.304  22.610  1.00  0.00     0.030 A 
ATOM     11  C   UNL A   1      33.858  23.214  24.407  1.00  0.00     0.043 A 
ATOM     12  C   UNL A   1      32.127  21.277  23.437  1.00  0.00     0.049 A 
ATOM     13  C   UNL A   1      32.566  21.213  24.761  1.00  0.00     0.128 A 
BRANCH   9  14
ATOM     14  N   UNL A   1      33.773  24.369  22.290  1.00  0.00    -0.324 N 
ATOM     15  C   UNL A   1      33.279  25.651  22.235  1.00  0.00     0.253 C 
ATOM     16  O   UNL A   1      33.311  26.247  21.154  1.00  0.00    -0.272 OA
ATOM     17  H   UNL A   1      34.513  24.165  21.673  1.00  0.00     0.170 HD
BRANCH  15  18
ATOM     18  C   UNL A   1      32.944  26.378  23.569  1.00  0.00     0.208 C 
ATOM     19  C   UNL A   1      31.814  28.434  23.793  1.00  0.00     0.174 C 
ATOM     20  C   UNL A   1      31.262  27.488  24.839  1.00  0.00     0.041 C 
ATOM     21  O   UNL A   1      33.037  27.807  23.360  1.00  0.00    -0.359 OA
ATOM     22  C   UNL A   1      31.593  26.147  24.226  1.00  0.00     0.045 C 
BRANCH  19  23
ATOM     23  C   UNL A   1      30.837  28.637  22.606  1.00  0.00     0.291 C 
BRANCH  23  24
ATOM     24  N   UNL A   1      31.227  29.720  21.699  1.00  0.00    -0.355 N 
ATOM     25  H   UNL A   1      31.219  29.377  20.739  1.00  0.00     0.344 HD
ATOM     26  H   UNL A   1      32.165  30.041  21.939  1.00  0.00     0.344 HD
ATOM     27  H   UNL A   1      30.568  30.493  21.791  1.00  0.00     0.344 HD
ENDBRANCH  23  24
ENDBRANCH  19  23
ENDBRANCH  15  18
ENDBRANCH   9  14
BRANCH  13  28
ATOM     28  O   UNL A   1      32.123  20.143  25.472  1.00  0.00    -0.507 OA
ATOM     29  H   UNL A   1      31.210  20.054  25.665  1.00  0.00     0.293 HD
ENDBRANCH  13  28
ENDBRANCH   5   8
ENDBRANCH   3   4
ENDBRANCH   2   3
ENDBRANCH   1   2
BRANCH   1  30
ATOM     30  C   UNL A   1      37.092  20.525  24.978  1.00  0.00     0.002 C 
BRANCH  30  31
ATOM     31  C   UNL A   1      38.361  19.671  25.045  1.00  0.00     0.021 C 
BRANCH  31  32
ATOM     32  C   UNL A   1      39.447  20.222  25.965  1.00  0.00     0.116 C 
BRANCH  32  33
ATOM     33  N   UNL A   1      40.501  19.245  26.191  1.00  0.00    -0.352 N 
ATOM     34  C   UNL A   1      41.857  19.436  26.287  1.00  0.00     0.251 C 
ATOM     35  H   UNL A   1      40.199  18.313  26.287  1.00  0.00     0.163 HD
ATOM     36  O   UNL A   1      42.619  18.479  26.211  1.00  0.00    -0.269 OA
BRANCH  34  37
ATOM     37  C   UNL A   1      42.394  20.800  26.481  1.00  0.00     0.039 A 
ATOM     38  C   UNL A   1      42.727  21.566  25.363  1.00  0.00     0.014 A 
ATOM     39  C   UNL A   1      42.594  21.309  27.768  1.00  0.00     0.014 A 
ATOM     40  C   UNL A   1      43.215  22.864  25.533  1.00  0.00     0.010 A 
ATOM     41  C   UNL A   1      43.018  22.624  27.935  1.00  0.00     0.010 A 
ATOM     42  C   UNL A   1      43.339  23.413  26.821  1.00  0.00    -0.014 A 
BRANCH  42  43
ATOM     43  C   UNL A   1      43.807  24.807  27.023  1.00  0.00     0.031 A 
ATOM     44  C   UNL A   1      45.253  25.158  26.799  1.00  0.00     0.074 A 
ATOM     45  C   UNL A   1      42.945  25.739  27.474  1.00  0.00     0.049 A 
ATOM     46  N   UNL A   1      45.864  26.299  26.994  1.00  0.00    -0.248 NA
ATOM     47  C   UNL A   1      46.134  24.081  26.316  1.00  0.00     0.031 C 
ATOM     48  C   UNL A   1      41.527  25.513  27.766  1.00  0.00     0.029 A 
ATOM     49  N   UNL A   1      43.136  27.064  27.776  1.00  0.00    -0.354 N 
ATOM     50  C   UNL A   1      47.198  26.072  26.678  1.00  0.00     0.074 A 
ATOM     51  C   UNL A   1      47.318  24.676  26.322  1.00  0.00     0.031 C 
ATOM     52  C   UNL A   1      40.974  26.663  28.186  1.00  0.00     0.029 A 
ATOM     53  C   UNL A   1      42.003  27.697  28.230  1.00  0.00     0.049 A 
ATOM     54  H   UNL A   1      44.004  27.519  27.676  1.00  0.00     0.167 HD
ATOM     55  C   UNL A   1      48.228  26.953  26.668  1.00  0.00     0.031 A 
ATOM     56  C   UNL A   1      41.814  28.965  28.644  1.00  0.00     0.031 A 
ATOM     57  C   UNL A   1      48.101  28.345  27.007  1.00  0.00     0.049 A 
ATOM     58  C   UNL A   1      42.973  29.923  28.625  1.00  0.00     0.074 A 
ATOM     59  C   UNL A   1      49.072  29.331  26.971  1.00  0.00     0.029 A 
ATOM     60  N   UNL A   1      46.932  28.951  27.443  1.00  0.00    -0.354 N 
ATOM     61  N   UNL A   1      44.215  29.704  28.263  1.00  0.00    -0.248 NA
ATOM     62  C   UNL A   1      42.704  31.300  29.060  1.00  0.00     0.031 C 
ATOM     63  C   UNL A   1      48.502  30.522  27.432  1.00  0.00     0.029 A 
ATOM     64  C   UNL A   1      47.162  30.291  27.702  1.00  0.00     0.049 A 
ATOM     65  H   UNL A   1      46.066  28.494  27.553  1.00  0.00     0.167 HD
ATOM     66  C   UNL A   1      44.868  30.923  28.401  1.00  0.00     0.074 A 
ATOM     67  C   UNL A   1      43.882  31.877  28.866  1.00  0.00     0.031 C 
ATOM     68  C   UNL A   1      46.168  31.226  28.163  1.00  0.00     0.031 A 
BRANCH  55  69
ATOM     69  C   UNL A   1      49.587  26.433  26.281  1.00  0.00    -0.014 A 
ATOM     70  C   UNL A   1      50.153  26.737  25.030  1.00  0.00     0.010 A 
ATOM     71  C   UNL A   1      50.331  25.669  27.200  1.00  0.00     0.010 A 
ATOM     72  C   UNL A   1      51.419  26.256  24.689  1.00  0.00     0.020 A 
ATOM     73  C   UNL A   1      51.610  25.207  26.873  1.00  0.00     0.020 A 
ATOM     74  C   UNL A   1      52.139  25.491  25.612  1.00  0.00     0.054 A 
BRANCH  74  75
ATOM     75  S   UNL A   1      53.792  24.903  25.152  1.00  0.00     0.124 S 
ATOM     76  O   UNL A   1      54.012  25.591  23.882  1.00  0.00    -0.237 OA
ATOM     77  O   UNL A   1      54.618  25.362  26.266  1.00  0.00    -0.237 OA
ATOM     78  O   UNL A   1      53.630  23.454  25.055  1.00  0.00    -0.744 OA
ENDBRANCH  74  75
ENDBRANCH  55  69
BRANCH  56  79
ATOM     79  C   UNL A   1      40.468  29.403  29.105  1.00  0.00    -0.014 A 
ATOM     80  C   UNL A   1      40.217  29.622  30.470  1.00  0.00     0.010 A 
ATOM     81  C   UNL A   1      39.432  29.611  28.177  1.00  0.00     0.010 A 
ATOM     82  C   UNL A   1      38.949  30.023  30.902  1.00  0.00     0.020 A 
ATOM     83  C   UNL A   1      38.171  30.037  28.601  1.00  0.00     0.020 A 
ATOM     84  C   UNL A   1      37.933  30.227  29.963  1.00  0.00     0.054 A 
BRANCH  84  85
ATOM     85  S   UNL A   1      36.307  30.791  30.539  1.00  0.00     0.124 S 
ATOM     86  O   UNL A   1      35.928  29.727  31.462  1.00  0.00    -0.237 OA
ATOM     87  O   UNL A   1      36.617  32.081  31.151  1.00  0.00    -0.237 OA
ATOM     88  O   UNL A   1      35.519  30.867  29.311  1.00  0.00    -0.744 OA
ENDBRANCH  84  85
ENDBRANCH  56  79
BRANCH  68  89
ATOM     89  C   UNL A   1      46.596  32.655  28.370  1.00  0.00    -0.014 A 
ATOM     90  C   UNL A   1      46.497  33.601  27.337  1.00  0.00     0.010 A 
ATOM     91  C   UNL A   1      47.050  33.064  29.638  1.00  0.00     0.010 A 
ATOM     92  C   UNL A   1      46.870  34.930  27.560  1.00  0.00     0.020 A 
ATOM     93  C   UNL A   1      47.399  34.397  29.872  1.00  0.00     0.020 A 
ATOM     94  C   UNL A   1      47.319  35.318  28.826  1.00  0.00     0.054 A 
BRANCH  94  95
ATOM     95  S   UNL A   1      47.752  37.057  29.103  1.00  0.00     0.124 S 
ATOM     96  O   UNL A   1      47.585  37.185  30.548  1.00  0.00    -0.237 OA
ATOM     97  O   UNL A   1      49.129  37.127  28.620  1.00  0.00    -0.237 OA
ATOM     98  O   UNL A   1      46.778  37.789  28.296  1.00  0.00    -0.744 OA
ENDBRANCH  94  95
ENDBRANCH  68  89
ENDBRANCH  42  43
ENDBRANCH  34  37
ENDBRANCH  32  33
ENDBRANCH  31  32
ENDBRANCH  30  31
ENDBRANCH   1  30
TORSDOF 21
ENDMDL
MODEL 2
REMARK VINA RESULT:     -10.9      5.819      8.139
REMARK SMILES [NH3+]C[C@H]1CC[C@@H](C(=O)Nc2ccc(O)c(C(=O)NCCCCCCNC(=O)c3ccc(-c4c5nc(c(-c6ccc(S(=O)(=O)[O-])cc6)c6ccc([nH]6)c(-c6ccc(S(=O)(=O)[O-])cc6)c6nc(c(-c7ccc(S(=O)(=O)[O-])cc7)c7ccc4[nH]7)C=C6)C=C5)cc3)c2)O1
REMARK SMILES IDX 21 1 20 2 19 3 18 4 16 5 17 6 15 8 10 9 11 10 88 11 12 12
REMARK SMILES IDX 13 13 9 14 7 15 8 16 6 18 3 19 4 20 89 21 5 22 2 23 1 24
REMARK SMILES IDX 14 28 22 30 23 31 24 32 25 33 26 34 27 36 28 37 29 38 87 39
REMARK SMILES IDX 30 40 86 41 31 42 32 43 33 44 80 45 34 46 85 47 79 48 81 49
REMARK SMILES IDX 35 50 84 51 78 52 77 53 36 55 66 56 47 57 65 58 48 59 51 60
REMARK SMILES IDX 64 61 82 62 49 63 50 64 63 66 83 67 52 68 37 69 38 70 46 71
REMARK SMILES IDX 39 72 45 73 40 74 41 75 42 76 43 77 44 78 67 79 68 80 76 81
REMARK SMILES IDX 69 82 75 83 70 84 71 85 72 86 73 87 74 88 53 89 54 90 62 91
REMARK SMILES IDX 55 92 61 93 56 94 57 95 58 96 59 97 60 98
REMARK H PARENT 18 7 9 17 1 25 1 26 1 27 14 29 25 35 81 54 51 65
REMARK Flexibility Score: inf
ROOT
ATOM      1  C   UNL A   1      38.539  23.850  26.103  1.00  0.00     0.002 C 
ENDROOT
BRANCH   1   2
ATOM      2  C   UNL A   1      37.092  23.543  25.711  1.00  0.00     0.021 C 
BRANCH   2   3
ATOM      3  C   UNL A   1      36.730  22.054  25.742  1.00  0.00     0.116 C 
BRANCH   3   4
ATOM      4  N   UNL A   1      35.659  21.814  26.685  1.00  0.00    -0.352 N 
ATOM      5  C   UNL A   1      34.303  21.715  26.537  1.00  0.00     0.255 C 
ATOM      6  O   UNL A   1      33.658  21.512  27.572  1.00  0.00    -0.269 OA
ATOM      7  H   UNL A   1      35.967  21.700  27.614  1.00  0.00     0.163 HD
BRANCH   5   8
ATOM      8  C   UNL A   1      33.551  21.768  25.245  1.00  0.00     0.083 A 
ATOM      9  C   UNL A   1      33.320  23.044  23.168  1.00  0.00     0.042 A 
ATOM     10  C   UNL A   1      32.504  22.048  22.650  1.00  0.00     0.030 A 
ATOM     11  C   UNL A   1      33.888  22.872  24.428  1.00  0.00     0.043 A 
ATOM     12  C   UNL A   1      32.132  20.969  23.436  1.00  0.00     0.049 A 
ATOM     13  C   UNL A   1      32.638  20.835  24.731  1.00  0.00     0.128 A 
BRANCH   9  14
ATOM     14  N   UNL A   1      33.683  24.145  22.389  1.00  0.00    -0.324 N 
ATOM     15  C   UNL A   1      32.872  25.142  21.900  1.00  0.00     0.253 C 
ATOM     16  O   UNL A   1      33.173  25.668  20.824  1.00  0.00    -0.272 OA
ATOM     17  H   UNL A   1      34.638  24.214  22.160  1.00  0.00     0.170 HD
BRANCH  15  18
ATOM     18  C   UNL A   1      31.775  25.734  22.830  1.00  0.00     0.208 C 
ATOM     19  C   UNL A   1      32.022  27.567  24.290  1.00  0.00     0.174 C 
ATOM     20  C   UNL A   1      30.691  27.716  23.584  1.00  0.00     0.041 C 
ATOM     21  O   UNL A   1      32.396  26.196  24.053  1.00  0.00    -0.359 OA
ATOM     22  C   UNL A   1      30.926  26.894  22.339  1.00  0.00     0.045 C 
BRANCH  19  23
ATOM     23  C   UNL A   1      33.095  28.544  23.742  1.00  0.00     0.291 C 
BRANCH  23  24
ATOM     24  N   UNL A   1      33.278  29.741  24.565  1.00  0.00    -0.355 N 
ATOM     25  H   UNL A   1      34.250  30.046  24.508  1.00  0.00     0.344 HD
ATOM     26  H   UNL A   1      33.044  29.526  25.534  1.00  0.00     0.344 HD
ATOM     27  H   UNL A   1      32.668  30.484  24.225  1.00  0.00     0.344 HD
ENDBRANCH  23  24
ENDBRANCH  19  23
ENDBRANCH  15  18
ENDBRANCH   9  14
BRANCH  13  28
ATOM     28  O   UNL A   1      32.244  19.721  25.400  1.00  0.00    -0.507 OA
ATOM     29  H   UNL A   1      32.801  18.968  25.426  1.00  0.00     0.293 HD
ENDBRANCH  13  28
ENDBRANCH   5   8
ENDBRANCH   3   4
ENDBRANCH   2   3
ENDBRANCH   1   2
BRANCH   1  30
ATOM     30  C   UNL A   1      39.204  22.785  26.978  1.00  0.00     0.002 C 
BRANCH  30  31
ATOM     31  C   UNL A   1      40.659  22.466  26.621  1.00  0.00     0.021 C 
BRANCH  31  32
ATOM     32  C   UNL A   1      41.670  23.507  27.094  1.00  0.00     0.116 C 
BRANCH  32  33
ATOM     33  N   UNL A   1      42.172  24.305  25.987  1.00  0.00    -0.352 N 
ATOM     34  C   UNL A   1      42.150  25.667  25.817  1.00  0.00     0.251 C 
ATOM     35  H   UNL A   1      42.586  23.795  25.254  1.00  0.00     0.163 HD
ATOM     36  O   UNL A   1      42.371  26.152  24.713  1.00  0.00    -0.269 OA
BRANCH  34  37
ATOM     37  C   UNL A   1      41.855  26.546  26.970  1.00  0.00     0.039 A 
ATOM     38  C   UNL A   1      40.853  26.177  27.869  1.00  0.00     0.014 A 
ATOM     39  C   UNL A   1      42.550  27.747  27.144  1.00  0.00     0.014 A 
ATOM     40  C   UNL A   1      40.581  26.988  28.972  1.00  0.00     0.010 A 
ATOM     41  C   UNL A   1      42.323  28.520  28.277  1.00  0.00     0.010 A 
ATOM     42  C   UNL A   1      41.333  28.154  29.200  1.00  0.00    -0.014 A 
BRANCH  42  43
ATOM     43  C   UNL A   1      41.095  29.003  30.394  1.00  0.00     0.031 A 
ATOM     44  C   UNL A   1      41.933  28.819  31.630  1.00  0.00     0.074 A 
ATOM     45  C   UNL A   1      40.081  29.891  30.388  1.00  0.00     0.049 A 
ATOM     46  N   UNL A   1      41.829  29.412  32.792  1.00  0.00    -0.248 NA
ATOM     47  C   UNL A   1      43.015  27.822  31.560  1.00  0.00     0.031 C 
ATOM     48  C   UNL A   1      39.173  30.133  29.265  1.00  0.00     0.029 A 
ATOM     49  N   UNL A   1      39.636  30.748  31.363  1.00  0.00    -0.354 N 
ATOM     50  C   UNL A   1      42.814  28.848  33.595  1.00  0.00     0.074 A 
ATOM     51  C   UNL A   1      43.476  27.836  32.803  1.00  0.00     0.031 C 
ATOM     52  C   UNL A   1      38.293  31.089  29.607  1.00  0.00     0.029 A 
ATOM     53  C   UNL A   1      38.549  31.499  30.985  1.00  0.00     0.049 A 
ATOM     54  H   UNL A   1      40.058  30.819  32.250  1.00  0.00     0.167 HD
ATOM     55  C   UNL A   1      43.148  29.158  34.870  1.00  0.00     0.031 A 
ATOM     56  C   UNL A   1      37.831  32.410  31.670  1.00  0.00     0.031 A 
ATOM     57  C   UNL A   1      42.498  30.178  35.648  1.00  0.00     0.049 A 
ATOM     58  C   UNL A   1      38.221  32.736  33.086  1.00  0.00     0.074 A 
ATOM     59  C   UNL A   1      42.802  30.607  36.929  1.00  0.00     0.029 A 
ATOM     60  N   UNL A   1      41.413  30.929  35.221  1.00  0.00    -0.354 N 
ATOM     61  N   UNL A   1      39.196  32.235  33.806  1.00  0.00    -0.248 NA
ATOM     62  C   UNL A   1      37.422  33.756  33.777  1.00  0.00     0.031 C 
ATOM     63  C   UNL A   1      41.870  31.585  37.294  1.00  0.00     0.029 A 
ATOM     64  C   UNL A   1      41.021  31.803  36.220  1.00  0.00     0.049 A 
ATOM     65  H   UNL A   1      40.985  30.852  34.338  1.00  0.00     0.167 HD
ATOM     66  C   UNL A   1      39.144  32.899  35.026  1.00  0.00     0.074 A 
ATOM     67  C   UNL A   1      38.051  33.846  34.940  1.00  0.00     0.031 C 
ATOM     68  C   UNL A   1      39.931  32.740  36.118  1.00  0.00     0.031 A 
BRANCH  55  69
ATOM     69  C   UNL A   1      44.270  28.380  35.506  1.00  0.00    -0.014 A 
ATOM     70  C   UNL A   1      45.601  28.827  35.429  1.00  0.00     0.010 A 
ATOM     71  C   UNL A   1      43.983  27.210  36.234  1.00  0.00     0.010 A 
ATOM     72  C   UNL A   1      46.629  28.099  36.033  1.00  0.00     0.020 A 
ATOM     73  C   UNL A   1      45.005  26.493  36.863  1.00  0.00     0.020 A 
ATOM     74  C   UNL A   1      46.325  26.934  36.744  1.00  0.00     0.054 A 
BRANCH  74  75
ATOM     75  S   UNL A   1      47.677  26.025  37.542  1.00  0.00     0.124 S 
ATOM     76  O   UNL A   1      48.734  26.120  36.538  1.00  0.00    -0.237 OA
ATOM     77  O   UNL A   1      47.902  26.792  38.765  1.00  0.00    -0.237 OA
ATOM     78  O   UNL A   1      47.125  24.687  37.741  1.00  0.00    -0.744 OA
ENDBRANCH  74  75
ENDBRANCH  55  69
BRANCH  56  79
ATOM     79  C   UNL A   1      36.673  33.084  31.023  1.00  0.00    -0.014 A 
ATOM     80  C   UNL A   1      35.379  32.949  31.554  1.00  0.00     0.010 A 
ATOM     81  C   UNL A   1      36.861  33.872  29.873  1.00  0.00     0.010 A 
ATOM     82  C   UNL A   1      34.291  33.574  30.936  1.00  0.00     0.020 A 
ATOM     83  C   UNL A   1      35.781  34.520  29.269  1.00  0.00     0.020 A 
ATOM     84  C   UNL A   1      34.499  34.356  29.797  1.00  0.00     0.054 A 
BRANCH  84  85
ATOM     85  S   UNL A   1      33.081  35.196  29.038  1.00  0.00     0.124 S 
ATOM     86  O   UNL A   1      32.621  34.203  28.074  1.00  0.00    -0.237 OA
ATOM     87  O   UNL A   1      32.201  35.427  30.180  1.00  0.00    -0.237 OA
ATOM     88  O   UNL A   1      33.670  36.403  28.462  1.00  0.00    -0.744 OA
ENDBRANCH  84  85
ENDBRANCH  56  79
BRANCH  68  89
ATOM     89  C   UNL A   1      39.662  33.630  37.302  1.00  0.00    -0.014 A 
ATOM     90  C   UNL A   1      39.082  33.123  38.477  1.00  0.00     0.010 A 
ATOM     91  C   UNL A   1      40.049  34.982  37.253  1.00  0.00     0.010 A 
ATOM     92  C   UNL A   1      38.869  33.960  39.576  1.00  0.00     0.020 A 
ATOM     93  C   UNL A   1      39.862  35.815  38.360  1.00  0.00     0.020 A 
ATOM     94  C   UNL A   1      39.261  35.301  39.509  1.00  0.00     0.054 A 
BRANCH  94  95
ATOM     95  S   UNL A   1      39.018  36.354  40.965  1.00  0.00     0.124 S 
ATOM     96  O   UNL A   1      38.748  37.654  40.358  1.00  0.00    -0.237 OA
ATOM     97  O   UNL A   1      37.881  35.723  41.632  1.00  0.00    -0.237 OA
ATOM     98  O   UNL A   1      40.287  36.252  41.682  1.00  0.00    -0.744 OA
ENDBRANCH  94  95
ENDBRANCH  68  89
ENDBRANCH  42  43
ENDBRANCH  34  37
ENDBRANCH  32  33
ENDBRANCH  31  32
ENDBRANCH  30  31
ENDBRANCH   1  30
TORSDOF 21
ENDMDL
MODEL 3
REMARK VINA RESULT:     -10.8      1.504      8.222
REMARK SMILES [NH3+]C[C@H]1CC[C@@H](C(=O)Nc2ccc(O)c(C(=O)NCCCCCCNC(=O)c3ccc(-c4c5nc(c(-c6ccc(S(=O)(=O)[O-])cc6)c6ccc([nH]6)c(-c6ccc(S(=O)(=O)[O-])cc6)c6nc(c(-c7ccc(S(=O)(=O)[O-])cc7)c7ccc4[nH]7)C=C6)C=C5)cc3)c2)O1
REMARK SMILES IDX 21 1 20 2 19 3 18 4 16 5 17 6 15 8 10 9 11 10 88 11 12 12
REMARK SMILES IDX 13 13 9 14 7 15 8 16 6 18 3 19 4 20 89 21 5 22 2 23 1 24
REMARK SMILES IDX 14 28 22 30 23 31 24 32 25 33 26 34 27 36 28 37 29 38 87 39
REMARK SMILES IDX 30 40 86 41 31 42 32 43 33 44 80 45 34 46 85 47 79 48 81 49
REMARK SMILES IDX 35 50 84 51 78 52 77 53 36 55 66 56 47 57 65 58 48 59 51 60
REMARK SMILES IDX 64 61 82 62 49 63 50 64 63 66 83 67 52 68 37 69 38 70 46 71
REMARK SMILES IDX 39 72 45 73 40 74 41 75 42 76 43 77 44 78 67 79 68 80 76 81
REMARK SMILES IDX 69 82 75 83 70 84 71 85 72 86 73 87 74 88 53 89 54 90 62 91
REMARK SMILES IDX 55 92 61 93 56 94 57 95 58 96 59 97 60 98
REMARK H PARENT 18 7 9 17 1 25 1 26 1 27 14 29 25 35 81 54 51 65
REMARK Flexibility Score: inf
ROOT
ATOM      1  C   UNL A   1      40.105  23.148  26.430  1.00  0.00     0.002 C 
ENDROOT
BRANCH   1   2
ATOM      2  C   UNL A   1      38.754  23.838  26.629  1.00  0.00     0.021 C 
BRANCH   2   3
ATOM      3  C   UNL A   1      37.557  23.060  26.070  1.00  0.00     0.116 C 
BRANCH   3   4
ATOM      4  N   UNL A   1      37.533  23.140  24.626  1.00  0.00    -0.352 N 
ATOM      5  C   UNL A   1      36.583  22.808  23.699  1.00  0.00     0.255 C 
ATOM      6  O   UNL A   1      36.891  22.994  22.516  1.00  0.00    -0.269 OA
ATOM      7  H   UNL A   1      38.360  23.504  24.234  1.00  0.00     0.163 HD
BRANCH   5   8
ATOM      8  C   UNL A   1      35.205  22.304  23.989  1.00  0.00     0.083 A 
ATOM      9  C   UNL A   1      32.834  22.730  23.545  1.00  0.00     0.042 A 
ATOM     10  C   UNL A   1      32.509  21.516  24.135  1.00  0.00     0.030 A 
ATOM     11  C   UNL A   1      34.175  23.087  23.417  1.00  0.00     0.043 A 
ATOM     12  C   UNL A   1      33.492  20.742  24.732  1.00  0.00     0.049 A 
ATOM     13  C   UNL A   1      34.830  21.139  24.673  1.00  0.00     0.128 A 
BRANCH   9  14
ATOM     14  N   UNL A   1      31.846  23.525  22.961  1.00  0.00    -0.324 N 
ATOM     15  C   UNL A   1      31.023  24.441  23.572  1.00  0.00     0.253 C 
ATOM     16  O   UNL A   1      29.892  24.615  23.108  1.00  0.00    -0.272 OA
ATOM     17  H   UNL A   1      31.723  23.416  21.990  1.00  0.00     0.170 HD
BRANCH  15  18
ATOM     18  C   UNL A   1      31.630  25.390  24.644  1.00  0.00     0.208 C 
ATOM     19  C   UNL A   1      31.581  27.746  24.613  1.00  0.00     0.174 C 
ATOM     20  C   UNL A   1      31.262  27.297  26.024  1.00  0.00     0.041 C 
ATOM     21  O   UNL A   1      32.140  26.575  23.988  1.00  0.00    -0.359 OA
ATOM     22  C   UNL A   1      30.753  25.895  25.777  1.00  0.00     0.045 C 
BRANCH  19  23
ATOM     23  C   UNL A   1      30.324  28.242  23.852  1.00  0.00     0.291 C 
BRANCH  23  24
ATOM     24  N   UNL A   1      30.273  27.811  22.453  1.00  0.00    -0.355 N 
ATOM     25  H   UNL A   1      30.141  28.624  21.852  1.00  0.00     0.344 HD
ATOM     26  H   UNL A   1      29.495  27.163  22.326  1.00  0.00     0.344 HD
ATOM     27  H   UNL A   1      31.147  27.345  22.209  1.00  0.00     0.344 HD
ENDBRANCH  23  24
ENDBRANCH  19  23
ENDBRANCH  15  18
ENDBRANCH   9  14
BRANCH  13  28
ATOM     28  O   UNL A   1      35.717  20.288  25.251  1.00  0.00    -0.507 OA
ATOM     29  H   UNL A   1      36.627  20.509  25.281  1.00  0.00     0.293 HD
ENDBRANCH  13  28
ENDBRANCH   5   8
ENDBRANCH   3   4
ENDBRANCH   2   3
ENDBRANCH   1   2
BRANCH   1  30
ATOM     30  C   UNL A   1      40.628  22.401  27.659  1.00  0.00     0.002 C 
BRANCH  30  31
ATOM     31  C   UNL A   1      40.757  20.884  27.493  1.00  0.00     0.021 C 
BRANCH  31  32
ATOM     32  C   UNL A   1      40.593  20.388  26.059  1.00  0.00     0.116 C 
BRANCH  32  33
ATOM     33  N   UNL A   1      41.702  19.536  25.659  1.00  0.00    -0.352 N 
ATOM     34  C   UNL A   1      42.988  19.882  25.327  1.00  0.00     0.251 C 
ATOM     35  H   UNL A   1      41.501  18.573  25.620  1.00  0.00     0.163 HD
ATOM     36  O   UNL A   1      43.714  19.075  24.759  1.00  0.00    -0.269 OA
BRANCH  34  37
ATOM     37  C   UNL A   1      43.492  21.234  25.655  1.00  0.00     0.039 A 
ATOM     38  C   UNL A   1      43.455  22.230  24.678  1.00  0.00     0.014 A 
ATOM     39  C   UNL A   1      44.026  21.506  26.918  1.00  0.00     0.014 A 
ATOM     40  C   UNL A   1      43.908  23.515  24.983  1.00  0.00     0.010 A 
ATOM     41  C   UNL A   1      44.416  22.802  27.241  1.00  0.00     0.010 A 
ATOM     42  C   UNL A   1      44.368  23.818  26.276  1.00  0.00    -0.014 A 
BRANCH  42  43
ATOM     43  C   UNL A   1      44.806  25.190  26.636  1.00  0.00     0.031 A 
ATOM     44  C   UNL A   1      43.810  26.185  27.170  1.00  0.00     0.074 A 
ATOM     45  C   UNL A   1      46.084  25.560  26.418  1.00  0.00     0.049 A 
ATOM     46  N   UNL A   1      43.986  27.446  27.470  1.00  0.00    -0.248 NA
ATOM     47  C   UNL A   1      42.432  25.706  27.371  1.00  0.00     0.031 C 
ATOM     48  C   UNL A   1      47.133  24.699  25.867  1.00  0.00     0.029 A 
ATOM     49  N   UNL A   1      46.715  26.761  26.623  1.00  0.00    -0.354 N 
ATOM     50  C   UNL A   1      42.742  27.916  27.874  1.00  0.00     0.074 A 
ATOM     51  C   UNL A   1      41.811  26.818  27.739  1.00  0.00     0.031 C 
ATOM     52  C   UNL A   1      48.281  25.393  25.797  1.00  0.00     0.029 A 
ATOM     53  C   UNL A   1      48.042  26.757  26.260  1.00  0.00     0.049 A 
ATOM     54  H   UNL A   1      46.261  27.551  26.996  1.00  0.00     0.167 HD
ATOM     55  C   UNL A   1      42.409  29.146  28.333  1.00  0.00     0.031 A 
ATOM     56  C   UNL A   1      48.961  27.741  26.287  1.00  0.00     0.031 A 
ATOM     57  C   UNL A   1      43.342  30.230  28.482  1.00  0.00     0.049 A 
ATOM     58  C   UNL A   1      48.565  29.099  26.800  1.00  0.00     0.074 A 
ATOM     59  C   UNL A   1      43.114  31.497  28.994  1.00  0.00     0.029 A 
ATOM     60  N   UNL A   1      44.680  30.179  28.121  1.00  0.00    -0.354 N 
ATOM     61  N   UNL A   1      47.397  29.504  27.236  1.00  0.00    -0.248 NA
ATOM     62  C   UNL A   1      49.614  30.127  26.834  1.00  0.00     0.031 C 
ATOM     63  C   UNL A   1      44.303  32.226  28.897  1.00  0.00     0.029 A 
ATOM     64  C   UNL A   1      45.285  31.397  28.377  1.00  0.00     0.049 A 
ATOM     65  H   UNL A   1      45.132  29.392  27.739  1.00  0.00     0.167 HD
ATOM     66  C   UNL A   1      47.578  30.828  27.622  1.00  0.00     0.074 A 
ATOM     67  C   UNL A   1      48.970  31.148  27.380  1.00  0.00     0.031 C 
ATOM     68  C   UNL A   1      46.672  31.699  28.132  1.00  0.00     0.031 A 
BRANCH  55  69
ATOM     69  C   UNL A   1      40.969  29.385  28.706  1.00  0.00    -0.014 A 
ATOM     70  C   UNL A   1      39.977  29.535  27.719  1.00  0.00     0.010 A 
ATOM     71  C   UNL A   1      40.593  29.412  30.061  1.00  0.00     0.010 A 
ATOM     72  C   UNL A   1      38.645  29.746  28.080  1.00  0.00     0.020 A 
ATOM     73  C   UNL A   1      39.256  29.597  30.427  1.00  0.00     0.020 A 
ATOM     74  C   UNL A   1      38.293  29.779  29.432  1.00  0.00     0.054 A 
BRANCH  74  75
ATOM     75  S   UNL A   1      36.550  30.027  29.871  1.00  0.00     0.124 S 
ATOM     76  O   UNL A   1      36.471  31.482  29.974  1.00  0.00    -0.237 OA
ATOM     77  O   UNL A   1      35.846  29.439  28.734  1.00  0.00    -0.237 OA
ATOM     78  O   UNL A   1      36.404  29.305  31.132  1.00  0.00    -0.744 OA
ENDBRANCH  74  75
ENDBRANCH  55  69
BRANCH  56  79
ATOM     79  C   UNL A   1      50.348  27.475  25.820  1.00  0.00    -0.014 A 
ATOM     80  C   UNL A   1      50.683  27.608  24.461  1.00  0.00     0.010 A 
ATOM     81  C   UNL A   1      51.346  27.094  26.736  1.00  0.00     0.010 A 
ATOM     82  C   UNL A   1      51.985  27.346  24.024  1.00  0.00     0.020 A 
ATOM     83  C   UNL A   1      52.654  26.858  26.307  1.00  0.00     0.020 A 
ATOM     84  C   UNL A   1      52.963  26.972  24.950  1.00  0.00     0.054 A 
BRANCH  84  85
ATOM     85  S   UNL A   1      54.657  26.682  24.369  1.00  0.00     0.124 S 
ATOM     86  O   UNL A   1      54.895  25.310  24.803  1.00  0.00    -0.237 OA
ATOM     87  O   UNL A   1      54.535  26.878  22.926  1.00  0.00    -0.237 OA
ATOM     88  O   UNL A   1      55.435  27.705  25.064  1.00  0.00    -0.744 OA
ENDBRANCH  84  85
ENDBRANCH  56  79
BRANCH  68  89
ATOM     89  C   UNL A   1      47.163  33.075  28.494  1.00  0.00    -0.014 A 
ATOM     90  C   UNL A   1      47.015  34.156  27.608  1.00  0.00     0.010 A 
ATOM     91  C   UNL A   1      47.727  33.298  29.763  1.00  0.00     0.010 A 
ATOM     92  C   UNL A   1      47.450  35.433  27.976  1.00  0.00     0.020 A 
ATOM     93  C   UNL A   1      48.137  34.577  30.145  1.00  0.00     0.020 A 
ATOM     94  C   UNL A   1      48.008  35.635  29.242  1.00  0.00     0.054 A 
BRANCH  94  95
ATOM     95  S   UNL A   1      48.519  37.309  29.714  1.00  0.00     0.124 S 
ATOM     96  O   UNL A   1      49.193  37.773  28.505  1.00  0.00    -0.237 OA
ATOM     97  O   UNL A   1      47.246  37.961  30.015  1.00  0.00    -0.237 OA
ATOM     98  O   UNL A   1      49.388  37.093  30.869  1.00  0.00    -0.744 OA
ENDBRANCH  94  95
ENDBRANCH  68  89
ENDBRANCH  42  43
ENDBRANCH  34  37
ENDBRANCH  32  33
ENDBRANCH  31  32
ENDBRANCH  30  31
ENDBRANCH   1  30
TORSDOF 21
ENDMDL
