MODEL 1
REMARK VINA RESULT:      -9.1      0.000      0.000
REMARK SMILES O=C(CCCc1nc(-c2ccc(Cl)c(Cl)c2)c(-c2ccccc2)o1)NCCCCCCNC(=O)c1ccc(-c2c3nc(c(-c4ccc(S(=O)(=O)[O-])cc4)c4ccc([nH]4)c(-c4ccc(S(=O)(=O)[O-])cc4)c4nc(c(-c5ccc(S(=O)(=O)[O-])cc5)c5ccc2[nH]5)C=C4)C=C3)cc1
REMARK SMILES IDX 28 1 27 2 26 3 25 4 1 5 2 6 3 8 4 9 5 10 6 11 7 12 24 13
REMARK SMILES IDX 8 14 17 15 9 16 10 17 16 18 11 19 14 20 12 21 15 22 13 23
REMARK SMILES IDX 18 24 19 25 23 26 20 27 22 28 21 29 29 30 30 31 31 32 32 33
REMARK SMILES IDX 33 34 34 36 35 37 36 38 94 39 37 40 93 41 38 42 39 43 40 44
REMARK SMILES IDX 87 45 41 46 92 47 86 48 88 49 42 50 91 51 85 52 84 53 43 55
REMARK SMILES IDX 73 56 54 57 72 58 55 59 58 60 71 61 89 62 56 63 57 64 70 66
REMARK SMILES IDX 90 67 59 68 44 69 45 70 53 71 46 72 52 73 47 74 48 75 49 76
REMARK SMILES IDX 50 77 51 78 74 79 75 80 83 81 76 82 82 83 77 84 78 85 79 86
REMARK SMILES IDX 80 87 81 88 60 89 61 90 69 91 62 92 68 93 63 94 64 95 65 96
REMARK SMILES IDX 66 97 67 98
REMARK H PARENT 25 7 32 35 88 54 58 65
REMARK Flexibility Score: inf
ROOT
ATOM      1  C   UNL A   1      45.527  21.779  24.225  1.00  0.00     0.002 C 
ENDROOT
BRANCH   1   2
ATOM      2  C   UNL A   1      45.082  20.312  24.131  1.00  0.00     0.021 C 
BRANCH   2   3
ATOM      3  C   UNL A   1      44.591  19.704  25.443  1.00  0.00     0.116 C 
BRANCH   3   4
ATOM      4  N   UNL A   1      43.170  19.912  25.620  1.00  0.00    -0.356 N 
ATOM      5  O   UNL A   1      42.623  17.708  25.970  1.00  0.00    -0.275 OA
ATOM      6  C   UNL A   1      42.295  18.884  25.873  1.00  0.00     0.220 C 
ATOM      7  H   UNL A   1      42.815  20.828  25.556  1.00  0.00     0.163 HD
BRANCH   6   8
ATOM      8  C   UNL A   1      40.862  19.342  26.026  1.00  0.00     0.100 C 
BRANCH   8   9
ATOM      9  C   UNL A   1      40.669  20.360  27.154  1.00  0.00     0.020 C 
BRANCH   9  10
ATOM     10  C   UNL A   1      40.123  21.740  26.765  1.00  0.00     0.098 C 
BRANCH  10  11
ATOM     11  C   UNL A   1      40.922  22.914  27.220  1.00  0.00     0.195 A 
ATOM     12  N   UNL A   1      41.982  22.917  28.007  1.00  0.00    -0.213 NA
ATOM     13  O   UNL A   1      40.564  24.152  26.756  1.00  0.00    -0.440 OA
ATOM     14  C   UNL A   1      42.327  24.244  28.089  1.00  0.00     0.117 A 
ATOM     15  C   UNL A   1      41.505  24.996  27.275  1.00  0.00     0.162 A 
BRANCH  14  16
ATOM     16  C   UNL A   1      43.394  24.771  28.912  1.00  0.00     0.006 A 
ATOM     17  C   UNL A   1      44.179  25.835  28.463  1.00  0.00     0.012 A 
ATOM     18  C   UNL A   1      43.619  24.236  30.189  1.00  0.00     0.032 A 
ATOM     19  C   UNL A   1      45.157  26.384  29.301  1.00  0.00     0.023 A 
ATOM     20  C   UNL A   1      44.600  24.779  31.023  1.00  0.00     0.060 A 
ATOM     21  C   UNL A   1      45.365  25.862  30.583  1.00  0.00     0.059 A 
ATOM     22  Cl  UNL A   1      44.802  24.070  32.587  1.00  0.00    -0.083 Cl
ATOM     23  Cl  UNL A   1      46.572  26.601  31.572  1.00  0.00    -0.083 Cl
ENDBRANCH  14  16
BRANCH  15  24
ATOM     24  C   UNL A   1      41.457  26.380  26.845  1.00  0.00     0.020 A 
ATOM     25  C   UNL A   1      40.638  27.309  27.494  1.00  0.00     0.012 A 
ATOM     26  C   UNL A   1      42.258  26.807  25.775  1.00  0.00     0.012 A 
ATOM     27  C   UNL A   1      40.637  28.648  27.092  1.00  0.00     0.001 A 
ATOM     28  C   UNL A   1      42.248  28.142  25.368  1.00  0.00     0.001 A 
ATOM     29  C   UNL A   1      41.442  29.063  26.031  1.00  0.00     0.000 A 
ENDBRANCH  15  24
ENDBRANCH  10  11
ENDBRANCH   9  10
ENDBRANCH   8   9
ENDBRANCH   6   8
ENDBRANCH   3   4
ENDBRANCH   2   3
ENDBRANCH   1   2
BRANCH   1  30
ATOM     30  C   UNL A   1      44.414  22.816  24.050  1.00  0.00     0.002 C 
BRANCH  30  31
ATOM     31  C   UNL A   1      44.466  23.997  25.020  1.00  0.00     0.021 C 
BRANCH  31  32
ATOM     32  C   UNL A   1      45.744  24.102  25.848  1.00  0.00     0.116 C 
BRANCH  32  33
ATOM     33  N   UNL A   1      46.919  24.377  25.035  1.00  0.00    -0.352 N 
ATOM     34  C   UNL A   1      47.565  25.573  24.836  1.00  0.00     0.251 C 
ATOM     35  H   UNL A   1      47.303  23.602  24.564  1.00  0.00     0.163 HD
ATOM     36  O   UNL A   1      48.467  25.657  24.005  1.00  0.00    -0.269 OA
BRANCH  34  37
ATOM     37  C   UNL A   1      47.147  26.766  25.605  1.00  0.00     0.039 A 
ATOM     38  C   UNL A   1      47.775  27.045  26.821  1.00  0.00     0.014 A 
ATOM     39  C   UNL A   1      46.155  27.619  25.112  1.00  0.00     0.014 A 
ATOM     40  C   UNL A   1      47.457  28.219  27.512  1.00  0.00     0.010 A 
ATOM     41  C   UNL A   1      45.885  28.816  25.769  1.00  0.00     0.010 A 
ATOM     42  C   UNL A   1      46.535  29.132  26.973  1.00  0.00    -0.014 A 
BRANCH  42  43
ATOM     43  C   UNL A   1      46.235  30.426  27.642  1.00  0.00     0.031 A 
ATOM     44  C   UNL A   1      44.962  30.586  28.430  1.00  0.00     0.074 A 
ATOM     45  C   UNL A   1      47.059  31.479  27.467  1.00  0.00     0.049 A 
ATOM     46  N   UNL A   1      44.463  31.662  28.979  1.00  0.00    -0.248 NA
ATOM     47  C   UNL A   1      44.127  29.384  28.598  1.00  0.00     0.031 C 
ATOM     48  C   UNL A   1      48.308  31.466  26.701  1.00  0.00     0.029 A 
ATOM     49  N   UNL A   1      46.959  32.776  27.909  1.00  0.00    -0.354 N 
ATOM     50  C   UNL A   1      43.245  31.279  29.528  1.00  0.00     0.074 A 
ATOM     51  C   UNL A   1      43.065  29.877  29.223  1.00  0.00     0.031 C 
ATOM     52  C   UNL A   1      48.861  32.690  26.737  1.00  0.00     0.029 A 
ATOM     53  C   UNL A   1      47.990  33.587  27.489  1.00  0.00     0.049 A 
ATOM     54  H   UNL A   1      46.220  33.097  28.475  1.00  0.00     0.167 HD
ATOM     55  C   UNL A   1      42.361  32.025  30.231  1.00  0.00     0.031 A 
ATOM     56  C   UNL A   1      48.200  34.906  27.673  1.00  0.00     0.031 A 
ATOM     57  C   UNL A   1      42.559  33.409  30.569  1.00  0.00     0.049 A 
ATOM     58  C   UNL A   1      47.200  35.708  28.463  1.00  0.00     0.074 A 
ATOM     59  C   UNL A   1      41.757  34.225  31.348  1.00  0.00     0.029 A 
ATOM     60  N   UNL A   1      43.631  34.182  30.152  1.00  0.00    -0.354 N 
ATOM     61  N   UNL A   1      46.090  35.307  29.037  1.00  0.00    -0.248 NA
ATOM     62  C   UNL A   1      47.484  37.140  28.637  1.00  0.00     0.031 C 
ATOM     63  C   UNL A   1      42.318  35.504  31.363  1.00  0.00     0.029 A 
ATOM     64  C   UNL A   1      43.499  35.471  30.637  1.00  0.00     0.049 A 
ATOM     65  H   UNL A   1      44.376  33.862  29.593  1.00  0.00     0.167 HD
ATOM     66  C   UNL A   1      45.567  36.428  29.671  1.00  0.00     0.074 A 
ATOM     67  C   UNL A   1      46.481  37.522  29.417  1.00  0.00     0.031 C 
ATOM     68  C   UNL A   1      44.429  36.543  30.398  1.00  0.00     0.031 A 
BRANCH  55  69
ATOM     69  C   UNL A   1      41.087  31.369  30.690  1.00  0.00    -0.014 A 
ATOM     70  C   UNL A   1      40.977  30.817  31.978  1.00  0.00     0.010 A 
ATOM     71  C   UNL A   1      39.956  31.387  29.852  1.00  0.00     0.010 A 
ATOM     72  C   UNL A   1      39.763  30.277  32.413  1.00  0.00     0.020 A 
ATOM     73  C   UNL A   1      38.735  30.871  30.292  1.00  0.00     0.020 A 
ATOM     74  C   UNL A   1      38.649  30.311  31.569  1.00  0.00     0.054 A 
BRANCH  74  75
ATOM     75  S   UNL A   1      37.071  29.659  32.183  1.00  0.00     0.124 S 
ATOM     76  O   UNL A   1      36.516  30.820  32.876  1.00  0.00    -0.237 OA
ATOM     77  O   UNL A   1      36.383  29.275  30.953  1.00  0.00    -0.237 OA
ATOM     78  O   UNL A   1      37.466  28.549  33.045  1.00  0.00    -0.744 OA
ENDBRANCH  74  75
ENDBRANCH  55  69
BRANCH  56  79
ATOM     79  C   UNL A   1      49.405  35.566  27.098  1.00  0.00    -0.014 A 
ATOM     80  C   UNL A   1      49.530  35.730  25.707  1.00  0.00     0.010 A 
ATOM     81  C   UNL A   1      50.451  35.996  27.934  1.00  0.00     0.010 A 
ATOM     82  C   UNL A   1      50.696  36.275  25.160  1.00  0.00     0.020 A 
ATOM     83  C   UNL A   1      51.606  36.567  27.392  1.00  0.00     0.020 A 
ATOM     84  C   UNL A   1      51.730  36.684  26.006  1.00  0.00     0.054 A 
BRANCH  84  85
ATOM     85  S   UNL A   1      53.233  37.392  25.278  1.00  0.00     0.124 S 
ATOM     86  O   UNL A   1      53.401  38.613  26.058  1.00  0.00    -0.237 OA
ATOM     87  O   UNL A   1      54.224  36.345  25.516  1.00  0.00    -0.237 OA
ATOM     88  O   UNL A   1      52.871  37.587  23.876  1.00  0.00    -0.744 OA
ENDBRANCH  84  85
ENDBRANCH  56  79
BRANCH  68  89
ATOM     89  C   UNL A   1      44.132  37.876  31.028  1.00  0.00    -0.014 A 
ATOM     90  C   UNL A   1      43.739  38.980  30.251  1.00  0.00     0.010 A 
ATOM     91  C   UNL A   1      44.171  38.000  32.429  1.00  0.00     0.010 A 
ATOM     92  C   UNL A   1      43.411  40.192  30.865  1.00  0.00     0.020 A 
ATOM     93  C   UNL A   1      43.819  39.202  33.047  1.00  0.00     0.020 A 
ATOM     94  C   UNL A   1      43.450  40.294  32.260  1.00  0.00     0.054 A 
BRANCH  94  95
ATOM     95  S   UNL A   1      42.958  41.857  33.037  1.00  0.00     0.124 S 
ATOM     96  O   UNL A   1      41.718  41.485  33.712  1.00  0.00    -0.237 OA
ATOM     97  O   UNL A   1      44.088  42.149  33.915  1.00  0.00    -0.237 OA
ATOM     98  O   UNL A   1      42.802  42.771  31.908  1.00  0.00    -0.744 OA
ENDBRANCH  94  95
ENDBRANCH  68  89
ENDBRANCH  42  43
ENDBRANCH  34  37
ENDBRANCH  32  33
ENDBRANCH  31  32
ENDBRANCH  30  31
ENDBRANCH   1  30
TORSDOF 21
ENDMDL
MODEL 2
REMARK VINA RESULT:      -9.0      3.177      4.582
REMARK SMILES O=C(CCCc1nc(-c2ccc(Cl)c(Cl)c2)c(-c2ccccc2)o1)NCCCCCCNC(=O)c1ccc(-c2c3nc(c(-c4ccc(S(=O)(=O)[O-])cc4)c4ccc([nH]4)c(-c4ccc(S(=O)(=O)[O-])cc4)c4nc(c(-c5ccc(S(=O)(=O)[O-])cc5)c5ccc2[nH]5)C=C4)C=C3)cc1
REMARK SMILES IDX 28 1 27 2 26 3 25 4 1 5 2 6 3 8 4 9 5 10 6 11 7 12 24 13
REMARK SMILES IDX 8 14 17 15 9 16 10 17 16 18 11 19 14 20 12 21 15 22 13 23
REMARK SMILES IDX 18 24 19 25 23 26 20 27 22 28 21 29 29 30 30 31 31 32 32 33
REMARK SMILES IDX 33 34 34 36 35 37 36 38 94 39 37 40 93 41 38 42 39 43 40 44
REMARK SMILES IDX 87 45 41 46 92 47 86 48 88 49 42 50 91 51 85 52 84 53 43 55
REMARK SMILES IDX 73 56 54 57 72 58 55 59 58 60 71 61 89 62 56 63 57 64 70 66
REMARK SMILES IDX 90 67 59 68 44 69 45 70 53 71 46 72 52 73 47 74 48 75 49 76
REMARK SMILES IDX 50 77 51 78 74 79 75 80 83 81 76 82 82 83 77 84 78 85 79 86
REMARK SMILES IDX 80 87 81 88 60 89 61 90 69 91 62 92 68 93 63 94 64 95 65 96
REMARK SMILES IDX 66 97 67 98
REMARK H PARENT 25 7 32 35 88 54 58 65
REMARK Flexibility Score: inf
ROOT
ATOM      1  C   UNL A   1      45.852  23.175  25.744  1.00  0.00     0.002 C 
ENDROOT
BRANCH   1   2
ATOM      2  C   UNL A   1      46.042  22.164  24.603  1.00  0.00     0.021 C 
BRANCH   2   3
ATOM      3  C   UNL A   1      46.096  20.702  25.041  1.00  0.00     0.116 C 
BRANCH   3   4
ATOM      4  N   UNL A   1      44.789  20.223  25.437  1.00  0.00    -0.356 N 
ATOM      5  O   UNL A   1      45.200  17.995  25.057  1.00  0.00    -0.275 OA
ATOM      6  C   UNL A   1      44.448  18.893  25.413  1.00  0.00     0.220 C 
ATOM      7  H   UNL A   1      44.117  20.877  25.737  1.00  0.00     0.163 HD
BRANCH   6   8
ATOM      8  C   UNL A   1      43.032  18.630  25.876  1.00  0.00     0.100 C 
BRANCH   8   9
ATOM      9  C   UNL A   1      42.362  19.858  26.500  1.00  0.00     0.020 C 
BRANCH   9  10
ATOM     10  C   UNL A   1      40.828  19.887  26.512  1.00  0.00     0.098 C 
BRANCH  10  11
ATOM     11  C   UNL A   1      40.196  21.237  26.463  1.00  0.00     0.195 A 
ATOM     12  N   UNL A   1      40.731  22.395  26.808  1.00  0.00    -0.213 NA
ATOM     13  O   UNL A   1      38.921  21.331  25.974  1.00  0.00    -0.440 OA
ATOM     14  C   UNL A   1      39.734  23.305  26.555  1.00  0.00     0.117 A 
ATOM     15  C   UNL A   1      38.650  22.670  25.985  1.00  0.00     0.162 A 
BRANCH  14  16
ATOM     16  C   UNL A   1      39.812  24.719  26.850  1.00  0.00     0.006 A 
ATOM     17  C   UNL A   1      39.069  25.270  27.896  1.00  0.00     0.012 A 
ATOM     18  C   UNL A   1      40.671  25.540  26.105  1.00  0.00     0.032 A 
ATOM     19  C   UNL A   1      39.214  26.625  28.218  1.00  0.00     0.023 A 
ATOM     20  C   UNL A   1      40.810  26.895  26.420  1.00  0.00     0.060 A 
ATOM     21  C   UNL A   1      40.087  27.437  27.486  1.00  0.00     0.059 A 
ATOM     22  Cl  UNL A   1      41.900  27.833  25.461  1.00  0.00    -0.083 Cl
ATOM     23  Cl  UNL A   1      40.232  29.094  27.951  1.00  0.00    -0.083 Cl
ENDBRANCH  14  16
BRANCH  15  24
ATOM     24  C   UNL A   1      37.395  23.093  25.391  1.00  0.00     0.020 A 
ATOM     25  C   UNL A   1      36.486  23.876  26.110  1.00  0.00     0.012 A 
ATOM     26  C   UNL A   1      37.091  22.733  24.070  1.00  0.00     0.012 A 
ATOM     27  C   UNL A   1      35.301  24.309  25.508  1.00  0.00     0.001 A 
ATOM     28  C   UNL A   1      35.903  23.158  23.473  1.00  0.00     0.001 A 
ATOM     29  C   UNL A   1      35.011  23.951  24.191  1.00  0.00     0.000 A 
ENDBRANCH  15  24
ENDBRANCH  10  11
ENDBRANCH   9  10
ENDBRANCH   8   9
ENDBRANCH   6   8
ENDBRANCH   3   4
ENDBRANCH   2   3
ENDBRANCH   1   2
BRANCH   1  30
ATOM     30  C   UNL A   1      44.467  23.822  25.825  1.00  0.00     0.002 C 
BRANCH  30  31
ATOM     31  C   UNL A   1      44.464  25.351  25.870  1.00  0.00     0.021 C 
BRANCH  31  32
ATOM     32  C   UNL A   1      44.425  25.958  27.269  1.00  0.00     0.116 C 
BRANCH  32  33
ATOM     33  N   UNL A   1      44.174  24.968  28.305  1.00  0.00    -0.352 N 
ATOM     34  C   UNL A   1      44.025  25.159  29.658  1.00  0.00     0.251 C 
ATOM     35  H   UNL A   1      44.101  24.036  27.996  1.00  0.00     0.163 HD
ATOM     36  O   UNL A   1      43.953  24.193  30.414  1.00  0.00    -0.269 OA
BRANCH  34  37
ATOM     37  C   UNL A   1      43.983  26.535  30.201  1.00  0.00     0.039 A 
ATOM     38  C   UNL A   1      45.010  26.964  31.046  1.00  0.00     0.014 A 
ATOM     39  C   UNL A   1      42.945  27.405  29.856  1.00  0.00     0.014 A 
ATOM     40  C   UNL A   1      45.034  28.290  31.490  1.00  0.00     0.010 A 
ATOM     41  C   UNL A   1      43.004  28.739  30.249  1.00  0.00     0.010 A 
ATOM     42  C   UNL A   1      44.049  29.198  31.066  1.00  0.00    -0.014 A 
BRANCH  42  43
ATOM     43  C   UNL A   1      44.091  30.632  31.455  1.00  0.00     0.031 A 
ATOM     44  C   UNL A   1      43.196  31.138  32.557  1.00  0.00     0.074 A 
ATOM     45  C   UNL A   1      44.862  31.495  30.762  1.00  0.00     0.049 A 
ATOM     46  N   UNL A   1      42.996  32.366  32.957  1.00  0.00    -0.248 NA
ATOM     47  C   UNL A   1      42.403  30.132  33.285  1.00  0.00     0.031 C 
ATOM     48  C   UNL A   1      45.750  31.140  29.651  1.00  0.00     0.029 A 
ATOM     49  N   UNL A   1      45.008  32.856  30.877  1.00  0.00    -0.354 N 
ATOM     50  C   UNL A   1      42.033  32.288  33.956  1.00  0.00     0.074 A 
ATOM     51  C   UNL A   1      41.668  30.894  34.085  1.00  0.00     0.031 C 
ATOM     52  C   UNL A   1      46.355  32.251  29.198  1.00  0.00     0.029 A 
ATOM     53  C   UNL A   1      45.869  33.402  29.951  1.00  0.00     0.049 A 
ATOM     54  H   UNL A   1      44.542  33.392  31.559  1.00  0.00     0.167 HD
ATOM     55  C   UNL A   1      41.508  33.285  34.706  1.00  0.00     0.031 A 
ATOM     56  C   UNL A   1      46.214  34.685  29.723  1.00  0.00     0.031 A 
ATOM     57  C   UNL A   1      41.900  34.665  34.606  1.00  0.00     0.049 A 
ATOM     58  C   UNL A   1      45.615  35.771  30.577  1.00  0.00     0.074 A 
ATOM     59  C   UNL A   1      41.483  35.733  35.380  1.00  0.00     0.029 A 
ATOM     60  N   UNL A   1      42.798  35.169  33.678  1.00  0.00    -0.354 N 
ATOM     61  N   UNL A   1      44.761  35.665  31.567  1.00  0.00    -0.248 NA
ATOM     62  C   UNL A   1      46.032  37.152  30.286  1.00  0.00     0.031 C 
ATOM     63  C   UNL A   1      42.092  36.892  34.891  1.00  0.00     0.029 A 
ATOM     64  C   UNL A   1      42.930  36.536  33.846  1.00  0.00     0.049 A 
ATOM     65  H   UNL A   1      43.272  34.634  33.001  1.00  0.00     0.167 HD
ATOM     66  C   UNL A   1      44.571  36.959  32.041  1.00  0.00     0.074 A 
ATOM     67  C   UNL A   1      45.401  37.830  31.236  1.00  0.00     0.031 C 
ATOM     68  C   UNL A   1      43.779  37.387  33.054  1.00  0.00     0.031 A 
BRANCH  55  69
ATOM     69  C   UNL A   1      40.444  32.932  35.710  1.00  0.00    -0.014 A 
ATOM     70  C   UNL A   1      40.692  33.014  37.092  1.00  0.00     0.010 A 
ATOM     71  C   UNL A   1      39.151  32.600  35.263  1.00  0.00     0.010 A 
ATOM     72  C   UNL A   1      39.670  32.753  38.008  1.00  0.00     0.020 A 
ATOM     73  C   UNL A   1      38.121  32.363  36.177  1.00  0.00     0.020 A 
ATOM     74  C   UNL A   1      38.390  32.433  37.545  1.00  0.00     0.054 A 
BRANCH  74  75
ATOM     75  S   UNL A   1      37.069  32.160  38.758  1.00  0.00     0.124 S 
ATOM     76  O   UNL A   1      36.922  30.707  38.721  1.00  0.00    -0.237 OA
ATOM     77  O   UNL A   1      37.645  32.702  39.986  1.00  0.00    -0.237 OA
ATOM     78  O   UNL A   1      35.941  32.914  38.218  1.00  0.00    -0.744 OA
ENDBRANCH  74  75
ENDBRANCH  55  69
BRANCH  56  79
ATOM     79  C   UNL A   1      47.171  35.028  28.635  1.00  0.00    -0.014 A 
ATOM     80  C   UNL A   1      46.729  35.136  27.305  1.00  0.00     0.010 A 
ATOM     81  C   UNL A   1      48.537  35.207  28.917  1.00  0.00     0.010 A 
ATOM     82  C   UNL A   1      47.640  35.376  26.272  1.00  0.00     0.020 A 
ATOM     83  C   UNL A   1      49.448  35.476  27.890  1.00  0.00     0.020 A 
ATOM     84  C   UNL A   1      48.995  35.538  26.571  1.00  0.00     0.054 A 
BRANCH  84  85
ATOM     85  S   UNL A   1      50.162  35.853  25.217  1.00  0.00     0.124 S 
ATOM     86  O   UNL A   1      50.270  34.536  24.599  1.00  0.00    -0.237 OA
ATOM     87  O   UNL A   1      49.467  36.869  24.430  1.00  0.00    -0.237 OA
ATOM     88  O   UNL A   1      51.361  36.324  25.907  1.00  0.00    -0.744 OA
ENDBRANCH  84  85
ENDBRANCH  56  79
BRANCH  68  89
ATOM     89  C   UNL A   1      43.811  38.851  33.397  1.00  0.00    -0.014 A 
ATOM     90  C   UNL A   1      44.514  39.324  34.518  1.00  0.00     0.010 A 
ATOM     91  C   UNL A   1      43.191  39.774  32.534  1.00  0.00     0.010 A 
ATOM     92  C   UNL A   1      44.578  40.695  34.783  1.00  0.00     0.020 A 
ATOM     93  C   UNL A   1      43.275  41.147  32.781  1.00  0.00     0.020 A 
ATOM     94  C   UNL A   1      43.961  41.598  33.911  1.00  0.00     0.054 A 
BRANCH  94  95
ATOM     95  S   UNL A   1      44.113  43.375  34.239  1.00  0.00     0.124 S 
ATOM     96  O   UNL A   1      42.766  43.718  34.689  1.00  0.00    -0.237 OA
ATOM     97  O   UNL A   1      45.149  43.424  35.267  1.00  0.00    -0.237 OA
ATOM     98  O   UNL A   1      44.499  43.935  32.947  1.00  0.00    -0.744 OA
ENDBRANCH  94  95
ENDBRANCH  68  89
ENDBRANCH  42  43
ENDBRANCH  34  37
ENDBRANCH  32  33
ENDBRANCH  31  32
ENDBRANCH  30  31
ENDBRANCH   1  30
TORSDOF 21
ENDMDL
MODEL 3
REMARK VINA RESULT:      -9.0      3.140      8.605
REMARK SMILES O=C(CCCc1nc(-c2ccc(Cl)c(Cl)c2)c(-c2ccccc2)o1)NCCCCCCNC(=O)c1ccc(-c2c3nc(c(-c4ccc(S(=O)(=O)[O-])cc4)c4ccc([nH]4)c(-c4ccc(S(=O)(=O)[O-])cc4)c4nc(c(-c5ccc(S(=O)(=O)[O-])cc5)c5ccc2[nH]5)C=C4)C=C3)cc1
REMARK SMILES IDX 28 1 27 2 26 3 25 4 1 5 2 6 3 8 4 9 5 10 6 11 7 12 24 13
REMARK SMILES IDX 8 14 17 15 9 16 10 17 16 18 11 19 14 20 12 21 15 22 13 23
REMARK SMILES IDX 18 24 19 25 23 26 20 27 22 28 21 29 29 30 30 31 31 32 32 33
REMARK SMILES IDX 33 34 34 36 35 37 36 38 94 39 37 40 93 41 38 42 39 43 40 44
REMARK SMILES IDX 87 45 41 46 92 47 86 48 88 49 42 50 91 51 85 52 84 53 43 55
REMARK SMILES IDX 73 56 54 57 72 58 55 59 58 60 71 61 89 62 56 63 57 64 70 66
REMARK SMILES IDX 90 67 59 68 44 69 45 70 53 71 46 72 52 73 47 74 48 75 49 76
REMARK SMILES IDX 50 77 51 78 74 79 75 80 83 81 76 82 82 83 77 84 78 85 79 86
REMARK SMILES IDX 80 87 81 88 60 89 61 90 69 91 62 92 68 93 63 94 64 95 65 96
REMARK SMILES IDX 66 97 67 98
REMARK H PARENT 25 7 32 35 88 54 58 65
REMARK Flexibility Score: inf
ROOT
ATOM      1  C   UNL A   1      45.885  22.916  25.702  1.00  0.00     0.002 C 
ENDROOT
BRANCH   1   2
ATOM      2  C   UNL A   1      46.229  22.008  24.511  1.00  0.00     0.021 C 
BRANCH   2   3
ATOM      3  C   UNL A   1      46.165  20.510  24.804  1.00  0.00     0.116 C 
BRANCH   3   4
ATOM      4  N   UNL A   1      44.853  20.122  25.275  1.00  0.00    -0.356 N 
ATOM      5  O   UNL A   1      45.231  17.856  25.265  1.00  0.00    -0.275 OA
ATOM      6  C   UNL A   1      44.493  18.811  25.469  1.00  0.00     0.220 C 
ATOM      7  H   UNL A   1      44.191  20.826  25.464  1.00  0.00     0.163 HD
BRANCH   6   8
ATOM      8  C   UNL A   1      43.075  18.648  25.970  1.00  0.00     0.100 C 
BRANCH   8   9
ATOM      9  C   UNL A   1      42.415  19.974  26.361  1.00  0.00     0.020 C 
BRANCH   9  10
ATOM     10  C   UNL A   1      40.886  19.987  26.478  1.00  0.00     0.098 C 
BRANCH  10  11
ATOM     11  C   UNL A   1      40.235  21.328  26.433  1.00  0.00     0.195 A 
ATOM     12  N   UNL A   1      40.765  22.497  26.745  1.00  0.00    -0.213 NA
ATOM     13  O   UNL A   1      38.943  21.399  25.986  1.00  0.00    -0.440 OA
ATOM     14  C   UNL A   1      39.748  23.390  26.515  1.00  0.00     0.117 A 
ATOM     15  C   UNL A   1      38.654  22.735  25.989  1.00  0.00     0.162 A 
BRANCH  14  16
ATOM     16  C   UNL A   1      39.818  24.810  26.789  1.00  0.00     0.006 A 
ATOM     17  C   UNL A   1      39.050  25.376  27.809  1.00  0.00     0.012 A 
ATOM     18  C   UNL A   1      40.692  25.621  26.051  1.00  0.00     0.032 A 
ATOM     19  C   UNL A   1      39.185  26.735  28.113  1.00  0.00     0.023 A 
ATOM     20  C   UNL A   1      40.821  26.980  26.348  1.00  0.00     0.060 A 
ATOM     21  C   UNL A   1      40.073  27.538  27.388  1.00  0.00     0.059 A 
ATOM     22  Cl  UNL A   1      41.932  27.905  25.399  1.00  0.00    -0.083 Cl
ATOM     23  Cl  UNL A   1      40.206  29.202  27.830  1.00  0.00    -0.083 Cl
ENDBRANCH  14  16
BRANCH  15  24
ATOM     24  C   UNL A   1      37.375  23.134  25.433  1.00  0.00     0.020 A 
ATOM     25  C   UNL A   1      36.412  23.770  26.223  1.00  0.00     0.012 A 
ATOM     26  C   UNL A   1      37.099  22.901  24.077  1.00  0.00     0.012 A 
ATOM     27  C   UNL A   1      35.202  24.185  25.661  1.00  0.00     0.001 A 
ATOM     28  C   UNL A   1      35.886  23.306  23.519  1.00  0.00     0.001 A 
ATOM     29  C   UNL A   1      34.941  23.954  24.310  1.00  0.00     0.000 A 
ENDBRANCH  15  24
ENDBRANCH  10  11
ENDBRANCH   9  10
ENDBRANCH   8   9
ENDBRANCH   6   8
ENDBRANCH   3   4
ENDBRANCH   2   3
ENDBRANCH   1   2
BRANCH   1  30
ATOM     30  C   UNL A   1      44.522  23.608  25.628  1.00  0.00     0.002 C 
BRANCH  30  31
ATOM     31  C   UNL A   1      44.559  25.134  25.731  1.00  0.00     0.021 C 
BRANCH  31  32
ATOM     32  C   UNL A   1      44.800  25.684  27.134  1.00  0.00     0.116 C 
BRANCH  32  33
ATOM     33  N   UNL A   1      44.452  24.732  28.178  1.00  0.00    -0.352 N 
ATOM     34  C   UNL A   1      44.117  24.978  29.488  1.00  0.00     0.251 C 
ATOM     35  H   UNL A   1      44.456  23.785  27.910  1.00  0.00     0.163 HD
ATOM     36  O   UNL A   1      43.982  24.046  30.277  1.00  0.00    -0.269 OA
BRANCH  34  37
ATOM     37  C   UNL A   1      43.951  26.374  29.950  1.00  0.00     0.039 A 
ATOM     38  C   UNL A   1      44.896  26.919  30.823  1.00  0.00     0.014 A 
ATOM     39  C   UNL A   1      42.878  27.149  29.501  1.00  0.00     0.014 A 
ATOM     40  C   UNL A   1      44.804  28.264  31.192  1.00  0.00     0.010 A 
ATOM     41  C   UNL A   1      42.823  28.503  29.820  1.00  0.00     0.010 A 
ATOM     42  C   UNL A   1      43.787  29.077  30.665  1.00  0.00    -0.014 A 
BRANCH  42  43
ATOM     43  C   UNL A   1      43.708  30.530  30.973  1.00  0.00     0.031 A 
ATOM     44  C   UNL A   1      44.579  31.504  30.225  1.00  0.00     0.074 A 
ATOM     45  C   UNL A   1      42.924  30.961  31.982  1.00  0.00     0.049 A 
ATOM     46  N   UNL A   1      44.747  32.784  30.429  1.00  0.00    -0.248 NA
ATOM     47  C   UNL A   1      45.389  30.962  29.120  1.00  0.00     0.031 C 
ATOM     48  C   UNL A   1      42.055  30.117  32.806  1.00  0.00     0.029 A 
ATOM     49  N   UNL A   1      42.744  32.221  32.500  1.00  0.00    -0.354 N 
ATOM     50  C   UNL A   1      45.701  33.195  29.506  1.00  0.00     0.074 A 
ATOM     51  C   UNL A   1      46.098  32.023  28.757  1.00  0.00     0.031 C 
ATOM     52  C   UNL A   1      41.429  30.883  33.716  1.00  0.00     0.029 A 
ATOM     53  C   UNL A   1      41.880  32.263  33.571  1.00  0.00     0.049 A 
ATOM     54  H   UNL A   1      43.191  33.021  32.138  1.00  0.00     0.167 HD
ATOM     55  C   UNL A   1      46.195  34.437  29.294  1.00  0.00     0.031 A 
ATOM     56  C   UNL A   1      41.508  33.292  34.359  1.00  0.00     0.031 A 
ATOM     57  C   UNL A   1      45.772  35.609  30.012  1.00  0.00     0.049 A 
ATOM     58  C   UNL A   1      42.073  34.662  34.095  1.00  0.00     0.074 A 
ATOM     59  C   UNL A   1      46.156  36.923  29.811  1.00  0.00     0.029 A 
ATOM     60  N   UNL A   1      44.872  35.612  31.066  1.00  0.00    -0.354 N 
ATOM     61  N   UNL A   1      42.919  35.041  33.167  1.00  0.00    -0.248 NA
ATOM     62  C   UNL A   1      41.626  35.747  34.982  1.00  0.00     0.031 C 
ATOM     63  C   UNL A   1      45.526  37.716  30.774  1.00  0.00     0.029 A 
ATOM     64  C   UNL A   1      44.706  36.901  31.540  1.00  0.00     0.049 A 
ATOM     65  H   UNL A   1      44.417  34.815  31.424  1.00  0.00     0.167 HD
ATOM     66  C   UNL A   1      43.074  36.413  33.336  1.00  0.00     0.074 A 
ATOM     67  C   UNL A   1      42.232  36.800  34.448  1.00  0.00     0.031 C 
ATOM     68  C   UNL A   1      43.846  37.276  32.631  1.00  0.00     0.031 A 
BRANCH  55  69
ATOM     69  C   UNL A   1      47.258  34.608  28.242  1.00  0.00    -0.014 A 
ATOM     70  C   UNL A   1      46.928  35.006  26.934  1.00  0.00     0.010 A 
ATOM     71  C   UNL A   1      48.612  34.455  28.592  1.00  0.00     0.010 A 
ATOM     72  C   UNL A   1      47.934  35.230  25.991  1.00  0.00     0.020 A 
ATOM     73  C   UNL A   1      49.621  34.703  27.658  1.00  0.00     0.020 A 
ATOM     74  C   UNL A   1      49.274  35.080  26.359  1.00  0.00     0.054 A 
BRANCH  74  75
ATOM     75  S   UNL A   1      50.560  35.439  25.131  1.00  0.00     0.124 S 
ATOM     76  O   UNL A   1      50.852  34.108  24.603  1.00  0.00    -0.237 OA
ATOM     77  O   UNL A   1      49.879  36.344  24.209  1.00  0.00    -0.237 OA
ATOM     78  O   UNL A   1      51.632  36.046  25.916  1.00  0.00    -0.744 OA
ENDBRANCH  74  75
ENDBRANCH  55  69
BRANCH  56  79
ATOM     79  C   UNL A   1      40.553  33.076  35.481  1.00  0.00    -0.014 A 
ATOM     80  C   UNL A   1      39.169  33.017  35.237  1.00  0.00     0.010 A 
ATOM     81  C   UNL A   1      41.019  32.969  36.804  1.00  0.00     0.010 A 
ATOM     82  C   UNL A   1      38.267  32.897  36.299  1.00  0.00     0.020 A 
ATOM     83  C   UNL A   1      40.121  32.820  37.865  1.00  0.00     0.020 A 
ATOM     84  C   UNL A   1      38.749  32.806  37.608  1.00  0.00     0.054 A 
BRANCH  84  85
ATOM     85  S   UNL A   1      37.563  32.647  38.971  1.00  0.00     0.124 S 
ATOM     86  O   UNL A   1      36.295  32.917  38.302  1.00  0.00    -0.237 OA
ATOM     87  O   UNL A   1      37.768  31.269  39.410  1.00  0.00    -0.237 OA
ATOM     88  O   UNL A   1      38.001  33.666  39.922  1.00  0.00    -0.744 OA
ENDBRANCH  84  85
ENDBRANCH  56  79
BRANCH  68  89
ATOM     89  C   UNL A   1      43.776  38.734  32.994  1.00  0.00    -0.014 A 
ATOM     90  C   UNL A   1      44.450  39.240  34.119  1.00  0.00     0.010 A 
ATOM     91  C   UNL A   1      43.088  39.622  32.147  1.00  0.00     0.010 A 
ATOM     92  C   UNL A   1      44.419  40.609  34.402  1.00  0.00     0.020 A 
ATOM     93  C   UNL A   1      43.076  40.994  32.412  1.00  0.00     0.020 A 
ATOM     94  C   UNL A   1      43.734  41.477  33.544  1.00  0.00     0.054 A 
BRANCH  94  95
ATOM     95  S   UNL A   1      43.762  43.256  33.896  1.00  0.00     0.124 S 
ATOM     96  O   UNL A   1      44.565  43.313  35.115  1.00  0.00    -0.237 OA
ATOM     97  O   UNL A   1      44.394  43.810  32.701  1.00  0.00    -0.237 OA
ATOM     98  O   UNL A   1      42.352  43.599  34.063  1.00  0.00    -0.744 OA
ENDBRANCH  94  95
ENDBRANCH  68  89
ENDBRANCH  42  43
ENDBRANCH  34  37
ENDBRANCH  32  33
ENDBRANCH  31  32
ENDBRANCH  30  31
ENDBRANCH   1  30
TORSDOF 21
ENDMDL
