MODEL 1
REMARK VINA RESULT:     -10.7      0.000      0.000
REMARK SMILES Cc1cc(N2CCCC[C@H]2C(=O)NCCCCCCNC(=O)c2ccc(-c3c4nc(c(-c5ccc(S(=O)(=O)[O-])cc5)c5ccc([nH]5)c(-c5ccc(S(=O)(=O)[O-])cc5)c5nc(c(-c6ccc(S(=O)(=O)[O-])cc6)c6ccc3[nH]6)C=C5)C=C4)cc2)ncc1[N+](=O)[O-]
REMARK SMILES IDX 17 1 16 2 15 3 14 4 13 5 11 6 12 7 10 9 5 10 6 11 7 12 9 13
REMARK SMILES IDX 8 14 4 15 1 16 2 17 3 18 85 19 84 20 83 21 86 22 87 23 88 24
REMARK SMILES IDX 18 25 19 26 20 27 21 28 22 30 23 31 24 32 82 33 25 34 81 35
REMARK SMILES IDX 26 36 27 37 28 38 75 39 29 40 80 41 74 42 76 43 30 44 79 45
REMARK SMILES IDX 73 46 72 47 31 49 61 50 42 51 60 52 43 53 46 54 59 55 77 56
REMARK SMILES IDX 44 57 45 58 58 60 78 61 47 62 32 63 33 64 41 65 34 66 40 67
REMARK SMILES IDX 35 68 36 69 37 70 38 71 39 72 62 73 63 74 71 75 64 76 70 77
REMARK SMILES IDX 65 78 66 79 67 80 68 81 69 82 48 83 49 84 57 85 50 86 56 87
REMARK SMILES IDX 51 88 52 89 53 90 54 91 55 92
REMARK H PARENT 13 8 20 29 76 48 46 59
REMARK Flexibility Score: inf
ROOT
ATOM      1  C   UNL A   1      41.758  21.229  27.074  1.00  0.00     0.002 C 
ENDROOT
BRANCH   1   2
ATOM      2  C   UNL A   1      40.428  21.837  26.616  1.00  0.00     0.002 C 
BRANCH   2   3
ATOM      3  C   UNL A   1      39.510  20.887  25.839  1.00  0.00     0.021 C 
BRANCH   3   4
ATOM      4  C   UNL A   1      38.062  21.356  25.734  1.00  0.00     0.116 C 
BRANCH   4   5
ATOM      5  N   UNL A   1      37.778  21.872  24.411  1.00  0.00    -0.354 N 
ATOM      6  C   UNL A   1      36.705  22.576  23.963  1.00  0.00     0.242 C 
ATOM      7  O   UNL A   1      36.705  22.866  22.761  1.00  0.00    -0.273 OA
ATOM      8  H   UNL A   1      38.467  21.682  23.734  1.00  0.00     0.163 HD
BRANCH   6   9
ATOM      9  C   UNL A   1      35.564  22.990  24.923  1.00  0.00     0.173 C 
ATOM     10  N   UNL A   1      34.351  23.407  24.207  1.00  0.00    -0.345 N 
ATOM     11  C   UNL A   1      33.703  22.419  23.357  1.00  0.00     0.119 C 
ATOM     12  C   UNL A   1      33.240  21.263  24.236  1.00  0.00     0.022 C 
ATOM     13  C   UNL A   1      35.157  21.807  25.831  1.00  0.00     0.035 C 
ATOM     14  C   UNL A   1      34.367  20.706  25.106  1.00  0.00     0.004 C 
BRANCH  10  15
ATOM     15  C   UNL A   1      34.055  24.731  23.993  1.00  0.00     0.129 A 
ATOM     16  C   UNL A   1      33.421  27.729  26.210  1.00  0.00     0.052 C 
ATOM     17  C   UNL A   1      33.527  26.921  24.950  1.00  0.00     0.032 A 
ATOM     18  C   UNL A   1      33.892  25.571  25.097  1.00  0.00     0.057 A 
ATOM     19  C   UNL A   1      33.279  27.366  23.647  1.00  0.00     0.290 A 
ATOM     20  C   UNL A   1      33.484  26.482  22.593  1.00  0.00     0.199 A 
ATOM     21  N   UNL A   1      33.882  25.191  22.744  1.00  0.00    -0.232 NA
BRANCH  19  22
ATOM     22  N   UNL A   1      32.783  28.698  23.316  1.00  0.00     0.064 N 
ATOM     23  O   UNL A   1      31.608  28.953  23.612  1.00  0.00    -0.258 OA
ATOM     24  O   UNL A   1      33.567  29.501  22.798  1.00  0.00    -0.258 OA
ENDBRANCH  19  22
ENDBRANCH  10  15
ENDBRANCH   6   9
ENDBRANCH   4   5
ENDBRANCH   3   4
ENDBRANCH   2   3
ENDBRANCH   1   2
BRANCH   1  25
ATOM     25  C   UNL A   1      42.990  22.099  26.823  1.00  0.00     0.021 C 
BRANCH  25  26
ATOM     26  C   UNL A   1      42.817  23.572  27.181  1.00  0.00     0.116 C 
BRANCH  26  27
ATOM     27  N   UNL A   1      42.364  24.363  26.049  1.00  0.00    -0.352 N 
ATOM     28  C   UNL A   1      41.722  25.574  26.037  1.00  0.00     0.251 C 
ATOM     29  H   UNL A   1      42.545  23.974  25.162  1.00  0.00     0.163 HD
ATOM     30  O   UNL A   1      41.251  26.006  24.984  1.00  0.00    -0.269 OA
BRANCH  28  31
ATOM     31  C   UNL A   1      41.573  26.348  27.288  1.00  0.00     0.039 A 
ATOM     32  C   UNL A   1      42.432  27.424  27.519  1.00  0.00     0.014 A 
ATOM     33  C   UNL A   1      40.599  26.012  28.235  1.00  0.00     0.014 A 
ATOM     34  C   UNL A   1      42.278  28.198  28.672  1.00  0.00     0.010 A 
ATOM     35  C   UNL A   1      40.401  26.828  29.347  1.00  0.00     0.010 A 
ATOM     36  C   UNL A   1      41.241  27.927  29.580  1.00  0.00    -0.014 A 
BRANCH  36  37
ATOM     37  C   UNL A   1      41.020  28.799  30.764  1.00  0.00     0.031 A 
ATOM     38  C   UNL A   1      39.898  29.804  30.774  1.00  0.00     0.074 A 
ATOM     39  C   UNL A   1      41.861  28.713  31.814  1.00  0.00     0.049 A 
ATOM     40  N   UNL A   1      39.554  30.643  31.718  1.00  0.00    -0.248 NA
ATOM     41  C   UNL A   1      39.063  29.894  29.564  1.00  0.00     0.031 C 
ATOM     42  C   UNL A   1      43.013  27.812  31.905  1.00  0.00     0.029 A 
ATOM     43  N   UNL A   1      41.876  29.389  33.010  1.00  0.00    -0.354 N 
ATOM     44  C   UNL A   1      38.484  31.370  31.212  1.00  0.00     0.074 A 
ATOM     45  C   UNL A   1      38.257  30.903  29.863  1.00  0.00     0.031 C 
ATOM     46  C   UNL A   1      43.596  27.962  33.105  1.00  0.00     0.029 A 
ATOM     47  C   UNL A   1      42.890  28.997  33.852  1.00  0.00     0.049 A 
ATOM     48  H   UNL A   1      41.222  30.086  33.241  1.00  0.00     0.167 HD
ATOM     49  C   UNL A   1      37.747  32.330  31.821  1.00  0.00     0.031 A 
ATOM     50  C   UNL A   1      43.218  29.424  35.088  1.00  0.00     0.031 A 
ATOM     51  C   UNL A   1      37.963  32.776  33.173  1.00  0.00     0.049 A 
ATOM     52  C   UNL A   1      42.382  30.496  35.736  1.00  0.00     0.074 A 
ATOM     53  C   UNL A   1      37.217  33.684  33.905  1.00  0.00     0.029 A 
ATOM     54  N   UNL A   1      39.000  32.359  33.991  1.00  0.00    -0.354 N 
ATOM     55  N   UNL A   1      41.314  31.101  35.275  1.00  0.00    -0.248 NA
ATOM     56  C   UNL A   1      42.791  30.933  37.078  1.00  0.00     0.031 C 
ATOM     57  C   UNL A   1      37.842  33.865  35.143  1.00  0.00     0.029 A 
ATOM     58  C   UNL A   1      38.937  33.019  35.208  1.00  0.00     0.049 A 
ATOM     59  H   UNL A   1      39.682  31.692  33.745  1.00  0.00     0.167 HD
ATOM     60  C   UNL A   1      40.906  31.968  36.283  1.00  0.00     0.074 A 
ATOM     61  C   UNL A   1      41.829  31.791  37.386  1.00  0.00     0.031 C 
ATOM     62  C   UNL A   1      39.862  32.833  36.297  1.00  0.00     0.031 A 
BRANCH  49  63
ATOM     63  C   UNL A   1      36.637  32.978  31.034  1.00  0.00    -0.014 A 
ATOM     64  C   UNL A   1      35.290  32.833  31.414  1.00  0.00     0.010 A 
ATOM     65  C   UNL A   1      36.955  33.813  29.948  1.00  0.00     0.010 A 
ATOM     66  C   UNL A   1      34.282  33.493  30.707  1.00  0.00     0.020 A 
ATOM     67  C   UNL A   1      35.951  34.497  29.255  1.00  0.00     0.020 A 
ATOM     68  C   UNL A   1      34.619  34.323  29.633  1.00  0.00     0.054 A 
BRANCH  68  69
ATOM     69  S   UNL A   1      33.291  35.209  28.769  1.00  0.00     0.124 S 
ATOM     70  O   UNL A   1      34.042  36.186  27.984  1.00  0.00    -0.237 OA
ATOM     71  O   UNL A   1      32.647  34.147  28.000  1.00  0.00    -0.237 OA
ATOM     72  O   UNL A   1      32.484  35.768  29.851  1.00  0.00    -0.744 OA
ENDBRANCH  68  69
ENDBRANCH  49  63
BRANCH  50  73
ATOM     73  C   UNL A   1      44.383  28.836  35.806  1.00  0.00    -0.014 A 
ATOM     74  C   UNL A   1      45.665  29.400  35.670  1.00  0.00     0.010 A 
ATOM     75  C   UNL A   1      44.225  27.689  36.605  1.00  0.00     0.010 A 
ATOM     76  C   UNL A   1      46.771  28.806  36.284  1.00  0.00     0.020 A 
ATOM     77  C   UNL A   1      45.324  27.112  37.249  1.00  0.00     0.020 A 
ATOM     78  C   UNL A   1      46.593  27.662  37.067  1.00  0.00     0.054 A 
BRANCH  78  79
ATOM     79  S   UNL A   1      48.042  26.913  37.862  1.00  0.00     0.124 S 
ATOM     80  O   UNL A   1      47.580  25.551  38.110  1.00  0.00    -0.237 OA
ATOM     81  O   UNL A   1      49.073  27.056  36.837  1.00  0.00    -0.237 OA
ATOM     82  O   UNL A   1      48.240  27.735  39.054  1.00  0.00    -0.744 OA
ENDBRANCH  78  79
ENDBRANCH  50  73
BRANCH  62  83
ATOM     83  C   UNL A   1      39.637  33.627  37.557  1.00  0.00    -0.014 A 
ATOM     84  C   UNL A   1      38.782  33.161  38.573  1.00  0.00     0.010 A 
ATOM     85  C   UNL A   1      40.321  34.842  37.742  1.00  0.00     0.010 A 
ATOM     86  C   UNL A   1      38.584  33.918  39.730  1.00  0.00     0.020 A 
ATOM     87  C   UNL A   1      40.151  35.585  38.913  1.00  0.00     0.020 A 
ATOM     88  C   UNL A   1      39.268  35.127  39.891  1.00  0.00     0.054 A 
BRANCH  88  89
ATOM     89  S   UNL A   1      39.013  36.077  41.416  1.00  0.00     0.124 S 
ATOM     90  O   UNL A   1      38.816  37.429  40.901  1.00  0.00    -0.237 OA
ATOM     91  O   UNL A   1      37.829  35.445  41.993  1.00  0.00    -0.237 OA
ATOM     92  O   UNL A   1      40.251  35.870  42.164  1.00  0.00    -0.744 OA
ENDBRANCH  88  89
ENDBRANCH  62  83
ENDBRANCH  36  37
ENDBRANCH  28  31
ENDBRANCH  26  27
ENDBRANCH  25  26
ENDBRANCH   1  25
TORSDOF 18
ENDMDL
MODEL 2
REMARK VINA RESULT:     -10.4      6.074     10.879
REMARK SMILES Cc1cc(N2CCCC[C@H]2C(=O)NCCCCCCNC(=O)c2ccc(-c3c4nc(c(-c5ccc(S(=O)(=O)[O-])cc5)c5ccc([nH]5)c(-c5ccc(S(=O)(=O)[O-])cc5)c5nc(c(-c6ccc(S(=O)(=O)[O-])cc6)c6ccc3[nH]6)C=C5)C=C4)cc2)ncc1[N+](=O)[O-]
REMARK SMILES IDX 17 1 16 2 15 3 14 4 13 5 11 6 12 7 10 9 5 10 6 11 7 12 9 13
REMARK SMILES IDX 8 14 4 15 1 16 2 17 3 18 85 19 84 20 83 21 86 22 87 23 88 24
REMARK SMILES IDX 18 25 19 26 20 27 21 28 22 30 23 31 24 32 82 33 25 34 81 35
REMARK SMILES IDX 26 36 27 37 28 38 75 39 29 40 80 41 74 42 76 43 30 44 79 45
REMARK SMILES IDX 73 46 72 47 31 49 61 50 42 51 60 52 43 53 46 54 59 55 77 56
REMARK SMILES IDX 44 57 45 58 58 60 78 61 47 62 32 63 33 64 41 65 34 66 40 67
REMARK SMILES IDX 35 68 36 69 37 70 38 71 39 72 62 73 63 74 71 75 64 76 70 77
REMARK SMILES IDX 65 78 66 79 67 80 68 81 69 82 48 83 49 84 57 85 50 86 56 87
REMARK SMILES IDX 51 88 52 89 53 90 54 91 55 92
REMARK H PARENT 13 8 20 29 76 48 46 59
REMARK Flexibility Score: inf
ROOT
ATOM      1  C   UNL A   1      38.440  21.983  25.932  1.00  0.00     0.002 C 
ENDROOT
BRANCH   1   2
ATOM      2  C   UNL A   1      37.448  21.280  24.999  1.00  0.00     0.002 C 
BRANCH   2   3
ATOM      3  C   UNL A   1      36.917  22.139  23.845  1.00  0.00     0.021 C 
BRANCH   3   4
ATOM      4  C   UNL A   1      35.792  23.093  24.236  1.00  0.00     0.116 C 
BRANCH   4   5
ATOM      5  N   UNL A   1      34.600  22.835  23.457  1.00  0.00    -0.354 N 
ATOM      6  C   UNL A   1      33.340  23.325  23.604  1.00  0.00     0.242 C 
ATOM      7  O   UNL A   1      32.494  22.907  22.807  1.00  0.00    -0.273 OA
ATOM      8  H   UNL A   1      34.719  22.209  22.706  1.00  0.00     0.163 HD
BRANCH   6   9
ATOM      9  C   UNL A   1      33.010  24.357  24.709  1.00  0.00     0.173 C 
ATOM     10  N   UNL A   1      31.587  24.726  24.727  1.00  0.00    -0.345 N 
ATOM     11  C   UNL A   1      30.625  23.666  24.988  1.00  0.00     0.119 C 
ATOM     12  C   UNL A   1      30.886  23.119  26.387  1.00  0.00     0.022 C 
ATOM     13  C   UNL A   1      33.334  23.784  26.108  1.00  0.00     0.035 C 
ATOM     14  C   UNL A   1      32.345  22.710  26.588  1.00  0.00     0.004 C 
BRANCH  10  15
ATOM     15  C   UNL A   1      31.130  25.876  24.131  1.00  0.00     0.129 A 
ATOM     16  C   UNL A   1      32.742  29.022  22.784  1.00  0.00     0.052 C 
ATOM     17  C   UNL A   1      31.650  28.075  23.190  1.00  0.00     0.032 A 
ATOM     18  C   UNL A   1      32.056  26.848  23.747  1.00  0.00     0.057 A 
ATOM     19  C   UNL A   1      30.273  28.295  23.093  1.00  0.00     0.290 A 
ATOM     20  C   UNL A   1      29.408  27.273  23.471  1.00  0.00     0.199 A 
ATOM     21  N   UNL A   1      29.813  26.074  23.966  1.00  0.00    -0.232 NA
BRANCH  19  22
ATOM     22  N   UNL A   1      29.672  29.548  22.648  1.00  0.00     0.064 N 
ATOM     23  O   UNL A   1      29.304  29.610  21.467  1.00  0.00    -0.258 OA
ATOM     24  O   UNL A   1      29.530  30.455  23.476  1.00  0.00    -0.258 OA
ENDBRANCH  19  22
ENDBRANCH  10  15
ENDBRANCH   6   9
ENDBRANCH   4   5
ENDBRANCH   3   4
ENDBRANCH   2   3
ENDBRANCH   1   2
BRANCH   1  25
ATOM     25  C   UNL A   1      39.879  21.472  25.854  1.00  0.00     0.021 C 
BRANCH  25  26
ATOM     26  C   UNL A   1      40.164  20.232  26.696  1.00  0.00     0.116 C 
BRANCH  26  27
ATOM     27  N   UNL A   1      41.192  19.391  26.105  1.00  0.00    -0.352 N 
ATOM     28  C   UNL A   1      42.462  19.721  25.711  1.00  0.00     0.251 C 
ATOM     29  H   UNL A   1      40.940  18.448  25.971  1.00  0.00     0.163 HD
ATOM     30  O   UNL A   1      43.129  18.914  25.061  1.00  0.00    -0.269 OA
BRANCH  28  31
ATOM     31  C   UNL A   1      43.023  21.049  26.041  1.00  0.00     0.039 A 
ATOM     32  C   UNL A   1      43.355  21.916  24.999  1.00  0.00     0.014 A 
ATOM     33  C   UNL A   1      43.230  21.436  27.369  1.00  0.00     0.014 A 
ATOM     34  C   UNL A   1      43.842  23.193  25.290  1.00  0.00     0.010 A 
ATOM     35  C   UNL A   1      43.646  22.734  27.658  1.00  0.00     0.010 A 
ATOM     36  C   UNL A   1      43.961  23.625  26.621  1.00  0.00    -0.014 A 
BRANCH  36  37
ATOM     37  C   UNL A   1      44.396  25.012  26.935  1.00  0.00     0.031 A 
ATOM     38  C   UNL A   1      45.836  25.418  26.763  1.00  0.00     0.074 A 
ATOM     39  C   UNL A   1      43.497  25.894  27.415  1.00  0.00     0.049 A 
ATOM     40  N   UNL A   1      46.394  26.581  26.984  1.00  0.00    -0.248 NA
ATOM     41  C   UNL A   1      46.778  24.383  26.303  1.00  0.00     0.031 C 
ATOM     42  C   UNL A   1      42.082  25.608  27.669  1.00  0.00     0.029 A 
ATOM     43  N   UNL A   1      43.636  27.212  27.774  1.00  0.00    -0.354 N 
ATOM     44  C   UNL A   1      47.746  26.415  26.711  1.00  0.00     0.074 A 
ATOM     45  C   UNL A   1      47.936  25.029  26.346  1.00  0.00     0.031 C 
ATOM     46  C   UNL A   1      41.477  26.726  28.102  1.00  0.00     0.029 A 
ATOM     47  C   UNL A   1      42.464  27.795  28.199  1.00  0.00     0.049 A 
ATOM     48  H   UNL A   1      44.492  27.694  27.729  1.00  0.00     0.167 HD
ATOM     49  C   UNL A   1      48.738  27.336  26.747  1.00  0.00     0.031 A 
ATOM     50  C   UNL A   1      42.212  29.050  28.622  1.00  0.00     0.031 A 
ATOM     51  C   UNL A   1      48.542  28.721  27.090  1.00  0.00     0.049 A 
ATOM     52  C   UNL A   1      43.337  30.049  28.655  1.00  0.00     0.074 A 
ATOM     53  C   UNL A   1      49.470  29.748  27.075  1.00  0.00     0.029 A 
ATOM     54  N   UNL A   1      47.344  29.271  27.517  1.00  0.00    -0.354 N 
ATOM     55  N   UNL A   1      44.591  29.894  28.300  1.00  0.00    -0.248 NA
ATOM     56  C   UNL A   1      43.010  31.399  29.137  1.00  0.00     0.031 C 
ATOM     57  C   UNL A   1      48.849  30.905  27.556  1.00  0.00     0.029 A 
ATOM     58  C   UNL A   1      47.517  30.615  27.806  1.00  0.00     0.049 A 
ATOM     59  H   UNL A   1      46.494  28.779  27.604  1.00  0.00     0.167 HD
ATOM     60  C   UNL A   1      45.193  31.134  28.485  1.00  0.00     0.074 A 
ATOM     61  C   UNL A   1      44.161  32.032  28.963  1.00  0.00     0.031 C 
ATOM     62  C   UNL A   1      46.482  31.498  28.279  1.00  0.00     0.031 A 
BRANCH  49  63
ATOM     63  C   UNL A   1      50.138  26.885  26.416  1.00  0.00    -0.014 A 
ATOM     64  C   UNL A   1      50.989  26.359  27.404  1.00  0.00     0.010 A 
ATOM     65  C   UNL A   1      50.577  26.912  25.079  1.00  0.00     0.010 A 
ATOM     66  C   UNL A   1      52.261  25.890  27.065  1.00  0.00     0.020 A 
ATOM     67  C   UNL A   1      51.838  26.419  24.731  1.00  0.00     0.020 A 
ATOM     68  C   UNL A   1      52.676  25.920  25.730  1.00  0.00     0.054 A 
BRANCH  68  69
ATOM     69  S   UNL A   1      54.312  25.253  25.312  1.00  0.00     0.124 S 
ATOM     70  O   UNL A   1      55.020  25.374  26.584  1.00  0.00    -0.237 OA
ATOM     71  O   UNL A   1      54.003  23.889  24.892  1.00  0.00    -0.237 OA
ATOM     72  O   UNL A   1      54.786  26.137  24.249  1.00  0.00    -0.744 OA
ENDBRANCH  68  69
ENDBRANCH  49  63
BRANCH  50  73
ATOM     73  C   UNL A   1      40.838  29.444  29.040  1.00  0.00    -0.014 A 
ATOM     74  C   UNL A   1      40.509  29.551  30.404  1.00  0.00     0.010 A 
ATOM     75  C   UNL A   1      39.840  29.683  28.078  1.00  0.00     0.010 A 
ATOM     76  C   UNL A   1      39.202  29.849  30.798  1.00  0.00     0.020 A 
ATOM     77  C   UNL A   1      38.538  30.015  28.468  1.00  0.00     0.020 A 
ATOM     78  C   UNL A   1      38.223  30.075  29.826  1.00  0.00     0.054 A 
BRANCH  78  79
ATOM     79  S   UNL A   1      36.535  30.469  30.361  1.00  0.00     0.124 S 
ATOM     80  O   UNL A   1      36.666  31.861  30.777  1.00  0.00    -0.237 OA
ATOM     81  O   UNL A   1      35.758  30.241  29.145  1.00  0.00    -0.237 OA
ATOM     82  O   UNL A   1      36.286  29.513  31.438  1.00  0.00    -0.744 OA
ENDBRANCH  78  79
ENDBRANCH  50  73
BRANCH  62  83
ATOM     83  C   UNL A   1      46.844  32.938  28.532  1.00  0.00    -0.014 A 
ATOM     84  C   UNL A   1      47.325  33.363  29.784  1.00  0.00     0.010 A 
ATOM     85  C   UNL A   1      46.734  33.874  27.488  1.00  0.00     0.010 A 
ATOM     86  C   UNL A   1      47.647  34.705  29.998  1.00  0.00     0.020 A 
ATOM     87  C   UNL A   1      47.088  35.211  27.688  1.00  0.00     0.020 A 
ATOM     88  C   UNL A   1      47.525  35.621  28.949  1.00  0.00     0.054 A 
BRANCH  88  89
ATOM     89  S   UNL A   1      47.976  37.353  29.245  1.00  0.00     0.124 S 
ATOM     90  O   UNL A   1      46.946  38.068  28.495  1.00  0.00    -0.237 OA
ATOM     91  O   UNL A   1      47.887  37.463  30.699  1.00  0.00    -0.237 OA
ATOM     92  O   UNL A   1      49.328  37.457  28.699  1.00  0.00    -0.744 OA
ENDBRANCH  88  89
ENDBRANCH  62  83
ENDBRANCH  36  37
ENDBRANCH  28  31
ENDBRANCH  26  27
ENDBRANCH  25  26
ENDBRANCH   1  25
TORSDOF 18
ENDMDL
MODEL 3
REMARK VINA RESULT:     -10.3      4.472      9.715
REMARK SMILES Cc1cc(N2CCCC[C@H]2C(=O)NCCCCCCNC(=O)c2ccc(-c3c4nc(c(-c5ccc(S(=O)(=O)[O-])cc5)c5ccc([nH]5)c(-c5ccc(S(=O)(=O)[O-])cc5)c5nc(c(-c6ccc(S(=O)(=O)[O-])cc6)c6ccc3[nH]6)C=C5)C=C4)cc2)ncc1[N+](=O)[O-]
REMARK SMILES IDX 17 1 16 2 15 3 14 4 13 5 11 6 12 7 10 9 5 10 6 11 7 12 9 13
REMARK SMILES IDX 8 14 4 15 1 16 2 17 3 18 85 19 84 20 83 21 86 22 87 23 88 24
REMARK SMILES IDX 18 25 19 26 20 27 21 28 22 30 23 31 24 32 82 33 25 34 81 35
REMARK SMILES IDX 26 36 27 37 28 38 75 39 29 40 80 41 74 42 76 43 30 44 79 45
REMARK SMILES IDX 73 46 72 47 31 49 61 50 42 51 60 52 43 53 46 54 59 55 77 56
REMARK SMILES IDX 44 57 45 58 58 60 78 61 47 62 32 63 33 64 41 65 34 66 40 67
REMARK SMILES IDX 35 68 36 69 37 70 38 71 39 72 62 73 63 74 71 75 64 76 70 77
REMARK SMILES IDX 65 78 66 79 67 80 68 81 69 82 48 83 49 84 57 85 50 86 56 87
REMARK SMILES IDX 51 88 52 89 53 90 54 91 55 92
REMARK H PARENT 13 8 20 29 76 48 46 59
REMARK Flexibility Score: inf
ROOT
ATOM      1  C   UNL A   1      45.804  25.986  33.475  1.00  0.00     0.002 C 
ENDROOT
BRANCH   1   2
ATOM      2  C   UNL A   1      46.664  26.616  32.375  1.00  0.00     0.002 C 
BRANCH   2   3
ATOM      3  C   UNL A   1      45.905  27.025  31.107  1.00  0.00     0.021 C 
BRANCH   3   4
ATOM      4  C   UNL A   1      46.196  26.152  29.890  1.00  0.00     0.116 C 
BRANCH   4   5
ATOM      5  N   UNL A   1      45.169  25.148  29.713  1.00  0.00    -0.354 N 
ATOM      6  C   UNL A   1      44.897  24.359  28.640  1.00  0.00     0.242 C 
ATOM      7  O   UNL A   1      43.928  23.600  28.750  1.00  0.00    -0.273 OA
ATOM      8  H   UNL A   1      44.576  25.018  30.489  1.00  0.00     0.163 HD
BRANCH   6   9
ATOM      9  C   UNL A   1      45.773  24.417  27.365  1.00  0.00     0.173 C 
ATOM     10  N   UNL A   1      45.036  24.019  26.158  1.00  0.00    -0.345 N 
ATOM     11  C   UNL A   1      43.882  24.823  25.783  1.00  0.00     0.119 C 
ATOM     12  C   UNL A   1      44.365  26.237  25.477  1.00  0.00     0.022 C 
ATOM     13  C   UNL A   1      46.284  25.855  27.116  1.00  0.00     0.035 C 
ATOM     14  C   UNL A   1      45.202  26.824  26.614  1.00  0.00     0.004 C 
BRANCH  10  15
ATOM     15  C   UNL A   1      45.133  22.753  25.634  1.00  0.00     0.129 A 
ATOM     16  C   UNL A   1      42.903  19.698  25.578  1.00  0.00     0.052 C 
ATOM     17  C   UNL A   1      44.127  20.539  25.358  1.00  0.00     0.032 A 
ATOM     18  C   UNL A   1      44.068  21.868  25.814  1.00  0.00     0.057 A 
ATOM     19  C   UNL A   1      45.327  20.131  24.768  1.00  0.00     0.290 A 
ATOM     20  C   UNL A   1      46.338  21.071  24.599  1.00  0.00     0.199 A 
ATOM     21  N   UNL A   1      46.252  22.367  25.002  1.00  0.00    -0.232 NA
BRANCH  19  22
ATOM     22  N   UNL A   1      45.609  18.764  24.341  1.00  0.00     0.064 N 
ATOM     23  O   UNL A   1      45.593  18.537  23.124  1.00  0.00    -0.258 OA
ATOM     24  O   UNL A   1      45.884  17.926  25.208  1.00  0.00    -0.258 OA
ENDBRANCH  19  22
ENDBRANCH  10  15
ENDBRANCH   6   9
ENDBRANCH   4   5
ENDBRANCH   3   4
ENDBRANCH   2   3
ENDBRANCH   1   2
BRANCH   1  25
ATOM     25  C   UNL A   1      46.556  25.075  34.447  1.00  0.00     0.021 C 
BRANCH  25  26
ATOM     26  C   UNL A   1      47.975  25.527  34.778  1.00  0.00     0.116 C 
BRANCH  26  27
ATOM     27  N   UNL A   1      48.229  25.535  36.210  1.00  0.00    -0.352 N 
ATOM     28  C   UNL A   1      47.640  26.288  37.191  1.00  0.00     0.251 C 
ATOM     29  H   UNL A   1      48.923  24.908  36.519  1.00  0.00     0.163 HD
ATOM     30  O   UNL A   1      48.114  26.289  38.328  1.00  0.00    -0.269 OA
BRANCH  28  31
ATOM     31  C   UNL A   1      46.454  27.117  36.883  1.00  0.00     0.039 A 
ATOM     32  C   UNL A   1      46.636  28.323  36.203  1.00  0.00     0.014 A 
ATOM     33  C   UNL A   1      45.171  26.715  37.267  1.00  0.00     0.014 A 
ATOM     34  C   UNL A   1      45.526  29.098  35.860  1.00  0.00     0.010 A 
ATOM     35  C   UNL A   1      44.061  27.452  36.861  1.00  0.00     0.010 A 
ATOM     36  C   UNL A   1      44.226  28.655  36.157  1.00  0.00    -0.014 A 
BRANCH  36  37
ATOM     37  C   UNL A   1      43.038  29.433  35.718  1.00  0.00     0.031 A 
ATOM     38  C   UNL A   1      42.315  29.074  34.447  1.00  0.00     0.074 A 
ATOM     39  C   UNL A   1      42.637  30.494  36.448  1.00  0.00     0.049 A 
ATOM     40  N   UNL A   1      41.262  29.638  33.912  1.00  0.00    -0.248 NA
ATOM     41  C   UNL A   1      42.852  27.949  33.661  1.00  0.00     0.031 C 
ATOM     42  C   UNL A   1      43.282  30.970  37.675  1.00  0.00     0.029 A 
ATOM     43  N   UNL A   1      41.588  31.361  36.269  1.00  0.00    -0.354 N 
ATOM     44  C   UNL A   1      41.023  28.955  32.726  1.00  0.00     0.074 A 
ATOM     45  C   UNL A   1      42.063  27.959  32.596  1.00  0.00     0.031 C 
ATOM     46  C   UNL A   1      42.592  32.016  38.158  1.00  0.00     0.029 A 
ATOM     47  C   UNL A   1      41.484  32.313  37.257  1.00  0.00     0.049 A 
ATOM     48  H   UNL A   1      40.969  31.306  35.507  1.00  0.00     0.167 HD
ATOM     49  C   UNL A   1      40.020  29.131  31.833  1.00  0.00     0.031 A 
ATOM     50  C   UNL A   1      40.597  33.316  37.419  1.00  0.00     0.031 A 
ATOM     51  C   UNL A   1      38.974  30.110  31.978  1.00  0.00     0.049 A 
ATOM     52  C   UNL A   1      39.497  33.488  36.407  1.00  0.00     0.074 A 
ATOM     53  C   UNL A   1      37.869  30.309  31.169  1.00  0.00     0.029 A 
ATOM     54  N   UNL A   1      38.905  31.056  32.988  1.00  0.00    -0.354 N 
ATOM     55  N   UNL A   1      39.234  32.768  35.342  1.00  0.00    -0.248 NA
ATOM     56  C   UNL A   1      38.566  34.604  36.625  1.00  0.00     0.031 C 
ATOM     57  C   UNL A   1      37.167  31.418  31.652  1.00  0.00     0.029 A 
ATOM     58  C   UNL A   1      37.797  31.867  32.802  1.00  0.00     0.049 A 
ATOM     59  H   UNL A   1      39.549  31.140  33.729  1.00  0.00     0.167 HD
ATOM     60  C   UNL A   1      38.089  33.325  34.783  1.00  0.00     0.074 A 
ATOM     61  C   UNL A   1      37.698  34.427  35.638  1.00  0.00     0.031 C 
ATOM     62  C   UNL A   1      37.419  32.960  33.662  1.00  0.00     0.031 A 
BRANCH  49  63
ATOM     63  C   UNL A   1      40.000  28.255  30.607  1.00  0.00    -0.014 A 
ATOM     64  C   UNL A   1      40.901  28.461  29.547  1.00  0.00     0.010 A 
ATOM     65  C   UNL A   1      39.120  27.159  30.552  1.00  0.00     0.010 A 
ATOM     66  C   UNL A   1      40.907  27.600  28.446  1.00  0.00     0.020 A 
ATOM     67  C   UNL A   1      39.140  26.280  29.466  1.00  0.00     0.020 A 
ATOM     68  C   UNL A   1      40.028  26.513  28.414  1.00  0.00     0.054 A 
BRANCH  68  69
ATOM     69  S   UNL A   1      40.096  25.382  26.997  1.00  0.00     0.124 S 
ATOM     70  O   UNL A   1      38.685  25.052  26.806  1.00  0.00    -0.237 OA
ATOM     71  O   UNL A   1      40.692  26.212  25.954  1.00  0.00    -0.237 OA
ATOM     72  O   UNL A   1      40.934  24.282  27.469  1.00  0.00    -0.744 OA
ENDBRANCH  68  69
ENDBRANCH  49  63
BRANCH  50  73
ATOM     73  C   UNL A   1      40.699  34.232  38.590  1.00  0.00    -0.014 A 
ATOM     74  C   UNL A   1      40.013  33.943  39.784  1.00  0.00     0.010 A 
ATOM     75  C   UNL A   1      41.456  35.414  38.507  1.00  0.00     0.010 A 
ATOM     76  C   UNL A   1      40.049  34.838  40.857  1.00  0.00     0.020 A 
ATOM     77  C   UNL A   1      41.521  36.296  39.591  1.00  0.00     0.020 A 
ATOM     78  C   UNL A   1      40.800  36.012  40.752  1.00  0.00     0.054 A 
BRANCH  78  79
ATOM     79  S   UNL A   1      40.838  37.155  42.160  1.00  0.00     0.124 S 
ATOM     80  O   UNL A   1      41.105  36.252  43.275  1.00  0.00    -0.237 OA
ATOM     81  O   UNL A   1      41.927  38.060  41.801  1.00  0.00    -0.237 OA
ATOM     82  O   UNL A   1      39.507  37.758  42.146  1.00  0.00    -0.744 OA
ENDBRANCH  78  79
ENDBRANCH  50  73
BRANCH  62  83
ATOM     83  C   UNL A   1      36.174  33.732  33.316  1.00  0.00    -0.014 A 
ATOM     84  C   UNL A   1      36.242  34.975  32.660  1.00  0.00     0.010 A 
ATOM     85  C   UNL A   1      34.914  33.187  33.621  1.00  0.00     0.010 A 
ATOM     86  C   UNL A   1      35.073  35.677  32.355  1.00  0.00     0.020 A 
ATOM     87  C   UNL A   1      33.741  33.871  33.288  1.00  0.00     0.020 A 
ATOM     88  C   UNL A   1      33.830  35.121  32.673  1.00  0.00     0.054 A 
BRANCH  88  89
ATOM     89  S   UNL A   1      32.327  36.041  32.242  1.00  0.00     0.124 S 
ATOM     90  O   UNL A   1      32.573  36.388  30.845  1.00  0.00    -0.237 OA
ATOM     91  O   UNL A   1      31.272  35.055  32.469  1.00  0.00    -0.237 OA
ATOM     92  O   UNL A   1      32.330  37.166  33.174  1.00  0.00    -0.744 OA
ENDBRANCH  88  89
ENDBRANCH  62  83
ENDBRANCH  36  37
ENDBRANCH  28  31
ENDBRANCH  26  27
ENDBRANCH  25  26
ENDBRANCH   1  25
TORSDOF 18
ENDMDL
