MODEL 1
REMARK VINA RESULT:     -11.6      0.000      0.000
REMARK SMILES O=C(NCCCCCCNC(=O)[C@H]1C[C@H]2CCCC[C@@H]2[N@@H+]1C1CCS(=O)(=O)CC1)c1ccc(-c2c3nc(c(-c4ccc(S(=O)(=O)[O-])cc4)c4ccc([nH]4)c(-c4ccc(S(=O)(=O)[O-])cc4)c4nc(c(-c5ccc(S(=O)(=O)[O-])cc5)c5ccc2[nH]5)C=C4)C=C3)cc1
REMARK SMILES IDX 5 1 4 2 3 3 1 4 2 5 30 7 31 8 89 9 32 10 88 11 33 12 34 13
REMARK SMILES IDX 35 14 82 15 36 16 87 17 81 18 83 19 37 20 86 21 80 22 79 23
REMARK SMILES IDX 38 25 68 26 49 27 67 28 50 29 53 30 66 31 84 32 51 33 52 34
REMARK SMILES IDX 65 36 85 37 54 38 39 39 40 40 48 41 41 42 47 43 42 44 43 45
REMARK SMILES IDX 44 46 45 47 46 48 69 49 70 50 78 51 71 52 77 53 72 54 73 55
REMARK SMILES IDX 74 56 75 57 76 58 55 59 56 60 64 61 57 62 63 63 58 64 59 65
REMARK SMILES IDX 60 66 61 67 62 68 6 69 7 70 8 71 9 72 10 73 11 74 12 76
REMARK SMILES IDX 13 77 14 78 21 79 15 80 20 81 16 83 19 84 17 85 18 86 22 87
REMARK SMILES IDX 23 88 29 89 24 90 28 91 25 92 26 93 27 94
REMARK H PARENT 3 6 83 24 53 35 10 75 21 82
REMARK Flexibility Score: inf
ROOT
ATOM      1  C   UNL A   1      31.842  31.031  26.687  1.00  0.00     0.021 C 
ENDROOT
BRANCH   1   2
ATOM      2  C   UNL A   1      33.045  31.775  27.239  1.00  0.00     0.116 C 
BRANCH   2   3
ATOM      3  N   UNL A   1      32.741  33.162  27.556  1.00  0.00    -0.352 N 
ATOM      4  O   UNL A   1      32.852  35.066  28.771  1.00  0.00    -0.269 OA
ATOM      5  C   UNL A   1      33.336  33.974  28.493  1.00  0.00     0.251 C 
ATOM      6  H   UNL A   1      32.015  33.572  27.032  1.00  0.00     0.163 HD
BRANCH   5   7
ATOM      7  C   UNL A   1      34.556  33.493  29.172  1.00  0.00     0.039 A 
ATOM      8  C   UNL A   1      34.457  32.485  30.132  1.00  0.00     0.014 A 
ATOM      9  C   UNL A   1      35.791  34.083  28.891  1.00  0.00     0.014 A 
ATOM     10  C   UNL A   1      35.549  32.195  30.931  1.00  0.00     0.010 A 
ATOM     11  C   UNL A   1      36.923  33.690  29.613  1.00  0.00     0.010 A 
ATOM     12  C   UNL A   1      36.806  32.761  30.657  1.00  0.00    -0.014 A 
BRANCH  12  13
ATOM     13  C   UNL A   1      37.977  32.262  31.422  1.00  0.00     0.031 A 
ATOM     14  C   UNL A   1      38.338  32.809  32.775  1.00  0.00     0.074 A 
ATOM     15  C   UNL A   1      38.678  31.238  30.891  1.00  0.00     0.049 A 
ATOM     16  N   UNL A   1      39.286  32.414  33.588  1.00  0.00    -0.248 NA
ATOM     17  C   UNL A   1      37.549  33.942  33.284  1.00  0.00     0.031 C 
ATOM     18  C   UNL A   1      38.427  30.641  29.574  1.00  0.00     0.029 A 
ATOM     19  N   UNL A   1      39.709  30.492  31.397  1.00  0.00    -0.354 N 
ATOM     20  C   UNL A   1      39.216  33.249  34.696  1.00  0.00     0.074 A 
ATOM     21  C   UNL A   1      38.152  34.196  34.439  1.00  0.00     0.031 C 
ATOM     22  C   UNL A   1      39.223  29.578  29.410  1.00  0.00     0.029 A 
ATOM     23  C   UNL A   1      40.106  29.473  30.563  1.00  0.00     0.049 A 
ATOM     24  H   UNL A   1      40.126  30.668  32.271  1.00  0.00     0.167 HD
ATOM     25  C   UNL A   1      39.965  33.220  35.826  1.00  0.00     0.031 A 
ATOM     26  C   UNL A   1      41.088  28.563  30.693  1.00  0.00     0.031 A 
ATOM     27  C   UNL A   1      41.032  32.278  36.064  1.00  0.00     0.049 A 
ATOM     28  C   UNL A   1      41.922  28.582  31.940  1.00  0.00     0.074 A 
ATOM     29  C   UNL A   1      41.844  32.163  37.179  1.00  0.00     0.029 A 
ATOM     30  N   UNL A   1      41.436  31.292  35.176  1.00  0.00    -0.354 N 
ATOM     31  N   UNL A   1      41.818  29.364  32.987  1.00  0.00    -0.248 NA
ATOM     32  C   UNL A   1      43.002  27.593  32.023  1.00  0.00     0.031 C 
ATOM     33  C   UNL A   1      42.776  31.146  36.942  1.00  0.00     0.029 A 
ATOM     34  C   UNL A   1      42.500  30.580  35.709  1.00  0.00     0.049 A 
ATOM     35  H   UNL A   1      41.028  31.123  34.296  1.00  0.00     0.167 HD
ATOM     36  C   UNL A   1      42.816  28.955  33.860  1.00  0.00     0.074 A 
ATOM     37  C   UNL A   1      43.482  27.829  33.235  1.00  0.00     0.031 C 
ATOM     38  C   UNL A   1      43.160  29.471  35.067  1.00  0.00     0.031 A 
BRANCH  25  39
ATOM     39  C   UNL A   1      39.671  34.241  36.896  1.00  0.00    -0.014 A 
ATOM     40  C   UNL A   1      38.925  33.899  38.040  1.00  0.00     0.010 A 
ATOM     41  C   UNL A   1      40.216  35.535  36.802  1.00  0.00     0.010 A 
ATOM     42  C   UNL A   1      38.713  34.836  39.055  1.00  0.00     0.020 A 
ATOM     43  C   UNL A   1      40.029  36.468  37.828  1.00  0.00     0.020 A 
ATOM     44  C   UNL A   1      39.269  36.114  38.944  1.00  0.00     0.054 A 
BRANCH  44  45
ATOM     45  S   UNL A   1      39.018  37.289  40.303  1.00  0.00     0.124 S 
ATOM     46  O   UNL A   1      38.362  36.454  41.306  1.00  0.00    -0.237 OA
ATOM     47  O   UNL A   1      40.382  37.701  40.624  1.00  0.00    -0.237 OA
ATOM     48  O   UNL A   1      38.178  38.329  39.715  1.00  0.00    -0.744 OA
ENDBRANCH  44  45
ENDBRANCH  25  39
BRANCH  26  49
ATOM     49  C   UNL A   1      41.361  27.603  29.589  1.00  0.00    -0.014 A 
ATOM     50  C   UNL A   1      40.530  26.492  29.367  1.00  0.00     0.010 A 
ATOM     51  C   UNL A   1      42.471  27.805  28.746  1.00  0.00     0.010 A 
ATOM     52  C   UNL A   1      40.824  25.584  28.347  1.00  0.00     0.020 A 
ATOM     53  C   UNL A   1      42.745  26.924  27.701  1.00  0.00     0.020 A 
ATOM     54  C   UNL A   1      41.930  25.806  27.521  1.00  0.00     0.054 A 
BRANCH  54  55
ATOM     55  S   UNL A   1      42.283  24.625  26.191  1.00  0.00     0.124 S 
ATOM     56  O   UNL A   1      42.051  25.435  24.999  1.00  0.00    -0.237 OA
ATOM     57  O   UNL A   1      43.673  24.263  26.451  1.00  0.00    -0.237 OA
ATOM     58  O   UNL A   1      41.315  23.555  26.420  1.00  0.00    -0.744 OA
ENDBRANCH  54  55
ENDBRANCH  26  49
BRANCH  38  59
ATOM     59  C   UNL A   1      44.294  28.797  35.792  1.00  0.00    -0.014 A 
ATOM     60  C   UNL A   1      44.067  27.695  36.638  1.00  0.00     0.010 A 
ATOM     61  C   UNL A   1      45.607  29.274  35.628  1.00  0.00     0.010 A 
ATOM     62  C   UNL A   1      45.124  27.120  37.348  1.00  0.00     0.020 A 
ATOM     63  C   UNL A   1      46.671  28.679  36.309  1.00  0.00     0.020 A 
ATOM     64  C   UNL A   1      46.419  27.620  37.183  1.00  0.00     0.054 A 
BRANCH  64  65
ATOM     65  S   UNL A   1      47.773  26.854  38.113  1.00  0.00     0.124 S 
ATOM     66  O   UNL A   1      47.159  25.613  38.577  1.00  0.00    -0.237 OA
ATOM     67  O   UNL A   1      48.812  26.703  37.098  1.00  0.00    -0.237 OA
ATOM     68  O   UNL A   1      48.070  27.831  39.160  1.00  0.00    -0.744 OA
ENDBRANCH  64  65
ENDBRANCH  38  59
ENDBRANCH  12  13
ENDBRANCH   5   7
ENDBRANCH   2   3
ENDBRANCH   1   2
BRANCH   1  69
ATOM     69  C   UNL A   1      32.201  29.889  25.739  1.00  0.00     0.002 C 
BRANCH  69  70
ATOM     70  C   UNL A   1      33.473  29.118  26.112  1.00  0.00     0.002 C 
BRANCH  70  71
ATOM     71  C   UNL A   1      33.262  27.631  26.414  1.00  0.00     0.021 C 
BRANCH  71  72
ATOM     72  C   UNL A   1      31.796  27.221  26.484  1.00  0.00     0.116 C 
BRANCH  72  73
ATOM     73  N   UNL A   1      31.657  25.931  27.132  1.00  0.00    -0.351 N 
ATOM     74  C   UNL A   1      31.883  24.663  26.715  1.00  0.00     0.278 C 
ATOM     75  H   UNL A   1      31.333  25.989  28.060  1.00  0.00     0.163 HD
ATOM     76  O   UNL A   1      31.395  23.771  27.425  1.00  0.00    -0.268 OA
BRANCH  74  77
ATOM     77  C   UNL A   1      32.778  24.263  25.524  1.00  0.00     0.275 C 
ATOM     78  C   UNL A   1      34.196  23.915  26.025  1.00  0.00     0.085 C 
ATOM     79  N   UNL A   1      32.320  23.106  24.727  1.00  0.00    -0.320 N 
ATOM     80  C   UNL A   1      34.562  22.676  25.228  1.00  0.00     0.054 C 
ATOM     81  C   UNL A   1      33.208  21.992  25.095  1.00  0.00     0.188 C 
ATOM     82  H   UNL A   1      31.351  22.916  24.982  1.00  0.00     0.349 HD
ATOM     83  C   UNL A   1      35.607  21.759  25.846  1.00  0.00     0.010 C 
ATOM     84  C   UNL A   1      33.295  20.712  24.266  1.00  0.00     0.065 C 
ATOM     85  C   UNL A   1      35.713  20.468  25.030  1.00  0.00     0.001 C 
ATOM     86  C   UNL A   1      34.355  19.776  24.862  1.00  0.00     0.006 C 
BRANCH  79  87
ATOM     87  C   UNL A   1      31.903  23.249  23.326  1.00  0.00     0.186 C 
ATOM     88  C   UNL A   1      30.563  23.995  23.118  1.00  0.00     0.081 C 
ATOM     89  C   UNL A   1      32.934  23.771  22.308  1.00  0.00     0.081 C 
ATOM     90  C   UNL A   1      30.592  25.496  23.322  1.00  0.00     0.143 C 
ATOM     91  C   UNL A   1      33.283  25.240  22.434  1.00  0.00     0.143 C 
ATOM     92  S   UNL A   1      31.855  26.305  22.360  1.00  0.00     0.150 S 
ATOM     93  O   UNL A   1      32.202  27.537  23.040  1.00  0.00    -0.229 OA
ATOM     94  O   UNL A   1      31.406  26.327  20.978  1.00  0.00    -0.229 OA
ENDBRANCH  79  87
ENDBRANCH  74  77
ENDBRANCH  72  73
ENDBRANCH  71  72
ENDBRANCH  70  71
ENDBRANCH  69  70
ENDBRANCH   1  69
TORSDOF 17
ENDMDL
MODEL 2
REMARK VINA RESULT:     -11.6      6.147      8.102
REMARK SMILES O=C(NCCCCCCNC(=O)[C@H]1C[C@H]2CCCC[C@@H]2[N@@H+]1C1CCS(=O)(=O)CC1)c1ccc(-c2c3nc(c(-c4ccc(S(=O)(=O)[O-])cc4)c4ccc([nH]4)c(-c4ccc(S(=O)(=O)[O-])cc4)c4nc(c(-c5ccc(S(=O)(=O)[O-])cc5)c5ccc2[nH]5)C=C4)C=C3)cc1
REMARK SMILES IDX 5 1 4 2 3 3 1 4 2 5 30 7 31 8 89 9 32 10 88 11 33 12 34 13
REMARK SMILES IDX 35 14 82 15 36 16 87 17 81 18 83 19 37 20 86 21 80 22 79 23
REMARK SMILES IDX 38 25 68 26 49 27 67 28 50 29 53 30 66 31 84 32 51 33 52 34
REMARK SMILES IDX 65 36 85 37 54 38 39 39 40 40 48 41 41 42 47 43 42 44 43 45
REMARK SMILES IDX 44 46 45 47 46 48 69 49 70 50 78 51 71 52 77 53 72 54 73 55
REMARK SMILES IDX 74 56 75 57 76 58 55 59 56 60 64 61 57 62 63 63 58 64 59 65
REMARK SMILES IDX 60 66 61 67 62 68 6 69 7 70 8 71 9 72 10 73 11 74 12 76
REMARK SMILES IDX 13 77 14 78 21 79 15 80 20 81 16 83 19 84 17 85 18 86 22 87
REMARK SMILES IDX 23 88 29 89 24 90 28 91 25 92 26 93 27 94
REMARK H PARENT 3 6 83 24 53 35 10 75 21 82
REMARK Flexibility Score: inf
ROOT
ATOM      1  C   UNL A   1      34.461  29.132  27.131  1.00  0.00     0.021 C 
ENDROOT
BRANCH   1   2
ATOM      2  C   UNL A   1      35.542  30.031  27.705  1.00  0.00     0.116 C 
BRANCH   2   3
ATOM      3  N   UNL A   1      35.493  30.100  29.157  1.00  0.00    -0.352 N 
ATOM      4  O   UNL A   1      36.211  29.685  31.261  1.00  0.00    -0.269 OA
ATOM      5  C   UNL A   1      36.464  29.739  30.062  1.00  0.00     0.251 C 
ATOM      6  H   UNL A   1      34.657  30.449  29.541  1.00  0.00     0.163 HD
BRANCH   5   7
ATOM      7  C   UNL A   1      37.809  29.397  29.557  1.00  0.00     0.039 A 
ATOM      8  C   UNL A   1      38.794  28.979  30.453  1.00  0.00     0.014 A 
ATOM      9  C   UNL A   1      38.103  29.543  28.199  1.00  0.00     0.014 A 
ATOM     10  C   UNL A   1      40.107  28.882  30.025  1.00  0.00     0.010 A 
ATOM     11  C   UNL A   1      39.408  29.314  27.748  1.00  0.00     0.010 A 
ATOM     12  C   UNL A   1      40.426  29.007  28.662  1.00  0.00    -0.014 A 
BRANCH  12  13
ATOM     13  C   UNL A   1      41.816  28.698  28.240  1.00  0.00     0.031 A 
ATOM     14  C   UNL A   1      42.901  29.738  28.246  1.00  0.00     0.074 A 
ATOM     15  C   UNL A   1      42.099  27.420  27.913  1.00  0.00     0.049 A 
ATOM     16  N   UNL A   1      44.175  29.590  27.977  1.00  0.00    -0.248 NA
ATOM     17  C   UNL A   1      42.520  31.118  28.588  1.00  0.00     0.031 C 
ATOM     18  C   UNL A   1      41.116  26.330  27.855  1.00  0.00     0.029 A 
ATOM     19  N   UNL A   1      43.285  26.806  27.610  1.00  0.00    -0.354 N 
ATOM     20  C   UNL A   1      44.745  30.849  28.108  1.00  0.00     0.074 A 
ATOM     21  C   UNL A   1      43.673  31.760  28.448  1.00  0.00     0.031 C 
ATOM     22  C   UNL A   1      41.749  25.176  27.614  1.00  0.00     0.029 A 
ATOM     23  C   UNL A   1      43.163  25.452  27.406  1.00  0.00     0.049 A 
ATOM     24  H   UNL A   1      44.141  27.288  27.544  1.00  0.00     0.167 HD
ATOM     25  C   UNL A   1      46.045  31.208  27.966  1.00  0.00     0.031 A 
ATOM     26  C   UNL A   1      44.080  24.528  27.065  1.00  0.00     0.031 A 
ATOM     27  C   UNL A   1      47.102  30.292  27.613  1.00  0.00     0.049 A 
ATOM     28  C   UNL A   1      45.502  24.966  26.879  1.00  0.00     0.074 A 
ATOM     29  C   UNL A   1      48.452  30.557  27.451  1.00  0.00     0.029 A 
ATOM     30  N   UNL A   1      46.932  28.937  27.367  1.00  0.00    -0.354 N 
ATOM     31  N   UNL A   1      46.024  26.159  27.036  1.00  0.00    -0.248 NA
ATOM     32  C   UNL A   1      46.461  23.931  26.475  1.00  0.00     0.031 C 
ATOM     33  C   UNL A   1      49.087  29.376  27.052  1.00  0.00     0.029 A 
ATOM     34  C   UNL A   1      48.148  28.359  27.033  1.00  0.00     0.049 A 
ATOM     35  H   UNL A   1      46.075  28.457  27.421  1.00  0.00     0.167 HD
ATOM     36  C   UNL A   1      47.376  26.017  26.757  1.00  0.00     0.074 A 
ATOM     37  C   UNL A   1      47.596  24.614  26.466  1.00  0.00     0.031 C 
ATOM     38  C   UNL A   1      48.347  26.963  26.732  1.00  0.00     0.031 A 
BRANCH  25  39
ATOM     39  C   UNL A   1      46.407  32.656  28.180  1.00  0.00    -0.014 A 
ATOM     40  C   UNL A   1      47.125  33.064  29.319  1.00  0.00     0.010 A 
ATOM     41  C   UNL A   1      46.101  33.611  27.192  1.00  0.00     0.010 A 
ATOM     42  C   UNL A   1      47.510  34.399  29.476  1.00  0.00     0.020 A 
ATOM     43  C   UNL A   1      46.508  34.942  27.331  1.00  0.00     0.020 A 
ATOM     44  C   UNL A   1      47.202  35.329  28.479  1.00  0.00     0.054 A 
BRANCH  44  45
ATOM     45  S   UNL A   1      47.761  37.042  28.689  1.00  0.00     0.124 S 
ATOM     46  O   UNL A   1      48.654  36.928  29.839  1.00  0.00    -0.237 OA
ATOM     47  O   UNL A   1      48.413  37.323  27.413  1.00  0.00    -0.237 OA
ATOM     48  O   UNL A   1      46.527  37.785  28.932  1.00  0.00    -0.744 OA
ENDBRANCH  44  45
ENDBRANCH  25  39
BRANCH  26  49
ATOM     49  C   UNL A   1      43.662  23.120  26.828  1.00  0.00    -0.014 A 
ATOM     50  C   UNL A   1      43.130  22.333  27.864  1.00  0.00     0.010 A 
ATOM     51  C   UNL A   1      43.798  22.558  25.544  1.00  0.00     0.010 A 
ATOM     52  C   UNL A   1      42.776  21.002  27.627  1.00  0.00     0.020 A 
ATOM     53  C   UNL A   1      43.408  21.243  25.294  1.00  0.00     0.020 A 
ATOM     54  C   UNL A   1      42.918  20.466  26.343  1.00  0.00     0.054 A 
BRANCH  54  55
ATOM     55  S   UNL A   1      42.435  18.742  26.055  1.00  0.00     0.124 S 
ATOM     56  O   UNL A   1      41.046  18.885  25.632  1.00  0.00    -0.237 OA
ATOM     57  O   UNL A   1      43.374  18.321  25.019  1.00  0.00    -0.237 OA
ATOM     58  O   UNL A   1      42.632  18.110  27.358  1.00  0.00    -0.744 OA
ENDBRANCH  54  55
ENDBRANCH  26  49
BRANCH  38  59
ATOM     59  C   UNL A   1      49.740  26.495  26.402  1.00  0.00    -0.014 A 
ATOM     60  C   UNL A   1      50.584  25.958  27.392  1.00  0.00     0.010 A 
ATOM     61  C   UNL A   1      50.212  26.595  25.081  1.00  0.00     0.010 A 
ATOM     62  C   UNL A   1      51.892  25.585  27.077  1.00  0.00     0.020 A 
ATOM     63  C   UNL A   1      51.508  26.189  24.755  1.00  0.00     0.020 A 
ATOM     64  C   UNL A   1      52.347  25.708  25.762  1.00  0.00     0.054 A 
BRANCH  64  65
ATOM     65  S   UNL A   1      54.048  25.212  25.379  1.00  0.00     0.124 S 
ATOM     66  O   UNL A   1      54.726  25.443  26.652  1.00  0.00    -0.237 OA
ATOM     67  O   UNL A   1      53.894  23.812  24.993  1.00  0.00    -0.237 OA
ATOM     68  O   UNL A   1      54.436  26.112  24.295  1.00  0.00    -0.744 OA
ENDBRANCH  64  65
ENDBRANCH  38  59
ENDBRANCH  12  13
ENDBRANCH   5   7
ENDBRANCH   2   3
ENDBRANCH   1   2
BRANCH   1  69
ATOM     69  C   UNL A   1      33.373  29.882  26.366  1.00  0.00     0.002 C 
BRANCH  69  70
ATOM     70  C   UNL A   1      31.949  29.663  26.891  1.00  0.00     0.002 C 
BRANCH  70  71
ATOM     71  C   UNL A   1      31.693  28.285  27.510  1.00  0.00     0.021 C 
BRANCH  71  72
ATOM     72  C   UNL A   1      31.379  27.200  26.486  1.00  0.00     0.116 C 
BRANCH  72  73
ATOM     73  N   UNL A   1      31.324  25.898  27.123  1.00  0.00    -0.351 N 
ATOM     74  C   UNL A   1      31.664  24.655  26.706  1.00  0.00     0.278 C 
ATOM     75  H   UNL A   1      30.968  25.923  28.040  1.00  0.00     0.163 HD
ATOM     76  O   UNL A   1      31.227  23.722  27.395  1.00  0.00    -0.268 OA
BRANCH  74  77
ATOM     77  C   UNL A   1      32.624  24.338  25.541  1.00  0.00     0.275 C 
ATOM     78  C   UNL A   1      34.050  24.100  26.086  1.00  0.00     0.085 C 
ATOM     79  N   UNL A   1      32.286  23.155  24.724  1.00  0.00    -0.320 N 
ATOM     80  C   UNL A   1      34.538  22.900  25.294  1.00  0.00     0.054 C 
ATOM     81  C   UNL A   1      33.248  22.112  25.114  1.00  0.00     0.188 C 
ATOM     82  H   UNL A   1      31.328  22.886  24.947  1.00  0.00     0.349 HD
ATOM     83  C   UNL A   1      35.633  22.065  25.940  1.00  0.00     0.010 C 
ATOM     84  C   UNL A   1      33.463  20.850  24.281  1.00  0.00     0.065 C 
ATOM     85  C   UNL A   1      35.867  20.792  25.120  1.00  0.00     0.001 C 
ATOM     86  C   UNL A   1      34.575  19.997  24.905  1.00  0.00     0.006 C 
BRANCH  79  87
ATOM     87  C   UNL A   1      31.903  23.275  23.311  1.00  0.00     0.186 C 
ATOM     88  C   UNL A   1      30.568  24.017  23.060  1.00  0.00     0.081 C 
ATOM     89  C   UNL A   1      32.958  23.783  22.311  1.00  0.00     0.081 C 
ATOM     90  C   UNL A   1      30.591  25.521  23.240  1.00  0.00     0.143 C 
ATOM     91  C   UNL A   1      33.303  25.254  22.423  1.00  0.00     0.143 C 
ATOM     92  S   UNL A   1      31.877  26.317  22.297  1.00  0.00     0.150 S 
ATOM     93  O   UNL A   1      32.207  27.559  22.966  1.00  0.00    -0.229 OA
ATOM     94  O   UNL A   1      31.462  26.316  20.905  1.00  0.00    -0.229 OA
ENDBRANCH  79  87
ENDBRANCH  74  77
ENDBRANCH  72  73
ENDBRANCH  71  72
ENDBRANCH  70  71
ENDBRANCH  69  70
ENDBRANCH   1  69
TORSDOF 17
ENDMDL
MODEL 3
REMARK VINA RESULT:     -11.6      1.581      3.059
REMARK SMILES O=C(NCCCCCCNC(=O)[C@H]1C[C@H]2CCCC[C@@H]2[N@@H+]1C1CCS(=O)(=O)CC1)c1ccc(-c2c3nc(c(-c4ccc(S(=O)(=O)[O-])cc4)c4ccc([nH]4)c(-c4ccc(S(=O)(=O)[O-])cc4)c4nc(c(-c5ccc(S(=O)(=O)[O-])cc5)c5ccc2[nH]5)C=C4)C=C3)cc1
REMARK SMILES IDX 5 1 4 2 3 3 1 4 2 5 30 7 31 8 89 9 32 10 88 11 33 12 34 13
REMARK SMILES IDX 35 14 82 15 36 16 87 17 81 18 83 19 37 20 86 21 80 22 79 23
REMARK SMILES IDX 38 25 68 26 49 27 67 28 50 29 53 30 66 31 84 32 51 33 52 34
REMARK SMILES IDX 65 36 85 37 54 38 39 39 40 40 48 41 41 42 47 43 42 44 43 45
REMARK SMILES IDX 44 46 45 47 46 48 69 49 70 50 78 51 71 52 77 53 72 54 73 55
REMARK SMILES IDX 74 56 75 57 76 58 55 59 56 60 64 61 57 62 63 63 58 64 59 65
REMARK SMILES IDX 60 66 61 67 62 68 6 69 7 70 8 71 9 72 10 73 11 74 12 76
REMARK SMILES IDX 13 77 14 78 21 79 15 80 20 81 16 83 19 84 17 85 18 86 22 87
REMARK SMILES IDX 23 88 29 89 24 90 28 91 25 92 26 93 27 94
REMARK H PARENT 3 6 83 24 53 35 10 75 21 82
REMARK Flexibility Score: inf
ROOT
ATOM      1  C   UNL A   1      31.769  31.754  26.813  1.00  0.00     0.021 C 
ENDROOT
BRANCH   1   2
ATOM      2  C   UNL A   1      33.012  32.518  27.231  1.00  0.00     0.116 C 
BRANCH   2   3
ATOM      3  N   UNL A   1      32.708  33.868  27.681  1.00  0.00    -0.352 N 
ATOM      4  O   UNL A   1      32.810  35.641  29.081  1.00  0.00    -0.269 OA
ATOM      5  C   UNL A   1      33.294  34.581  28.701  1.00  0.00     0.251 C 
ATOM      6  H   UNL A   1      31.989  34.331  27.192  1.00  0.00     0.163 HD
BRANCH   5   7
ATOM      7  C   UNL A   1      34.505  34.030  29.343  1.00  0.00     0.039 A 
ATOM      8  C   UNL A   1      34.377  33.212  30.467  1.00  0.00     0.014 A 
ATOM      9  C   UNL A   1      35.770  34.371  28.857  1.00  0.00     0.014 A 
ATOM     10  C   UNL A   1      35.502  32.886  31.205  1.00  0.00     0.010 A 
ATOM     11  C   UNL A   1      36.911  33.926  29.534  1.00  0.00     0.010 A 
ATOM     12  C   UNL A   1      36.786  33.202  30.728  1.00  0.00    -0.014 A 
BRANCH  12  13
ATOM     13  C   UNL A   1      37.955  32.655  31.461  1.00  0.00     0.031 A 
ATOM     14  C   UNL A   1      38.372  33.182  32.806  1.00  0.00     0.074 A 
ATOM     15  C   UNL A   1      38.602  31.607  30.910  1.00  0.00     0.049 A 
ATOM     16  N   UNL A   1      39.324  32.747  33.593  1.00  0.00    -0.248 NA
ATOM     17  C   UNL A   1      37.640  34.342  33.338  1.00  0.00     0.031 C 
ATOM     18  C   UNL A   1      38.294  31.025  29.597  1.00  0.00     0.029 A 
ATOM     19  N   UNL A   1      39.616  30.819  31.386  1.00  0.00    -0.354 N 
ATOM     20  C   UNL A   1      39.314  33.580  34.705  1.00  0.00     0.074 A 
ATOM     21  C   UNL A   1      38.282  34.568  34.478  1.00  0.00     0.031 C 
ATOM     22  C   UNL A   1      39.044  29.933  29.410  1.00  0.00     0.029 A 
ATOM     23  C   UNL A   1      39.951  29.788  30.540  1.00  0.00     0.049 A 
ATOM     24  H   UNL A   1      40.061  30.975  32.250  1.00  0.00     0.167 HD
ATOM     25  C   UNL A   1      40.090  33.517  35.816  1.00  0.00     0.031 A 
ATOM     26  C   UNL A   1      40.900  28.841  30.641  1.00  0.00     0.031 A 
ATOM     27  C   UNL A   1      41.125  32.533  36.023  1.00  0.00     0.049 A 
ATOM     28  C   UNL A   1      41.765  28.822  31.867  1.00  0.00     0.074 A 
ATOM     29  C   UNL A   1      41.960  32.382  37.118  1.00  0.00     0.029 A 
ATOM     30  N   UNL A   1      41.468  31.536  35.123  1.00  0.00    -0.354 N 
ATOM     31  N   UNL A   1      41.719  29.604  32.919  1.00  0.00    -0.248 NA
ATOM     32  C   UNL A   1      42.808  27.791  31.919  1.00  0.00     0.031 C 
ATOM     33  C   UNL A   1      42.845  31.331  36.853  1.00  0.00     0.029 A 
ATOM     34  C   UNL A   1      42.517  30.781  35.626  1.00  0.00     0.049 A 
ATOM     35  H   UNL A   1      41.031  31.386  34.253  1.00  0.00     0.167 HD
ATOM     36  C   UNL A   1      42.722  29.152  33.765  1.00  0.00     0.074 A 
ATOM     37  C   UNL A   1      43.327  28.004  33.120  1.00  0.00     0.031 C 
ATOM     38  C   UNL A   1      43.116  29.649  34.964  1.00  0.00     0.031 A 
BRANCH  25  39
ATOM     39  C   UNL A   1      39.863  34.544  36.896  1.00  0.00    -0.014 A 
ATOM     40  C   UNL A   1      38.955  34.306  37.945  1.00  0.00     0.010 A 
ATOM     41  C   UNL A   1      40.626  35.727  36.913  1.00  0.00     0.010 A 
ATOM     42  C   UNL A   1      38.800  35.238  38.975  1.00  0.00     0.020 A 
ATOM     43  C   UNL A   1      40.494  36.649  37.957  1.00  0.00     0.020 A 
ATOM     44  C   UNL A   1      39.573  36.402  38.976  1.00  0.00     0.054 A 
BRANCH  44  45
ATOM     45  S   UNL A   1      39.385  37.567  40.355  1.00  0.00     0.124 S 
ATOM     46  O   UNL A   1      40.775  37.887  40.670  1.00  0.00    -0.237 OA
ATOM     47  O   UNL A   1      38.613  38.650  39.753  1.00  0.00    -0.237 OA
ATOM     48  O   UNL A   1      38.680  36.793  41.372  1.00  0.00    -0.744 OA
ENDBRANCH  44  45
ENDBRANCH  25  39
BRANCH  26  49
ATOM     49  C   UNL A   1      41.108  27.875  29.528  1.00  0.00    -0.014 A 
ATOM     50  C   UNL A   1      40.317  26.720  29.409  1.00  0.00     0.010 A 
ATOM     51  C   UNL A   1      42.112  28.118  28.571  1.00  0.00     0.010 A 
ATOM     52  C   UNL A   1      40.552  25.809  28.376  1.00  0.00     0.020 A 
ATOM     53  C   UNL A   1      42.322  27.232  27.515  1.00  0.00     0.020 A 
ATOM     54  C   UNL A   1      41.553  26.071  27.436  1.00  0.00     0.054 A 
BRANCH  54  55
ATOM     55  S   UNL A   1      41.828  24.885  26.092  1.00  0.00     0.124 S 
ATOM     56  O   UNL A   1      42.983  24.139  26.581  1.00  0.00    -0.237 OA
ATOM     57  O   UNL A   1      40.567  24.151  26.057  1.00  0.00    -0.237 OA
ATOM     58  O   UNL A   1      42.078  25.737  24.931  1.00  0.00    -0.744 OA
ENDBRANCH  54  55
ENDBRANCH  26  49
BRANCH  38  59
ATOM     59  C   UNL A   1      44.241  28.928  35.658  1.00  0.00    -0.014 A 
ATOM     60  C   UNL A   1      43.999  27.796  36.459  1.00  0.00     0.010 A 
ATOM     61  C   UNL A   1      45.561  29.392  35.510  1.00  0.00     0.010 A 
ATOM     62  C   UNL A   1      45.048  27.177  37.142  1.00  0.00     0.020 A 
ATOM     63  C   UNL A   1      46.617  28.753  36.163  1.00  0.00     0.020 A 
ATOM     64  C   UNL A   1      46.350  27.664  36.994  1.00  0.00     0.054 A 
BRANCH  64  65
ATOM     65  S   UNL A   1      47.694  26.840  37.888  1.00  0.00     0.124 S 
ATOM     66  O   UNL A   1      48.467  26.249  36.799  1.00  0.00    -0.237 OA
ATOM     67  O   UNL A   1      48.338  27.947  38.589  1.00  0.00    -0.237 OA
ATOM     68  O   UNL A   1      47.002  25.883  38.749  1.00  0.00    -0.744 OA
ENDBRANCH  64  65
ENDBRANCH  38  59
ENDBRANCH  12  13
ENDBRANCH   5   7
ENDBRANCH   2   3
ENDBRANCH   1   2
BRANCH   1  69
ATOM     69  C   UNL A   1      32.062  30.464  26.051  1.00  0.00     0.002 C 
BRANCH  69  70
ATOM     70  C   UNL A   1      33.203  29.619  26.629  1.00  0.00     0.002 C 
BRANCH  70  71
ATOM     71  C   UNL A   1      32.789  28.234  27.139  1.00  0.00     0.021 C 
BRANCH  71  72
ATOM     72  C   UNL A   1      31.305  27.933  26.960  1.00  0.00     0.116 C 
BRANCH  72  73
ATOM     73  N   UNL A   1      31.067  26.503  26.991  1.00  0.00    -0.351 N 
ATOM     74  C   UNL A   1      30.494  25.647  26.111  1.00  0.00     0.278 C 
ATOM     75  H   UNL A   1      31.385  26.069  27.814  1.00  0.00     0.163 HD
ATOM     76  O   UNL A   1      30.196  24.533  26.567  1.00  0.00    -0.268 OA
BRANCH  74  77
ATOM     77  C   UNL A   1      30.304  25.913  24.604  1.00  0.00     0.275 C 
ATOM     78  C   UNL A   1      28.833  26.289  24.319  1.00  0.00     0.085 C 
ATOM     79  N   UNL A   1      31.131  26.993  24.026  1.00  0.00    -0.320 N 
ATOM     80  C   UNL A   1      28.945  27.439  23.332  1.00  0.00     0.054 C 
ATOM     81  C   UNL A   1      30.216  28.125  23.811  1.00  0.00     0.188 C 
ATOM     82  H   UNL A   1      31.861  27.221  24.700  1.00  0.00     0.349 HD
ATOM     83  C   UNL A   1      27.765  28.397  23.276  1.00  0.00     0.010 C 
ATOM     84  C   UNL A   1      30.588  29.316  22.929  1.00  0.00     0.065 C 
ATOM     85  C   UNL A   1      28.113  29.600  22.395  1.00  0.00     0.001 C 
ATOM     86  C   UNL A   1      29.406  30.290  22.844  1.00  0.00     0.006 C 
BRANCH  79  87
ATOM     87  C   UNL A   1      32.169  26.718  23.024  1.00  0.00     0.186 C 
ATOM     88  C   UNL A   1      33.622  26.798  23.553  1.00  0.00     0.081 C 
ATOM     89  C   UNL A   1      32.022  25.462  22.146  1.00  0.00     0.081 C 
ATOM     90  C   UNL A   1      34.082  25.650  24.428  1.00  0.00     0.143 C 
ATOM     91  C   UNL A   1      32.250  24.143  22.857  1.00  0.00     0.143 C 
ATOM     92  S   UNL A   1      33.833  24.055  23.672  1.00  0.00     0.150 S 
ATOM     93  O   UNL A   1      33.714  23.079  24.736  1.00  0.00    -0.229 OA
ATOM     94  O   UNL A   1      34.842  23.900  22.637  1.00  0.00    -0.229 OA
ENDBRANCH  79  87
ENDBRANCH  74  77
ENDBRANCH  72  73
ENDBRANCH  71  72
ENDBRANCH  70  71
ENDBRANCH  69  70
ENDBRANCH   1  69
TORSDOF 17
ENDMDL
