MODEL 1
REMARK VINA RESULT:     -11.5      0.000      0.000
REMARK SMILES Cc1ccc(NC(=O)CN2C(=O)S/C(=C\c3cc(Cl)c(OCC(=O)NCCCCCCNC(=O)c4ccc(-c5c6nc(c(-c7ccc(S(=O)(=O)[O-])cc7)c7ccc([nH]7)c(-c7ccc(S(=O)(=O)[O-])cc7)c7nc(c(-c8ccc(S(=O)(=O)[O-])cc8)c8ccc5[nH]8)C=C7)C=C6)cc4)c(Cl)c3)C2=O)cc1
REMARK SMILES IDX 27 1 26 2 25 3 23 4 24 5 22 7 21 8 20 9 16 10 17 11 97 12
REMARK SMILES IDX 18 13 95 14 19 15 96 16 15 17 10 18 11 19 98 20 12 21 13 22
REMARK SMILES IDX 14 23 99 24 9 25 7 26 6 27 8 29 5 30 1 31 2 32 3 33 101 34
REMARK SMILES IDX 4 35 100 36 28 37 29 38 30 39 31 40 32 41 33 42 34 44 35 45
REMARK SMILES IDX 36 46 94 47 37 48 93 49 38 50 39 51 40 52 87 53 41 54 92 55
REMARK SMILES IDX 86 56 88 57 42 58 91 59 85 60 84 61 43 63 73 64 54 65 72 66
REMARK SMILES IDX 55 67 58 68 71 69 89 70 56 71 57 72 70 74 90 75 59 76 44 77
REMARK SMILES IDX 45 78 53 79 46 80 52 81 47 82 48 83 49 84 50 85 51 86 74 87
REMARK SMILES IDX 75 88 83 89 76 90 82 91 77 92 78 93 79 94 80 95 81 96 60 97
REMARK SMILES IDX 61 98 69 99 62 100 68 101 63 102 64 103 65 104 66 105 67 106
REMARK H PARENT 25 6 6 28 32 43 88 62 58 73
REMARK Flexibility Score: inf
ROOT
ATOM      1  C   UNL A   1      33.611  21.614  25.200  1.00  0.00     0.021 C 
ENDROOT
BRANCH   1   2
ATOM      2  C   UNL A   1      32.543  22.398  24.445  1.00  0.00     0.116 C 
BRANCH   2   3
ATOM      3  N   UNL A   1      32.791  22.454  23.020  1.00  0.00    -0.353 N 
ATOM      4  C   UNL A   1      33.254  23.499  22.278  1.00  0.00     0.257 C 
ATOM      5  O   UNL A   1      33.610  23.271  21.121  1.00  0.00    -0.271 OA
ATOM      6  H   UNL A   1      32.601  21.628  22.521  1.00  0.00     0.163 HD
BRANCH   4   7
ATOM      7  C   UNL A   1      33.392  24.892  22.918  1.00  0.00     0.329 C 
BRANCH   7   8
ATOM      8  O   UNL A   1      32.386  25.859  22.683  1.00  0.00    -0.481 OA
BRANCH   8   9
ATOM      9  C   UNL A   1      32.281  27.028  23.385  1.00  0.00     0.157 A 
ATOM     10  C   UNL A   1      31.773  29.302  25.057  1.00  0.00    -0.021 A 
ATOM     11  C   UNL A   1      31.085  28.114  25.271  1.00  0.00     0.032 A 
ATOM     12  C   UNL A   1      32.673  29.344  23.985  1.00  0.00     0.032 A 
ATOM     13  C   UNL A   1      31.329  27.002  24.437  1.00  0.00     0.085 A 
ATOM     14  C   UNL A   1      32.987  28.220  23.208  1.00  0.00     0.085 A 
ATOM     15  Cl  UNL A   1      30.416  25.562  24.766  1.00  0.00    -0.080 Cl
ATOM     16  Cl  UNL A   1      34.347  28.469  22.178  1.00  0.00    -0.080 Cl
BRANCH  10  17
ATOM     17  C   UNL A   1      31.550  30.531  25.850  1.00  0.00     0.029 C 
ATOM     18  N   UNL A   1      33.745  32.586  27.764  1.00  0.00    -0.259 N 
ATOM     19  C   UNL A   1      34.568  31.500  27.757  1.00  0.00     0.294 C 
ATOM     20  C   UNL A   1      32.468  32.374  27.264  1.00  0.00     0.268 C 
ATOM     21  O   UNL A   1      35.800  31.486  27.789  1.00  0.00    -0.261 OA
ATOM     22  S   UNL A   1      33.630  30.043  27.595  1.00  0.00    -0.022 SA
ATOM     23  C   UNL A   1      32.345  30.932  26.859  1.00  0.00     0.083 C 
ATOM     24  O   UNL A   1      31.637  33.225  27.033  1.00  0.00    -0.268 OA
BRANCH  18  25
ATOM     25  C   UNL A   1      34.310  33.926  27.828  1.00  0.00     0.230 C 
BRANCH  25  26
ATOM     26  C   UNL A   1      33.916  34.681  29.102  1.00  0.00     0.244 C 
ATOM     27  N   UNL A   1      34.692  34.636  30.224  1.00  0.00    -0.325 N 
ATOM     28  H   UNL A   1      34.657  35.450  30.777  1.00  0.00     0.169 HD
ATOM     29  O   UNL A   1      32.893  35.375  29.127  1.00  0.00    -0.273 OA
BRANCH  27  30
ATOM     30  C   UNL A   1      35.530  33.631  30.726  1.00  0.00     0.041 A 
ATOM     31  C   UNL A   1      37.919  30.288  32.043  1.00  0.00     0.044 C 
ATOM     32  C   UNL A   1      37.074  31.441  31.590  1.00  0.00    -0.051 A 
ATOM     33  C   UNL A   1      37.674  32.530  30.951  1.00  0.00     0.005 A 
ATOM     34  C   UNL A   1      35.691  31.453  31.790  1.00  0.00     0.005 A 
ATOM     35  C   UNL A   1      36.907  33.616  30.520  1.00  0.00     0.026 A 
ATOM     36  C   UNL A   1      34.924  32.534  31.348  1.00  0.00     0.026 A 
ENDBRANCH  27  30
ENDBRANCH  25  26
ENDBRANCH  18  25
ENDBRANCH  10  17
ENDBRANCH   8   9
ENDBRANCH   7   8
ENDBRANCH   4   7
ENDBRANCH   2   3
ENDBRANCH   1   2
BRANCH   1  37
ATOM     37  C   UNL A   1      34.851  21.204  24.392  1.00  0.00     0.002 C 
BRANCH  37  38
ATOM     38  C   UNL A   1      35.948  22.259  24.186  1.00  0.00     0.002 C 
BRANCH  38  39
ATOM     39  C   UNL A   1      36.147  23.274  25.309  1.00  0.00     0.021 C 
BRANCH  39  40
ATOM     40  C   UNL A   1      37.551  23.857  25.396  1.00  0.00     0.116 C 
BRANCH  40  41
ATOM     41  N   UNL A   1      38.460  23.037  26.190  1.00  0.00    -0.352 N 
ATOM     42  C   UNL A   1      39.701  23.393  26.696  1.00  0.00     0.251 C 
ATOM     43  H   UNL A   1      38.157  22.121  26.389  1.00  0.00     0.163 HD
ATOM     44  O   UNL A   1      40.569  22.588  27.002  1.00  0.00    -0.269 OA
BRANCH  42  45
ATOM     45  C   UNL A   1      39.881  24.822  27.003  1.00  0.00     0.039 A 
ATOM     46  C   UNL A   1      40.625  25.571  26.079  1.00  0.00     0.014 A 
ATOM     47  C   UNL A   1      39.701  25.244  28.314  1.00  0.00     0.014 A 
ATOM     48  C   UNL A   1      41.397  26.625  26.534  1.00  0.00     0.010 A 
ATOM     49  C   UNL A   1      40.559  26.202  28.788  1.00  0.00     0.010 A 
ATOM     50  C   UNL A   1      41.437  26.845  27.905  1.00  0.00    -0.014 A 
BRANCH  50  51
ATOM     51  C   UNL A   1      42.364  27.744  28.556  1.00  0.00     0.031 A 
ATOM     52  C   UNL A   1      41.850  29.064  28.949  1.00  0.00     0.074 A 
ATOM     53  C   UNL A   1      43.564  27.260  28.937  1.00  0.00     0.049 A 
ATOM     54  N   UNL A   1      42.586  30.044  29.327  1.00  0.00    -0.248 NA
ATOM     55  C   UNL A   1      40.427  29.408  28.886  1.00  0.00     0.031 C 
ATOM     56  C   UNL A   1      44.499  27.809  29.913  1.00  0.00     0.029 A 
ATOM     57  N   UNL A   1      44.279  26.236  28.332  1.00  0.00    -0.354 N 
ATOM     58  C   UNL A   1      41.747  30.992  29.868  1.00  0.00     0.074 A 
ATOM     59  C   UNL A   1      40.422  30.619  29.447  1.00  0.00     0.031 C 
ATOM     60  C   UNL A   1      45.721  27.293  29.683  1.00  0.00     0.029 A 
ATOM     61  C   UNL A   1      45.643  26.529  28.445  1.00  0.00     0.049 A 
ATOM     62  H   UNL A   1      43.893  25.442  27.898  1.00  0.00     0.167 HD
ATOM     63  C   UNL A   1      42.272  31.877  30.756  1.00  0.00     0.031 A 
ATOM     64  C   UNL A   1      46.353  26.839  27.315  1.00  0.00     0.031 A 
ATOM     65  C   UNL A   1      43.732  31.785  30.752  1.00  0.00     0.049 A 
ATOM     66  C   UNL A   1      46.783  28.295  27.283  1.00  0.00     0.074 A 
ATOM     67  C   UNL A   1      44.636  31.170  31.600  1.00  0.00     0.029 A 
ATOM     68  N   UNL A   1      44.410  32.046  29.566  1.00  0.00    -0.354 N 
ATOM     69  N   UNL A   1      46.208  29.249  27.967  1.00  0.00    -0.248 NA
ATOM     70  C   UNL A   1      47.932  28.779  26.522  1.00  0.00     0.031 C 
ATOM     71  C   UNL A   1      45.830  30.943  30.859  1.00  0.00     0.029 A 
ATOM     72  C   UNL A   1      45.663  31.463  29.585  1.00  0.00     0.049 A 
ATOM     73  H   UNL A   1      44.048  32.573  28.818  1.00  0.00     0.167 HD
ATOM     74  C   UNL A   1      46.889  30.425  27.793  1.00  0.00     0.074 A 
ATOM     75  C   UNL A   1      47.959  30.077  26.873  1.00  0.00     0.031 C 
ATOM     76  C   UNL A   1      46.541  31.587  28.425  1.00  0.00     0.031 A 
BRANCH  63  77
ATOM     77  C   UNL A   1      41.479  32.623  31.805  1.00  0.00    -0.014 A 
ATOM     78  C   UNL A   1      41.088  31.936  32.973  1.00  0.00     0.010 A 
ATOM     79  C   UNL A   1      40.988  33.938  31.668  1.00  0.00     0.010 A 
ATOM     80  C   UNL A   1      40.231  32.511  33.924  1.00  0.00     0.020 A 
ATOM     81  C   UNL A   1      40.143  34.531  32.619  1.00  0.00     0.020 A 
ATOM     82  C   UNL A   1      39.758  33.806  33.737  1.00  0.00     0.054 A 
BRANCH  82  83
ATOM     83  S   UNL A   1      38.628  34.521  34.957  1.00  0.00     0.124 S 
ATOM     84  O   UNL A   1      37.398  34.685  34.186  1.00  0.00    -0.237 OA
ATOM     85  O   UNL A   1      38.592  33.493  35.993  1.00  0.00    -0.237 OA
ATOM     86  O   UNL A   1      39.283  35.770  35.347  1.00  0.00    -0.744 OA
ENDBRANCH  82  83
ENDBRANCH  63  77
BRANCH  64  87
ATOM     87  C   UNL A   1      45.960  25.997  26.137  1.00  0.00    -0.014 A 
ATOM     88  C   UNL A   1      46.881  25.003  25.728  1.00  0.00     0.010 A 
ATOM     89  C   UNL A   1      44.613  25.853  25.758  1.00  0.00     0.010 A 
ATOM     90  C   UNL A   1      46.443  23.814  25.134  1.00  0.00     0.020 A 
ATOM     91  C   UNL A   1      44.173  24.664  25.144  1.00  0.00     0.020 A 
ATOM     92  C   UNL A   1      45.082  23.628  24.902  1.00  0.00     0.054 A 
BRANCH  92  93
ATOM     93  S   UNL A   1      44.512  21.950  24.474  1.00  0.00     0.124 S 
ATOM     94  O   UNL A   1      45.631  21.122  24.914  1.00  0.00    -0.237 OA
ATOM     95  O   UNL A   1      43.287  21.823  25.265  1.00  0.00    -0.237 OA
ATOM     96  O   UNL A   1      44.314  22.019  23.030  1.00  0.00    -0.744 OA
ENDBRANCH  92  93
ENDBRANCH  64  87
BRANCH  76  97
ATOM     97  C   UNL A   1      47.044  32.972  28.074  1.00  0.00    -0.014 A 
ATOM     98  C   UNL A   1      48.077  33.633  28.752  1.00  0.00     0.010 A 
ATOM     99  C   UNL A   1      46.548  33.605  26.905  1.00  0.00     0.010 A 
ATOM    100  C   UNL A   1      48.537  34.890  28.336  1.00  0.00     0.020 A 
ATOM    101  C   UNL A   1      47.042  34.826  26.443  1.00  0.00     0.020 A 
ATOM    102  C   UNL A   1      48.014  35.479  27.186  1.00  0.00     0.054 A 
BRANCH 102 103
ATOM    103  S   UNL A   1      48.647  37.082  26.644  1.00  0.00     0.124 S 
ATOM    104  O   UNL A   1      48.778  37.796  27.912  1.00  0.00    -0.237 OA
ATOM    105  O   UNL A   1      49.906  36.729  25.991  1.00  0.00    -0.237 OA
ATOM    106  O   UNL A   1      47.608  37.581  25.748  1.00  0.00    -0.744 OA
ENDBRANCH 102 103
ENDBRANCH  76  97
ENDBRANCH  50  51
ENDBRANCH  42  45
ENDBRANCH  40  41
ENDBRANCH  39  40
ENDBRANCH  38  39
ENDBRANCH  37  38
ENDBRANCH   1  37
TORSDOF 22
ENDMDL
MODEL 2
REMARK VINA RESULT:      -9.8      4.221     11.362
REMARK SMILES Cc1ccc(NC(=O)CN2C(=O)S/C(=C\c3cc(Cl)c(OCC(=O)NCCCCCCNC(=O)c4ccc(-c5c6nc(c(-c7ccc(S(=O)(=O)[O-])cc7)c7ccc([nH]7)c(-c7ccc(S(=O)(=O)[O-])cc7)c7nc(c(-c8ccc(S(=O)(=O)[O-])cc8)c8ccc5[nH]8)C=C7)C=C6)cc4)c(Cl)c3)C2=O)cc1
REMARK SMILES IDX 27 1 26 2 25 3 23 4 24 5 22 7 21 8 20 9 16 10 17 11 97 12
REMARK SMILES IDX 18 13 95 14 19 15 96 16 15 17 10 18 11 19 98 20 12 21 13 22
REMARK SMILES IDX 14 23 99 24 9 25 7 26 6 27 8 29 5 30 1 31 2 32 3 33 101 34
REMARK SMILES IDX 4 35 100 36 28 37 29 38 30 39 31 40 32 41 33 42 34 44 35 45
REMARK SMILES IDX 36 46 94 47 37 48 93 49 38 50 39 51 40 52 87 53 41 54 92 55
REMARK SMILES IDX 86 56 88 57 42 58 91 59 85 60 84 61 43 63 73 64 54 65 72 66
REMARK SMILES IDX 55 67 58 68 71 69 89 70 56 71 57 72 70 74 90 75 59 76 44 77
REMARK SMILES IDX 45 78 53 79 46 80 52 81 47 82 48 83 49 84 50 85 51 86 74 87
REMARK SMILES IDX 75 88 83 89 76 90 82 91 77 92 78 93 79 94 80 95 81 96 60 97
REMARK SMILES IDX 61 98 69 99 62 100 68 101 63 102 64 103 65 104 66 105 67 106
REMARK H PARENT 25 6 6 28 32 43 88 62 58 73
REMARK Flexibility Score: inf
ROOT
ATOM      1  C   UNL A   1      36.504  32.169  32.624  1.00  0.00     0.021 C 
ENDROOT
BRANCH   1   2
ATOM      2  C   UNL A   1      35.362  33.065  32.156  1.00  0.00     0.116 C 
BRANCH   2   3
ATOM      3  N   UNL A   1      35.700  33.837  30.980  1.00  0.00    -0.353 N 
ATOM      4  C   UNL A   1      35.391  33.583  29.678  1.00  0.00     0.257 C 
ATOM      5  O   UNL A   1      35.577  34.481  28.856  1.00  0.00    -0.271 OA
ATOM      6  H   UNL A   1      36.222  34.655  31.143  1.00  0.00     0.163 HD
BRANCH   4   7
ATOM      7  C   UNL A   1      34.756  32.235  29.291  1.00  0.00     0.329 C 
BRANCH   7   8
ATOM      8  O   UNL A   1      34.678  31.880  27.923  1.00  0.00    -0.481 OA
BRANCH   8   9
ATOM      9  C   UNL A   1      33.792  30.963  27.429  1.00  0.00     0.157 A 
ATOM     10  C   UNL A   1      32.211  28.769  26.473  1.00  0.00    -0.021 A 
ATOM     11  C   UNL A   1      33.451  28.532  27.054  1.00  0.00     0.032 A 
ATOM     12  C   UNL A   1      31.803  30.102  26.343  1.00  0.00     0.032 A 
ATOM     13  C   UNL A   1      34.230  29.616  27.511  1.00  0.00     0.085 A 
ATOM     14  C   UNL A   1      32.529  31.178  26.873  1.00  0.00     0.085 A 
ATOM     15  Cl  UNL A   1      35.772  29.230  28.212  1.00  0.00    -0.080 Cl
ATOM     16  Cl  UNL A   1      31.650  32.661  26.855  1.00  0.00    -0.080 Cl
BRANCH  10  17
ATOM     17  C   UNL A   1      31.347  27.701  25.925  1.00  0.00     0.029 C 
ATOM     18  N   UNL A   1      32.039  24.395  24.788  1.00  0.00    -0.259 N 
ATOM     19  C   UNL A   1      33.326  24.833  24.684  1.00  0.00     0.294 C 
ATOM     20  C   UNL A   1      31.092  25.374  25.056  1.00  0.00     0.268 C 
ATOM     21  O   UNL A   1      34.359  24.176  24.818  1.00  0.00    -0.261 OA
ATOM     22  S   UNL A   1      33.349  26.552  24.417  1.00  0.00    -0.022 SA
ATOM     23  C   UNL A   1      31.787  26.703  25.137  1.00  0.00     0.083 C 
ATOM     24  O   UNL A   1      29.929  25.189  25.341  1.00  0.00    -0.268 OA
BRANCH  18  25
ATOM     25  C   UNL A   1      31.769  22.994  25.076  1.00  0.00     0.230 C 
BRANCH  25  26
ATOM     26  C   UNL A   1      32.139  22.596  26.510  1.00  0.00     0.244 C 
ATOM     27  N   UNL A   1      33.092  21.652  26.761  1.00  0.00    -0.325 N 
ATOM     28  H   UNL A   1      33.588  21.787  27.601  1.00  0.00     0.169 HD
ATOM     29  O   UNL A   1      31.596  23.150  27.472  1.00  0.00    -0.273 OA
BRANCH  27  30
ATOM     30  C   UNL A   1      33.486  20.522  26.032  1.00  0.00     0.041 A 
ATOM     31  C   UNL A   1      34.368  17.077  23.587  1.00  0.00     0.044 C 
ATOM     32  C   UNL A   1      34.046  18.267  24.441  1.00  0.00    -0.051 A 
ATOM     33  C   UNL A   1      34.893  19.379  24.427  1.00  0.00     0.005 A 
ATOM     34  C   UNL A   1      32.910  18.293  25.255  1.00  0.00     0.005 A 
ATOM     35  C   UNL A   1      34.614  20.499  25.216  1.00  0.00     0.026 A 
ATOM     36  C   UNL A   1      32.625  19.419  26.033  1.00  0.00     0.026 A 
ENDBRANCH  27  30
ENDBRANCH  25  26
ENDBRANCH  18  25
ENDBRANCH  10  17
ENDBRANCH   8   9
ENDBRANCH   7   8
ENDBRANCH   4   7
ENDBRANCH   2   3
ENDBRANCH   1   2
BRANCH   1  37
ATOM     37  C   UNL A   1      36.512  30.736  32.074  1.00  0.00     0.002 C 
BRANCH  37  38
ATOM     38  C   UNL A   1      37.847  29.977  32.082  1.00  0.00     0.002 C 
BRANCH  38  39
ATOM     39  C   UNL A   1      38.226  29.236  30.802  1.00  0.00     0.021 C 
BRANCH  39  40
ATOM     40  C   UNL A   1      39.217  29.973  29.912  1.00  0.00     0.116 C 
BRANCH  40  41
ATOM     41  N   UNL A   1      38.892  31.387  29.747  1.00  0.00    -0.352 N 
ATOM     42  C   UNL A   1      39.403  32.463  30.456  1.00  0.00     0.251 C 
ATOM     43  H   UNL A   1      38.230  31.601  29.050  1.00  0.00     0.163 HD
ATOM     44  O   UNL A   1      38.837  33.543  30.557  1.00  0.00    -0.269 OA
BRANCH  42  45
ATOM     45  C   UNL A   1      40.772  32.298  30.972  1.00  0.00     0.039 A 
ATOM     46  C   UNL A   1      41.811  32.416  30.037  1.00  0.00     0.014 A 
ATOM     47  C   UNL A   1      40.946  31.641  32.184  1.00  0.00     0.014 A 
ATOM     48  C   UNL A   1      42.959  31.663  30.209  1.00  0.00     0.010 A 
ATOM     49  C   UNL A   1      42.024  30.800  32.292  1.00  0.00     0.010 A 
ATOM     50  C   UNL A   1      42.992  30.778  31.279  1.00  0.00    -0.014 A 
BRANCH  50  51
ATOM     51  C   UNL A   1      44.005  29.764  31.464  1.00  0.00     0.031 A 
ATOM     52  C   UNL A   1      43.728  28.432  30.907  1.00  0.00     0.074 A 
ATOM     53  C   UNL A   1      45.205  30.140  31.952  1.00  0.00     0.049 A 
ATOM     54  N   UNL A   1      44.410  27.379  31.173  1.00  0.00    -0.248 NA
ATOM     55  C   UNL A   1      42.587  28.168  30.025  1.00  0.00     0.031 C 
ATOM     56  C   UNL A   1      46.479  29.433  31.881  1.00  0.00     0.029 A 
ATOM     57  N   UNL A   1      45.459  31.194  32.818  1.00  0.00    -0.354 N 
ATOM     58  C   UNL A   1      44.031  26.415  30.267  1.00  0.00     0.074 A 
ATOM     59  C   UNL A   1      42.812  26.899  29.676  1.00  0.00     0.031 C 
ATOM     60  C   UNL A   1      47.298  29.914  32.835  1.00  0.00     0.029 A 
ATOM     61  C   UNL A   1      46.514  30.825  33.659  1.00  0.00     0.049 A 
ATOM     62  H   UNL A   1      44.979  32.053  32.837  1.00  0.00     0.167 HD
ATOM     63  C   UNL A   1      44.903  25.405  30.007  1.00  0.00     0.031 A 
ATOM     64  C   UNL A   1      46.264  30.620  34.991  1.00  0.00     0.031 A 
ATOM     65  C   UNL A   1      45.998  25.426  30.977  1.00  0.00     0.049 A 
ATOM     66  C   UNL A   1      46.394  29.159  35.386  1.00  0.00     0.074 A 
ATOM     67  C   UNL A   1      47.300  25.890  30.913  1.00  0.00     0.029 A 
ATOM     68  N   UNL A   1      45.693  25.278  32.326  1.00  0.00    -0.354 N 
ATOM     69  N   UNL A   1      46.305  28.158  34.549  1.00  0.00    -0.248 NA
ATOM     70  C   UNL A   1      46.692  28.716  36.745  1.00  0.00     0.031 C 
ATOM     71  C   UNL A   1      47.728  26.148  32.247  1.00  0.00     0.029 A 
ATOM     72  C   UNL A   1      46.705  25.793  33.113  1.00  0.00     0.049 A 
ATOM     73  H   UNL A   1      44.870  24.863  32.673  1.00  0.00     0.167 HD
ATOM     74  C   UNL A   1      46.560  26.980  35.201  1.00  0.00     0.074 A 
ATOM     75  C   UNL A   1      46.793  27.385  36.578  1.00  0.00     0.031 C 
ATOM     76  C   UNL A   1      46.582  25.768  34.567  1.00  0.00     0.031 A 
BRANCH  63  77
ATOM     77  C   UNL A   1      44.916  24.577  28.744  1.00  0.00    -0.014 A 
ATOM     78  C   UNL A   1      45.840  24.904  27.730  1.00  0.00     0.010 A 
ATOM     79  C   UNL A   1      43.993  23.556  28.432  1.00  0.00     0.010 A 
ATOM     80  C   UNL A   1      45.820  24.280  26.472  1.00  0.00     0.020 A 
ATOM     81  C   UNL A   1      43.971  22.913  27.185  1.00  0.00     0.020 A 
ATOM     82  C   UNL A   1      44.878  23.290  26.205  1.00  0.00     0.054 A 
BRANCH  82  83
ATOM     83  S   UNL A   1      44.845  22.518  24.569  1.00  0.00     0.124 S 
ATOM     84  O   UNL A   1      45.281  21.154  24.858  1.00  0.00    -0.237 OA
ATOM     85  O   UNL A   1      43.445  22.665  24.180  1.00  0.00    -0.237 OA
ATOM     86  O   UNL A   1      45.790  23.315  23.788  1.00  0.00    -0.744 OA
ENDBRANCH  82  83
ENDBRANCH  63  77
BRANCH  64  87
ATOM     87  C   UNL A   1      45.295  31.616  35.555  1.00  0.00    -0.014 A 
ATOM     88  C   UNL A   1      45.761  32.943  35.706  1.00  0.00     0.010 A 
ATOM     89  C   UNL A   1      43.906  31.400  35.495  1.00  0.00     0.010 A 
ATOM     90  C   UNL A   1      44.886  34.031  35.603  1.00  0.00     0.020 A 
ATOM     91  C   UNL A   1      43.022  32.493  35.410  1.00  0.00     0.020 A 
ATOM     92  C   UNL A   1      43.528  33.798  35.394  1.00  0.00     0.054 A 
BRANCH  92  93
ATOM     93  S   UNL A   1      42.487  35.211  34.904  1.00  0.00     0.124 S 
ATOM     94  O   UNL A   1      41.160  34.780  35.331  1.00  0.00    -0.237 OA
ATOM     95  O   UNL A   1      43.068  36.312  35.674  1.00  0.00    -0.237 OA
ATOM     96  O   UNL A   1      42.684  35.292  33.461  1.00  0.00    -0.744 OA
ENDBRANCH  92  93
ENDBRANCH  64  87
BRANCH  76  97
ATOM     97  C   UNL A   1      46.564  24.414  35.244  1.00  0.00    -0.014 A 
ATOM     98  C   UNL A   1      45.450  23.875  35.904  1.00  0.00     0.010 A 
ATOM     99  C   UNL A   1      47.688  23.560  35.100  1.00  0.00     0.010 A 
ATOM    100  C   UNL A   1      45.481  22.588  36.457  1.00  0.00     0.020 A 
ATOM    101  C   UNL A   1      47.708  22.253  35.590  1.00  0.00     0.020 A 
ATOM    102  C   UNL A   1      46.611  21.786  36.299  1.00  0.00     0.054 A 
BRANCH 102 103
ATOM    103  S   UNL A   1      46.617  20.115  36.985  1.00  0.00     0.124 S 
ATOM    104  O   UNL A   1      45.850  20.295  38.216  1.00  0.00    -0.237 OA
ATOM    105  O   UNL A   1      45.955  19.334  35.943  1.00  0.00    -0.237 OA
ATOM    106  O   UNL A   1      48.035  19.820  37.168  1.00  0.00    -0.744 OA
ENDBRANCH 102 103
ENDBRANCH  76  97
ENDBRANCH  50  51
ENDBRANCH  42  45
ENDBRANCH  40  41
ENDBRANCH  39  40
ENDBRANCH  38  39
ENDBRANCH  37  38
ENDBRANCH   1  37
TORSDOF 22
ENDMDL
MODEL 3
REMARK VINA RESULT:      -9.7      7.426     15.073
REMARK SMILES Cc1ccc(NC(=O)CN2C(=O)S/C(=C\c3cc(Cl)c(OCC(=O)NCCCCCCNC(=O)c4ccc(-c5c6nc(c(-c7ccc(S(=O)(=O)[O-])cc7)c7ccc([nH]7)c(-c7ccc(S(=O)(=O)[O-])cc7)c7nc(c(-c8ccc(S(=O)(=O)[O-])cc8)c8ccc5[nH]8)C=C7)C=C6)cc4)c(Cl)c3)C2=O)cc1
REMARK SMILES IDX 27 1 26 2 25 3 23 4 24 5 22 7 21 8 20 9 16 10 17 11 97 12
REMARK SMILES IDX 18 13 95 14 19 15 96 16 15 17 10 18 11 19 98 20 12 21 13 22
REMARK SMILES IDX 14 23 99 24 9 25 7 26 6 27 8 29 5 30 1 31 2 32 3 33 101 34
REMARK SMILES IDX 4 35 100 36 28 37 29 38 30 39 31 40 32 41 33 42 34 44 35 45
REMARK SMILES IDX 36 46 94 47 37 48 93 49 38 50 39 51 40 52 87 53 41 54 92 55
REMARK SMILES IDX 86 56 88 57 42 58 91 59 85 60 84 61 43 63 73 64 54 65 72 66
REMARK SMILES IDX 55 67 58 68 71 69 89 70 56 71 57 72 70 74 90 75 59 76 44 77
REMARK SMILES IDX 45 78 53 79 46 80 52 81 47 82 48 83 49 84 50 85 51 86 74 87
REMARK SMILES IDX 75 88 83 89 76 90 82 91 77 92 78 93 79 94 80 95 81 96 60 97
REMARK SMILES IDX 61 98 69 99 62 100 68 101 63 102 64 103 65 104 66 105 67 106
REMARK H PARENT 25 6 6 28 32 43 88 62 58 73
REMARK Flexibility Score: inf
ROOT
ATOM      1  C   UNL A   1      43.200  37.665  33.335  1.00  0.00     0.021 C 
ENDROOT
BRANCH   1   2
ATOM      2  C   UNL A   1      43.923  38.837  32.679  1.00  0.00     0.116 C 
BRANCH   2   3
ATOM      3  N   UNL A   1      43.124  40.043  32.647  1.00  0.00    -0.353 N 
ATOM      4  C   UNL A   1      42.582  40.675  31.568  1.00  0.00     0.257 C 
ATOM      5  O   UNL A   1      41.748  41.557  31.776  1.00  0.00    -0.271 OA
ATOM      6  H   UNL A   1      42.948  40.462  33.519  1.00  0.00     0.163 HD
BRANCH   4   7
ATOM      7  C   UNL A   1      42.960  40.223  30.146  1.00  0.00     0.329 C 
BRANCH   7   8
ATOM      8  O   UNL A   1      44.175  40.677  29.581  1.00  0.00    -0.481 OA
BRANCH   8   9
ATOM      9  C   UNL A   1      44.249  41.377  28.408  1.00  0.00     0.157 A 
ATOM     10  C   UNL A   1      44.566  43.136  26.165  1.00  0.00    -0.021 A 
ATOM     11  C   UNL A   1      45.046  43.509  27.414  1.00  0.00     0.032 A 
ATOM     12  C   UNL A   1      43.900  41.908  26.069  1.00  0.00     0.032 A 
ATOM     13  C   UNL A   1      44.876  42.646  28.517  1.00  0.00     0.085 A 
ATOM     14  C   UNL A   1      43.805  41.006  27.138  1.00  0.00     0.085 A 
ATOM     15  Cl  UNL A   1      45.493  43.197  30.044  1.00  0.00    -0.080 Cl
ATOM     16  Cl  UNL A   1      43.225  39.453  26.662  1.00  0.00    -0.080 Cl
BRANCH  10  17
ATOM     17  C   UNL A   1      44.658  43.993  24.963  1.00  0.00     0.029 C 
ATOM     18  N   UNL A   1      45.688  43.334  21.615  1.00  0.00    -0.259 N 
ATOM     19  C   UNL A   1      46.302  42.241  22.149  1.00  0.00     0.294 C 
ATOM     20  C   UNL A   1      45.169  44.239  22.530  1.00  0.00     0.268 C 
ATOM     21  O   UNL A   1      46.509  41.153  21.610  1.00  0.00    -0.261 OA
ATOM     22  S   UNL A   1      46.703  42.541  23.816  1.00  0.00    -0.022 SA
ATOM     23  C   UNL A   1      45.466  43.742  23.916  1.00  0.00     0.083 C 
ATOM     24  O   UNL A   1      44.455  45.185  22.279  1.00  0.00    -0.268 OA
BRANCH  18  25
ATOM     25  C   UNL A   1      45.202  43.296  20.243  1.00  0.00     0.230 C 
BRANCH  25  26
ATOM     26  C   UNL A   1      43.738  42.855  20.139  1.00  0.00     0.244 C 
ATOM     27  N   UNL A   1      42.931  43.302  19.132  1.00  0.00    -0.325 N 
ATOM     28  H   UNL A   1      42.232  42.665  18.857  1.00  0.00     0.169 HD
ATOM     29  O   UNL A   1      43.266  42.057  20.955  1.00  0.00    -0.273 OA
BRANCH  27  30
ATOM     30  C   UNL A   1      42.925  44.511  18.423  1.00  0.00     0.041 A 
ATOM     31  C   UNL A   1      42.528  48.258  16.322  1.00  0.00     0.044 C 
ATOM     32  C   UNL A   1      42.653  46.949  17.042  1.00  0.00    -0.051 A 
ATOM     33  C   UNL A   1      43.518  46.840  18.134  1.00  0.00     0.005 A 
ATOM     34  C   UNL A   1      41.918  45.828  16.647  1.00  0.00     0.005 A 
ATOM     35  C   UNL A   1      43.652  45.630  18.821  1.00  0.00     0.026 A 
ATOM     36  C   UNL A   1      42.043  44.622  17.343  1.00  0.00     0.026 A 
ENDBRANCH  27  30
ENDBRANCH  25  26
ENDBRANCH  18  25
ENDBRANCH  10  17
ENDBRANCH   8   9
ENDBRANCH   7   8
ENDBRANCH   4   7
ENDBRANCH   2   3
ENDBRANCH   1   2
BRANCH   1  37
ATOM     37  C   UNL A   1      43.456  37.463  34.835  1.00  0.00     0.002 C 
BRANCH  37  38
ATOM     38  C   UNL A   1      43.445  36.023  35.371  1.00  0.00     0.002 C 
BRANCH  38  39
ATOM     39  C   UNL A   1      43.468  35.853  36.888  1.00  0.00     0.021 C 
BRANCH  39  40
ATOM     40  C   UNL A   1      42.268  35.114  37.462  1.00  0.00     0.116 C 
BRANCH  40  41
ATOM     41  N   UNL A   1      41.367  35.986  38.211  1.00  0.00    -0.352 N 
ATOM     42  C   UNL A   1      40.147  36.498  37.798  1.00  0.00     0.251 C 
ATOM     43  H   UNL A   1      41.662  36.241  39.115  1.00  0.00     0.163 HD
ATOM     44  O   UNL A   1      39.633  37.501  38.275  1.00  0.00    -0.269 OA
BRANCH  42  45
ATOM     45  C   UNL A   1      39.397  35.673  36.836  1.00  0.00     0.039 A 
ATOM     46  C   UNL A   1      38.593  34.660  37.377  1.00  0.00     0.014 A 
ATOM     47  C   UNL A   1      39.827  35.644  35.516  1.00  0.00     0.014 A 
ATOM     48  C   UNL A   1      38.418  33.487  36.663  1.00  0.00     0.010 A 
ATOM     49  C   UNL A   1      39.763  34.440  34.863  1.00  0.00     0.010 A 
ATOM     50  C   UNL A   1      39.108  33.357  35.465  1.00  0.00    -0.014 A 
BRANCH  50  51
ATOM     51  C   UNL A   1      39.219  32.122  34.721  1.00  0.00     0.031 A 
ATOM     52  C   UNL A   1      40.534  31.465  34.710  1.00  0.00     0.074 A 
ATOM     53  C   UNL A   1      38.089  31.551  34.255  1.00  0.00     0.049 A 
ATOM     54  N   UNL A   1      40.855  30.500  33.928  1.00  0.00    -0.248 NA
ATOM     55  C   UNL A   1      41.641  31.902  35.565  1.00  0.00     0.031 C 
ATOM     56  C   UNL A   1      37.874  30.173  33.829  1.00  0.00     0.029 A 
ATOM     57  N   UNL A   1      36.922  32.201  33.878  1.00  0.00    -0.354 N 
ATOM     58  C   UNL A   1      42.039  29.979  34.398  1.00  0.00     0.074 A 
ATOM     59  C   UNL A   1      42.554  30.959  35.317  1.00  0.00     0.031 C 
ATOM     60  C   UNL A   1      36.779  30.124  33.048  1.00  0.00     0.029 A 
ATOM     61  C   UNL A   1      36.357  31.499  32.808  1.00  0.00     0.049 A 
ATOM     62  H   UNL A   1      36.556  33.015  34.292  1.00  0.00     0.167 HD
ATOM     63  C   UNL A   1      42.343  28.694  34.076  1.00  0.00     0.031 A 
ATOM     64  C   UNL A   1      36.333  32.081  31.568  1.00  0.00     0.031 A 
ATOM     65  C   UNL A   1      41.426  28.204  33.047  1.00  0.00     0.049 A 
ATOM     66  C   UNL A   1      37.264  31.390  30.586  1.00  0.00     0.074 A 
ATOM     67  C   UNL A   1      40.305  27.395  33.097  1.00  0.00     0.029 A 
ATOM     68  N   UNL A   1      41.388  28.864  31.824  1.00  0.00    -0.354 N 
ATOM     69  N   UNL A   1      38.284  30.649  30.934  1.00  0.00    -0.248 NA
ATOM     70  C   UNL A   1      37.083  31.433  29.138  1.00  0.00     0.031 C 
ATOM     71  C   UNL A   1      39.521  27.679  31.943  1.00  0.00     0.029 A 
ATOM     72  C   UNL A   1      40.192  28.620  31.177  1.00  0.00     0.049 A 
ATOM     73  H   UNL A   1      42.113  29.427  31.467  1.00  0.00     0.167 HD
ATOM     74  C   UNL A   1      38.861  30.097  29.820  1.00  0.00     0.074 A 
ATOM     75  C   UNL A   1      38.073  30.624  28.719  1.00  0.00     0.031 C 
ATOM     76  C   UNL A   1      39.924  29.238  29.882  1.00  0.00     0.031 A 
BRANCH  63  77
ATOM     77  C   UNL A   1      43.277  27.803  34.863  1.00  0.00    -0.014 A 
ATOM     78  C   UNL A   1      44.180  26.980  34.159  1.00  0.00     0.010 A 
ATOM     79  C   UNL A   1      43.249  27.633  36.263  1.00  0.00     0.010 A 
ATOM     80  C   UNL A   1      44.976  26.023  34.807  1.00  0.00     0.020 A 
ATOM     81  C   UNL A   1      44.050  26.690  36.925  1.00  0.00     0.020 A 
ATOM     82  C   UNL A   1      44.901  25.879  36.189  1.00  0.00     0.054 A 
BRANCH  82  83
ATOM     83  S   UNL A   1      45.910  24.618  37.005  1.00  0.00     0.124 S 
ATOM     84  O   UNL A   1      46.077  25.171  38.347  1.00  0.00    -0.237 OA
ATOM     85  O   UNL A   1      45.066  23.430  36.912  1.00  0.00    -0.237 OA
ATOM     86  O   UNL A   1      47.130  24.574  36.200  1.00  0.00    -0.744 OA
ENDBRANCH  82  83
ENDBRANCH  63  77
BRANCH  64  87
ATOM     87  C   UNL A   1      36.023  33.547  31.625  1.00  0.00    -0.014 A 
ATOM     88  C   UNL A   1      35.034  34.024  30.732  1.00  0.00     0.010 A 
ATOM     89  C   UNL A   1      36.311  34.312  32.769  1.00  0.00     0.010 A 
ATOM     90  C   UNL A   1      34.227  35.117  31.067  1.00  0.00     0.020 A 
ATOM     91  C   UNL A   1      35.512  35.424  33.099  1.00  0.00     0.020 A 
ATOM     92  C   UNL A   1      34.433  35.772  32.279  1.00  0.00     0.054 A 
BRANCH  92  93
ATOM     93  S   UNL A   1      33.152  36.939  32.846  1.00  0.00     0.124 S 
ATOM     94  O   UNL A   1      33.482  37.099  34.258  1.00  0.00    -0.237 OA
ATOM     95  O   UNL A   1      33.401  38.112  32.005  1.00  0.00    -0.237 OA
ATOM     96  O   UNL A   1      31.906  36.232  32.570  1.00  0.00    -0.744 OA
ENDBRANCH  92  93
ENDBRANCH  64  87
BRANCH  76  97
ATOM     97  C   UNL A   1      40.794  28.820  28.715  1.00  0.00    -0.014 A 
ATOM     98  C   UNL A   1      41.489  29.715  27.888  1.00  0.00     0.010 A 
ATOM     99  C   UNL A   1      41.046  27.440  28.507  1.00  0.00     0.010 A 
ATOM    100  C   UNL A   1      42.327  29.258  26.862  1.00  0.00     0.020 A 
ATOM    101  C   UNL A   1      41.928  26.974  27.531  1.00  0.00     0.020 A 
ATOM    102  C   UNL A   1      42.539  27.891  26.688  1.00  0.00     0.054 A 
BRANCH 102 103
ATOM    103  S   UNL A   1      43.654  27.324  25.384  1.00  0.00     0.124 S 
ATOM    104  O   UNL A   1      42.925  27.713  24.179  1.00  0.00    -0.237 OA
ATOM    105  O   UNL A   1      44.875  28.081  25.650  1.00  0.00    -0.237 OA
ATOM    106  O   UNL A   1      43.757  25.886  25.616  1.00  0.00    -0.744 OA
ENDBRANCH 102 103
ENDBRANCH  76  97
ENDBRANCH  50  51
ENDBRANCH  42  45
ENDBRANCH  40  41
ENDBRANCH  39  40
ENDBRANCH  38  39
ENDBRANCH  37  38
ENDBRANCH   1  37
TORSDOF 22
ENDMDL
