MODEL 1
REMARK VINA RESULT:     -10.9      0.000      0.000
REMARK SMILES COc1cc(-c2cccc(C(N)=O)c2)ccc1C(=O)NCCCCCCNC(=O)c1ccc(-c2c3nc(c(-c4ccc(S(=O)(=O)[O-])cc4)c4ccc([nH]4)c(-c4ccc(S(=O)(=O)[O-])cc4)c4nc(c(-c5ccc(S(=O)(=O)[O-])cc5)c5ccc2[nH]5)C=C4)C=C3)cc1
REMARK SMILES IDX 24 1 23 2 22 3 21 4 20 5 18 6 19 7 17 9 3 10 4 11 5 12 16 13
REMARK SMILES IDX 15 14 2 15 1 16 6 17 7 18 14 19 8 20 10 21 9 22 11 23 12 24
REMARK SMILES IDX 13 25 25 28 26 29 27 30 28 31 29 33 30 34 31 35 89 36 32 37
REMARK SMILES IDX 88 38 33 39 34 40 35 41 82 42 36 43 87 44 81 45 83 46 37 47
REMARK SMILES IDX 86 48 80 49 79 50 38 52 68 53 49 54 67 55 50 56 53 57 66 58
REMARK SMILES IDX 84 59 51 60 52 61 65 63 85 64 54 65 39 66 40 67 48 68 41 69
REMARK SMILES IDX 47 70 42 71 43 72 44 73 45 74 46 75 69 76 70 77 78 78 71 79
REMARK SMILES IDX 77 80 72 81 73 82 74 83 75 84 76 85 55 86 56 87 64 88 57 89
REMARK SMILES IDX 63 90 58 91 59 92 60 93 61 94 62 95
REMARK H PARENT 20 8 12 26 12 27 27 32 83 51 53 62
REMARK Flexibility Score: inf
ROOT
ATOM      1  C   UNL A   1      34.306  24.822  25.334  1.00  0.00     0.002 C 
ENDROOT
BRANCH   1   2
ATOM      2  C   UNL A   1      34.353  26.302  25.731  1.00  0.00     0.002 C 
BRANCH   2   3
ATOM      3  C   UNL A   1      33.377  27.245  25.021  1.00  0.00     0.021 C 
BRANCH   3   4
ATOM      4  C   UNL A   1      33.722  27.598  23.579  1.00  0.00     0.116 C 
BRANCH   4   5
ATOM      5  N   UNL A   1      32.582  27.802  22.710  1.00  0.00    -0.352 N 
ATOM      6  C   UNL A   1      31.573  26.928  22.376  1.00  0.00     0.255 C 
ATOM      7  O   UNL A   1      30.665  27.334  21.649  1.00  0.00    -0.269 OA
ATOM      8  H   UNL A   1      32.520  28.695  22.299  1.00  0.00     0.163 HD
BRANCH   6   9
ATOM      9  C   UNL A   1      31.578  25.493  22.783  1.00  0.00     0.081 A 
ATOM     10  C   UNL A   1      30.784  24.908  23.773  1.00  0.00     0.132 A 
ATOM     11  C   UNL A   1      31.036  23.595  24.191  1.00  0.00     0.056 A 
ATOM     12  C   UNL A   1      32.010  22.794  23.575  1.00  0.00    -0.015 A 
ATOM     13  C   UNL A   1      32.495  24.672  22.102  1.00  0.00     0.018 A 
ATOM     14  C   UNL A   1      32.703  23.341  22.487  1.00  0.00     0.010 A 
BRANCH  10  15
ATOM     15  O   UNL A   1      29.797  25.541  24.476  1.00  0.00    -0.496 OA
ATOM     16  C   UNL A   1      30.018  25.515  25.885  1.00  0.00     0.278 C 
ENDBRANCH  10  15
BRANCH  12  17
ATOM     17  C   UNL A   1      32.315  21.452  24.105  1.00  0.00    -0.017 A 
ATOM     18  C   UNL A   1      32.663  21.263  25.451  1.00  0.00     0.009 A 
ATOM     19  C   UNL A   1      32.344  20.329  23.257  1.00  0.00     0.022 A 
ATOM     20  C   UNL A   1      33.051  20.010  25.928  1.00  0.00     0.001 A 
ATOM     21  C   UNL A   1      32.733  19.062  23.725  1.00  0.00     0.040 A 
ATOM     22  C   UNL A   1      33.092  18.912  25.069  1.00  0.00     0.014 A 
BRANCH  21  23
ATOM     23  C   UNL A   1      32.758  17.938  22.741  1.00  0.00     0.248 C 
ATOM     24  N   UNL A   1      31.748  17.847  21.823  1.00  0.00    -0.366 N 
ATOM     25  O   UNL A   1      33.654  17.105  22.742  1.00  0.00    -0.270 OA
ATOM     26  H   UNL A   1      31.025  18.515  21.818  1.00  0.00     0.159 HD
ATOM     27  H   UNL A   1      31.745  17.114  21.165  1.00  0.00     0.159 HD
ENDBRANCH  21  23
ENDBRANCH  12  17
ENDBRANCH   6   9
ENDBRANCH   4   5
ENDBRANCH   3   4
ENDBRANCH   2   3
ENDBRANCH   1   2
BRANCH   1  28
ATOM     28  C   UNL A   1      35.647  24.100  25.193  1.00  0.00     0.021 C 
BRANCH  28  29
ATOM     29  C   UNL A   1      36.258  23.562  26.482  1.00  0.00     0.116 C 
BRANCH  29  30
ATOM     30  N   UNL A   1      37.329  22.608  26.250  1.00  0.00    -0.352 N 
ATOM     31  C   UNL A   1      38.689  22.790  26.296  1.00  0.00     0.251 C 
ATOM     32  H   UNL A   1      37.034  21.695  26.028  1.00  0.00     0.163 HD
ATOM     33  O   UNL A   1      39.435  21.881  25.940  1.00  0.00    -0.269 OA
BRANCH  31  34
ATOM     34  C   UNL A   1      39.257  24.083  26.739  1.00  0.00     0.039 A 
ATOM     35  C   UNL A   1      39.141  24.440  28.086  1.00  0.00     0.014 A 
ATOM     36  C   UNL A   1      39.891  24.946  25.841  1.00  0.00     0.014 A 
ATOM     37  C   UNL A   1      39.715  25.629  28.541  1.00  0.00     0.010 A 
ATOM     38  C   UNL A   1      40.527  26.094  26.311  1.00  0.00     0.010 A 
ATOM     39  C   UNL A   1      40.446  26.449  27.666  1.00  0.00    -0.014 A 
BRANCH  39  40
ATOM     40  C   UNL A   1      41.130  27.677  28.151  1.00  0.00     0.031 A 
ATOM     41  C   UNL A   1      42.633  27.766  28.128  1.00  0.00     0.074 A 
ATOM     42  C   UNL A   1      40.401  28.693  28.655  1.00  0.00     0.049 A 
ATOM     43  N   UNL A   1      43.409  28.724  28.568  1.00  0.00    -0.248 NA
ATOM     44  C   UNL A   1      43.363  26.622  27.553  1.00  0.00     0.031 C 
ATOM     45  C   UNL A   1      38.939  28.715  28.766  1.00  0.00     0.029 A 
ATOM     46  N   UNL A   1      40.788  29.903  29.178  1.00  0.00    -0.354 N 
ATOM     47  C   UNL A   1      44.710  28.301  28.325  1.00  0.00     0.074 A 
ATOM     48  C   UNL A   1      44.624  26.975  27.754  1.00  0.00     0.031 C 
ATOM     49  C   UNL A   1      38.555  29.885  29.301  1.00  0.00     0.029 A 
ATOM     50  C   UNL A   1      39.739  30.679  29.615  1.00  0.00     0.049 A 
ATOM     51  H   UNL A   1      41.728  30.188  29.236  1.00  0.00     0.167 HD
ATOM     52  C   UNL A   1      45.872  28.968  28.529  1.00  0.00     0.031 A 
ATOM     53  C   UNL A   1      39.729  31.884  30.217  1.00  0.00     0.031 A 
ATOM     54  C   UNL A   1      45.956  30.289  29.094  1.00  0.00     0.049 A 
ATOM     55  C   UNL A   1      41.038  32.586  30.470  1.00  0.00     0.074 A 
ATOM     56  C   UNL A   1      47.086  31.056  29.320  1.00  0.00     0.029 A 
ATOM     57  N   UNL A   1      44.870  31.041  29.516  1.00  0.00    -0.354 N 
ATOM     58  N   UNL A   1      42.255  32.187  30.185  1.00  0.00    -0.248 NA
ATOM     59  C   UNL A   1      40.972  33.905  31.114  1.00  0.00     0.031 C 
ATOM     60  C   UNL A   1      46.688  32.252  29.926  1.00  0.00     0.029 A 
ATOM     61  C   UNL A   1      45.305  32.257  30.016  1.00  0.00     0.049 A 
ATOM     62  H   UNL A   1      43.930  30.754  29.468  1.00  0.00     0.167 HD
ATOM     63  C   UNL A   1      43.095  33.222  30.584  1.00  0.00     0.074 A 
ATOM     64  C   UNL A   1      42.246  34.270  31.111  1.00  0.00     0.031 C 
ATOM     65  C   UNL A   1      44.447  33.297  30.523  1.00  0.00     0.031 A 
BRANCH  52  66
ATOM     66  C   UNL A   1      47.153  28.287  28.122  1.00  0.00    -0.014 A 
ATOM     67  C   UNL A   1      47.693  27.249  28.903  1.00  0.00     0.010 A 
ATOM     68  C   UNL A   1      47.782  28.631  26.911  1.00  0.00     0.010 A 
ATOM     69  C   UNL A   1      48.851  26.583  28.493  1.00  0.00     0.020 A 
ATOM     70  C   UNL A   1      48.924  27.946  26.483  1.00  0.00     0.020 A 
ATOM     71  C   UNL A   1      49.456  26.932  27.283  1.00  0.00     0.054 A 
BRANCH  71  72
ATOM     72  S   UNL A   1      50.924  26.010  26.752  1.00  0.00     0.124 S 
ATOM     73  O   UNL A   1      50.715  25.913  25.309  1.00  0.00    -0.237 OA
ATOM     74  O   UNL A   1      52.018  26.884  27.169  1.00  0.00    -0.237 OA
ATOM     75  O   UNL A   1      50.826  24.748  27.481  1.00  0.00    -0.744 OA
ENDBRANCH  71  72
ENDBRANCH  52  66
BRANCH  53  76
ATOM     76  C   UNL A   1      38.442  32.506  30.642  1.00  0.00    -0.014 A 
ATOM     77  C   UNL A   1      37.940  32.310  31.942  1.00  0.00     0.010 A 
ATOM     78  C   UNL A   1      37.692  33.271  29.731  1.00  0.00     0.010 A 
ATOM     79  C   UNL A   1      36.690  32.825  32.304  1.00  0.00     0.020 A 
ATOM     80  C   UNL A   1      36.460  33.818  30.101  1.00  0.00     0.020 A 
ATOM     81  C   UNL A   1      35.956  33.572  31.378  1.00  0.00     0.054 A 
BRANCH  81  82
ATOM     82  S   UNL A   1      34.338  34.230  31.869  1.00  0.00     0.124 S 
ATOM     83  O   UNL A   1      34.709  35.467  32.549  1.00  0.00    -0.237 OA
ATOM     84  O   UNL A   1      33.660  34.391  30.585  1.00  0.00    -0.237 OA
ATOM     85  O   UNL A   1      33.791  33.183  32.728  1.00  0.00    -0.744 OA
ENDBRANCH  81  82
ENDBRANCH  53  76
BRANCH  65  86
ATOM     86  C   UNL A   1      45.095  34.575  30.989  1.00  0.00    -0.014 A 
ATOM     87  C   UNL A   1      45.478  34.755  32.331  1.00  0.00     0.010 A 
ATOM     88  C   UNL A   1      45.374  35.589  30.055  1.00  0.00     0.010 A 
ATOM     89  C   UNL A   1      46.095  35.943  32.734  1.00  0.00     0.020 A 
ATOM     90  C   UNL A   1      46.020  36.763  30.448  1.00  0.00     0.020 A 
ATOM     91  C   UNL A   1      46.364  36.938  31.789  1.00  0.00     0.054 A 
BRANCH  91  92
ATOM     92  S   UNL A   1      47.207  38.449  32.332  1.00  0.00     0.124 S 
ATOM     93  O   UNL A   1      48.389  37.914  33.002  1.00  0.00    -0.237 OA
ATOM     94  O   UNL A   1      47.460  39.144  31.072  1.00  0.00    -0.237 OA
ATOM     95  O   UNL A   1      46.233  39.096  33.209  1.00  0.00    -0.744 OA
ENDBRANCH  91  92
ENDBRANCH  65  86
ENDBRANCH  39  40
ENDBRANCH  31  34
ENDBRANCH  29  30
ENDBRANCH  28  29
ENDBRANCH   1  28
TORSDOF 19
ENDMDL
MODEL 2
REMARK VINA RESULT:     -10.9      2.880      5.312
REMARK SMILES COc1cc(-c2cccc(C(N)=O)c2)ccc1C(=O)NCCCCCCNC(=O)c1ccc(-c2c3nc(c(-c4ccc(S(=O)(=O)[O-])cc4)c4ccc([nH]4)c(-c4ccc(S(=O)(=O)[O-])cc4)c4nc(c(-c5ccc(S(=O)(=O)[O-])cc5)c5ccc2[nH]5)C=C4)C=C3)cc1
REMARK SMILES IDX 24 1 23 2 22 3 21 4 20 5 18 6 19 7 17 9 3 10 4 11 5 12 16 13
REMARK SMILES IDX 15 14 2 15 1 16 6 17 7 18 14 19 8 20 10 21 9 22 11 23 12 24
REMARK SMILES IDX 13 25 25 28 26 29 27 30 28 31 29 33 30 34 31 35 89 36 32 37
REMARK SMILES IDX 88 38 33 39 34 40 35 41 82 42 36 43 87 44 81 45 83 46 37 47
REMARK SMILES IDX 86 48 80 49 79 50 38 52 68 53 49 54 67 55 50 56 53 57 66 58
REMARK SMILES IDX 84 59 51 60 52 61 65 63 85 64 54 65 39 66 40 67 48 68 41 69
REMARK SMILES IDX 47 70 42 71 43 72 44 73 45 74 46 75 69 76 70 77 78 78 71 79
REMARK SMILES IDX 77 80 72 81 73 82 74 83 75 84 76 85 55 86 56 87 64 88 57 89
REMARK SMILES IDX 63 90 58 91 59 92 60 93 61 94 62 95
REMARK H PARENT 20 8 12 26 12 27 27 32 83 51 53 62
REMARK Flexibility Score: inf
ROOT
ATOM      1  C   UNL A   1      36.806  21.083  25.140  1.00  0.00     0.002 C 
ENDROOT
BRANCH   1   2
ATOM      2  C   UNL A   1      37.000  22.498  24.584  1.00  0.00     0.002 C 
BRANCH   2   3
ATOM      3  C   UNL A   1      36.315  23.642  25.337  1.00  0.00     0.021 C 
BRANCH   3   4
ATOM      4  C   UNL A   1      34.995  24.128  24.751  1.00  0.00     0.116 C 
BRANCH   4   5
ATOM      5  N   UNL A   1      34.627  23.521  23.488  1.00  0.00    -0.352 N 
ATOM      6  C   UNL A   1      33.632  23.879  22.608  1.00  0.00     0.255 C 
ATOM      7  O   UNL A   1      33.528  23.245  21.556  1.00  0.00    -0.269 OA
ATOM      8  H   UNL A   1      35.166  22.742  23.222  1.00  0.00     0.163 HD
BRANCH   6   9
ATOM      9  C   UNL A   1      32.626  24.938  22.910  1.00  0.00     0.081 A 
ATOM     10  C   UNL A   1      31.656  24.900  23.915  1.00  0.00     0.132 A 
ATOM     11  C   UNL A   1      30.648  25.871  23.956  1.00  0.00     0.056 A 
ATOM     12  C   UNL A   1      30.628  26.958  23.068  1.00  0.00    -0.015 A 
ATOM     13  C   UNL A   1      32.665  26.069  22.073  1.00  0.00     0.018 A 
ATOM     14  C   UNL A   1      31.686  27.067  22.156  1.00  0.00     0.010 A 
BRANCH  10  15
ATOM     15  O   UNL A   1      31.528  23.916  24.856  1.00  0.00    -0.496 OA
ATOM     16  C   UNL A   1      30.748  24.325  25.979  1.00  0.00     0.278 C 
ENDBRANCH  10  15
BRANCH  12  17
ATOM     17  C   UNL A   1      29.498  27.906  23.076  1.00  0.00    -0.017 A 
ATOM     18  C   UNL A   1      28.230  27.523  23.540  1.00  0.00     0.009 A 
ATOM     19  C   UNL A   1      29.638  29.202  22.545  1.00  0.00     0.022 A 
ATOM     20  C   UNL A   1      27.138  28.386  23.453  1.00  0.00     0.001 A 
ATOM     21  C   UNL A   1      28.545  30.081  22.451  1.00  0.00     0.040 A 
ATOM     22  C   UNL A   1      27.290  29.661  22.906  1.00  0.00     0.014 A 
BRANCH  21  23
ATOM     23  C   UNL A   1      28.788  31.426  21.847  1.00  0.00     0.248 C 
ATOM     24  N   UNL A   1      29.311  32.415  22.635  1.00  0.00    -0.366 N 
ATOM     25  O   UNL A   1      28.531  31.657  20.674  1.00  0.00    -0.270 OA
ATOM     26  H   UNL A   1      29.520  32.233  23.580  1.00  0.00     0.159 HD
ATOM     27  H   UNL A   1      29.479  33.307  22.257  1.00  0.00     0.159 HD
ENDBRANCH  21  23
ENDBRANCH  12  17
ENDBRANCH   6   9
ENDBRANCH   4   5
ENDBRANCH   3   4
ENDBRANCH   2   3
ENDBRANCH   1   2
BRANCH   1  28
ATOM     28  C   UNL A   1      38.004  20.135  25.056  1.00  0.00     0.021 C 
BRANCH  28  29
ATOM     29  C   UNL A   1      39.191  20.475  25.950  1.00  0.00     0.116 C 
BRANCH  29  30
ATOM     30  N   UNL A   1      40.210  19.439  25.962  1.00  0.00    -0.352 N 
ATOM     31  C   UNL A   1      41.572  19.551  26.091  1.00  0.00     0.251 C 
ATOM     32  H   UNL A   1      39.872  18.520  25.864  1.00  0.00     0.163 HD
ATOM     33  O   UNL A   1      42.280  18.558  25.947  1.00  0.00    -0.269 OA
BRANCH  31  34
ATOM     34  C   UNL A   1      42.192  20.867  26.369  1.00  0.00     0.039 A 
ATOM     35  C   UNL A   1      42.516  21.697  25.293  1.00  0.00     0.014 A 
ATOM     36  C   UNL A   1      42.464  21.282  27.676  1.00  0.00     0.014 A 
ATOM     37  C   UNL A   1      43.052  22.966  25.529  1.00  0.00     0.010 A 
ATOM     38  C   UNL A   1      42.929  22.575  27.912  1.00  0.00     0.010 A 
ATOM     39  C   UNL A   1      43.228  23.431  26.842  1.00  0.00    -0.014 A 
BRANCH  39  40
ATOM     40  C   UNL A   1      43.722  24.807  27.111  1.00  0.00     0.031 A 
ATOM     41  C   UNL A   1      45.176  25.145  26.905  1.00  0.00     0.074 A 
ATOM     42  C   UNL A   1      42.872  25.742  27.583  1.00  0.00     0.049 A 
ATOM     43  N   UNL A   1      45.804  26.267  27.148  1.00  0.00    -0.248 NA
ATOM     44  C   UNL A   1      46.042  24.077  26.376  1.00  0.00     0.031 C 
ATOM     45  C   UNL A   1      41.448  25.532  27.858  1.00  0.00     0.029 A 
ATOM     46  N   UNL A   1      43.083  27.055  27.925  1.00  0.00    -0.354 N 
ATOM     47  C   UNL A   1      47.131  26.042  26.803  1.00  0.00     0.074 A 
ATOM     48  C   UNL A   1      47.232  24.659  26.393  1.00  0.00     0.031 C 
ATOM     49  C   UNL A   1      40.911  26.678  28.305  1.00  0.00     0.029 A 
ATOM     50  C   UNL A   1      41.957  27.693  28.394  1.00  0.00     0.049 A 
ATOM     51  H   UNL A   1      43.957  27.500  27.843  1.00  0.00     0.167 HD
ATOM     52  C   UNL A   1      48.167  26.915  26.800  1.00  0.00     0.031 A 
ATOM     53  C   UNL A   1      41.786  28.946  28.860  1.00  0.00     0.031 A 
ATOM     54  C   UNL A   1      48.064  28.291  27.206  1.00  0.00     0.049 A 
ATOM     55  C   UNL A   1      42.965  29.884  28.884  1.00  0.00     0.074 A 
ATOM     56  C   UNL A   1      49.054  29.260  27.218  1.00  0.00     0.029 A 
ATOM     57  N   UNL A   1      46.906  28.898  27.668  1.00  0.00    -0.354 N 
ATOM     58  N   UNL A   1      44.202  29.662  28.505  1.00  0.00    -0.248 NA
ATOM     59  C   UNL A   1      42.723  31.244  29.385  1.00  0.00     0.031 C 
ATOM     60  C   UNL A   1      48.505  30.438  27.733  1.00  0.00     0.029 A 
ATOM     61  C   UNL A   1      47.159  30.222  27.980  1.00  0.00     0.049 A 
ATOM     62  H   UNL A   1      46.033  28.453  27.758  1.00  0.00     0.167 HD
ATOM     63  C   UNL A   1      44.874  30.865  28.692  1.00  0.00     0.074 A 
ATOM     64  C   UNL A   1      43.904  31.814  29.197  1.00  0.00     0.031 C 
ATOM     65  C   UNL A   1      46.179  31.158  28.468  1.00  0.00     0.031 A 
BRANCH  52  66
ATOM     66  C   UNL A   1      49.506  26.413  26.324  1.00  0.00    -0.014 A 
ATOM     67  C   UNL A   1      49.995  26.766  25.053  1.00  0.00     0.010 A 
ATOM     68  C   UNL A   1      50.318  25.646  27.180  1.00  0.00     0.010 A 
ATOM     69  C   UNL A   1      51.260  26.344  24.638  1.00  0.00     0.020 A 
ATOM     70  C   UNL A   1      51.597  25.247  26.779  1.00  0.00     0.020 A 
ATOM     71  C   UNL A   1      52.055  25.591  25.506  1.00  0.00     0.054 A 
BRANCH  71  72
ATOM     72  S   UNL A   1      53.715  25.108  24.957  1.00  0.00     0.124 S 
ATOM     73  O   UNL A   1      53.646  23.650  25.033  1.00  0.00    -0.237 OA
ATOM     74  O   UNL A   1      53.779  25.664  23.608  1.00  0.00    -0.237 OA
ATOM     75  O   UNL A   1      54.602  25.740  25.932  1.00  0.00    -0.744 OA
ENDBRANCH  71  72
ENDBRANCH  52  66
BRANCH  53  76
ATOM     76  C   UNL A   1      40.454  29.391  29.361  1.00  0.00    -0.014 A 
ATOM     77  C   UNL A   1      39.427  29.745  28.468  1.00  0.00     0.010 A 
ATOM     78  C   UNL A   1      40.220  29.498  30.744  1.00  0.00     0.010 A 
ATOM     79  C   UNL A   1      38.211  30.245  28.947  1.00  0.00     0.020 A 
ATOM     80  C   UNL A   1      38.994  29.962  31.227  1.00  0.00     0.020 A 
ATOM     81  C   UNL A   1      38.005  30.354  30.325  1.00  0.00     0.054 A 
BRANCH  81  82
ATOM     82  S   UNL A   1      36.421  31.004  30.926  1.00  0.00     0.124 S 
ATOM     83  O   UNL A   1      35.654  31.120  29.690  1.00  0.00    -0.237 OA
ATOM     84  O   UNL A   1      35.981  29.962  31.850  1.00  0.00    -0.237 OA
ATOM     85  O   UNL A   1      36.789  32.270  31.555  1.00  0.00    -0.744 OA
ENDBRANCH  81  82
ENDBRANCH  53  76
BRANCH  65  86
ATOM     86  C   UNL A   1      46.627  32.575  28.717  1.00  0.00    -0.014 A 
ATOM     87  C   UNL A   1      47.229  32.951  29.931  1.00  0.00     0.010 A 
ATOM     88  C   UNL A   1      46.490  33.532  27.694  1.00  0.00     0.010 A 
ATOM     89  C   UNL A   1      47.654  34.268  30.129  1.00  0.00     0.020 A 
ATOM     90  C   UNL A   1      46.944  34.841  27.877  1.00  0.00     0.020 A 
ATOM     91  C   UNL A   1      47.509  35.204  29.100  1.00  0.00     0.054 A 
BRANCH  91  92
ATOM     92  S   UNL A   1      48.111  36.894  29.369  1.00  0.00     0.124 S 
ATOM     93  O   UNL A   1      47.658  37.574  28.158  1.00  0.00    -0.237 OA
ATOM     94  O   UNL A   1      47.430  37.284  30.601  1.00  0.00    -0.237 OA
ATOM     95  O   UNL A   1      49.559  36.733  29.488  1.00  0.00    -0.744 OA
ENDBRANCH  91  92
ENDBRANCH  65  86
ENDBRANCH  39  40
ENDBRANCH  31  34
ENDBRANCH  29  30
ENDBRANCH  28  29
ENDBRANCH   1  28
TORSDOF 19
ENDMDL
MODEL 3
REMARK VINA RESULT:     -10.7      2.809      8.728
REMARK SMILES COc1cc(-c2cccc(C(N)=O)c2)ccc1C(=O)NCCCCCCNC(=O)c1ccc(-c2c3nc(c(-c4ccc(S(=O)(=O)[O-])cc4)c4ccc([nH]4)c(-c4ccc(S(=O)(=O)[O-])cc4)c4nc(c(-c5ccc(S(=O)(=O)[O-])cc5)c5ccc2[nH]5)C=C4)C=C3)cc1
REMARK SMILES IDX 24 1 23 2 22 3 21 4 20 5 18 6 19 7 17 9 3 10 4 11 5 12 16 13
REMARK SMILES IDX 15 14 2 15 1 16 6 17 7 18 14 19 8 20 10 21 9 22 11 23 12 24
REMARK SMILES IDX 13 25 25 28 26 29 27 30 28 31 29 33 30 34 31 35 89 36 32 37
REMARK SMILES IDX 88 38 33 39 34 40 35 41 82 42 36 43 87 44 81 45 83 46 37 47
REMARK SMILES IDX 86 48 80 49 79 50 38 52 68 53 49 54 67 55 50 56 53 57 66 58
REMARK SMILES IDX 84 59 51 60 52 61 65 63 85 64 54 65 39 66 40 67 48 68 41 69
REMARK SMILES IDX 47 70 42 71 43 72 44 73 45 74 46 75 69 76 70 77 78 78 71 79
REMARK SMILES IDX 77 80 72 81 73 82 74 83 75 84 76 85 55 86 56 87 64 88 57 89
REMARK SMILES IDX 63 90 58 91 59 92 60 93 61 94 62 95
REMARK H PARENT 20 8 12 26 12 27 27 32 83 51 53 62
REMARK Flexibility Score: inf
ROOT
ATOM      1  C   UNL A   1      33.179  29.653  26.770  1.00  0.00     0.002 C 
ENDROOT
BRANCH   1   2
ATOM      2  C   UNL A   1      32.977  29.610  25.251  1.00  0.00     0.002 C 
BRANCH   2   3
ATOM      3  C   UNL A   1      33.857  28.640  24.458  1.00  0.00     0.021 C 
BRANCH   3   4
ATOM      4  C   UNL A   1      33.716  28.701  22.942  1.00  0.00     0.116 C 
BRANCH   4   5
ATOM      5  N   UNL A   1      32.357  28.600  22.450  1.00  0.00    -0.352 N 
ATOM      6  C   UNL A   1      31.504  27.520  22.462  1.00  0.00     0.255 C 
ATOM      7  O   UNL A   1      30.360  27.674  22.030  1.00  0.00    -0.269 OA
ATOM      8  H   UNL A   1      31.991  29.421  22.049  1.00  0.00     0.163 HD
BRANCH   6   9
ATOM      9  C   UNL A   1      31.930  26.157  22.893  1.00  0.00     0.081 A 
ATOM     10  C   UNL A   1      31.494  25.472  24.031  1.00  0.00     0.132 A 
ATOM     11  C   UNL A   1      32.128  24.285  24.422  1.00  0.00     0.056 A 
ATOM     12  C   UNL A   1      33.139  23.694  23.647  1.00  0.00    -0.015 A 
ATOM     13  C   UNL A   1      32.879  25.528  22.067  1.00  0.00     0.018 A 
ATOM     14  C   UNL A   1      33.470  24.312  22.434  1.00  0.00     0.010 A 
BRANCH  10  15
ATOM     15  O   UNL A   1      30.527  25.903  24.896  1.00  0.00    -0.496 OA
ATOM     16  C   UNL A   1      31.065  26.559  26.042  1.00  0.00     0.278 C 
ENDBRANCH  10  15
BRANCH  12  17
ATOM     17  C   UNL A   1      33.851  22.499  24.139  1.00  0.00    -0.017 A 
ATOM     18  C   UNL A   1      35.220  22.542  24.444  1.00  0.00     0.009 A 
ATOM     19  C   UNL A   1      33.196  21.258  24.241  1.00  0.00     0.022 A 
ATOM     20  C   UNL A   1      35.915  21.389  24.811  1.00  0.00     0.001 A 
ATOM     21  C   UNL A   1      33.884  20.089  24.608  1.00  0.00     0.040 A 
ATOM     22  C   UNL A   1      35.253  20.163  24.889  1.00  0.00     0.014 A 
BRANCH  21  23
ATOM     23  C   UNL A   1      33.106  18.815  24.662  1.00  0.00     0.248 C 
ATOM     24  N   UNL A   1      33.566  17.734  23.961  1.00  0.00    -0.366 N 
ATOM     25  O   UNL A   1      32.075  18.721  25.315  1.00  0.00    -0.270 OA
ATOM     26  H   UNL A   1      34.396  17.805  23.435  1.00  0.00     0.159 HD
ATOM     27  H   UNL A   1      33.069  16.885  23.984  1.00  0.00     0.159 HD
ENDBRANCH  21  23
ENDBRANCH  12  17
ENDBRANCH   6   9
ENDBRANCH   4   5
ENDBRANCH   3   4
ENDBRANCH   2   3
ENDBRANCH   1   2
BRANCH   1  28
ATOM     28  C   UNL A   1      34.135  30.718  27.312  1.00  0.00     0.021 C 
BRANCH  28  29
ATOM     29  C   UNL A   1      35.328  30.205  28.111  1.00  0.00     0.116 C 
BRANCH  29  30
ATOM     30  N   UNL A   1      35.313  30.639  29.497  1.00  0.00    -0.352 N 
ATOM     31  C   UNL A   1      36.339  30.696  30.409  1.00  0.00     0.251 C 
ATOM     32  H   UNL A   1      34.437  30.938  29.832  1.00  0.00     0.163 HD
ATOM     33  O   UNL A   1      36.096  30.974  31.580  1.00  0.00    -0.269 OA
BRANCH  31  34
ATOM     34  C   UNL A   1      37.727  30.391  29.993  1.00  0.00     0.039 A 
ATOM     35  C   UNL A   1      38.667  30.073  30.977  1.00  0.00     0.014 A 
ATOM     36  C   UNL A   1      38.109  30.426  28.649  1.00  0.00     0.014 A 
ATOM     37  C   UNL A   1      39.970  29.729  30.609  1.00  0.00     0.010 A 
ATOM     38  C   UNL A   1      39.387  30.011  28.279  1.00  0.00     0.010 A 
ATOM     39  C   UNL A   1      40.331  29.658  29.254  1.00  0.00    -0.014 A 
BRANCH  39  40
ATOM     40  C   UNL A   1      41.691  29.217  28.842  1.00  0.00     0.031 A 
ATOM     41  C   UNL A   1      42.821  30.210  28.770  1.00  0.00     0.074 A 
ATOM     42  C   UNL A   1      41.898  27.932  28.490  1.00  0.00     0.049 A 
ATOM     43  N   UNL A   1      44.054  30.028  28.370  1.00  0.00    -0.248 NA
ATOM     44  C   UNL A   1      42.523  31.594  29.181  1.00  0.00     0.031 C 
ATOM     45  C   UNL A   1      40.877  26.879  28.483  1.00  0.00     0.029 A 
ATOM     46  N   UNL A   1      43.034  27.291  28.059  1.00  0.00    -0.354 N 
ATOM     47  C   UNL A   1      44.676  31.266  28.482  1.00  0.00     0.074 A 
ATOM     48  C   UNL A   1      43.671  32.205  28.927  1.00  0.00     0.031 C 
ATOM     49  C   UNL A   1      41.438  25.724  28.091  1.00  0.00     0.029 A 
ATOM     50  C   UNL A   1      42.843  25.958  27.773  1.00  0.00     0.049 A 
ATOM     51  H   UNL A   1      43.903  27.742  27.965  1.00  0.00     0.167 HD
ATOM     52  C   UNL A   1      45.974  31.587  28.262  1.00  0.00     0.031 A 
ATOM     53  C   UNL A   1      43.696  25.032  27.292  1.00  0.00     0.031 A 
ATOM     54  C   UNL A   1      46.973  30.650  27.823  1.00  0.00     0.049 A 
ATOM     55  C   UNL A   1      45.124  25.426  27.017  1.00  0.00     0.074 A 
ATOM     56  C   UNL A   1      48.320  30.875  27.593  1.00  0.00     0.029 A 
ATOM     57  N   UNL A   1      46.740  29.311  27.550  1.00  0.00    -0.354 N 
ATOM     58  N   UNL A   1      45.702  26.594  27.178  1.00  0.00    -0.248 NA
ATOM     59  C   UNL A   1      46.018  24.377  26.509  1.00  0.00     0.031 C 
ATOM     60  C   UNL A   1      48.890  29.684  27.134  1.00  0.00     0.029 A 
ATOM     61  C   UNL A   1      47.914  28.702  27.141  1.00  0.00     0.049 A 
ATOM     62  H   UNL A   1      45.870  28.860  27.636  1.00  0.00     0.167 HD
ATOM     63  C   UNL A   1      47.034  26.407  26.823  1.00  0.00     0.074 A 
ATOM     64  C   UNL A   1      47.180  25.013  26.459  1.00  0.00     0.031 C 
ATOM     65  C   UNL A   1      48.046  27.309  26.797  1.00  0.00     0.031 A 
BRANCH  52  66
ATOM     66  C   UNL A   1      46.396  33.011  28.513  1.00  0.00    -0.014 A 
ATOM     67  C   UNL A   1      46.897  33.402  29.768  1.00  0.00     0.010 A 
ATOM     68  C   UNL A   1      46.366  33.951  27.466  1.00  0.00     0.010 A 
ATOM     69  C   UNL A   1      47.339  34.710  29.979  1.00  0.00     0.020 A 
ATOM     70  C   UNL A   1      46.836  35.254  27.665  1.00  0.00     0.020 A 
ATOM     71  C   UNL A   1      47.310  35.627  28.924  1.00  0.00     0.054 A 
BRANCH  71  72
ATOM     72  S   UNL A   1      47.945  37.300  29.216  1.00  0.00     0.124 S 
ATOM     73  O   UNL A   1      46.919  38.126  28.583  1.00  0.00    -0.237 OA
ATOM     74  O   UNL A   1      47.996  37.372  30.674  1.00  0.00    -0.237 OA
ATOM     75  O   UNL A   1      49.244  37.302  28.548  1.00  0.00    -0.744 OA
ENDBRANCH  71  72
ENDBRANCH  52  66
BRANCH  53  76
ATOM     76  C   UNL A   1      43.228  23.644  27.018  1.00  0.00    -0.014 A 
ATOM     77  C   UNL A   1      43.128  22.697  28.054  1.00  0.00     0.010 A 
ATOM     78  C   UNL A   1      42.914  23.250  25.704  1.00  0.00     0.010 A 
ATOM     79  C   UNL A   1      42.772  21.373  27.773  1.00  0.00     0.020 A 
ATOM     80  C   UNL A   1      42.523  21.938  25.426  1.00  0.00     0.020 A 
ATOM     81  C   UNL A   1      42.476  21.002  26.458  1.00  0.00     0.054 A 
BRANCH  81  82
ATOM     82  S   UNL A   1      42.016  19.280  26.116  1.00  0.00     0.124 S 
ATOM     83  O   UNL A   1      40.568  19.378  25.971  1.00  0.00    -0.237 OA
ATOM     84  O   UNL A   1      42.759  18.992  24.892  1.00  0.00    -0.237 OA
ATOM     85  O   UNL A   1      42.479  18.562  27.302  1.00  0.00    -0.744 OA
ENDBRANCH  81  82
ENDBRANCH  53  76
BRANCH  65  86
ATOM     86  C   UNL A   1      49.414  26.809  26.411  1.00  0.00    -0.014 A 
ATOM     87  C   UNL A   1      50.226  26.115  27.327  1.00  0.00     0.010 A 
ATOM     88  C   UNL A   1      49.870  26.992  25.092  1.00  0.00     0.010 A 
ATOM     89  C   UNL A   1      51.483  25.644  26.938  1.00  0.00     0.020 A 
ATOM     90  C   UNL A   1      51.112  26.493  24.692  1.00  0.00     0.020 A 
ATOM     91  C   UNL A   1      51.917  25.835  25.622  1.00  0.00     0.054 A 
BRANCH  91  92
ATOM     92  S   UNL A   1      53.533  25.173  25.133  1.00  0.00     0.124 S 
ATOM     93  O   UNL A   1      53.363  23.743  25.376  1.00  0.00    -0.237 OA
ATOM     94  O   UNL A   1      53.628  25.565  23.729  1.00  0.00    -0.237 OA
ATOM     95  O   UNL A   1      54.471  25.849  26.028  1.00  0.00    -0.744 OA
ENDBRANCH  91  92
ENDBRANCH  65  86
ENDBRANCH  39  40
ENDBRANCH  31  34
ENDBRANCH  29  30
ENDBRANCH  28  29
ENDBRANCH   1  28
TORSDOF 19
ENDMDL
