MODEL 1
REMARK VINA RESULT:      -9.9      0.000      0.000
REMARK SMILES CC(C)C[C@H](NC(=O)[C@H](C)NC(=O)[C@@H](NC(=O)CNC(=O)OCc1ccccc1)C(C)C)C(=O)NCCCCCCNC(=O)c1ccc(-c2c3nc(c(-c4ccc(S(=O)(=O)[O-])cc4)c4ccc([nH]4)c(-c4ccc(S(=O)(=O)[O-])cc4)c4nc(c(-c5ccc(S(=O)(=O)[O-])cc5)c5ccc2[nH]5)C=C4)C=C3)cc1
REMARK SMILES IDX 33 1 34 2 35 3 5 5 4 6 2 7 1 8 3 9 6 10 7 11 8 13 9 14 10 15
REMARK SMILES IDX 11 16 12 17 13 19 14 20 15 21 16 22 17 24 18 25 19 26 20 27
REMARK SMILES IDX 21 29 22 30 23 31 24 32 25 33 29 34 26 35 28 36 27 37 30 38
REMARK SMILES IDX 31 39 32 40 36 41 37 42 38 43 39 44 40 45 41 46 42 47 43 48
REMARK SMILES IDX 44 50 45 51 46 52 104 53 47 54 103 55 48 56 49 57 50 58
REMARK SMILES IDX 97 59 51 60 102 61 96 62 98 63 52 64 101 65 95 66 94 67
REMARK SMILES IDX 53 69 83 70 64 71 82 72 65 73 68 74 81 75 99 76 66 77 67 78
REMARK SMILES IDX 80 80 100 81 69 82 54 83 55 84 63 85 56 86 62 87 57 88 58 89
REMARK SMILES IDX 59 90 60 91 61 92 84 93 85 94 93 95 86 96 92 97 87 98 88 99
REMARK SMILES IDX 89 100 90 101 91 102 70 103 71 104 79 105 72 106 78 107
REMARK SMILES IDX 73 108 74 109 75 110 76 111 77 112
REMARK H PARENT 35 4 6 12 11 18 15 23 19 28 42 49 98 68 68 79
REMARK Flexibility Score: inf
ROOT
ATOM      1  C   UNL A   1      31.814  30.423  25.489  1.00  0.00     0.242 C 
ATOM      2  O   UNL A   1      31.114  31.258  26.062  1.00  0.00    -0.273 OA
ATOM      3  N   UNL A   1      33.045  30.002  26.003  1.00  0.00    -0.354 N 
ATOM      4  H   UNL A   1      33.594  29.383  25.470  1.00  0.00     0.163 HD
ENDROOT
BRANCH   1   5
ATOM      5  C   UNL A   1      31.249  29.626  24.269  1.00  0.00     0.171 C 
BRANCH   5   6
ATOM      6  C   UNL A   1      29.850  30.314  24.089  1.00  0.00     0.038 C 
BRANCH   6   7
ATOM      7  C   UNL A   1      28.876  30.150  22.911  1.00  0.00    -0.015 C 
ATOM      8  C   UNL A   1      27.403  30.018  23.301  1.00  0.00     0.007 C 
ATOM      9  C   UNL A   1      29.013  31.433  22.056  1.00  0.00     0.007 C 
ENDBRANCH   6   7
ENDBRANCH   5   6
BRANCH   5  10
ATOM     10  N   UNL A   1      31.271  28.152  24.331  1.00  0.00    -0.343 N 
ATOM     11  C   UNL A   1      31.967  27.243  23.557  1.00  0.00     0.242 C 
ATOM     12  H   UNL A   1      30.703  27.755  25.032  1.00  0.00     0.164 HD
ATOM     13  O   UNL A   1      31.318  26.286  23.112  1.00  0.00    -0.273 OA
BRANCH  11  14
ATOM     14  C   UNL A   1      33.537  27.200  23.465  1.00  0.00     0.168 C 
ATOM     15  C   UNL A   1      34.033  27.919  22.217  1.00  0.00     0.041 C 
BRANCH  14  16
ATOM     16  N   UNL A   1      33.882  25.720  23.321  1.00  0.00    -0.343 N 
ATOM     17  C   UNL A   1      34.272  24.609  24.025  1.00  0.00     0.243 C 
ATOM     18  H   UNL A   1      33.791  25.471  22.373  1.00  0.00     0.164 HD
ATOM     19  O   UNL A   1      34.575  23.630  23.328  1.00  0.00    -0.273 OA
BRANCH  17  20
ATOM     20  C   UNL A   1      34.307  24.445  25.581  1.00  0.00     0.174 C 
BRANCH  20  21
ATOM     21  N   UNL A   1      33.000  24.673  26.165  1.00  0.00    -0.343 N 
ATOM     22  C   UNL A   1      31.984  23.783  26.300  1.00  0.00     0.240 C 
ATOM     23  H   UNL A   1      32.829  25.581  26.506  1.00  0.00     0.164 HD
ATOM     24  O   UNL A   1      31.015  24.129  26.975  1.00  0.00    -0.273 OA
BRANCH  22  25
ATOM     25  C   UNL A   1      32.130  22.361  25.728  1.00  0.00     0.219 C 
BRANCH  25  26
ATOM     26  N   UNL A   1      31.955  22.198  24.281  1.00  0.00    -0.312 N 
ATOM     27  C   UNL A   1      32.306  21.360  23.270  1.00  0.00     0.407 C 
ATOM     28  H   UNL A   1      31.404  22.934  23.927  1.00  0.00     0.167 HD
ATOM     29  O   UNL A   1      31.947  21.642  22.141  1.00  0.00    -0.225 OA
BRANCH  27  30
ATOM     30  O   UNL A   1      33.061  20.288  23.591  1.00  0.00    -0.445 OA
BRANCH  30  31
ATOM     31  C   UNL A   1      32.286  19.208  24.162  1.00  0.00     0.270 C 
BRANCH  31  32
ATOM     32  C   UNL A   1      33.021  17.916  24.471  1.00  0.00    -0.011 A 
ATOM     33  C   UNL A   1      32.404  16.805  25.055  1.00  0.00     0.007 A 
ATOM     34  C   UNL A   1      34.419  17.882  24.315  1.00  0.00     0.007 A 
ATOM     35  C   UNL A   1      33.153  15.703  25.481  1.00  0.00     0.000 A 
ATOM     36  C   UNL A   1      35.170  16.783  24.744  1.00  0.00     0.000 A 
ATOM     37  C   UNL A   1      34.536  15.695  25.335  1.00  0.00     0.000 A 
ENDBRANCH  31  32
ENDBRANCH  30  31
ENDBRANCH  27  30
ENDBRANCH  25  26
ENDBRANCH  22  25
ENDBRANCH  20  21
BRANCH  20  38
ATOM     38  C   UNL A   1      35.013  23.160  26.168  1.00  0.00     0.015 C 
ATOM     39  C   UNL A   1      36.517  23.039  25.949  1.00  0.00     0.010 C 
ATOM     40  C   UNL A   1      34.712  22.963  27.673  1.00  0.00     0.010 C 
ENDBRANCH  20  38
ENDBRANCH  17  20
ENDBRANCH  14  16
ENDBRANCH  11  14
ENDBRANCH   5  10
ENDBRANCH   1   5
BRANCH   3  41
ATOM     41  C   UNL A   1      33.552  30.450  27.313  1.00  0.00     0.116 C 
BRANCH  41  42
ATOM     42  C   UNL A   1      35.092  30.456  27.467  1.00  0.00     0.021 C 
BRANCH  42  43
ATOM     43  C   UNL A   1      35.747  31.808  27.813  1.00  0.00     0.002 C 
BRANCH  43  44
ATOM     44  C   UNL A   1      34.800  32.874  28.380  1.00  0.00     0.002 C 
BRANCH  44  45
ATOM     45  C   UNL A   1      34.876  33.089  29.894  1.00  0.00     0.021 C 
BRANCH  45  46
ATOM     46  C   UNL A   1      35.388  31.897  30.702  1.00  0.00     0.116 C 
BRANCH  46  47
ATOM     47  N   UNL A   1      35.765  32.231  32.069  1.00  0.00    -0.352 N 
ATOM     48  C   UNL A   1      36.943  31.960  32.729  1.00  0.00     0.251 C 
ATOM     49  H   UNL A   1      35.087  32.716  32.592  1.00  0.00     0.163 HD
ATOM     50  O   UNL A   1      37.090  32.252  33.910  1.00  0.00    -0.269 OA
BRANCH  48  51
ATOM     51  C   UNL A   1      38.017  31.273  31.990  1.00  0.00     0.039 A 
ATOM     52  C   UNL A   1      38.208  31.569  30.640  1.00  0.00     0.014 A 
ATOM     53  C   UNL A   1      38.891  30.422  32.670  1.00  0.00     0.014 A 
ATOM     54  C   UNL A   1      39.339  31.077  29.986  1.00  0.00     0.010 A 
ATOM     55  C   UNL A   1      40.051  29.988  32.033  1.00  0.00     0.010 A 
ATOM     56  C   UNL A   1      40.293  30.321  30.689  1.00  0.00    -0.014 A 
BRANCH  56  57
ATOM     57  C   UNL A   1      41.548  29.865  30.038  1.00  0.00     0.031 A 
ATOM     58  C   UNL A   1      42.699  30.825  29.891  1.00  0.00     0.074 A 
ATOM     59  C   UNL A   1      41.628  28.623  29.515  1.00  0.00     0.049 A 
ATOM     60  N   UNL A   1      43.837  30.656  29.271  1.00  0.00    -0.248 NA
ATOM     61  C   UNL A   1      42.532  32.160  30.491  1.00  0.00     0.031 C 
ATOM     62  C   UNL A   1      40.565  27.615  29.550  1.00  0.00     0.029 A 
ATOM     63  N   UNL A   1      42.650  27.998  28.843  1.00  0.00    -0.354 N 
ATOM     64  C   UNL A   1      44.506  31.871  29.376  1.00  0.00     0.074 A 
ATOM     65  C   UNL A   1      43.630  32.778  30.084  1.00  0.00     0.031 C 
ATOM     66  C   UNL A   1      40.999  26.494  28.947  1.00  0.00     0.029 A 
ATOM     67  C   UNL A   1      42.354  26.711  28.453  1.00  0.00     0.049 A 
ATOM     68  H   UNL A   1      43.514  28.431  28.657  1.00  0.00     0.167 HD
ATOM     69  C   UNL A   1      45.746  32.196  28.943  1.00  0.00     0.031 A 
ATOM     70  C   UNL A   1      43.093  25.811  27.772  1.00  0.00     0.031 A 
ATOM     71  C   UNL A   1      46.634  31.276  28.287  1.00  0.00     0.049 A 
ATOM     72  C   UNL A   1      44.485  26.187  27.336  1.00  0.00     0.074 A 
ATOM     73  C   UNL A   1      47.939  31.487  27.877  1.00  0.00     0.029 A 
ATOM     74  N   UNL A   1      46.314  29.968  27.960  1.00  0.00    -0.354 N 
ATOM     75  N   UNL A   1      45.124  27.320  27.509  1.00  0.00    -0.248 NA
ATOM     76  C   UNL A   1      45.263  25.160  26.627  1.00  0.00     0.031 C 
ATOM     77  C   UNL A   1      48.398  30.314  27.271  1.00  0.00     0.029 A 
ATOM     78  C   UNL A   1      47.394  29.361  27.346  1.00  0.00     0.049 A 
ATOM     79  H   UNL A   1      45.448  29.536  28.137  1.00  0.00     0.167 HD
ATOM     80  C   UNL A   1      46.388  27.128  26.964  1.00  0.00     0.074 A 
ATOM     81  C   UNL A   1      46.429  25.770  26.463  1.00  0.00     0.031 C 
ATOM     82  C   UNL A   1      47.425  27.997  26.885  1.00  0.00     0.031 A 
BRANCH  69  83
ATOM     83  C   UNL A   1      46.224  33.603  29.174  1.00  0.00    -0.014 A 
ATOM     84  C   UNL A   1      46.426  34.485  28.098  1.00  0.00     0.010 A 
ATOM     85  C   UNL A   1      46.418  34.067  30.488  1.00  0.00     0.010 A 
ATOM     86  C   UNL A   1      46.843  35.797  28.329  1.00  0.00     0.020 A 
ATOM     87  C   UNL A   1      46.809  35.388  30.724  1.00  0.00     0.020 A 
ATOM     88  C   UNL A   1      47.031  36.241  29.641  1.00  0.00     0.054 A 
BRANCH  88  89
ATOM     89  S   UNL A   1      47.526  37.965  29.913  1.00  0.00     0.124 S 
ATOM     90  O   UNL A   1      48.499  38.171  28.843  1.00  0.00    -0.237 OA
ATOM     91  O   UNL A   1      46.265  38.687  29.763  1.00  0.00    -0.237 OA
ATOM     92  O   UNL A   1      48.079  37.957  31.265  1.00  0.00    -0.744 OA
ENDBRANCH  88  89
ENDBRANCH  69  83
BRANCH  70  93
ATOM     93  C   UNL A   1      42.548  24.458  27.465  1.00  0.00    -0.014 A 
ATOM     94  C   UNL A   1      42.245  23.558  28.504  1.00  0.00     0.010 A 
ATOM     95  C   UNL A   1      42.365  24.047  26.133  1.00  0.00     0.010 A 
ATOM     96  C   UNL A   1      41.811  22.261  28.216  1.00  0.00     0.020 A 
ATOM     97  C   UNL A   1      41.904  22.759  25.841  1.00  0.00     0.020 A 
ATOM     98  C   UNL A   1      41.650  21.867  26.886  1.00  0.00     0.054 A 
BRANCH  98  99
ATOM     99  S   UNL A   1      41.077  20.182  26.530  1.00  0.00     0.124 S 
ATOM    100  O   UNL A   1      41.311  19.508  27.803  1.00  0.00    -0.237 OA
ATOM    101  O   UNL A   1      39.676  20.391  26.171  1.00  0.00    -0.237 OA
ATOM    102  O   UNL A   1      41.935  19.757  25.427  1.00  0.00    -0.744 OA
ENDBRANCH  98  99
ENDBRANCH  70  93
BRANCH  82 103
ATOM    103  C   UNL A   1      48.714  27.499  26.292  1.00  0.00    -0.014 A 
ATOM    104  C   UNL A   1      48.967  27.596  24.914  1.00  0.00     0.010 A 
ATOM    105  C   UNL A   1      49.720  27.011  27.146  1.00  0.00     0.010 A 
ATOM    106  C   UNL A   1      50.203  27.199  24.396  1.00  0.00     0.020 A 
ATOM    107  C   UNL A   1      50.964  26.636  26.636  1.00  0.00     0.020 A 
ATOM    108  C   UNL A   1      51.194  26.724  25.262  1.00  0.00     0.054 A 
BRANCH 108 109
ATOM    109  S   UNL A   1      52.814  26.283  24.577  1.00  0.00     0.124 S 
ATOM    110  O   UNL A   1      53.718  27.094  25.387  1.00  0.00    -0.237 OA
ATOM    111  O   UNL A   1      52.882  24.842  24.810  1.00  0.00    -0.237 OA
ATOM    112  O   UNL A   1      52.715  26.675  23.172  1.00  0.00    -0.744 OA
ENDBRANCH 108 109
ENDBRANCH  82 103
ENDBRANCH  56  57
ENDBRANCH  48  51
ENDBRANCH  46  47
ENDBRANCH  45  46
ENDBRANCH  44  45
ENDBRANCH  43  44
ENDBRANCH  42  43
ENDBRANCH  41  42
ENDBRANCH   3  41
TORSDOF 29
ENDMDL
MODEL 2
REMARK VINA RESULT:      -9.5      5.352      9.476
REMARK SMILES CC(C)C[C@H](NC(=O)[C@H](C)NC(=O)[C@@H](NC(=O)CNC(=O)OCc1ccccc1)C(C)C)C(=O)NCCCCCCNC(=O)c1ccc(-c2c3nc(c(-c4ccc(S(=O)(=O)[O-])cc4)c4ccc([nH]4)c(-c4ccc(S(=O)(=O)[O-])cc4)c4nc(c(-c5ccc(S(=O)(=O)[O-])cc5)c5ccc2[nH]5)C=C4)C=C3)cc1
REMARK SMILES IDX 33 1 34 2 35 3 5 5 4 6 2 7 1 8 3 9 6 10 7 11 8 13 9 14 10 15
REMARK SMILES IDX 11 16 12 17 13 19 14 20 15 21 16 22 17 24 18 25 19 26 20 27
REMARK SMILES IDX 21 29 22 30 23 31 24 32 25 33 29 34 26 35 28 36 27 37 30 38
REMARK SMILES IDX 31 39 32 40 36 41 37 42 38 43 39 44 40 45 41 46 42 47 43 48
REMARK SMILES IDX 44 50 45 51 46 52 104 53 47 54 103 55 48 56 49 57 50 58
REMARK SMILES IDX 97 59 51 60 102 61 96 62 98 63 52 64 101 65 95 66 94 67
REMARK SMILES IDX 53 69 83 70 64 71 82 72 65 73 68 74 81 75 99 76 66 77 67 78
REMARK SMILES IDX 80 80 100 81 69 82 54 83 55 84 63 85 56 86 62 87 57 88 58 89
REMARK SMILES IDX 59 90 60 91 61 92 84 93 85 94 93 95 86 96 92 97 87 98 88 99
REMARK SMILES IDX 89 100 90 101 91 102 70 103 71 104 79 105 72 106 78 107
REMARK SMILES IDX 73 108 74 109 75 110 76 111 77 112
REMARK H PARENT 35 4 6 12 11 18 15 23 19 28 42 49 98 68 68 79
REMARK Flexibility Score: inf
ROOT
ATOM      1  C   UNL A   1      33.224  29.518  25.718  1.00  0.00     0.242 C 
ATOM      2  O   UNL A   1      32.300  30.081  26.304  1.00  0.00    -0.273 OA
ATOM      3  N   UNL A   1      34.527  29.493  26.228  1.00  0.00    -0.354 N 
ATOM      4  H   UNL A   1      35.240  29.087  25.686  1.00  0.00     0.163 HD
ENDROOT
BRANCH   1   5
ATOM      5  C   UNL A   1      32.934  28.607  24.481  1.00  0.00     0.171 C 
BRANCH   5   6
ATOM      6  C   UNL A   1      31.420  28.932  24.224  1.00  0.00     0.038 C 
BRANCH   6   7
ATOM      7  C   UNL A   1      30.596  28.600  22.969  1.00  0.00    -0.015 C 
ATOM      8  C   UNL A   1      31.118  27.424  22.143  1.00  0.00     0.007 C 
ATOM      9  C   UNL A   1      29.182  28.217  23.472  1.00  0.00     0.007 C 
ENDBRANCH   6   7
ENDBRANCH   5   6
BRANCH   5  10
ATOM     10  N   UNL A   1      33.312  27.183  24.562  1.00  0.00    -0.343 N 
ATOM     11  C   UNL A   1      32.819  26.182  25.378  1.00  0.00     0.242 C 
ATOM     12  H   UNL A   1      34.022  26.903  23.940  1.00  0.00     0.164 HD
ATOM     13  O   UNL A   1      33.659  25.477  25.954  1.00  0.00    -0.273 OA
BRANCH  11  14
ATOM     14  C   UNL A   1      31.316  25.719  25.377  1.00  0.00     0.168 C 
ATOM     15  C   UNL A   1      30.574  26.261  26.593  1.00  0.00     0.041 C 
BRANCH  14  16
ATOM     16  N   UNL A   1      31.373  24.198  25.503  1.00  0.00    -0.343 N 
ATOM     17  C   UNL A   1      31.385  23.036  24.775  1.00  0.00     0.243 C 
ATOM     18  H   UNL A   1      31.416  23.967  26.458  1.00  0.00     0.164 HD
ATOM     19  O   UNL A   1      31.280  22.000  25.446  1.00  0.00    -0.273 OA
BRANCH  17  20
ATOM     20  C   UNL A   1      31.578  22.895  23.228  1.00  0.00     0.174 C 
BRANCH  20  21
ATOM     21  N   UNL A   1      32.224  24.066  22.668  1.00  0.00    -0.343 N 
ATOM     22  C   UNL A   1      33.548  24.248  22.428  1.00  0.00     0.240 C 
ATOM     23  H   UNL A   1      31.633  24.817  22.432  1.00  0.00     0.164 HD
ATOM     24  O   UNL A   1      33.874  25.252  21.793  1.00  0.00    -0.273 OA
BRANCH  22  25
ATOM     25  C   UNL A   1      34.557  23.160  22.834  1.00  0.00     0.219 C 
BRANCH  25  26
ATOM     26  N   UNL A   1      35.087  23.211  24.201  1.00  0.00    -0.312 N 
ATOM     27  C   UNL A   1      35.048  22.515  25.368  1.00  0.00     0.407 C 
ATOM     28  H   UNL A   1      35.653  24.010  24.309  1.00  0.00     0.167 HD
ATOM     29  O   UNL A   1      35.647  22.967  26.326  1.00  0.00    -0.225 OA
BRANCH  27  30
ATOM     30  O   UNL A   1      34.315  21.381  25.385  1.00  0.00    -0.445 OA
BRANCH  30  31
ATOM     31  C   UNL A   1      35.113  20.195  25.168  1.00  0.00     0.270 C 
BRANCH  31  32
ATOM     32  C   UNL A   1      34.368  18.884  24.984  1.00  0.00    -0.011 A 
ATOM     33  C   UNL A   1      33.268  18.513  25.764  1.00  0.00     0.007 A 
ATOM     34  C   UNL A   1      34.899  17.925  24.101  1.00  0.00     0.007 A 
ATOM     35  C   UNL A   1      32.723  17.227  25.679  1.00  0.00     0.000 A 
ATOM     36  C   UNL A   1      34.358  16.638  24.018  1.00  0.00     0.000 A 
ATOM     37  C   UNL A   1      33.272  16.287  24.814  1.00  0.00     0.000 A 
ENDBRANCH  31  32
ENDBRANCH  30  31
ENDBRANCH  27  30
ENDBRANCH  25  26
ENDBRANCH  22  25
ENDBRANCH  20  21
BRANCH  20  38
ATOM     38  C   UNL A   1      32.198  21.548  22.685  1.00  0.00     0.015 C 
ATOM     39  C   UNL A   1      31.799  20.265  23.407  1.00  0.00     0.010 C 
ATOM     40  C   UNL A   1      31.954  21.361  21.169  1.00  0.00     0.010 C 
ENDBRANCH  20  38
ENDBRANCH  17  20
ENDBRANCH  14  16
ENDBRANCH  11  14
ENDBRANCH   5  10
ENDBRANCH   1   5
BRANCH   3  41
ATOM     41  C   UNL A   1      34.871  30.053  27.548  1.00  0.00     0.116 C 
BRANCH  41  42
ATOM     42  C   UNL A   1      35.228  31.558  27.562  1.00  0.00     0.021 C 
BRANCH  42  43
ATOM     43  C   UNL A   1      36.486  31.963  28.357  1.00  0.00     0.002 C 
BRANCH  43  44
ATOM     44  C   UNL A   1      36.474  33.385  28.932  1.00  0.00     0.002 C 
BRANCH  44  45
ATOM     45  C   UNL A   1      35.165  34.160  28.757  1.00  0.00     0.021 C 
BRANCH  45  46
ATOM     46  C   UNL A   1      33.943  33.547  29.441  1.00  0.00     0.116 C 
BRANCH  46  47
ATOM     47  N   UNL A   1      33.143  34.509  30.188  1.00  0.00    -0.352 N 
ATOM     48  C   UNL A   1      33.337  34.982  31.466  1.00  0.00     0.251 C 
ATOM     49  H   UNL A   1      32.359  34.868  29.716  1.00  0.00     0.163 HD
ATOM     50  O   UNL A   1      32.535  35.749  31.987  1.00  0.00    -0.269 OA
BRANCH  48  51
ATOM     51  C   UNL A   1      34.517  34.515  32.214  1.00  0.00     0.039 A 
ATOM     52  C   UNL A   1      34.540  33.206  32.697  1.00  0.00     0.014 A 
ATOM     53  C   UNL A   1      35.634  35.345  32.336  1.00  0.00     0.014 A 
ATOM     54  C   UNL A   1      35.725  32.693  33.229  1.00  0.00     0.010 A 
ATOM     55  C   UNL A   1      36.830  34.811  32.806  1.00  0.00     0.010 A 
ATOM     56  C   UNL A   1      36.892  33.476  33.246  1.00  0.00    -0.014 A 
BRANCH  56  57
ATOM     57  C   UNL A   1      38.185  32.922  33.722  1.00  0.00     0.031 A 
ATOM     58  C   UNL A   1      38.984  32.022  32.819  1.00  0.00     0.074 A 
ATOM     59  C   UNL A   1      38.602  33.163  34.983  1.00  0.00     0.049 A 
ATOM     60  N   UNL A   1      40.083  31.361  33.076  1.00  0.00    -0.248 NA
ATOM     61  C   UNL A   1      38.461  31.811  31.458  1.00  0.00     0.031 C 
ATOM     62  C   UNL A   1      37.894  33.980  35.973  1.00  0.00     0.029 A 
ATOM     63  N   UNL A   1      39.723  32.737  35.652  1.00  0.00    -0.354 N 
ATOM     64  C   UNL A   1      40.362  30.632  31.925  1.00  0.00     0.074 A 
ATOM     65  C   UNL A   1      39.297  30.900  30.984  1.00  0.00     0.031 C 
ATOM     66  C   UNL A   1      38.608  34.012  37.112  1.00  0.00     0.029 A 
ATOM     67  C   UNL A   1      39.804  33.193  36.949  1.00  0.00     0.049 A 
ATOM     68  H   UNL A   1      40.406  32.158  35.243  1.00  0.00     0.167 HD
ATOM     69  C   UNL A   1      41.419  29.829  31.667  1.00  0.00     0.031 A 
ATOM     70  C   UNL A   1      40.737  32.973  37.898  1.00  0.00     0.031 A 
ATOM     71  C   UNL A   1      42.502  29.607  32.585  1.00  0.00     0.049 A 
ATOM     72  C   UNL A   1      41.925  32.106  37.569  1.00  0.00     0.074 A 
ATOM     73  C   UNL A   1      43.657  28.871  32.389  1.00  0.00     0.029 A 
ATOM     74  N   UNL A   1      42.571  30.131  33.867  1.00  0.00    -0.354 N 
ATOM     75  N   UNL A   1      42.204  31.483  36.449  1.00  0.00    -0.248 NA
ATOM     76  C   UNL A   1      42.932  31.924  38.626  1.00  0.00     0.031 C 
ATOM     77  C   UNL A   1      44.411  28.923  33.565  1.00  0.00     0.029 A 
ATOM     78  C   UNL A   1      43.745  29.728  34.475  1.00  0.00     0.049 A 
ATOM     79  H   UNL A   1      41.886  30.703  34.281  1.00  0.00     0.167 HD
ATOM     80  C   UNL A   1      43.433  30.868  36.655  1.00  0.00     0.074 A 
ATOM     81  C   UNL A   1      43.850  31.199  38.001  1.00  0.00     0.031 C 
ATOM     82  C   UNL A   1      44.155  30.097  35.805  1.00  0.00     0.031 A 
BRANCH  69  83
ATOM     83  C   UNL A   1      41.466  29.138  30.332  1.00  0.00    -0.014 A 
ATOM     84  C   UNL A   1      42.228  29.662  29.273  1.00  0.00     0.010 A 
ATOM     85  C   UNL A   1      40.787  27.920  30.152  1.00  0.00     0.010 A 
ATOM     86  C   UNL A   1      42.286  28.994  28.047  1.00  0.00     0.020 A 
ATOM     87  C   UNL A   1      40.864  27.236  28.936  1.00  0.00     0.020 A 
ATOM     88  C   UNL A   1      41.604  27.785  27.887  1.00  0.00     0.054 A 
BRANCH  88  89
ATOM     89  S   UNL A   1      41.736  26.917  26.300  1.00  0.00     0.124 S 
ATOM     90  O   UNL A   1      42.983  26.175  26.466  1.00  0.00    -0.237 OA
ATOM     91  O   UNL A   1      40.521  26.105  26.277  1.00  0.00    -0.237 OA
ATOM     92  O   UNL A   1      41.779  27.996  25.317  1.00  0.00    -0.744 OA
ENDBRANCH  88  89
ENDBRANCH  69  83
BRANCH  70  93
ATOM     93  C   UNL A   1      40.606  33.589  39.249  1.00  0.00    -0.014 A 
ATOM     94  C   UNL A   1      41.200  34.834  39.527  1.00  0.00     0.010 A 
ATOM     95  C   UNL A   1      39.920  32.916  40.277  1.00  0.00     0.010 A 
ATOM     96  C   UNL A   1      41.147  35.374  40.815  1.00  0.00     0.020 A 
ATOM     97  C   UNL A   1      39.841  33.468  41.560  1.00  0.00     0.020 A 
ATOM     98  C   UNL A   1      40.474  34.684  41.826  1.00  0.00     0.054 A 
BRANCH  98  99
ATOM     99  S   UNL A   1      40.407  35.405  43.491  1.00  0.00     0.124 S 
ATOM    100  O   UNL A   1      41.734  35.998  43.616  1.00  0.00    -0.237 OA
ATOM    101  O   UNL A   1      39.297  36.349  43.384  1.00  0.00    -0.237 OA
ATOM    102  O   UNL A   1      40.151  34.251  44.350  1.00  0.00    -0.744 OA
ENDBRANCH  98  99
ENDBRANCH  70  93
BRANCH  82 103
ATOM    103  C   UNL A   1      45.497  29.606  36.273  1.00  0.00    -0.014 A 
ATOM    104  C   UNL A   1      45.689  28.269  36.660  1.00  0.00     0.010 A 
ATOM    105  C   UNL A   1      46.600  30.478  36.236  1.00  0.00     0.010 A 
ATOM    106  C   UNL A   1      46.962  27.815  37.016  1.00  0.00     0.020 A 
ATOM    107  C   UNL A   1      47.878  30.023  36.568  1.00  0.00     0.020 A 
ATOM    108  C   UNL A   1      48.048  28.696  36.965  1.00  0.00     0.054 A 
BRANCH 108 109
ATOM    109  S   UNL A   1      49.702  28.066  37.362  1.00  0.00     0.124 S 
ATOM    110  O   UNL A   1      49.400  26.757  37.933  1.00  0.00    -0.237 OA
ATOM    111  O   UNL A   1      50.361  28.045  36.057  1.00  0.00    -0.237 OA
ATOM    112  O   UNL A   1      50.232  29.051  38.303  1.00  0.00    -0.744 OA
ENDBRANCH 108 109
ENDBRANCH  82 103
ENDBRANCH  56  57
ENDBRANCH  48  51
ENDBRANCH  46  47
ENDBRANCH  45  46
ENDBRANCH  44  45
ENDBRANCH  43  44
ENDBRANCH  42  43
ENDBRANCH  41  42
ENDBRANCH   3  41
TORSDOF 29
ENDMDL
MODEL 3
REMARK VINA RESULT:      -8.8      5.086     13.242
REMARK SMILES CC(C)C[C@H](NC(=O)[C@H](C)NC(=O)[C@@H](NC(=O)CNC(=O)OCc1ccccc1)C(C)C)C(=O)NCCCCCCNC(=O)c1ccc(-c2c3nc(c(-c4ccc(S(=O)(=O)[O-])cc4)c4ccc([nH]4)c(-c4ccc(S(=O)(=O)[O-])cc4)c4nc(c(-c5ccc(S(=O)(=O)[O-])cc5)c5ccc2[nH]5)C=C4)C=C3)cc1
REMARK SMILES IDX 33 1 34 2 35 3 5 5 4 6 2 7 1 8 3 9 6 10 7 11 8 13 9 14 10 15
REMARK SMILES IDX 11 16 12 17 13 19 14 20 15 21 16 22 17 24 18 25 19 26 20 27
REMARK SMILES IDX 21 29 22 30 23 31 24 32 25 33 29 34 26 35 28 36 27 37 30 38
REMARK SMILES IDX 31 39 32 40 36 41 37 42 38 43 39 44 40 45 41 46 42 47 43 48
REMARK SMILES IDX 44 50 45 51 46 52 104 53 47 54 103 55 48 56 49 57 50 58
REMARK SMILES IDX 97 59 51 60 102 61 96 62 98 63 52 64 101 65 95 66 94 67
REMARK SMILES IDX 53 69 83 70 64 71 82 72 65 73 68 74 81 75 99 76 66 77 67 78
REMARK SMILES IDX 80 80 100 81 69 82 54 83 55 84 63 85 56 86 62 87 57 88 58 89
REMARK SMILES IDX 59 90 60 91 61 92 84 93 85 94 93 95 86 96 92 97 87 98 88 99
REMARK SMILES IDX 89 100 90 101 91 102 70 103 71 104 79 105 72 106 78 107
REMARK SMILES IDX 73 108 74 109 75 110 76 111 77 112
REMARK H PARENT 35 4 6 12 11 18 15 23 19 28 42 49 98 68 68 79
REMARK Flexibility Score: inf
ROOT
ATOM      1  C   UNL A   1      41.384  32.462  34.143  1.00  0.00     0.242 C 
ATOM      2  O   UNL A   1      40.707  32.236  35.145  1.00  0.00    -0.273 OA
ATOM      3  N   UNL A   1      41.127  33.548  33.298  1.00  0.00    -0.354 N 
ATOM      4  H   UNL A   1      41.656  33.643  32.475  1.00  0.00     0.163 HD
ENDROOT
BRANCH   1   5
ATOM      5  C   UNL A   1      42.709  31.671  33.891  1.00  0.00     0.171 C 
BRANCH   5   6
ATOM      6  C   UNL A   1      42.173  30.196  33.882  1.00  0.00     0.038 C 
BRANCH   6   7
ATOM      7  C   UNL A   1      41.463  29.469  32.727  1.00  0.00    -0.015 C 
ATOM      8  C   UNL A   1      42.167  28.209  32.223  1.00  0.00     0.007 C 
ATOM      9  C   UNL A   1      40.081  29.037  33.276  1.00  0.00     0.007 C 
ENDBRANCH   6   7
ENDBRANCH   5   6
BRANCH   5  10
ATOM     10  N   UNL A   1      43.867  31.961  34.758  1.00  0.00    -0.343 N 
ATOM     11  C   UNL A   1      44.833  31.109  35.258  1.00  0.00     0.242 C 
ATOM     12  H   UNL A   1      43.968  32.905  35.018  1.00  0.00     0.164 HD
ATOM     13  O   UNL A   1      45.085  31.210  36.467  1.00  0.00    -0.273 OA
BRANCH  11  14
ATOM     14  C   UNL A   1      45.802  30.262  34.353  1.00  0.00     0.168 C 
ATOM     15  C   UNL A   1      45.371  28.801  34.307  1.00  0.00     0.041 C 
BRANCH  14  16
ATOM     16  N   UNL A   1      47.155  30.329  35.056  1.00  0.00    -0.343 N 
ATOM     17  C   UNL A   1      48.302  29.617  35.300  1.00  0.00     0.243 C 
ATOM     18  H   UNL A   1      47.234  31.205  35.497  1.00  0.00     0.164 HD
ATOM     19  O   UNL A   1      49.073  30.136  36.119  1.00  0.00    -0.273 OA
BRANCH  17  20
ATOM     20  C   UNL A   1      48.747  28.283  34.613  1.00  0.00     0.174 C 
BRANCH  20  21
ATOM     21  N   UNL A   1      48.085  27.138  35.204  1.00  0.00    -0.343 N 
ATOM     22  C   UNL A   1      48.638  26.165  35.973  1.00  0.00     0.240 C 
ATOM     23  H   UNL A   1      47.119  27.055  35.030  1.00  0.00     0.164 HD
ATOM     24  O   UNL A   1      47.871  25.370  36.517  1.00  0.00    -0.273 OA
BRANCH  22  25
ATOM     25  C   UNL A   1      50.154  26.167  36.238  1.00  0.00     0.219 C 
BRANCH  25  26
ATOM     26  N   UNL A   1      51.034  25.873  35.102  1.00  0.00    -0.312 N 
ATOM     27  C   UNL A   1      51.248  24.917  34.161  1.00  0.00     0.407 C 
ATOM     28  H   UNL A   1      51.682  26.606  34.985  1.00  0.00     0.167 HD
ATOM     29  O   UNL A   1      52.171  25.073  33.383  1.00  0.00    -0.225 OA
BRANCH  27  30
ATOM     30  O   UNL A   1      50.434  23.839  34.180  1.00  0.00    -0.445 OA
BRANCH  30  31
ATOM     31  C   UNL A   1      50.679  22.933  33.079  1.00  0.00     0.270 C 
BRANCH  31  32
ATOM     32  C   UNL A   1      51.607  21.760  33.341  1.00  0.00    -0.011 A 
ATOM     33  C   UNL A   1      52.757  21.510  32.585  1.00  0.00     0.007 A 
ATOM     34  C   UNL A   1      51.216  20.788  34.280  1.00  0.00     0.007 A 
ATOM     35  C   UNL A   1      53.486  20.327  32.748  1.00  0.00     0.000 A 
ATOM     36  C   UNL A   1      51.941  19.603  34.441  1.00  0.00     0.000 A 
ATOM     37  C   UNL A   1      53.073  19.369  33.668  1.00  0.00     0.000 A 
ENDBRANCH  31  32
ENDBRANCH  30  31
ENDBRANCH  27  30
ENDBRANCH  25  26
ENDBRANCH  22  25
ENDBRANCH  20  21
BRANCH  20  38
ATOM     38  C   UNL A   1      48.741  28.233  33.034  1.00  0.00     0.015 C 
ATOM     39  C   UNL A   1      49.993  28.738  32.324  1.00  0.00     0.010 C 
ATOM     40  C   UNL A   1      48.397  26.824  32.495  1.00  0.00     0.010 C 
ENDBRANCH  20  38
ENDBRANCH  17  20
ENDBRANCH  14  16
ENDBRANCH  11  14
ENDBRANCH   5  10
ENDBRANCH   1   5
BRANCH   3  41
ATOM     41  C   UNL A   1      40.092  34.555  33.596  1.00  0.00     0.116 C 
BRANCH  41  42
ATOM     42  C   UNL A   1      38.768  34.405  32.809  1.00  0.00     0.021 C 
BRANCH  42  43
ATOM     43  C   UNL A   1      38.262  32.968  32.577  1.00  0.00     0.002 C 
BRANCH  43  44
ATOM     44  C   UNL A   1      36.821  32.695  33.028  1.00  0.00     0.002 C 
BRANCH  44  45
ATOM     45  C   UNL A   1      35.839  32.319  31.915  1.00  0.00     0.021 C 
BRANCH  45  46
ATOM     46  C   UNL A   1      36.465  31.683  30.674  1.00  0.00     0.116 C 
BRANCH  46  47
ATOM     47  N   UNL A   1      35.511  30.971  29.833  1.00  0.00    -0.352 N 
ATOM     48  C   UNL A   1      35.746  29.956  28.933  1.00  0.00     0.251 C 
ATOM     49  H   UNL A   1      34.573  31.252  29.922  1.00  0.00     0.163 HD
ATOM     50  O   UNL A   1      34.841  29.495  28.246  1.00  0.00    -0.269 OA
BRANCH  48  51
ATOM     51  C   UNL A   1      37.125  29.459  28.783  1.00  0.00     0.039 A 
ATOM     52  C   UNL A   1      37.800  29.684  27.583  1.00  0.00     0.014 A 
ATOM     53  C   UNL A   1      37.771  28.869  29.871  1.00  0.00     0.014 A 
ATOM     54  C   UNL A   1      39.164  29.396  27.501  1.00  0.00     0.010 A 
ATOM     55  C   UNL A   1      39.144  28.645  29.807  1.00  0.00     0.010 A 
ATOM     56  C   UNL A   1      39.857  28.917  28.626  1.00  0.00    -0.014 A 
BRANCH  56  57
ATOM     57  C   UNL A   1      41.324  28.691  28.589  1.00  0.00     0.031 A 
ATOM     58  C   UNL A   1      41.858  27.343  28.182  1.00  0.00     0.074 A 
ATOM     59  C   UNL A   1      42.170  29.664  28.991  1.00  0.00     0.049 A 
ATOM     60  N   UNL A   1      43.092  26.913  28.178  1.00  0.00    -0.248 NA
ATOM     61  C   UNL A   1      40.869  26.338  27.756  1.00  0.00     0.031 C 
ATOM     62  C   UNL A   1      41.775  30.997  29.454  1.00  0.00     0.029 A 
ATOM     63  N   UNL A   1      43.540  29.677  29.081  1.00  0.00    -0.354 N 
ATOM     64  C   UNL A   1      43.025  25.581  27.784  1.00  0.00     0.074 A 
ATOM     65  C   UNL A   1      41.627  25.264  27.597  1.00  0.00     0.031 C 
ATOM     66  C   UNL A   1      42.878  31.703  29.758  1.00  0.00     0.029 A 
ATOM     67  C   UNL A   1      44.055  30.867  29.545  1.00  0.00     0.049 A 
ATOM     68  H   UNL A   1      44.103  28.908  28.838  1.00  0.00     0.167 HD
ATOM     69  C   UNL A   1      44.036  24.707  27.576  1.00  0.00     0.031 A 
ATOM     70  C   UNL A   1      45.331  31.239  29.775  1.00  0.00     0.031 A 
ATOM     71  C   UNL A   1      45.427  25.042  27.712  1.00  0.00     0.049 A 
ATOM     72  C   UNL A   1      46.440  30.258  29.497  1.00  0.00     0.074 A 
ATOM     73  C   UNL A   1      46.531  24.249  27.450  1.00  0.00     0.029 A 
ATOM     74  N   UNL A   1      45.906  26.273  28.132  1.00  0.00    -0.354 N 
ATOM     75  N   UNL A   1      46.357  29.025  29.057  1.00  0.00    -0.248 NA
ATOM     76  C   UNL A   1      47.816  30.722  29.731  1.00  0.00     0.031 C 
ATOM     77  C   UNL A   1      47.679  24.991  27.744  1.00  0.00     0.029 A 
ATOM     78  C   UNL A   1      47.288  26.260  28.144  1.00  0.00     0.049 A 
ATOM     79  H   UNL A   1      45.345  27.042  28.384  1.00  0.00     0.167 HD
ATOM     80  C   UNL A   1      47.668  28.581  28.927  1.00  0.00     0.074 A 
ATOM     81  C   UNL A   1      48.525  29.677  29.325  1.00  0.00     0.031 C 
ATOM     82  C   UNL A   1      48.123  27.373  28.513  1.00  0.00     0.031 A 
BRANCH  69  83
ATOM     83  C   UNL A   1      43.679  23.305  27.166  1.00  0.00    -0.014 A 
ATOM     84  C   UNL A   1      43.067  22.420  28.071  1.00  0.00     0.010 A 
ATOM     85  C   UNL A   1      43.907  22.885  25.843  1.00  0.00     0.010 A 
ATOM     86  C   UNL A   1      42.715  21.130  27.667  1.00  0.00     0.020 A 
ATOM     87  C   UNL A   1      43.533  21.605  25.429  1.00  0.00     0.020 A 
ATOM     88  C   UNL A   1      42.949  20.731  26.349  1.00  0.00     0.054 A 
BRANCH  88  89
ATOM     89  S   UNL A   1      42.438  19.066  25.841  1.00  0.00     0.124 S 
ATOM     90  O   UNL A   1      43.172  18.894  24.591  1.00  0.00    -0.237 OA
ATOM     91  O   UNL A   1      42.893  18.238  26.956  1.00  0.00    -0.237 OA
ATOM     92  O   UNL A   1      40.988  19.176  25.703  1.00  0.00    -0.744 OA
ENDBRANCH  88  89
ENDBRANCH  69  83
BRANCH  70  93
ATOM     93  C   UNL A   1      45.644  32.605  30.285  1.00  0.00    -0.014 A 
ATOM     94  C   UNL A   1      45.677  32.860  31.669  1.00  0.00     0.010 A 
ATOM     95  C   UNL A   1      45.874  33.665  29.391  1.00  0.00     0.010 A 
ATOM     96  C   UNL A   1      45.891  34.156  32.147  1.00  0.00     0.020 A 
ATOM     97  C   UNL A   1      46.116  34.958  29.866  1.00  0.00     0.020 A 
ATOM     98  C   UNL A   1      46.102  35.199  31.242  1.00  0.00     0.054 A 
BRANCH  98  99
ATOM     99  S   UNL A   1      46.387  36.874  31.880  1.00  0.00     0.124 S 
ATOM    100  O   UNL A   1      47.067  37.513  30.758  1.00  0.00    -0.237 OA
ATOM    101  O   UNL A   1      45.031  37.346  32.152  1.00  0.00    -0.237 OA
ATOM    102  O   UNL A   1      47.208  36.650  33.068  1.00  0.00    -0.744 OA
ENDBRANCH  98  99
ENDBRANCH  70  93
BRANCH  82 103
ATOM    103  C   UNL A   1      49.611  27.183  28.408  1.00  0.00    -0.014 A 
ATOM    104  C   UNL A   1      50.334  26.523  29.416  1.00  0.00     0.010 A 
ATOM    105  C   UNL A   1      50.275  27.594  27.238  1.00  0.00     0.010 A 
ATOM    106  C   UNL A   1      51.703  26.289  29.261  1.00  0.00     0.020 A 
ATOM    107  C   UNL A   1      51.638  27.340  27.069  1.00  0.00     0.020 A 
ATOM    108  C   UNL A   1      52.345  26.697  28.087  1.00  0.00     0.054 A 
BRANCH 108 109
ATOM    109  S   UNL A   1      54.106  26.317  27.877  1.00  0.00     0.124 S 
ATOM    110  O   UNL A   1      54.553  26.176  29.260  1.00  0.00    -0.237 OA
ATOM    111  O   UNL A   1      54.078  25.081  27.096  1.00  0.00    -0.237 OA
ATOM    112  O   UNL A   1      54.630  27.483  27.168  1.00  0.00    -0.744 OA
ENDBRANCH 108 109
ENDBRANCH  82 103
ENDBRANCH  56  57
ENDBRANCH  48  51
ENDBRANCH  46  47
ENDBRANCH  45  46
ENDBRANCH  44  45
ENDBRANCH  43  44
ENDBRANCH  42  43
ENDBRANCH  41  42
ENDBRANCH   3  41
TORSDOF 29
ENDMDL
