MODEL 1
REMARK VINA RESULT:     -10.1      0.000      0.000
REMARK SMILES O=C(NCCCCCCNC(=O)c1ccc(-c2c3nc(c(-c4ccc(S(=O)(=O)[O-])cc4)c4ccc([nH]4)c(-c4ccc(S(=O)(=O)[O-])cc4)c4nc(c(-c5ccc(S(=O)(=O)[O-])cc5)c5ccc2[nH]5)C=C4)C=C3)cc1)C1=C(C(=O)NCCC2=CCCCC2)CCCC1
REMARK SMILES IDX 6 1 5 2 4 3 3 4 1 5 2 6 73 8 74 9 89 10 86 11 88 12 87 13
REMARK SMILES IDX 75 14 76 15 77 16 78 18 79 19 80 20 81 21 85 22 82 23 84 24
REMARK SMILES IDX 83 25 7 26 8 27 9 28 10 29 11 30 12 32 13 33 14 34 72 35
REMARK SMILES IDX 15 36 71 37 16 38 17 39 18 40 65 41 19 42 70 43 64 44 66 45
REMARK SMILES IDX 20 46 69 47 63 48 62 49 21 51 51 52 32 53 50 54 33 55 36 56
REMARK SMILES IDX 49 57 67 58 34 59 35 60 48 62 68 63 37 64 22 65 23 66 31 67
REMARK SMILES IDX 24 68 30 69 25 70 26 71 27 72 28 73 29 74 52 75 53 76 61 77
REMARK SMILES IDX 54 78 60 79 55 80 56 81 57 82 58 83 59 84 38 85 39 86 47 87
REMARK SMILES IDX 40 88 46 89 41 90 42 91 43 92 44 93 45 94
REMARK H PARENT 3 7 77 17 10 31 66 50 36 61
REMARK Flexibility Score: inf
ROOT
ATOM      1  C   UNL A   1      30.710  29.349  24.251  1.00  0.00     0.002 C 
ENDROOT
BRANCH   1   2
ATOM      2  C   UNL A   1      31.555  28.849  23.068  1.00  0.00     0.021 C 
BRANCH   2   3
ATOM      3  C   UNL A   1      30.921  27.704  22.288  1.00  0.00     0.116 C 
BRANCH   3   4
ATOM      4  N   UNL A   1      31.934  26.873  21.667  1.00  0.00    -0.352 N 
ATOM      5  O   UNL A   1      33.569  25.369  21.483  1.00  0.00    -0.270 OA
ATOM      6  C   UNL A   1      32.782  25.969  22.214  1.00  0.00     0.247 C 
ATOM      7  H   UNL A   1      32.019  26.983  20.692  1.00  0.00     0.163 HD
BRANCH   6   8
ATOM      8  C   UNL A   1      32.818  25.760  23.684  1.00  0.00     0.026 C 
ATOM      9  C   UNL A   1      31.974  25.003  24.421  1.00  0.00     0.026 C 
ATOM     10  C   UNL A   1      34.002  26.495  24.287  1.00  0.00     0.042 C 
ATOM     11  C   UNL A   1      31.997  25.116  25.944  1.00  0.00     0.042 C 
ATOM     12  C   UNL A   1      34.193  26.278  25.784  1.00  0.00     0.005 C 
ATOM     13  C   UNL A   1      32.845  26.275  26.476  1.00  0.00     0.005 C 
BRANCH   9  14
ATOM     14  C   UNL A   1      30.886  24.066  23.962  1.00  0.00     0.247 C 
ATOM     15  O   UNL A   1      29.975  24.506  23.259  1.00  0.00    -0.270 OA
ATOM     16  N   UNL A   1      30.792  22.767  24.359  1.00  0.00    -0.352 N 
ATOM     17  H   UNL A   1      29.932  22.337  24.143  1.00  0.00     0.163 HD
BRANCH  16  18
ATOM     18  C   UNL A   1      31.736  21.909  25.042  1.00  0.00     0.120 C 
BRANCH  18  19
ATOM     19  C   UNL A   1      32.945  21.472  24.218  1.00  0.00     0.052 C 
BRANCH  19  20
ATOM     20  C   UNL A   1      34.211  22.270  24.438  1.00  0.00    -0.072 C 
ATOM     21  C   UNL A   1      34.916  22.741  23.393  1.00  0.00    -0.028 C 
ATOM     22  C   UNL A   1      34.704  22.418  25.864  1.00  0.00     0.031 C 
ATOM     23  C   UNL A   1      36.259  23.394  23.522  1.00  0.00     0.027 C 
ATOM     24  C   UNL A   1      35.927  23.331  26.010  1.00  0.00     0.005 C 
ATOM     25  C   UNL A   1      36.919  23.118  24.872  1.00  0.00     0.004 C 
ENDBRANCH  19  20
ENDBRANCH  18  19
ENDBRANCH  16  18
ENDBRANCH   9  14
ENDBRANCH   6   8
ENDBRANCH   3   4
ENDBRANCH   2   3
ENDBRANCH   1   2
BRANCH   1  26
ATOM     26  C   UNL A   1      31.469  29.610  25.556  1.00  0.00     0.002 C 
BRANCH  26  27
ATOM     27  C   UNL A   1      32.992  29.675  25.435  1.00  0.00     0.021 C 
BRANCH  27  28
ATOM     28  C   UNL A   1      33.743  30.025  26.714  1.00  0.00     0.116 C 
BRANCH  28  29
ATOM     29  N   UNL A   1      33.537  31.397  27.148  1.00  0.00    -0.352 N 
ATOM     30  C   UNL A   1      34.304  32.141  28.013  1.00  0.00     0.251 C 
ATOM     31  H   UNL A   1      32.748  31.851  26.776  1.00  0.00     0.163 HD
ATOM     32  O   UNL A   1      33.939  33.262  28.355  1.00  0.00    -0.269 OA
BRANCH  30  33
ATOM     33  C   UNL A   1      35.553  31.564  28.559  1.00  0.00     0.039 A 
ATOM     34  C   UNL A   1      36.736  32.298  28.448  1.00  0.00     0.014 A 
ATOM     35  C   UNL A   1      35.551  30.327  29.209  1.00  0.00     0.014 A 
ATOM     36  C   UNL A   1      37.905  31.820  29.047  1.00  0.00     0.010 A 
ATOM     37  C   UNL A   1      36.697  29.890  29.870  1.00  0.00     0.010 A 
ATOM     38  C   UNL A   1      37.887  30.631  29.794  1.00  0.00    -0.014 A 
BRANCH  38  39
ATOM     39  C   UNL A   1      39.100  30.154  30.508  1.00  0.00     0.031 A 
ATOM     40  C   UNL A   1      39.514  30.788  31.809  1.00  0.00     0.074 A 
ATOM     41  C   UNL A   1      39.863  29.188  29.957  1.00  0.00     0.049 A 
ATOM     42  N   UNL A   1      40.563  30.540  32.550  1.00  0.00    -0.248 NA
ATOM     43  C   UNL A   1      38.649  31.858  32.332  1.00  0.00     0.031 C 
ATOM     44  C   UNL A   1      39.597  28.523  28.679  1.00  0.00     0.029 A 
ATOM     45  N   UNL A   1      41.023  28.601  30.398  1.00  0.00    -0.354 N 
ATOM     46  C   UNL A   1      40.489  31.425  33.619  1.00  0.00     0.074 A 
ATOM     47  C   UNL A   1      39.326  32.257  33.398  1.00  0.00     0.031 C 
ATOM     48  C   UNL A   1      40.551  27.607  28.451  1.00  0.00     0.029 A 
ATOM     49  C   UNL A   1      41.520  27.645  29.543  1.00  0.00     0.049 A 
ATOM     50  H   UNL A   1      41.459  28.842  31.248  1.00  0.00     0.167 HD
ATOM     51  C   UNL A   1      41.301  31.524  34.699  1.00  0.00     0.031 A 
ATOM     52  C   UNL A   1      42.633  26.890  29.619  1.00  0.00     0.031 A 
ATOM     53  C   UNL A   1      42.460  30.698  34.915  1.00  0.00     0.049 A 
ATOM     54  C   UNL A   1      43.532  27.029  30.818  1.00  0.00     0.074 A 
ATOM     55  C   UNL A   1      43.323  30.691  35.997  1.00  0.00     0.029 A 
ATOM     56  N   UNL A   1      42.922  29.734  34.029  1.00  0.00    -0.354 N 
ATOM     57  N   UNL A   1      43.408  27.828  31.853  1.00  0.00    -0.248 NA
ATOM     58  C   UNL A   1      44.713  26.156  30.868  1.00  0.00     0.031 C 
ATOM     59  C   UNL A   1      44.338  29.763  35.740  1.00  0.00     0.029 A 
ATOM     60  C   UNL A   1      44.071  29.145  34.530  1.00  0.00     0.049 A 
ATOM     61  H   UNL A   1      42.496  29.505  33.173  1.00  0.00     0.167 HD
ATOM     62  C   UNL A   1      44.481  27.535  32.687  1.00  0.00     0.074 A 
ATOM     63  C   UNL A   1      45.232  26.474  32.047  1.00  0.00     0.031 C 
ATOM     64  C   UNL A   1      44.812  28.093  33.879  1.00  0.00     0.031 A 
BRANCH  51  65
ATOM     65  C   UNL A   1      40.962  32.574  35.728  1.00  0.00    -0.014 A 
ATOM     66  C   UNL A   1      40.053  32.304  36.768  1.00  0.00     0.010 A 
ATOM     67  C   UNL A   1      41.576  33.838  35.670  1.00  0.00     0.010 A 
ATOM     68  C   UNL A   1      39.726  33.294  37.698  1.00  0.00     0.020 A 
ATOM     69  C   UNL A   1      41.277  34.821  36.619  1.00  0.00     0.020 A 
ATOM     70  C   UNL A   1      40.336  34.549  37.614  1.00  0.00     0.054 A 
BRANCH  70  71
ATOM     71  S   UNL A   1      39.896  35.811  38.838  1.00  0.00     0.124 S 
ATOM     72  O   UNL A   1      38.835  35.145  39.590  1.00  0.00    -0.237 OA
ATOM     73  O   UNL A   1      41.150  36.007  39.562  1.00  0.00    -0.237 OA
ATOM     74  O   UNL A   1      39.463  36.947  38.028  1.00  0.00    -0.744 OA
ENDBRANCH  70  71
ENDBRANCH  51  65
BRANCH  52  75
ATOM     75  C   UNL A   1      42.954  25.931  28.526  1.00  0.00    -0.014 A 
ATOM     76  C   UNL A   1      43.691  26.343  27.402  1.00  0.00     0.010 A 
ATOM     77  C   UNL A   1      42.540  24.589  28.616  1.00  0.00     0.010 A 
ATOM     78  C   UNL A   1      43.996  25.435  26.383  1.00  0.00     0.020 A 
ATOM     79  C   UNL A   1      42.868  23.672  27.613  1.00  0.00     0.020 A 
ATOM     80  C   UNL A   1      43.587  24.104  26.498  1.00  0.00     0.054 A 
BRANCH  80  81
ATOM     81  S   UNL A   1      44.045  22.932  25.191  1.00  0.00     0.124 S 
ATOM     82  O   UNL A   1      44.850  21.959  25.923  1.00  0.00    -0.237 OA
ATOM     83  O   UNL A   1      42.744  22.457  24.725  1.00  0.00    -0.237 OA
ATOM     84  O   UNL A   1      44.778  23.757  24.233  1.00  0.00    -0.744 OA
ENDBRANCH  80  81
ENDBRANCH  52  75
BRANCH  64  85
ATOM     85  C   UNL A   1      46.024  27.547  34.588  1.00  0.00    -0.014 A 
ATOM     86  C   UNL A   1      45.944  26.400  35.398  1.00  0.00     0.010 A 
ATOM     87  C   UNL A   1      47.275  28.162  34.394  1.00  0.00     0.010 A 
ATOM     88  C   UNL A   1      47.088  25.896  36.025  1.00  0.00     0.020 A 
ATOM     89  C   UNL A   1      48.426  27.644  34.994  1.00  0.00     0.020 A 
ATOM     90  C   UNL A   1      48.322  26.522  35.818  1.00  0.00     0.054 A 
BRANCH  90  91
ATOM     91  S   UNL A   1      49.798  25.823  36.607  1.00  0.00     0.124 S 
ATOM     92  O   UNL A   1      50.312  26.964  37.359  1.00  0.00    -0.237 OA
ATOM     93  O   UNL A   1      49.245  24.736  37.412  1.00  0.00    -0.237 OA
ATOM     94  O   UNL A   1      50.625  25.396  35.480  1.00  0.00    -0.744 OA
ENDBRANCH  90  91
ENDBRANCH  64  85
ENDBRANCH  38  39
ENDBRANCH  30  33
ENDBRANCH  28  29
ENDBRANCH  27  28
ENDBRANCH  26  27
ENDBRANCH   1  26
TORSDOF 20
ENDMDL
MODEL 2
REMARK VINA RESULT:     -10.1      1.177      2.149
REMARK SMILES O=C(NCCCCCCNC(=O)c1ccc(-c2c3nc(c(-c4ccc(S(=O)(=O)[O-])cc4)c4ccc([nH]4)c(-c4ccc(S(=O)(=O)[O-])cc4)c4nc(c(-c5ccc(S(=O)(=O)[O-])cc5)c5ccc2[nH]5)C=C4)C=C3)cc1)C1=C(C(=O)NCCC2=CCCCC2)CCCC1
REMARK SMILES IDX 6 1 5 2 4 3 3 4 1 5 2 6 73 8 74 9 89 10 86 11 88 12 87 13
REMARK SMILES IDX 75 14 76 15 77 16 78 18 79 19 80 20 81 21 85 22 82 23 84 24
REMARK SMILES IDX 83 25 7 26 8 27 9 28 10 29 11 30 12 32 13 33 14 34 72 35
REMARK SMILES IDX 15 36 71 37 16 38 17 39 18 40 65 41 19 42 70 43 64 44 66 45
REMARK SMILES IDX 20 46 69 47 63 48 62 49 21 51 51 52 32 53 50 54 33 55 36 56
REMARK SMILES IDX 49 57 67 58 34 59 35 60 48 62 68 63 37 64 22 65 23 66 31 67
REMARK SMILES IDX 24 68 30 69 25 70 26 71 27 72 28 73 29 74 52 75 53 76 61 77
REMARK SMILES IDX 54 78 60 79 55 80 56 81 57 82 58 83 59 84 38 85 39 86 47 87
REMARK SMILES IDX 40 88 46 89 41 90 42 91 43 92 44 93 45 94
REMARK H PARENT 3 7 77 17 10 31 66 50 36 61
REMARK Flexibility Score: inf
ROOT
ATOM      1  C   UNL A   1      31.048  27.478  26.913  1.00  0.00     0.002 C 
ENDROOT
BRANCH   1   2
ATOM      2  C   UNL A   1      31.338  26.025  26.500  1.00  0.00     0.021 C 
BRANCH   2   3
ATOM      3  C   UNL A   1      30.092  25.205  26.186  1.00  0.00     0.116 C 
BRANCH   3   4
ATOM      4  N   UNL A   1      30.298  24.373  25.017  1.00  0.00    -0.352 N 
ATOM      5  O   UNL A   1      30.766  23.823  22.908  1.00  0.00    -0.270 OA
ATOM      6  C   UNL A   1      30.644  24.710  23.751  1.00  0.00     0.247 C 
ATOM      7  H   UNL A   1      30.165  23.409  25.167  1.00  0.00     0.163 HD
BRANCH   6   8
ATOM      8  C   UNL A   1      30.799  26.136  23.365  1.00  0.00     0.026 C 
ATOM      9  C   UNL A   1      31.896  26.724  22.836  1.00  0.00     0.026 C 
ATOM     10  C   UNL A   1      29.499  26.885  23.600  1.00  0.00     0.042 C 
ATOM     11  C   UNL A   1      31.967  28.246  22.750  1.00  0.00     0.042 C 
ATOM     12  C   UNL A   1      29.512  28.342  23.152  1.00  0.00     0.005 C 
ATOM     13  C   UNL A   1      30.846  28.972  23.500  1.00  0.00     0.005 C 
BRANCH   9  14
ATOM     14  C   UNL A   1      33.181  26.092  22.363  1.00  0.00     0.247 C 
ATOM     15  O   UNL A   1      33.414  26.044  21.153  1.00  0.00    -0.270 OA
ATOM     16  N   UNL A   1      34.069  25.477  23.190  1.00  0.00    -0.352 N 
ATOM     17  H   UNL A   1      34.754  24.942  22.726  1.00  0.00     0.163 HD
BRANCH  16  18
ATOM     18  C   UNL A   1      34.181  25.472  24.634  1.00  0.00     0.120 C 
BRANCH  18  19
ATOM     19  C   UNL A   1      34.325  24.095  25.278  1.00  0.00     0.052 C 
BRANCH  19  20
ATOM     20  C   UNL A   1      35.696  23.464  25.175  1.00  0.00    -0.072 C 
ATOM     21  C   UNL A   1      35.936  22.487  24.283  1.00  0.00    -0.028 C 
ATOM     22  C   UNL A   1      36.741  23.897  26.184  1.00  0.00     0.031 C 
ATOM     23  C   UNL A   1      37.212  21.701  24.230  1.00  0.00     0.027 C 
ATOM     24  C   UNL A   1      38.130  23.294  25.942  1.00  0.00     0.005 C 
ATOM     25  C   UNL A   1      38.035  21.834  25.511  1.00  0.00     0.004 C 
ENDBRANCH  19  20
ENDBRANCH  18  19
ENDBRANCH  16  18
ENDBRANCH   9  14
ENDBRANCH   6   8
ENDBRANCH   3   4
ENDBRANCH   2   3
ENDBRANCH   1   2
BRANCH   1  26
ATOM     26  C   UNL A   1      32.264  28.314  27.325  1.00  0.00     0.002 C 
BRANCH  26  27
ATOM     27  C   UNL A   1      33.544  28.059  26.529  1.00  0.00     0.021 C 
BRANCH  27  28
ATOM     28  C   UNL A   1      34.200  29.292  25.919  1.00  0.00     0.116 C 
BRANCH  28  29
ATOM     29  N   UNL A   1      33.813  30.533  26.569  1.00  0.00    -0.352 N 
ATOM     30  C   UNL A   1      34.412  31.158  27.639  1.00  0.00     0.251 C 
ATOM     31  H   UNL A   1      33.021  30.984  26.199  1.00  0.00     0.163 HD
ATOM     32  O   UNL A   1      33.901  32.158  28.135  1.00  0.00    -0.269 OA
BRANCH  30  33
ATOM     33  C   UNL A   1      35.654  30.593  28.209  1.00  0.00     0.039 A 
ATOM     34  C   UNL A   1      36.883  31.038  27.715  1.00  0.00     0.014 A 
ATOM     35  C   UNL A   1      35.610  29.659  29.249  1.00  0.00     0.014 A 
ATOM     36  C   UNL A   1      38.068  30.596  28.310  1.00  0.00     0.010 A 
ATOM     37  C   UNL A   1      36.788  29.279  29.889  1.00  0.00     0.010 A 
ATOM     38  C   UNL A   1      38.030  29.742  29.425  1.00  0.00    -0.014 A 
BRANCH  38  39
ATOM     39  C   UNL A   1      39.277  29.331  30.121  1.00  0.00     0.031 A 
ATOM     40  C   UNL A   1      39.733  30.060  31.356  1.00  0.00     0.074 A 
ATOM     41  C   UNL A   1      40.032  28.337  29.608  1.00  0.00     0.049 A 
ATOM     42  N   UNL A   1      40.813  29.877  32.070  1.00  0.00    -0.248 NA
ATOM     43  C   UNL A   1      38.874  31.154  31.837  1.00  0.00     0.031 C 
ATOM     44  C   UNL A   1      39.725  27.581  28.392  1.00  0.00     0.029 A 
ATOM     45  N   UNL A   1      41.217  27.797  30.042  1.00  0.00    -0.354 N 
ATOM     46  C   UNL A   1      40.769  30.835  33.076  1.00  0.00     0.074 A 
ATOM     47  C   UNL A   1      39.587  31.635  32.845  1.00  0.00     0.031 C 
ATOM     48  C   UNL A   1      40.683  26.662  28.191  1.00  0.00     0.029 A 
ATOM     49  C   UNL A   1      41.693  26.789  29.237  1.00  0.00     0.049 A 
ATOM     50  H   UNL A   1      41.682  28.102  30.855  1.00  0.00     0.167 HD
ATOM     51  C   UNL A   1      41.622  31.019  34.113  1.00  0.00     0.031 A 
ATOM     52  C   UNL A   1      42.819  26.054  29.321  1.00  0.00     0.031 A 
ATOM     53  C   UNL A   1      42.800  30.225  34.340  1.00  0.00     0.049 A 
ATOM     54  C   UNL A   1      43.763  26.289  30.470  1.00  0.00     0.074 A 
ATOM     55  C   UNL A   1      43.705  30.304  35.383  1.00  0.00     0.029 A 
ATOM     56  N   UNL A   1      43.241  29.206  33.505  1.00  0.00    -0.354 N 
ATOM     57  N   UNL A   1      43.668  27.157  31.450  1.00  0.00    -0.248 NA
ATOM     58  C   UNL A   1      44.957  25.435  30.533  1.00  0.00     0.031 C 
ATOM     59  C   UNL A   1      44.723  29.373  35.151  1.00  0.00     0.029 A 
ATOM     60  C   UNL A   1      44.417  28.667  33.999  1.00  0.00     0.049 A 
ATOM     61  H   UNL A   1      42.784  28.912  32.685  1.00  0.00     0.167 HD
ATOM     62  C   UNL A   1      44.777  26.936  32.259  1.00  0.00     0.074 A 
ATOM     63  C   UNL A   1      45.518  25.842  31.665  1.00  0.00     0.031 C 
ATOM     64  C   UNL A   1      45.147  27.581  33.394  1.00  0.00     0.031 A 
BRANCH  51  65
ATOM     65  C   UNL A   1      41.308  32.135  35.078  1.00  0.00    -0.014 A 
ATOM     66  C   UNL A   1      40.498  31.912  36.207  1.00  0.00     0.010 A 
ATOM     67  C   UNL A   1      41.848  33.417  34.869  1.00  0.00     0.010 A 
ATOM     68  C   UNL A   1      40.192  32.960  37.079  1.00  0.00     0.020 A 
ATOM     69  C   UNL A   1      41.571  34.461  35.757  1.00  0.00     0.020 A 
ATOM     70  C   UNL A   1      40.726  34.231  36.845  1.00  0.00     0.054 A 
BRANCH  70  71
ATOM     71  S   UNL A   1      40.316  35.570  37.996  1.00  0.00     0.124 S 
ATOM     72  O   UNL A   1      41.583  35.762  38.698  1.00  0.00    -0.237 OA
ATOM     73  O   UNL A   1      39.925  36.655  37.099  1.00  0.00    -0.237 OA
ATOM     74  O   UNL A   1      39.235  35.014  38.807  1.00  0.00    -0.744 OA
ENDBRANCH  70  71
ENDBRANCH  51  65
BRANCH  52  75
ATOM     75  C   UNL A   1      43.110  25.024  28.285  1.00  0.00    -0.014 A 
ATOM     76  C   UNL A   1      43.990  25.301  27.224  1.00  0.00     0.010 A 
ATOM     77  C   UNL A   1      42.523  23.748  28.370  1.00  0.00     0.010 A 
ATOM     78  C   UNL A   1      44.266  24.326  26.260  1.00  0.00     0.020 A 
ATOM     79  C   UNL A   1      42.820  22.762  27.425  1.00  0.00     0.020 A 
ATOM     80  C   UNL A   1      43.683  23.061  26.370  1.00  0.00     0.054 A 
BRANCH  80  81
ATOM     81  S   UNL A   1      44.102  21.795  25.140  1.00  0.00     0.124 S 
ATOM     82  O   UNL A   1      43.767  22.464  23.888  1.00  0.00    -0.237 OA
ATOM     83  O   UNL A   1      45.527  21.580  25.382  1.00  0.00    -0.237 OA
ATOM     84  O   UNL A   1      43.240  20.670  25.499  1.00  0.00    -0.744 OA
ENDBRANCH  80  81
ENDBRANCH  52  75
BRANCH  64  85
ATOM     85  C   UNL A   1      46.394  27.101  34.090  1.00  0.00    -0.014 A 
ATOM     86  C   UNL A   1      46.349  26.072  35.048  1.00  0.00     0.010 A 
ATOM     87  C   UNL A   1      47.640  27.652  33.737  1.00  0.00     0.010 A 
ATOM     88  C   UNL A   1      47.523  25.624  35.661  1.00  0.00     0.020 A 
ATOM     89  C   UNL A   1      48.819  27.187  34.326  1.00  0.00     0.020 A 
ATOM     90  C   UNL A   1      48.751  26.185  35.295  1.00  0.00     0.054 A 
BRANCH  90  91
ATOM     91  S   UNL A   1      50.264  25.557  36.073  1.00  0.00     0.124 S 
ATOM     92  O   UNL A   1      51.121  26.739  36.072  1.00  0.00    -0.237 OA
ATOM     93  O   UNL A   1      49.791  25.124  37.387  1.00  0.00    -0.237 OA
ATOM     94  O   UNL A   1      50.689  24.477  35.185  1.00  0.00    -0.744 OA
ENDBRANCH  90  91
ENDBRANCH  64  85
ENDBRANCH  38  39
ENDBRANCH  30  33
ENDBRANCH  28  29
ENDBRANCH  27  28
ENDBRANCH  26  27
ENDBRANCH   1  26
TORSDOF 20
ENDMDL
MODEL 3
REMARK VINA RESULT:     -10.1      0.737      8.058
REMARK SMILES O=C(NCCCCCCNC(=O)c1ccc(-c2c3nc(c(-c4ccc(S(=O)(=O)[O-])cc4)c4ccc([nH]4)c(-c4ccc(S(=O)(=O)[O-])cc4)c4nc(c(-c5ccc(S(=O)(=O)[O-])cc5)c5ccc2[nH]5)C=C4)C=C3)cc1)C1=C(C(=O)NCCC2=CCCCC2)CCCC1
REMARK SMILES IDX 6 1 5 2 4 3 3 4 1 5 2 6 73 8 74 9 89 10 86 11 88 12 87 13
REMARK SMILES IDX 75 14 76 15 77 16 78 18 79 19 80 20 81 21 85 22 82 23 84 24
REMARK SMILES IDX 83 25 7 26 8 27 9 28 10 29 11 30 12 32 13 33 14 34 72 35
REMARK SMILES IDX 15 36 71 37 16 38 17 39 18 40 65 41 19 42 70 43 64 44 66 45
REMARK SMILES IDX 20 46 69 47 63 48 62 49 21 51 51 52 32 53 50 54 33 55 36 56
REMARK SMILES IDX 49 57 67 58 34 59 35 60 48 62 68 63 37 64 22 65 23 66 31 67
REMARK SMILES IDX 24 68 30 69 25 70 26 71 27 72 28 73 29 74 52 75 53 76 61 77
REMARK SMILES IDX 54 78 60 79 55 80 56 81 57 82 58 83 59 84 38 85 39 86 47 87
REMARK SMILES IDX 40 88 46 89 41 90 42 91 43 92 44 93 45 94
REMARK H PARENT 3 7 77 17 10 31 66 50 36 61
REMARK Flexibility Score: inf
ROOT
ATOM      1  C   UNL A   1      30.861  29.420  24.550  1.00  0.00     0.002 C 
ENDROOT
BRANCH   1   2
ATOM      2  C   UNL A   1      31.662  28.972  23.316  1.00  0.00     0.021 C 
BRANCH   2   3
ATOM      3  C   UNL A   1      31.033  27.814  22.550  1.00  0.00     0.116 C 
BRANCH   3   4
ATOM      4  N   UNL A   1      32.014  27.150  21.713  1.00  0.00    -0.352 N 
ATOM      5  O   UNL A   1      33.612  25.717  21.113  1.00  0.00    -0.270 OA
ATOM      6  C   UNL A   1      32.856  26.127  21.992  1.00  0.00     0.247 C 
ATOM      7  H   UNL A   1      32.077  27.499  20.794  1.00  0.00     0.163 HD
BRANCH   6   8
ATOM      8  C   UNL A   1      32.923  25.556  23.363  1.00  0.00     0.026 C 
ATOM      9  C   UNL A   1      32.080  24.652  23.912  1.00  0.00     0.026 C 
ATOM     10  C   UNL A   1      34.137  26.098  24.094  1.00  0.00     0.042 C 
ATOM     11  C   UNL A   1      32.143  24.381  25.413  1.00  0.00     0.042 C 
ATOM     12  C   UNL A   1      34.360  25.511  25.484  1.00  0.00     0.005 C 
ATOM     13  C   UNL A   1      33.030  25.356  26.193  1.00  0.00     0.005 C 
BRANCH   9  14
ATOM     14  C   UNL A   1      30.960  23.876  23.265  1.00  0.00     0.247 C 
ATOM     15  O   UNL A   1      29.841  24.389  23.194  1.00  0.00    -0.270 OA
ATOM     16  N   UNL A   1      31.083  22.591  22.836  1.00  0.00    -0.352 N 
ATOM     17  H   UNL A   1      30.228  22.151  22.621  1.00  0.00     0.163 HD
BRANCH  16  18
ATOM     18  C   UNL A   1      32.252  21.759  22.640  1.00  0.00     0.120 C 
BRANCH  18  19
ATOM     19  C   UNL A   1      32.919  21.251  23.915  1.00  0.00     0.052 C 
BRANCH  19  20
ATOM     20  C   UNL A   1      34.308  21.786  24.187  1.00  0.00    -0.072 C 
ATOM     21  C   UNL A   1      34.930  22.567  23.286  1.00  0.00    -0.028 C 
ATOM     22  C   UNL A   1      35.001  21.318  25.451  1.00  0.00     0.031 C 
ATOM     23  C   UNL A   1      36.361  22.999  23.405  1.00  0.00     0.027 C 
ATOM     24  C   UNL A   1      36.355  21.992  25.706  1.00  0.00     0.005 C 
ATOM     25  C   UNL A   1      37.144  22.159  24.412  1.00  0.00     0.004 C 
ENDBRANCH  19  20
ENDBRANCH  18  19
ENDBRANCH  16  18
ENDBRANCH   9  14
ENDBRANCH   6   8
ENDBRANCH   3   4
ENDBRANCH   2   3
ENDBRANCH   1   2
BRANCH   1  26
ATOM     26  C   UNL A   1      31.664  29.595  25.844  1.00  0.00     0.002 C 
BRANCH  26  27
ATOM     27  C   UNL A   1      32.996  28.846  25.903  1.00  0.00     0.021 C 
BRANCH  27  28
ATOM     28  C   UNL A   1      34.158  29.614  26.521  1.00  0.00     0.116 C 
BRANCH  28  29
ATOM     29  N   UNL A   1      33.765  30.886  27.103  1.00  0.00    -0.352 N 
ATOM     30  C   UNL A   1      34.403  31.606  28.087  1.00  0.00     0.251 C 
ATOM     31  H   UNL A   1      32.937  31.283  26.751  1.00  0.00     0.163 HD
ATOM     32  O   UNL A   1      33.886  32.623  28.541  1.00  0.00    -0.269 OA
BRANCH  30  33
ATOM     33  C   UNL A   1      35.696  31.125  28.619  1.00  0.00     0.039 A 
ATOM     34  C   UNL A   1      36.853  31.851  28.330  1.00  0.00     0.014 A 
ATOM     35  C   UNL A   1      35.764  29.986  29.428  1.00  0.00     0.014 A 
ATOM     36  C   UNL A   1      38.069  31.474  28.908  1.00  0.00     0.010 A 
ATOM     37  C   UNL A   1      36.960  29.657  30.062  1.00  0.00     0.010 A 
ATOM     38  C   UNL A   1      38.126  30.396  29.808  1.00  0.00    -0.014 A 
BRANCH  38  39
ATOM     39  C   UNL A   1      39.393  30.035  30.495  1.00  0.00     0.031 A 
ATOM     40  C   UNL A   1      40.236  28.897  29.985  1.00  0.00     0.074 A 
ATOM     41  C   UNL A   1      39.757  30.693  31.615  1.00  0.00     0.049 A 
ATOM     42  N   UNL A   1      41.344  28.407  30.476  1.00  0.00    -0.248 NA
ATOM     43  C   UNL A   1      39.757  28.206  28.776  1.00  0.00     0.031 C 
ATOM     44  C   UNL A   1      39.005  31.785  32.239  1.00  0.00     0.029 A 
ATOM     45  N   UNL A   1      40.849  30.536  32.431  1.00  0.00    -0.354 N 
ATOM     46  C   UNL A   1      41.690  27.347  29.647  1.00  0.00     0.074 A 
ATOM     47  C   UNL A   1      40.643  27.228  28.656  1.00  0.00     0.031 C 
ATOM     48  C   UNL A   1      39.668  32.212  33.325  1.00  0.00     0.029 A 
ATOM     49  C   UNL A   1      40.870  31.401  33.500  1.00  0.00     0.049 A 
ATOM     50  H   UNL A   1      41.553  29.867  32.267  1.00  0.00     0.167 HD
ATOM     51  C   UNL A   1      42.790  26.557  29.689  1.00  0.00     0.031 A 
ATOM     52  C   UNL A   1      41.748  31.525  34.515  1.00  0.00     0.031 A 
ATOM     53  C   UNL A   1      43.830  26.675  30.678  1.00  0.00     0.049 A 
ATOM     54  C   UNL A   1      42.953  30.625  34.554  1.00  0.00     0.074 A 
ATOM     55  C   UNL A   1      45.004  25.952  30.783  1.00  0.00     0.029 A 
ATOM     56  N   UNL A   1      43.817  27.572  31.738  1.00  0.00    -0.354 N 
ATOM     57  N   UNL A   1      43.297  29.671  33.721  1.00  0.00    -0.248 NA
ATOM     58  C   UNL A   1      43.897  30.827  35.662  1.00  0.00     0.031 C 
ATOM     59  C   UNL A   1      45.675  26.372  31.937  1.00  0.00     0.029 A 
ATOM     60  C   UNL A   1      44.951  27.403  32.514  1.00  0.00     0.049 A 
ATOM     61  H   UNL A   1      43.106  28.230  31.911  1.00  0.00     0.167 HD
ATOM     62  C   UNL A   1      44.509  29.177  34.190  1.00  0.00     0.074 A 
ATOM     63  C   UNL A   1      44.847  29.949  35.368  1.00  0.00     0.031 C 
ATOM     64  C   UNL A   1      45.273  28.175  33.688  1.00  0.00     0.031 A 
BRANCH  51  65
ATOM     65  C   UNL A   1      42.918  25.488  28.633  1.00  0.00    -0.014 A 
ATOM     66  C   UNL A   1      42.527  24.162  28.892  1.00  0.00     0.010 A 
ATOM     67  C   UNL A   1      43.411  25.817  27.357  1.00  0.00     0.010 A 
ATOM     68  C   UNL A   1      42.676  23.174  27.915  1.00  0.00     0.020 A 
ATOM     69  C   UNL A   1      43.530  24.839  26.365  1.00  0.00     0.020 A 
ATOM     70  C   UNL A   1      43.183  23.518  26.658  1.00  0.00     0.054 A 
BRANCH  70  71
ATOM     71  S   UNL A   1      43.359  22.218  25.408  1.00  0.00     0.124 S 
ATOM     72  O   UNL A   1      42.120  21.463  25.582  1.00  0.00    -0.237 OA
ATOM     73  O   UNL A   1      43.460  22.979  24.165  1.00  0.00    -0.237 OA
ATOM     74  O   UNL A   1      44.576  21.514  25.806  1.00  0.00    -0.744 OA
ENDBRANCH  70  71
ENDBRANCH  51  65
BRANCH  52  75
ATOM     75  C   UNL A   1      41.517  32.548  35.573  1.00  0.00    -0.014 A 
ATOM     76  C   UNL A   1      42.006  33.857  35.424  1.00  0.00     0.010 A 
ATOM     77  C   UNL A   1      40.785  32.219  36.729  1.00  0.00     0.010 A 
ATOM     78  C   UNL A   1      41.778  34.815  36.418  1.00  0.00     0.020 A 
ATOM     79  C   UNL A   1      40.530  33.182  37.710  1.00  0.00     0.020 A 
ATOM     80  C   UNL A   1      41.037  34.472  37.552  1.00  0.00     0.054 A 
BRANCH  80  81
ATOM     81  S   UNL A   1      40.706  35.747  38.800  1.00  0.00     0.124 S 
ATOM     82  O   UNL A   1      39.812  35.049  39.718  1.00  0.00    -0.237 OA
ATOM     83  O   UNL A   1      42.042  36.039  39.314  1.00  0.00    -0.237 OA
ATOM     84  O   UNL A   1      40.093  36.828  38.029  1.00  0.00    -0.744 OA
ENDBRANCH  80  81
ENDBRANCH  52  75
BRANCH  64  85
ATOM     85  C   UNL A   1      46.571  27.873  34.391  1.00  0.00    -0.014 A 
ATOM     86  C   UNL A   1      46.621  27.006  35.497  1.00  0.00     0.010 A 
ATOM     87  C   UNL A   1      47.770  28.425  33.899  1.00  0.00     0.010 A 
ATOM     88  C   UNL A   1      47.842  26.720  36.116  1.00  0.00     0.020 A 
ATOM     89  C   UNL A   1      48.995  28.118  34.497  1.00  0.00     0.020 A 
ATOM     90  C   UNL A   1      49.021  27.278  35.611  1.00  0.00     0.054 A 
BRANCH  90  91
ATOM     91  S   UNL A   1      50.596  26.855  36.406  1.00  0.00     0.124 S 
ATOM     92  O   UNL A   1      50.329  25.514  36.918  1.00  0.00    -0.237 OA
ATOM     93  O   UNL A   1      51.543  26.928  35.295  1.00  0.00    -0.237 OA
ATOM     94  O   UNL A   1      50.760  27.890  37.424  1.00  0.00    -0.744 OA
ENDBRANCH  90  91
ENDBRANCH  64  85
ENDBRANCH  38  39
ENDBRANCH  30  33
ENDBRANCH  28  29
ENDBRANCH  27  28
ENDBRANCH  26  27
ENDBRANCH   1  26
TORSDOF 20
ENDMDL
