MODEL 1
REMARK VINA RESULT:     -11.9      0.000      0.000
REMARK SMILES CC(C)c1ccc2c(c1)c(SC(C)(C)C)c(CC(C)(C)C(=O)NCCCCCCNC(=O)c1ccc(-c3c4nc(c(-c5ccc(S(=O)(=O)[O-])cc5)c5ccc([nH]5)c(-c5ccc(S(=O)(=O)[O-])cc5)c5nc(c(-c6ccc(S(=O)(=O)[O-])cc6)c6ccc3[nH]6)C=C5)C=C4)cc1)n2Cc1ccc(Cl)cc1
REMARK SMILES IDX 26 1 25 2 24 3 23 4 21 5 22 6 18 8 19 9 20 10 17 11 16 12
REMARK SMILES IDX 4 13 5 14 9 15 6 16 8 17 7 18 10 19 93 20 2 21 1 22 3 23
REMARK SMILES IDX 11 24 12 25 13 26 14 27 15 28 94 29 95 30 96 31 101 32 97 33
REMARK SMILES IDX 100 34 98 35 99 36 27 37 28 38 29 39 30 40 31 41 32 43 33 44
REMARK SMILES IDX 34 45 92 46 35 47 91 48 36 49 37 50 38 51 85 52 39 53 90 54
REMARK SMILES IDX 84 55 86 56 40 57 89 58 83 59 82 60 41 62 71 63 52 64 70 65
REMARK SMILES IDX 53 66 56 67 69 68 87 69 54 70 55 71 68 73 88 74 57 75 42 76
REMARK SMILES IDX 43 77 51 78 44 79 50 80 45 81 46 82 47 83 48 84 49 85 72 86
REMARK SMILES IDX 73 87 81 88 74 89 80 90 75 91 76 92 77 93 78 94 79 95 58 96
REMARK SMILES IDX 59 97 67 98 60 99 66 100 61 101 62 102 63 103 64 104 65 105
REMARK H PARENT 23 7 30 42 86 61 56 72
REMARK Flexibility Score: inf
ROOT
ATOM      1  C   UNL A   1      32.917  28.396  27.275  1.00  0.00     0.002 C 
ENDROOT
BRANCH   1   2
ATOM      2  C   UNL A   1      31.483  27.901  27.171  1.00  0.00     0.021 C 
BRANCH   2   3
ATOM      3  C   UNL A   1      31.423  26.567  26.470  1.00  0.00     0.116 C 
BRANCH   3   4
ATOM      4  N   UNL A   1      30.129  25.931  26.635  1.00  0.00    -0.356 N 
ATOM      5  C   UNL A   1      29.824  24.593  26.596  1.00  0.00     0.226 C 
ATOM      6  O   UNL A   1      28.777  24.246  27.128  1.00  0.00    -0.275 OA
ATOM      7  H   UNL A   1      29.372  26.539  26.796  1.00  0.00     0.163 HD
BRANCH   5   8
ATOM      8  C   UNL A   1      30.902  23.621  26.111  1.00  0.00     0.049 C 
ATOM      9  C   UNL A   1      30.056  22.325  26.245  1.00  0.00     0.022 C 
ATOM     10  C   UNL A   1      32.183  23.854  26.972  1.00  0.00     0.022 C 
BRANCH   8  11
ATOM     11  C   UNL A   1      31.473  23.776  24.670  1.00  0.00     0.071 C 
BRANCH  11  12
ATOM     12  C   UNL A   1      32.885  23.435  24.473  1.00  0.00     0.034 A 
ATOM     13  C   UNL A   1      37.353  22.482  25.208  1.00  0.00    -0.045 A 
ATOM     14  C   UNL A   1      36.873  21.195  24.960  1.00  0.00     0.006 A 
ATOM     15  C   UNL A   1      36.481  23.576  25.019  1.00  0.00     0.015 A 
ATOM     16  C   UNL A   1      35.536  20.964  24.621  1.00  0.00     0.027 A 
ATOM     17  C   UNL A   1      35.114  23.382  24.680  1.00  0.00     0.014 A 
ATOM     18  C   UNL A   1      34.663  22.062  24.529  1.00  0.00     0.050 A 
ATOM     19  C   UNL A   1      33.991  24.273  24.479  1.00  0.00     0.037 A 
ATOM     20  N   UNL A   1      33.296  22.116  24.302  1.00  0.00    -0.339 N 
BRANCH  13  21
ATOM     21  C   UNL A   1      38.780  22.729  25.680  1.00  0.00     0.013 C 
ATOM     22  C   UNL A   1      38.889  23.801  26.775  1.00  0.00     0.012 C 
ATOM     23  C   UNL A   1      39.426  21.426  26.151  1.00  0.00     0.012 C 
ENDBRANCH  13  21
BRANCH  19  24
ATOM     24  S   UNL A   1      34.183  26.047  24.554  1.00  0.00    -0.118 SA
BRANCH  24  25
ATOM     25  C   UNL A   1      33.298  27.156  23.321  1.00  0.00     0.012 C 
ATOM     26  C   UNL A   1      33.568  26.678  21.890  1.00  0.00     0.023 C 
ATOM     27  C   UNL A   1      31.804  27.554  23.415  1.00  0.00     0.023 C 
ATOM     28  C   UNL A   1      33.985  28.532  23.551  1.00  0.00     0.023 C 
ENDBRANCH  24  25
ENDBRANCH  19  24
BRANCH  20  29
ATOM     29  C   UNL A   1      32.495  20.984  23.755  1.00  0.00     0.158 C 
BRANCH  29  30
ATOM     30  C   UNL A   1      32.801  19.572  24.237  1.00  0.00    -0.028 A 
ATOM     31  C   UNL A   1      33.212  18.566  23.338  1.00  0.00     0.007 A 
ATOM     32  C   UNL A   1      32.657  19.211  25.587  1.00  0.00     0.007 A 
ATOM     33  C   UNL A   1      33.265  17.221  23.722  1.00  0.00     0.021 A 
ATOM     34  C   UNL A   1      32.771  17.869  25.989  1.00  0.00     0.021 A 
ATOM     35  C   UNL A   1      33.017  16.877  25.044  1.00  0.00     0.041 A 
ATOM     36  Cl  UNL A   1      32.984  15.215  25.497  1.00  0.00    -0.084 Cl
ENDBRANCH  29  30
ENDBRANCH  20  29
ENDBRANCH  11  12
ENDBRANCH   8  11
ENDBRANCH   5   8
ENDBRANCH   3   4
ENDBRANCH   2   3
ENDBRANCH   1   2
BRANCH   1  37
ATOM     37  C   UNL A   1      33.054  29.920  27.151  1.00  0.00     0.002 C 
BRANCH  37  38
ATOM     38  C   UNL A   1      34.484  30.454  27.317  1.00  0.00     0.021 C 
BRANCH  38  39
ATOM     39  C   UNL A   1      34.538  31.931  27.705  1.00  0.00     0.116 C 
BRANCH  39  40
ATOM     40  N   UNL A   1      34.292  32.151  29.112  1.00  0.00    -0.352 N 
ATOM     41  C   UNL A   1      35.021  31.966  30.249  1.00  0.00     0.251 C 
ATOM     42  H   UNL A   1      33.395  32.517  29.288  1.00  0.00     0.163 HD
ATOM     43  O   UNL A   1      34.445  32.227  31.308  1.00  0.00    -0.269 OA
BRANCH  41  44
ATOM     44  C   UNL A   1      36.408  31.439  30.287  1.00  0.00     0.039 A 
ATOM     45  C   UNL A   1      37.574  32.207  30.317  1.00  0.00     0.014 A 
ATOM     46  C   UNL A   1      36.526  30.038  30.276  1.00  0.00     0.014 A 
ATOM     47  C   UNL A   1      38.820  31.602  30.237  1.00  0.00     0.010 A 
ATOM     48  C   UNL A   1      37.770  29.425  30.234  1.00  0.00     0.010 A 
ATOM     49  C   UNL A   1      38.915  30.213  30.166  1.00  0.00    -0.014 A 
BRANCH  49  50
ATOM     50  C   UNL A   1      40.250  29.625  30.143  1.00  0.00     0.031 A 
ATOM     51  C   UNL A   1      40.820  29.306  31.485  1.00  0.00     0.074 A 
ATOM     52  C   UNL A   1      40.872  29.273  29.001  1.00  0.00     0.049 A 
ATOM     53  N   UNL A   1      41.923  29.724  32.015  1.00  0.00    -0.248 NA
ATOM     54  C   UNL A   1      39.987  28.500  32.395  1.00  0.00     0.031 C 
ATOM     55  C   UNL A   1      40.318  29.266  27.643  1.00  0.00     0.029 A 
ATOM     56  N   UNL A   1      42.105  28.721  28.832  1.00  0.00    -0.354 N 
ATOM     57  C   UNL A   1      42.019  29.089  33.252  1.00  0.00     0.074 A 
ATOM     58  C   UNL A   1      40.742  28.466  33.491  1.00  0.00     0.031 C 
ATOM     59  C   UNL A   1      41.103  28.508  26.847  1.00  0.00     0.029 A 
ATOM     60  C   UNL A   1      42.287  28.118  27.593  1.00  0.00     0.049 A 
ATOM     61  H   UNL A   1      42.805  28.748  29.524  1.00  0.00     0.167 HD
ATOM     62  C   UNL A   1      43.203  28.941  33.909  1.00  0.00     0.031 A 
ATOM     63  C   UNL A   1      43.301  27.294  27.235  1.00  0.00     0.031 A 
ATOM     64  C   UNL A   1      44.199  29.863  33.440  1.00  0.00     0.049 A 
ATOM     65  C   UNL A   1      44.418  27.535  28.175  1.00  0.00     0.074 A 
ATOM     66  C   UNL A   1      44.330  31.236  33.439  1.00  0.00     0.029 A 
ATOM     67  N   UNL A   1      45.115  29.390  32.534  1.00  0.00    -0.354 N 
ATOM     68  N   UNL A   1      45.075  28.659  28.250  1.00  0.00    -0.248 NA
ATOM     69  C   UNL A   1      44.559  26.651  29.319  1.00  0.00     0.031 C 
ATOM     70  C   UNL A   1      44.986  31.544  32.214  1.00  0.00     0.029 A 
ATOM     71  C   UNL A   1      45.271  30.342  31.560  1.00  0.00     0.049 A 
ATOM     72  H   UNL A   1      45.577  28.521  32.575  1.00  0.00     0.167 HD
ATOM     73  C   UNL A   1      45.362  28.811  29.598  1.00  0.00     0.074 A 
ATOM     74  C   UNL A   1      45.127  27.493  30.183  1.00  0.00     0.031 C 
ATOM     75  C   UNL A   1      45.504  30.048  30.156  1.00  0.00     0.031 A 
BRANCH  62  76
ATOM     76  C   UNL A   1      43.548  27.722  34.733  1.00  0.00    -0.014 A 
ATOM     77  C   UNL A   1      43.604  26.423  34.186  1.00  0.00     0.010 A 
ATOM     78  C   UNL A   1      44.080  27.886  36.029  1.00  0.00     0.010 A 
ATOM     79  C   UNL A   1      44.139  25.341  34.885  1.00  0.00     0.020 A 
ATOM     80  C   UNL A   1      44.663  26.813  36.724  1.00  0.00     0.020 A 
ATOM     81  C   UNL A   1      44.681  25.545  36.147  1.00  0.00     0.054 A 
BRANCH  81  82
ATOM     82  S   UNL A   1      45.475  24.141  36.966  1.00  0.00     0.124 S 
ATOM     83  O   UNL A   1      46.891  24.431  36.749  1.00  0.00    -0.237 OA
ATOM     84  O   UNL A   1      45.008  24.275  38.342  1.00  0.00    -0.237 OA
ATOM     85  O   UNL A   1      44.956  22.984  36.241  1.00  0.00    -0.744 OA
ENDBRANCH  81  82
ENDBRANCH  62  76
BRANCH  63  86
ATOM     86  C   UNL A   1      43.187  26.031  26.458  1.00  0.00    -0.014 A 
ATOM     87  C   UNL A   1      42.542  24.914  27.028  1.00  0.00     0.010 A 
ATOM     88  C   UNL A   1      43.986  25.820  25.318  1.00  0.00     0.010 A 
ATOM     89  C   UNL A   1      42.754  23.622  26.534  1.00  0.00     0.020 A 
ATOM     90  C   UNL A   1      44.206  24.524  24.819  1.00  0.00     0.020 A 
ATOM     91  C   UNL A   1      43.618  23.431  25.456  1.00  0.00     0.054 A 
BRANCH  91  92
ATOM     92  S   UNL A   1      44.027  21.727  24.981  1.00  0.00     0.124 S 
ATOM     93  O   UNL A   1      44.222  21.853  23.540  1.00  0.00    -0.237 OA
ATOM     94  O   UNL A   1      45.234  21.464  25.758  1.00  0.00    -0.237 OA
ATOM     95  O   UNL A   1      42.849  20.962  25.388  1.00  0.00    -0.744 OA
ENDBRANCH  91  92
ENDBRANCH  63  86
BRANCH  75  96
ATOM     96  C   UNL A   1      45.649  31.253  29.249  1.00  0.00    -0.014 A 
ATOM     97  C   UNL A   1      44.467  31.825  28.743  1.00  0.00     0.010 A 
ATOM     98  C   UNL A   1      46.882  31.693  28.726  1.00  0.00     0.010 A 
ATOM     99  C   UNL A   1      44.505  32.767  27.714  1.00  0.00     0.020 A 
ATOM    100  C   UNL A   1      46.928  32.661  27.707  1.00  0.00     0.020 A 
ATOM    101  C   UNL A   1      45.734  33.167  27.187  1.00  0.00     0.054 A 
BRANCH 101 102
ATOM    102  S   UNL A   1      45.729  34.325  25.791  1.00  0.00     0.124 S 
ATOM    103  O   UNL A   1      47.139  34.356  25.410  1.00  0.00    -0.237 OA
ATOM    104  O   UNL A   1      44.839  33.671  24.833  1.00  0.00    -0.237 OA
ATOM    105  O   UNL A   1      45.214  35.568  26.362  1.00  0.00    -0.744 OA
ENDBRANCH 101 102
ENDBRANCH  75  96
ENDBRANCH  49  50
ENDBRANCH  41  44
ENDBRANCH  39  40
ENDBRANCH  38  39
ENDBRANCH  37  38
ENDBRANCH   1  37
TORSDOF 23
ENDMDL
MODEL 2
REMARK VINA RESULT:      -9.8      5.650     13.943
REMARK SMILES CC(C)c1ccc2c(c1)c(SC(C)(C)C)c(CC(C)(C)C(=O)NCCCCCCNC(=O)c1ccc(-c3c4nc(c(-c5ccc(S(=O)(=O)[O-])cc5)c5ccc([nH]5)c(-c5ccc(S(=O)(=O)[O-])cc5)c5nc(c(-c6ccc(S(=O)(=O)[O-])cc6)c6ccc3[nH]6)C=C5)C=C4)cc1)n2Cc1ccc(Cl)cc1
REMARK SMILES IDX 26 1 25 2 24 3 23 4 21 5 22 6 18 8 19 9 20 10 17 11 16 12
REMARK SMILES IDX 4 13 5 14 9 15 6 16 8 17 7 18 10 19 93 20 2 21 1 22 3 23
REMARK SMILES IDX 11 24 12 25 13 26 14 27 15 28 94 29 95 30 96 31 101 32 97 33
REMARK SMILES IDX 100 34 98 35 99 36 27 37 28 38 29 39 30 40 31 41 32 43 33 44
REMARK SMILES IDX 34 45 92 46 35 47 91 48 36 49 37 50 38 51 85 52 39 53 90 54
REMARK SMILES IDX 84 55 86 56 40 57 89 58 83 59 82 60 41 62 71 63 52 64 70 65
REMARK SMILES IDX 53 66 56 67 69 68 87 69 54 70 55 71 68 73 88 74 57 75 42 76
REMARK SMILES IDX 43 77 51 78 44 79 50 80 45 81 46 82 47 83 48 84 49 85 72 86
REMARK SMILES IDX 73 87 81 88 74 89 80 90 75 91 76 92 77 93 78 94 79 95 58 96
REMARK SMILES IDX 59 97 67 98 60 99 66 100 61 101 62 102 63 103 64 104 65 105
REMARK H PARENT 23 7 30 42 86 61 56 72
REMARK Flexibility Score: inf
ROOT
ATOM      1  C   UNL A   1      45.140  23.680  26.558  1.00  0.00     0.002 C 
ENDROOT
BRANCH   1   2
ATOM      2  C   UNL A   1      45.452  24.804  27.533  1.00  0.00     0.021 C 
BRANCH   2   3
ATOM      3  C   UNL A   1      46.536  25.702  26.992  1.00  0.00     0.116 C 
BRANCH   3   4
ATOM      4  N   UNL A   1      47.815  25.018  26.921  1.00  0.00    -0.356 N 
ATOM      5  C   UNL A   1      48.942  25.235  27.674  1.00  0.00     0.226 C 
ATOM      6  O   UNL A   1      49.759  24.324  27.727  1.00  0.00    -0.275 OA
ATOM      7  H   UNL A   1      47.882  24.306  26.245  1.00  0.00     0.163 HD
BRANCH   5   8
ATOM      8  C   UNL A   1      48.986  26.478  28.567  1.00  0.00     0.049 C 
ATOM      9  C   UNL A   1      48.316  25.835  29.811  1.00  0.00     0.022 C 
ATOM     10  C   UNL A   1      48.312  27.652  27.789  1.00  0.00     0.022 C 
BRANCH   8  11
ATOM     11  C   UNL A   1      50.365  27.106  28.928  1.00  0.00     0.071 C 
BRANCH  11  12
ATOM     12  C   UNL A   1      50.364  28.498  29.385  1.00  0.00     0.034 A 
ATOM     13  C   UNL A   1      49.169  32.900  30.166  1.00  0.00    -0.045 A 
ATOM     14  C   UNL A   1      48.890  32.352  31.419  1.00  0.00     0.006 A 
ATOM     15  C   UNL A   1      49.811  32.091  29.204  1.00  0.00     0.015 A 
ATOM     16  C   UNL A   1      49.147  31.007  31.705  1.00  0.00     0.027 A 
ATOM     17  C   UNL A   1      50.085  30.719  29.454  1.00  0.00     0.014 A 
ATOM     18  C   UNL A   1      49.702  30.197  30.699  1.00  0.00     0.050 A 
ATOM     19  C   UNL A   1      50.664  29.648  28.670  1.00  0.00     0.037 A 
ATOM     20  N   UNL A   1      49.974  28.837  30.678  1.00  0.00    -0.339 N 
BRANCH  13  21
ATOM     21  C   UNL A   1      48.794  34.334  29.816  1.00  0.00     0.013 C 
ATOM     22  C   UNL A   1      48.576  35.230  31.044  1.00  0.00     0.012 C 
ATOM     23  C   UNL A   1      49.840  34.954  28.889  1.00  0.00     0.012 C 
ENDBRANCH  13  21
BRANCH  19  24
ATOM     24  S   UNL A   1      51.306  29.938  27.028  1.00  0.00    -0.118 SA
BRANCH  24  25
ATOM     25  C   UNL A   1      52.625  31.246  26.737  1.00  0.00     0.012 C 
ATOM     26  C   UNL A   1      53.241  31.683  28.070  1.00  0.00     0.023 C 
ATOM     27  C   UNL A   1      53.770  31.121  25.702  1.00  0.00     0.023 C 
ATOM     28  C   UNL A   1      51.806  32.421  26.130  1.00  0.00     0.023 C 
ENDBRANCH  24  25
ENDBRANCH  19  24
BRANCH  20  29
ATOM     29  C   UNL A   1      50.041  27.980  31.895  1.00  0.00     0.158 C 
BRANCH  29  30
ATOM     30  C   UNL A   1      51.387  27.401  32.309  1.00  0.00    -0.028 A 
ATOM     31  C   UNL A   1      51.608  26.009  32.329  1.00  0.00     0.007 A 
ATOM     32  C   UNL A   1      52.448  28.228  32.714  1.00  0.00     0.007 A 
ATOM     33  C   UNL A   1      52.747  25.459  32.928  1.00  0.00     0.021 A 
ATOM     34  C   UNL A   1      53.621  27.679  33.258  1.00  0.00     0.021 A 
ATOM     35  C   UNL A   1      53.739  26.300  33.414  1.00  0.00     0.041 A 
ATOM     36  Cl  UNL A   1      55.094  25.629  34.239  1.00  0.00    -0.084 Cl
ENDBRANCH  29  30
ENDBRANCH  20  29
ENDBRANCH  11  12
ENDBRANCH   8  11
ENDBRANCH   5   8
ENDBRANCH   3   4
ENDBRANCH   2   3
ENDBRANCH   1   2
BRANCH   1  37
ATOM     37  C   UNL A   1      44.454  24.155  25.269  1.00  0.00     0.002 C 
BRANCH  37  38
ATOM     38  C   UNL A   1      43.559  23.106  24.593  1.00  0.00     0.021 C 
BRANCH  38  39
ATOM     39  C   UNL A   1      43.286  21.886  25.471  1.00  0.00     0.116 C 
BRANCH  39  40
ATOM     40  N   UNL A   1      41.876  21.615  25.635  1.00  0.00    -0.352 N 
ATOM     41  C   UNL A   1      40.838  22.275  26.222  1.00  0.00     0.251 C 
ATOM     42  H   UNL A   1      41.604  20.759  25.231  1.00  0.00     0.163 HD
ATOM     43  O   UNL A   1      39.751  21.694  26.208  1.00  0.00    -0.269 OA
BRANCH  41  44
ATOM     44  C   UNL A   1      40.950  23.592  26.899  1.00  0.00     0.039 A 
ATOM     45  C   UNL A   1      40.402  24.794  26.445  1.00  0.00     0.014 A 
ATOM     46  C   UNL A   1      41.692  23.600  28.094  1.00  0.00     0.014 A 
ATOM     47  C   UNL A   1      40.669  25.984  27.105  1.00  0.00     0.010 A 
ATOM     48  C   UNL A   1      41.930  24.782  28.780  1.00  0.00     0.010 A 
ATOM     49  C   UNL A   1      41.456  25.981  28.256  1.00  0.00    -0.014 A 
BRANCH  49  50
ATOM     50  C   UNL A   1      41.657  27.251  28.944  1.00  0.00     0.031 A 
ATOM     51  C   UNL A   1      42.954  27.929  28.646  1.00  0.00     0.074 A 
ATOM     52  C   UNL A   1      40.699  27.838  29.688  1.00  0.00     0.049 A 
ATOM     53  N   UNL A   1      43.883  28.293  29.468  1.00  0.00    -0.248 NA
ATOM     54  C   UNL A   1      43.300  28.124  27.228  1.00  0.00     0.031 C 
ATOM     55  C   UNL A   1      39.298  27.428  29.830  1.00  0.00     0.029 A 
ATOM     56  N   UNL A   1      40.748  29.009  30.379  1.00  0.00    -0.354 N 
ATOM     57  C   UNL A   1      44.852  28.931  28.694  1.00  0.00     0.074 A 
ATOM     58  C   UNL A   1      44.510  28.671  27.319  1.00  0.00     0.031 C 
ATOM     59  C   UNL A   1      38.584  28.457  30.338  1.00  0.00     0.029 A 
ATOM     60  C   UNL A   1      39.499  29.524  30.703  1.00  0.00     0.049 A 
ATOM     61  H   UNL A   1      41.592  29.452  30.628  1.00  0.00     0.167 HD
ATOM     62  C   UNL A   1      45.756  29.800  29.225  1.00  0.00     0.031 A 
ATOM     63  C   UNL A   1      39.231  30.770  31.165  1.00  0.00     0.031 A 
ATOM     64  C   UNL A   1      45.892  29.638  30.645  1.00  0.00     0.049 A 
ATOM     65  C   UNL A   1      40.487  31.307  31.736  1.00  0.00     0.074 A 
ATOM     66  C   UNL A   1      46.331  28.624  31.470  1.00  0.00     0.029 A 
ATOM     67  N   UNL A   1      45.200  30.512  31.445  1.00  0.00    -0.354 N 
ATOM     68  N   UNL A   1      41.077  30.813  32.788  1.00  0.00    -0.248 NA
ATOM     69  C   UNL A   1      41.311  32.165  30.902  1.00  0.00     0.031 C 
ATOM     70  C   UNL A   1      45.499  28.700  32.624  1.00  0.00     0.029 A 
ATOM     71  C   UNL A   1      44.638  29.790  32.466  1.00  0.00     0.049 A 
ATOM     72  H   UNL A   1      45.120  31.484  31.311  1.00  0.00     0.167 HD
ATOM     73  C   UNL A   1      42.433  30.945  32.528  1.00  0.00     0.074 A 
ATOM     74  C   UNL A   1      42.511  31.888  31.414  1.00  0.00     0.031 C 
ATOM     75  C   UNL A   1      43.344  30.080  33.059  1.00  0.00     0.031 A 
BRANCH  62  76
ATOM     76  C   UNL A   1      46.251  31.028  28.495  1.00  0.00    -0.014 A 
ATOM     77  C   UNL A   1      47.107  30.957  27.376  1.00  0.00     0.010 A 
ATOM     78  C   UNL A   1      45.658  32.280  28.759  1.00  0.00     0.010 A 
ATOM     79  C   UNL A   1      47.377  32.063  26.571  1.00  0.00     0.020 A 
ATOM     80  C   UNL A   1      45.886  33.390  27.928  1.00  0.00     0.020 A 
ATOM     81  C   UNL A   1      46.751  33.273  26.843  1.00  0.00     0.054 A 
BRANCH  81  82
ATOM     82  S   UNL A   1      47.034  34.648  25.701  1.00  0.00     0.124 S 
ATOM     83  O   UNL A   1      45.898  34.519  24.792  1.00  0.00    -0.237 OA
ATOM     84  O   UNL A   1      47.001  35.805  26.590  1.00  0.00    -0.237 OA
ATOM     85  O   UNL A   1      48.339  34.347  25.119  1.00  0.00    -0.744 OA
ENDBRANCH  81  82
ENDBRANCH  62  76
BRANCH  63  86
ATOM     86  C   UNL A   1      38.123  31.660  30.730  1.00  0.00    -0.014 A 
ATOM     87  C   UNL A   1      36.831  31.485  31.268  1.00  0.00     0.010 A 
ATOM     88  C   UNL A   1      38.252  32.443  29.566  1.00  0.00     0.010 A 
ATOM     89  C   UNL A   1      35.700  31.998  30.623  1.00  0.00     0.020 A 
ATOM     90  C   UNL A   1      37.119  32.957  28.912  1.00  0.00     0.020 A 
ATOM     91  C   UNL A   1      35.848  32.697  29.426  1.00  0.00     0.054 A 
BRANCH  91  92
ATOM     92  S   UNL A   1      34.347  33.163  28.517  1.00  0.00     0.124 S 
ATOM     93  O   UNL A   1      34.887  33.990  27.443  1.00  0.00    -0.237 OA
ATOM     94  O   UNL A   1      33.814  31.868  28.104  1.00  0.00    -0.237 OA
ATOM     95  O   UNL A   1      33.547  33.874  29.513  1.00  0.00    -0.744 OA
ENDBRANCH  91  92
ENDBRANCH  63  86
BRANCH  75  96
ATOM     96  C   UNL A   1      42.912  29.154  34.178  1.00  0.00    -0.014 A 
ATOM     97  C   UNL A   1      43.472  29.375  35.450  1.00  0.00     0.010 A 
ATOM     98  C   UNL A   1      42.160  27.978  33.974  1.00  0.00     0.010 A 
ATOM     99  C   UNL A   1      43.333  28.436  36.473  1.00  0.00     0.020 A 
ATOM    100  C   UNL A   1      41.995  27.041  35.008  1.00  0.00     0.020 A 
ATOM    101  C   UNL A   1      42.611  27.263  36.242  1.00  0.00     0.054 A 
BRANCH 101 102
ATOM    102  S   UNL A   1      42.535  26.032  37.572  1.00  0.00     0.124 S 
ATOM    103  O   UNL A   1      41.116  26.042  37.921  1.00  0.00    -0.237 OA
ATOM    104  O   UNL A   1      43.004  24.814  36.911  1.00  0.00    -0.237 OA
ATOM    105  O   UNL A   1      43.430  26.560  38.598  1.00  0.00    -0.744 OA
ENDBRANCH 101 102
ENDBRANCH  75  96
ENDBRANCH  49  50
ENDBRANCH  41  44
ENDBRANCH  39  40
ENDBRANCH  38  39
ENDBRANCH  37  38
ENDBRANCH   1  37
TORSDOF 23
ENDMDL
MODEL 3
REMARK VINA RESULT:      -9.7      5.692     14.137
REMARK SMILES CC(C)c1ccc2c(c1)c(SC(C)(C)C)c(CC(C)(C)C(=O)NCCCCCCNC(=O)c1ccc(-c3c4nc(c(-c5ccc(S(=O)(=O)[O-])cc5)c5ccc([nH]5)c(-c5ccc(S(=O)(=O)[O-])cc5)c5nc(c(-c6ccc(S(=O)(=O)[O-])cc6)c6ccc3[nH]6)C=C5)C=C4)cc1)n2Cc1ccc(Cl)cc1
REMARK SMILES IDX 26 1 25 2 24 3 23 4 21 5 22 6 18 8 19 9 20 10 17 11 16 12
REMARK SMILES IDX 4 13 5 14 9 15 6 16 8 17 7 18 10 19 93 20 2 21 1 22 3 23
REMARK SMILES IDX 11 24 12 25 13 26 14 27 15 28 94 29 95 30 96 31 101 32 97 33
REMARK SMILES IDX 100 34 98 35 99 36 27 37 28 38 29 39 30 40 31 41 32 43 33 44
REMARK SMILES IDX 34 45 92 46 35 47 91 48 36 49 37 50 38 51 85 52 39 53 90 54
REMARK SMILES IDX 84 55 86 56 40 57 89 58 83 59 82 60 41 62 71 63 52 64 70 65
REMARK SMILES IDX 53 66 56 67 69 68 87 69 54 70 55 71 68 73 88 74 57 75 42 76
REMARK SMILES IDX 43 77 51 78 44 79 50 80 45 81 46 82 47 83 48 84 49 85 72 86
REMARK SMILES IDX 73 87 81 88 74 89 80 90 75 91 76 92 77 93 78 94 79 95 58 96
REMARK SMILES IDX 59 97 67 98 60 99 66 100 61 101 62 102 63 103 64 104 65 105
REMARK H PARENT 23 7 30 42 86 61 56 72
REMARK Flexibility Score: inf
ROOT
ATOM      1  C   UNL A   1      45.554  23.539  26.443  1.00  0.00     0.002 C 
ENDROOT
BRANCH   1   2
ATOM      2  C   UNL A   1      45.329  24.728  27.363  1.00  0.00     0.021 C 
BRANCH   2   3
ATOM      3  C   UNL A   1      46.573  25.576  27.461  1.00  0.00     0.116 C 
BRANCH   3   4
ATOM      4  N   UNL A   1      47.756  24.768  27.694  1.00  0.00    -0.356 N 
ATOM      5  C   UNL A   1      49.023  24.946  27.198  1.00  0.00     0.226 C 
ATOM      6  O   UNL A   1      49.939  24.403  27.802  1.00  0.00    -0.275 OA
ATOM      7  H   UNL A   1      47.633  23.991  28.285  1.00  0.00     0.163 HD
BRANCH   5   8
ATOM      8  C   UNL A   1      49.225  25.982  26.089  1.00  0.00     0.049 C 
ATOM      9  C   UNL A   1      49.126  27.242  26.992  1.00  0.00     0.022 C 
ATOM     10  C   UNL A   1      48.178  25.696  24.967  1.00  0.00     0.022 C 
BRANCH   8  11
ATOM     11  C   UNL A   1      50.553  25.974  25.273  1.00  0.00     0.071 C 
BRANCH  11  12
ATOM     12  C   UNL A   1      51.330  27.217  25.254  1.00  0.00     0.034 A 
ATOM     13  C   UNL A   1      52.563  31.671  25.477  1.00  0.00    -0.045 A 
ATOM     14  C   UNL A   1      53.063  31.224  26.702  1.00  0.00     0.006 A 
ATOM     15  C   UNL A   1      52.045  30.720  24.572  1.00  0.00     0.015 A 
ATOM     16  C   UNL A   1      52.978  29.881  27.082  1.00  0.00     0.027 A 
ATOM     17  C   UNL A   1      51.937  29.347  24.923  1.00  0.00     0.014 A 
ATOM     18  C   UNL A   1      52.374  28.966  26.202  1.00  0.00     0.050 A 
ATOM     19  C   UNL A   1      51.414  28.174  24.254  1.00  0.00     0.037 A 
ATOM     20  N   UNL A   1      52.082  27.619  26.355  1.00  0.00    -0.339 N 
BRANCH  13  21
ATOM     21  C   UNL A   1      52.557  33.148  25.104  1.00  0.00     0.013 C 
ATOM     22  C   UNL A   1      51.177  33.810  25.232  1.00  0.00     0.012 C 
ATOM     23  C   UNL A   1      53.590  33.917  25.928  1.00  0.00     0.012 C 
ENDBRANCH  13  21
BRANCH  19  24
ATOM     24  S   UNL A   1      50.794  28.256  22.581  1.00  0.00    -0.118 SA
BRANCH  24  25
ATOM     25  C   UNL A   1      51.963  28.068  21.120  1.00  0.00     0.012 C 
ATOM     26  C   UNL A   1      52.764  26.768  21.248  1.00  0.00     0.023 C 
ATOM     27  C   UNL A   1      51.544  28.225  19.637  1.00  0.00     0.023 C 
ATOM     28  C   UNL A   1      52.914  29.286  21.290  1.00  0.00     0.023 C 
ENDBRANCH  24  25
ENDBRANCH  19  24
BRANCH  20  29
ATOM     29  C   UNL A   1      52.678  26.751  27.408  1.00  0.00     0.158 C 
BRANCH  29  30
ATOM     30  C   UNL A   1      53.858  25.861  27.041  1.00  0.00    -0.028 A 
ATOM     31  C   UNL A   1      55.135  26.074  27.598  1.00  0.00     0.007 A 
ATOM     32  C   UNL A   1      53.726  24.814  26.113  1.00  0.00     0.007 A 
ATOM     33  C   UNL A   1      56.269  25.424  27.097  1.00  0.00     0.021 A 
ATOM     34  C   UNL A   1      54.854  24.115  25.652  1.00  0.00     0.021 A 
ATOM     35  C   UNL A   1      56.124  24.464  26.105  1.00  0.00     0.041 A 
ATOM     36  Cl  UNL A   1      57.525  23.735  25.416  1.00  0.00    -0.084 Cl
ENDBRANCH  29  30
ENDBRANCH  20  29
ENDBRANCH  11  12
ENDBRANCH   8  11
ENDBRANCH   5   8
ENDBRANCH   3   4
ENDBRANCH   2   3
ENDBRANCH   1   2
BRANCH   1  37
ATOM     37  C   UNL A   1      45.026  23.754  25.018  1.00  0.00     0.002 C 
BRANCH  37  38
ATOM     38  C   UNL A   1      44.015  22.701  24.541  1.00  0.00     0.021 C 
BRANCH  38  39
ATOM     39  C   UNL A   1      44.047  21.413  25.364  1.00  0.00     0.116 C 
BRANCH  39  40
ATOM     40  N   UNL A   1      42.728  20.905  25.663  1.00  0.00    -0.352 N 
ATOM     41  C   UNL A   1      41.628  21.412  26.288  1.00  0.00     0.251 C 
ATOM     42  H   UNL A   1      42.594  19.983  25.343  1.00  0.00     0.163 HD
ATOM     43  O   UNL A   1      40.670  20.643  26.405  1.00  0.00    -0.269 OA
BRANCH  41  44
ATOM     44  C   UNL A   1      41.537  22.779  26.861  1.00  0.00     0.039 A 
ATOM     45  C   UNL A   1      40.917  23.877  26.261  1.00  0.00     0.014 A 
ATOM     46  C   UNL A   1      42.152  22.954  28.114  1.00  0.00     0.014 A 
ATOM     47  C   UNL A   1      40.994  25.134  26.842  1.00  0.00     0.010 A 
ATOM     48  C   UNL A   1      42.198  24.202  28.718  1.00  0.00     0.010 A 
ATOM     49  C   UNL A   1      41.659  25.301  28.056  1.00  0.00    -0.014 A 
BRANCH  49  50
ATOM     50  C   UNL A   1      41.660  26.631  28.652  1.00  0.00     0.031 A 
ATOM     51  C   UNL A   1      42.848  27.471  28.314  1.00  0.00     0.074 A 
ATOM     52  C   UNL A   1      40.615  27.121  29.347  1.00  0.00     0.049 A 
ATOM     53  N   UNL A   1      43.700  28.024  29.114  1.00  0.00    -0.248 NA
ATOM     54  C   UNL A   1      43.186  27.614  26.888  1.00  0.00     0.031 C 
ATOM     55  C   UNL A   1      39.287  26.520  29.509  1.00  0.00     0.029 A 
ATOM     56  N   UNL A   1      40.480  28.333  29.952  1.00  0.00    -0.354 N 
ATOM     57  C   UNL A   1      44.578  28.742  28.302  1.00  0.00     0.074 A 
ATOM     58  C   UNL A   1      44.301  28.339  26.947  1.00  0.00     0.031 C 
ATOM     59  C   UNL A   1      38.421  27.465  29.938  1.00  0.00     0.029 A 
ATOM     60  C   UNL A   1      39.163  28.679  30.231  1.00  0.00     0.049 A 
ATOM     61  H   UNL A   1      41.245  28.911  30.174  1.00  0.00     0.167 HD
ATOM     62  C   UNL A   1      45.336  29.771  28.774  1.00  0.00     0.031 A 
ATOM     63  C   UNL A   1      38.708  29.901  30.600  1.00  0.00     0.031 A 
ATOM     64  C   UNL A   1      45.471  29.730  30.203  1.00  0.00     0.049 A 
ATOM     65  C   UNL A   1      39.862  30.656  31.139  1.00  0.00     0.074 A 
ATOM     66  C   UNL A   1      46.039  28.853  31.102  1.00  0.00     0.029 A 
ATOM     67  N   UNL A   1      44.644  30.547  30.935  1.00  0.00    -0.354 N 
ATOM     68  N   UNL A   1      40.500  30.330  32.227  1.00  0.00    -0.248 NA
ATOM     69  C   UNL A   1      40.565  31.565  30.250  1.00  0.00     0.031 C 
ATOM     70  C   UNL A   1      45.187  28.886  32.242  1.00  0.00     0.029 A 
ATOM     71  C   UNL A   1      44.177  29.823  32.001  1.00  0.00     0.049 A 
ATOM     72  H   UNL A   1      44.425  31.485  30.730  1.00  0.00     0.167 HD
ATOM     73  C   UNL A   1      41.826  30.642  31.966  1.00  0.00     0.074 A 
ATOM     74  C   UNL A   1      41.784  31.506  30.789  1.00  0.00     0.031 C 
ATOM     75  C   UNL A   1      42.845  29.960  32.564  1.00  0.00     0.031 A 
BRANCH  62  76
ATOM     76  C   UNL A   1      45.657  31.004  27.961  1.00  0.00    -0.014 A 
ATOM     77  C   UNL A   1      44.742  32.063  27.788  1.00  0.00     0.010 A 
ATOM     78  C   UNL A   1      46.989  31.247  27.563  1.00  0.00     0.010 A 
ATOM     79  C   UNL A   1      45.115  33.289  27.236  1.00  0.00     0.020 A 
ATOM     80  C   UNL A   1      47.385  32.492  27.050  1.00  0.00     0.020 A 
ATOM     81  C   UNL A   1      46.441  33.503  26.884  1.00  0.00     0.054 A 
BRANCH  81  82
ATOM     82  S   UNL A   1      46.904  35.148  26.288  1.00  0.00     0.124 S 
ATOM     83  O   UNL A   1      45.603  35.802  26.178  1.00  0.00    -0.237 OA
ATOM     84  O   UNL A   1      47.766  35.637  27.359  1.00  0.00    -0.237 OA
ATOM     85  O   UNL A   1      47.577  34.876  25.021  1.00  0.00    -0.744 OA
ENDBRANCH  81  82
ENDBRANCH  62  76
BRANCH  63  86
ATOM     86  C   UNL A   1      37.488  30.585  30.095  1.00  0.00    -0.014 A 
ATOM     87  C   UNL A   1      37.537  31.299  28.880  1.00  0.00     0.010 A 
ATOM     88  C   UNL A   1      36.393  30.814  30.951  1.00  0.00     0.010 A 
ATOM     89  C   UNL A   1      36.578  32.269  28.568  1.00  0.00     0.020 A 
ATOM     90  C   UNL A   1      35.429  31.789  30.645  1.00  0.00     0.020 A 
ATOM     91  C   UNL A   1      35.551  32.537  29.473  1.00  0.00     0.054 A 
BRANCH  91  92
ATOM     92  S   UNL A   1      34.453  33.941  29.128  1.00  0.00     0.124 S 
ATOM     93  O   UNL A   1      35.401  34.980  28.741  1.00  0.00    -0.237 OA
ATOM     94  O   UNL A   1      33.611  33.426  28.052  1.00  0.00    -0.237 OA
ATOM     95  O   UNL A   1      33.766  34.163  30.400  1.00  0.00    -0.744 OA
ENDBRANCH  91  92
ENDBRANCH  63  86
BRANCH  75  96
ATOM     96  C   UNL A   1      42.536  29.061  33.744  1.00  0.00    -0.014 A 
ATOM     97  C   UNL A   1      43.070  29.430  34.993  1.00  0.00     0.010 A 
ATOM     98  C   UNL A   1      41.932  27.793  33.624  1.00  0.00     0.010 A 
ATOM     99  C   UNL A   1      43.053  28.547  36.074  1.00  0.00     0.020 A 
ATOM    100  C   UNL A   1      41.888  26.909  34.716  1.00  0.00     0.020 A 
ATOM    101  C   UNL A   1      42.478  27.283  35.926  1.00  0.00     0.054 A 
BRANCH 101 102
ATOM    102  S   UNL A   1      42.559  26.138  37.330  1.00  0.00     0.124 S 
ATOM    103  O   UNL A   1      41.153  26.007  37.703  1.00  0.00    -0.237 OA
ATOM    104  O   UNL A   1      43.161  24.943  36.739  1.00  0.00    -0.237 OA
ATOM    105  O   UNL A   1      43.398  26.831  38.306  1.00  0.00    -0.744 OA
ENDBRANCH 101 102
ENDBRANCH  75  96
ENDBRANCH  49  50
ENDBRANCH  41  44
ENDBRANCH  39  40
ENDBRANCH  38  39
ENDBRANCH  37  38
ENDBRANCH   1  37
TORSDOF 23
ENDMDL
