MODEL 1
REMARK VINA RESULT:     -11.3      0.000      0.000
REMARK SMILES Cc1cnn([C@H]2CC[C@@]([NH3+])(C(=O)NCCCCCCNC(=O)c3ccc(-c4c5nc(c(-c6ccc(S(=O)(=O)[O-])cc6)c6ccc([nH]6)c(-c6ccc(S(=O)(=O)[O-])cc6)c6nc(c(-c7ccc(S(=O)(=O)[O-])cc7)c7ccc4[nH]7)C=C6)C=C5)cc3)C2)c1
REMARK SMILES IDX 17 1 16 2 15 3 14 4 13 5 11 6 12 7 9 9 6 10 7 11 83 12 8 13
REMARK SMILES IDX 5 14 1 15 2 16 3 17 84 18 4 19 10 20 18 24 19 25 20 26 21 27
REMARK SMILES IDX 22 29 23 30 24 31 82 32 25 33 81 34 26 35 27 36 28 37 75 38
REMARK SMILES IDX 29 39 80 40 74 41 76 42 30 43 79 44 73 45 72 46 31 48 61 49
REMARK SMILES IDX 42 50 60 51 43 52 46 53 59 54 77 55 44 56 45 57 58 59 78 60
REMARK SMILES IDX 47 61 32 62 33 63 41 64 34 65 40 66 35 67 36 68 37 69 38 70
REMARK SMILES IDX 39 71 62 72 63 73 71 74 64 75 70 76 65 77 66 78 67 79 68 80
REMARK SMILES IDX 69 81 48 82 49 83 57 84 50 85 56 86 51 87 52 88 53 89 54 90
REMARK SMILES IDX 55 91
REMARK H PARENT 13 8 10 21 10 22 10 23 20 28 76 47 46 58
REMARK Flexibility Score: inf
ROOT
ATOM      1  C   UNL A   1      39.133  22.606  26.394  1.00  0.00     0.002 C 
ENDROOT
BRANCH   1   2
ATOM      2  C   UNL A   1      37.743  22.739  25.756  1.00  0.00     0.002 C 
BRANCH   2   3
ATOM      3  C   UNL A   1      37.396  21.732  24.655  1.00  0.00     0.021 C 
BRANCH   3   4
ATOM      4  C   UNL A   1      35.997  21.129  24.741  1.00  0.00     0.116 C 
BRANCH   4   5
ATOM      5  N   UNL A   1      35.482  21.116  26.097  1.00  0.00    -0.351 N 
ATOM      6  C   UNL A   1      34.337  21.677  26.581  1.00  0.00     0.281 C 
ATOM      7  O   UNL A   1      33.880  21.190  27.620  1.00  0.00    -0.268 OA
ATOM      8  H   UNL A   1      36.034  20.636  26.756  1.00  0.00     0.163 HD
BRANCH   6   9
ATOM      9  C   UNL A   1      33.569  22.776  25.775  1.00  0.00     0.176 C 
ATOM     10  C   UNL A   1      32.210  21.539  24.149  1.00  0.00     0.114 C 
ATOM     11  C   UNL A   1      31.258  22.112  25.216  1.00  0.00     0.034 C 
ATOM     12  C   UNL A   1      33.449  22.444  24.275  1.00  0.00     0.106 C 
ATOM     13  C   UNL A   1      32.103  22.940  26.192  1.00  0.00     0.081 C 
BRANCH  10  14
ATOM     14  N   UNL A   1      32.452  20.109  24.277  1.00  0.00    -0.269 N 
ATOM     15  C   UNL A   1      33.904  16.891  23.433  1.00  0.00     0.048 C 
ATOM     16  C   UNL A   1      33.177  18.057  23.974  1.00  0.00    -0.013 A 
ATOM     17  C   UNL A   1      32.636  18.247  25.260  1.00  0.00     0.138 A 
ATOM     18  C   UNL A   1      32.902  19.240  23.323  1.00  0.00     0.112 A 
ATOM     19  N   UNL A   1      32.136  19.473  25.426  1.00  0.00    -0.181 NA
ENDBRANCH  10  14
BRANCH   9  20
ATOM     20  N   UNL A   1      34.350  24.025  25.933  1.00  0.00    -0.345 N 
ATOM     21  H   UNL A   1      33.733  24.829  25.808  1.00  0.00     0.345 HD
ATOM     22  H   UNL A   1      35.091  24.054  25.233  1.00  0.00     0.345 HD
ATOM     23  H   UNL A   1      34.762  24.054  26.865  1.00  0.00     0.345 HD
ENDBRANCH   9  20
ENDBRANCH   6   9
ENDBRANCH   4   5
ENDBRANCH   3   4
ENDBRANCH   2   3
ENDBRANCH   1   2
BRANCH   1  24
ATOM     24  C   UNL A   1      39.897  21.300  26.134  1.00  0.00     0.021 C 
BRANCH  24  25
ATOM     25  C   UNL A   1      41.278  21.234  26.768  1.00  0.00     0.116 C 
BRANCH  25  26
ATOM     26  N   UNL A   1      42.350  21.568  25.834  1.00  0.00    -0.352 N 
ATOM     27  C   UNL A   1      42.755  22.826  25.420  1.00  0.00     0.251 C 
ATOM     28  H   UNL A   1      42.844  20.807  25.451  1.00  0.00     0.163 HD
ATOM     29  O   UNL A   1      43.365  22.972  24.375  1.00  0.00    -0.269 OA
BRANCH  27  30
ATOM     30  C   UNL A   1      42.425  23.984  26.274  1.00  0.00     0.039 A 
ATOM     31  C   UNL A   1      42.955  24.118  27.559  1.00  0.00     0.014 A 
ATOM     32  C   UNL A   1      41.592  24.967  25.745  1.00  0.00     0.014 A 
ATOM     33  C   UNL A   1      42.713  25.296  28.266  1.00  0.00     0.010 A 
ATOM     34  C   UNL A   1      41.485  26.183  26.374  1.00  0.00     0.010 A 
ATOM     35  C   UNL A   1      41.998  26.341  27.655  1.00  0.00    -0.014 A 
BRANCH  35  36
ATOM     36  C   UNL A   1      41.857  27.638  28.312  1.00  0.00     0.031 A 
ATOM     37  C   UNL A   1      42.961  28.603  28.056  1.00  0.00     0.074 A 
ATOM     38  C   UNL A   1      40.738  28.038  28.954  1.00  0.00     0.049 A 
ATOM     39  N   UNL A   1      43.878  28.977  28.884  1.00  0.00    -0.248 NA
ATOM     40  C   UNL A   1      43.147  29.118  26.690  1.00  0.00     0.031 C 
ATOM     41  C   UNL A   1      39.442  27.352  29.054  1.00  0.00     0.029 A 
ATOM     42  N   UNL A   1      40.492  29.223  29.577  1.00  0.00    -0.354 N 
ATOM     43  C   UNL A   1      44.638  29.933  28.219  1.00  0.00     0.074 A 
ATOM     44  C   UNL A   1      44.251  29.857  26.832  1.00  0.00     0.031 C 
ATOM     45  C   UNL A   1      38.498  28.222  29.479  1.00  0.00     0.029 A 
ATOM     46  C   UNL A   1      39.153  29.456  29.866  1.00  0.00     0.049 A 
ATOM     47  H   UNL A   1      41.206  29.862  29.804  1.00  0.00     0.167 HD
ATOM     48  C   UNL A   1      45.367  30.863  28.897  1.00  0.00     0.031 A 
ATOM     49  C   UNL A   1      38.617  30.585  30.391  1.00  0.00     0.031 A 
ATOM     50  C   UNL A   1      45.431  30.564  30.306  1.00  0.00     0.049 A 
ATOM     51  C   UNL A   1      39.714  31.301  31.081  1.00  0.00     0.074 A 
ATOM     52  C   UNL A   1      45.938  29.530  31.064  1.00  0.00     0.029 A 
ATOM     53  N   UNL A   1      44.543  31.236  31.112  1.00  0.00    -0.354 N 
ATOM     54  N   UNL A   1      40.316  30.833  32.139  1.00  0.00    -0.248 NA
ATOM     55  C   UNL A   1      40.444  32.323  30.351  1.00  0.00     0.031 C 
ATOM     56  C   UNL A   1      44.995  29.353  32.119  1.00  0.00     0.029 A 
ATOM     57  C   UNL A   1      44.003  30.330  31.988  1.00  0.00     0.049 A 
ATOM     58  H   UNL A   1      44.333  32.197  31.070  1.00  0.00     0.167 HD
ATOM     59  C   UNL A   1      41.652  31.165  31.963  1.00  0.00     0.074 A 
ATOM     60  C   UNL A   1      41.650  32.176  30.908  1.00  0.00     0.031 C 
ATOM     61  C   UNL A   1      42.646  30.393  32.495  1.00  0.00     0.031 A 
BRANCH  48  62
ATOM     62  C   UNL A   1      45.695  32.241  28.381  1.00  0.00    -0.014 A 
ATOM     63  C   UNL A   1      47.039  32.673  28.407  1.00  0.00     0.010 A 
ATOM     64  C   UNL A   1      44.711  33.219  28.137  1.00  0.00     0.010 A 
ATOM     65  C   UNL A   1      47.372  34.026  28.262  1.00  0.00     0.020 A 
ATOM     66  C   UNL A   1      45.036  34.564  27.949  1.00  0.00     0.020 A 
ATOM     67  C   UNL A   1      46.363  34.965  28.047  1.00  0.00     0.054 A 
BRANCH  67  68
ATOM     68  S   UNL A   1      46.793  36.721  27.966  1.00  0.00     0.124 S 
ATOM     69  O   UNL A   1      46.274  37.218  29.236  1.00  0.00    -0.237 OA
ATOM     70  O   UNL A   1      48.249  36.677  27.847  1.00  0.00    -0.237 OA
ATOM     71  O   UNL A   1      46.091  37.190  26.774  1.00  0.00    -0.744 OA
ENDBRANCH  67  68
ENDBRANCH  48  62
BRANCH  49  72
ATOM     72  C   UNL A   1      37.300  31.202  30.110  1.00  0.00    -0.014 A 
ATOM     73  C   UNL A   1      36.619  31.941  31.095  1.00  0.00     0.010 A 
ATOM     74  C   UNL A   1      36.850  31.312  28.778  1.00  0.00     0.010 A 
ATOM     75  C   UNL A   1      35.568  32.810  30.751  1.00  0.00     0.020 A 
ATOM     76  C   UNL A   1      35.803  32.174  28.427  1.00  0.00     0.020 A 
ATOM     77  C   UNL A   1      35.183  32.939  29.413  1.00  0.00     0.054 A 
BRANCH  77  78
ATOM     78  S   UNL A   1      33.958  34.201  28.954  1.00  0.00     0.124 S 
ATOM     79  O   UNL A   1      34.795  35.263  28.405  1.00  0.00    -0.237 OA
ATOM     80  O   UNL A   1      33.119  33.495  27.990  1.00  0.00    -0.237 OA
ATOM     81  O   UNL A   1      33.302  34.521  30.221  1.00  0.00    -0.744 OA
ENDBRANCH  77  78
ENDBRANCH  49  72
BRANCH  61  82
ATOM     82  C   UNL A   1      42.275  29.369  33.543  1.00  0.00    -0.014 A 
ATOM     83  C   UNL A   1      41.906  28.039  33.257  1.00  0.00     0.010 A 
ATOM     84  C   UNL A   1      42.451  29.738  34.889  1.00  0.00     0.010 A 
ATOM     85  C   UNL A   1      41.693  27.116  34.292  1.00  0.00     0.020 A 
ATOM     86  C   UNL A   1      42.260  28.819  35.922  1.00  0.00     0.020 A 
ATOM     87  C   UNL A   1      41.872  27.514  35.621  1.00  0.00     0.054 A 
BRANCH  87  88
ATOM     88  S   UNL A   1      41.637  26.309  36.959  1.00  0.00     0.124 S 
ATOM     89  O   UNL A   1      41.533  25.046  36.233  1.00  0.00    -0.237 OA
ATOM     90  O   UNL A   1      42.845  26.475  37.764  1.00  0.00    -0.237 OA
ATOM     91  O   UNL A   1      40.404  26.750  37.611  1.00  0.00    -0.744 OA
ENDBRANCH  87  88
ENDBRANCH  61  82
ENDBRANCH  35  36
ENDBRANCH  27  30
ENDBRANCH  25  26
ENDBRANCH  24  25
ENDBRANCH   1  24
TORSDOF 18
ENDMDL
MODEL 2
REMARK VINA RESULT:     -11.2      2.258      3.846
REMARK SMILES Cc1cnn([C@H]2CC[C@@]([NH3+])(C(=O)NCCCCCCNC(=O)c3ccc(-c4c5nc(c(-c6ccc(S(=O)(=O)[O-])cc6)c6ccc([nH]6)c(-c6ccc(S(=O)(=O)[O-])cc6)c6nc(c(-c7ccc(S(=O)(=O)[O-])cc7)c7ccc4[nH]7)C=C6)C=C5)cc3)C2)c1
REMARK SMILES IDX 17 1 16 2 15 3 14 4 13 5 11 6 12 7 9 9 6 10 7 11 83 12 8 13
REMARK SMILES IDX 5 14 1 15 2 16 3 17 84 18 4 19 10 20 18 24 19 25 20 26 21 27
REMARK SMILES IDX 22 29 23 30 24 31 82 32 25 33 81 34 26 35 27 36 28 37 75 38
REMARK SMILES IDX 29 39 80 40 74 41 76 42 30 43 79 44 73 45 72 46 31 48 61 49
REMARK SMILES IDX 42 50 60 51 43 52 46 53 59 54 77 55 44 56 45 57 58 59 78 60
REMARK SMILES IDX 47 61 32 62 33 63 41 64 34 65 40 66 35 67 36 68 37 69 38 70
REMARK SMILES IDX 39 71 62 72 63 73 71 74 64 75 70 76 65 77 66 78 67 79 68 80
REMARK SMILES IDX 69 81 48 82 49 83 57 84 50 85 56 86 51 87 52 88 53 89 54 90
REMARK SMILES IDX 55 91
REMARK H PARENT 13 8 10 21 10 22 10 23 20 28 76 47 46 58
REMARK Flexibility Score: inf
ROOT
ATOM      1  C   UNL A   1      36.328  22.889  23.802  1.00  0.00     0.002 C 
ENDROOT
BRANCH   1   2
ATOM      2  C   UNL A   1      34.946  23.495  24.081  1.00  0.00     0.002 C 
BRANCH   2   3
ATOM      3  C   UNL A   1      33.894  22.555  24.678  1.00  0.00     0.021 C 
BRANCH   3   4
ATOM      4  C   UNL A   1      32.473  23.110  24.721  1.00  0.00     0.116 C 
BRANCH   4   5
ATOM      5  N   UNL A   1      32.323  24.171  25.698  1.00  0.00    -0.351 N 
ATOM      6  C   UNL A   1      31.592  25.320  25.607  1.00  0.00     0.281 C 
ATOM      7  O   UNL A   1      31.255  25.846  26.672  1.00  0.00    -0.268 OA
ATOM      8  H   UNL A   1      32.814  24.044  26.542  1.00  0.00     0.163 HD
BRANCH   6   9
ATOM      9  C   UNL A   1      31.085  25.850  24.226  1.00  0.00     0.176 C 
ATOM     10  C   UNL A   1      31.788  28.199  24.148  1.00  0.00     0.114 C 
ATOM     11  C   UNL A   1      32.670  27.412  23.160  1.00  0.00     0.034 C 
ATOM     12  C   UNL A   1      30.552  27.294  24.297  1.00  0.00     0.106 C 
ATOM     13  C   UNL A   1      32.183  25.958  23.162  1.00  0.00     0.081 C 
BRANCH  10  14
ATOM     14  N   UNL A   1      32.463  28.562  25.385  1.00  0.00    -0.269 N 
ATOM     15  C   UNL A   1      35.290  29.291  27.543  1.00  0.00     0.048 C 
ATOM     16  C   UNL A   1      33.988  29.037  26.896  1.00  0.00    -0.013 A 
ATOM     17  C   UNL A   1      32.707  29.487  27.269  1.00  0.00     0.138 A 
ATOM     18  C   UNL A   1      33.758  28.314  25.745  1.00  0.00     0.112 A 
ATOM     19  N   UNL A   1      31.768  29.145  26.385  1.00  0.00    -0.181 NA
ENDBRANCH  10  14
BRANCH   9  20
ATOM     20  N   UNL A   1      29.982  24.947  23.817  1.00  0.00    -0.345 N 
ATOM     21  H   UNL A   1      29.468  24.643  24.644  1.00  0.00     0.345 HD
ATOM     22  H   UNL A   1      30.369  24.133  23.339  1.00  0.00     0.345 HD
ATOM     23  H   UNL A   1      29.352  25.443  23.188  1.00  0.00     0.345 HD
ENDBRANCH   9  20
ENDBRANCH   6   9
ENDBRANCH   4   5
ENDBRANCH   3   4
ENDBRANCH   2   3
ENDBRANCH   1   2
BRANCH   1  24
ATOM     24  C   UNL A   1      36.949  22.029  24.912  1.00  0.00     0.021 C 
BRANCH  24  25
ATOM     25  C   UNL A   1      37.931  22.764  25.813  1.00  0.00     0.116 C 
BRANCH  25  26
ATOM     26  N   UNL A   1      38.971  21.892  26.351  1.00  0.00    -0.352 N 
ATOM     27  C   UNL A   1      40.239  22.246  26.780  1.00  0.00     0.251 C 
ATOM     28  H   UNL A   1      38.743  20.936  26.417  1.00  0.00     0.163 HD
ATOM     29  O   UNL A   1      41.133  21.419  26.831  1.00  0.00    -0.269 OA
BRANCH  27  30
ATOM     30  C   UNL A   1      40.482  23.650  27.167  1.00  0.00     0.039 A 
ATOM     31  C   UNL A   1      39.693  24.690  26.670  1.00  0.00     0.014 A 
ATOM     32  C   UNL A   1      41.504  23.909  28.076  1.00  0.00     0.014 A 
ATOM     33  C   UNL A   1      39.884  25.977  27.173  1.00  0.00     0.010 A 
ATOM     34  C   UNL A   1      41.585  25.138  28.681  1.00  0.00     0.010 A 
ATOM     35  C   UNL A   1      40.816  26.192  28.202  1.00  0.00    -0.014 A 
BRANCH  35  36
ATOM     36  C   UNL A   1      40.932  27.496  28.850  1.00  0.00     0.031 A 
ATOM     37  C   UNL A   1      41.978  28.394  28.290  1.00  0.00     0.074 A 
ATOM     38  C   UNL A   1      40.052  27.962  29.763  1.00  0.00     0.049 A 
ATOM     39  N   UNL A   1      43.104  28.713  28.833  1.00  0.00    -0.248 NA
ATOM     40  C   UNL A   1      41.817  28.895  26.916  1.00  0.00     0.031 C 
ATOM     41  C   UNL A   1      38.795  27.354  30.220  1.00  0.00     0.029 A 
ATOM     42  N   UNL A   1      40.051  29.159  30.409  1.00  0.00    -0.354 N 
ATOM     43  C   UNL A   1      43.709  29.622  27.972  1.00  0.00     0.074 A 
ATOM     44  C   UNL A   1      42.959  29.568  26.742  1.00  0.00     0.031 C 
ATOM     45  C   UNL A   1      38.051  28.279  30.869  1.00  0.00     0.029 A 
ATOM     46  C   UNL A   1      38.855  29.472  31.044  1.00  0.00     0.049 A 
ATOM     47  H   UNL A   1      40.834  29.756  30.425  1.00  0.00     0.167 HD
ATOM     48  C   UNL A   1      44.647  30.508  28.413  1.00  0.00     0.031 A 
ATOM     49  C   UNL A   1      38.546  30.631  31.675  1.00  0.00     0.031 A 
ATOM     50  C   UNL A   1      45.070  30.207  29.757  1.00  0.00     0.049 A 
ATOM     51  C   UNL A   1      39.827  31.282  32.032  1.00  0.00     0.074 A 
ATOM     52  C   UNL A   1      45.704  29.146  30.369  1.00  0.00     0.029 A 
ATOM     53  N   UNL A   1      44.473  30.931  30.762  1.00  0.00    -0.354 N 
ATOM     54  N   UNL A   1      40.665  30.780  32.896  1.00  0.00    -0.248 NA
ATOM     55  C   UNL A   1      40.389  32.258  31.115  1.00  0.00     0.031 C 
ATOM     56  C   UNL A   1      45.073  29.026  31.642  1.00  0.00     0.029 A 
ATOM     57  C   UNL A   1      44.139  30.059  31.765  1.00  0.00     0.049 A 
ATOM     58  H   UNL A   1      44.314  31.903  30.761  1.00  0.00     0.167 HD
ATOM     59  C   UNL A   1      41.920  31.032  32.361  1.00  0.00     0.074 A 
ATOM     60  C   UNL A   1      41.690  32.041  31.329  1.00  0.00     0.031 C 
ATOM     61  C   UNL A   1      42.975  30.204  32.618  1.00  0.00     0.031 A 
BRANCH  48  62
ATOM     62  C   UNL A   1      44.900  31.864  27.805  1.00  0.00    -0.014 A 
ATOM     63  C   UNL A   1      46.198  32.166  27.339  1.00  0.00     0.010 A 
ATOM     64  C   UNL A   1      43.996  32.937  27.927  1.00  0.00     0.010 A 
ATOM     65  C   UNL A   1      46.588  33.486  27.075  1.00  0.00     0.020 A 
ATOM     66  C   UNL A   1      44.362  34.251  27.626  1.00  0.00     0.020 A 
ATOM     67  C   UNL A   1      45.668  34.521  27.234  1.00  0.00     0.054 A 
BRANCH  67  68
ATOM     68  S   UNL A   1      46.211  36.230  26.991  1.00  0.00     0.124 S 
ATOM     69  O   UNL A   1      46.913  36.145  25.714  1.00  0.00    -0.237 OA
ATOM     70  O   UNL A   1      44.944  36.958  26.973  1.00  0.00    -0.237 OA
ATOM     71  O   UNL A   1      47.055  36.490  28.155  1.00  0.00    -0.744 OA
ENDBRANCH  67  68
ENDBRANCH  48  62
BRANCH  49  72
ATOM     72  C   UNL A   1      37.239  31.325  31.749  1.00  0.00    -0.014 A 
ATOM     73  C   UNL A   1      36.672  31.677  32.988  1.00  0.00     0.010 A 
ATOM     74  C   UNL A   1      36.689  31.903  30.587  1.00  0.00     0.010 A 
ATOM     75  C   UNL A   1      35.637  32.626  33.067  1.00  0.00     0.020 A 
ATOM     76  C   UNL A   1      35.656  32.848  30.657  1.00  0.00     0.020 A 
ATOM     77  C   UNL A   1      35.152  33.223  31.900  1.00  0.00     0.054 A 
BRANCH  77  78
ATOM     78  S   UNL A   1      33.951  34.583  32.026  1.00  0.00     0.124 S 
ATOM     79  O   UNL A   1      34.787  35.698  32.458  1.00  0.00    -0.237 OA
ATOM     80  O   UNL A   1      33.429  34.674  30.665  1.00  0.00    -0.237 OA
ATOM     81  O   UNL A   1      32.992  34.103  33.020  1.00  0.00    -0.744 OA
ENDBRANCH  77  78
ENDBRANCH  49  72
BRANCH  61  82
ATOM     82  C   UNL A   1      42.844  29.204  33.745  1.00  0.00    -0.014 A 
ATOM     83  C   UNL A   1      43.180  29.473  35.087  1.00  0.00     0.010 A 
ATOM     84  C   UNL A   1      42.213  27.982  33.447  1.00  0.00     0.010 A 
ATOM     85  C   UNL A   1      42.916  28.532  36.094  1.00  0.00     0.020 A 
ATOM     86  C   UNL A   1      41.929  27.052  34.448  1.00  0.00     0.020 A 
ATOM     87  C   UNL A   1      42.291  27.325  35.766  1.00  0.00     0.054 A 
BRANCH  87  88
ATOM     88  S   UNL A   1      41.912  26.125  37.075  1.00  0.00     0.124 S 
ATOM     89  O   UNL A   1      42.040  24.847  36.380  1.00  0.00    -0.237 OA
ATOM     90  O   UNL A   1      42.937  26.402  38.079  1.00  0.00    -0.237 OA
ATOM     91  O   UNL A   1      40.550  26.473  37.482  1.00  0.00    -0.744 OA
ENDBRANCH  87  88
ENDBRANCH  61  82
ENDBRANCH  35  36
ENDBRANCH  27  30
ENDBRANCH  25  26
ENDBRANCH  24  25
ENDBRANCH   1  24
TORSDOF 18
ENDMDL
MODEL 3
REMARK VINA RESULT:     -11.2      2.374      3.486
REMARK SMILES Cc1cnn([C@H]2CC[C@@]([NH3+])(C(=O)NCCCCCCNC(=O)c3ccc(-c4c5nc(c(-c6ccc(S(=O)(=O)[O-])cc6)c6ccc([nH]6)c(-c6ccc(S(=O)(=O)[O-])cc6)c6nc(c(-c7ccc(S(=O)(=O)[O-])cc7)c7ccc4[nH]7)C=C6)C=C5)cc3)C2)c1
REMARK SMILES IDX 17 1 16 2 15 3 14 4 13 5 11 6 12 7 9 9 6 10 7 11 83 12 8 13
REMARK SMILES IDX 5 14 1 15 2 16 3 17 84 18 4 19 10 20 18 24 19 25 20 26 21 27
REMARK SMILES IDX 22 29 23 30 24 31 82 32 25 33 81 34 26 35 27 36 28 37 75 38
REMARK SMILES IDX 29 39 80 40 74 41 76 42 30 43 79 44 73 45 72 46 31 48 61 49
REMARK SMILES IDX 42 50 60 51 43 52 46 53 59 54 77 55 44 56 45 57 58 59 78 60
REMARK SMILES IDX 47 61 32 62 33 63 41 64 34 65 40 66 35 67 36 68 37 69 38 70
REMARK SMILES IDX 39 71 62 72 63 73 71 74 64 75 70 76 65 77 66 78 67 79 68 80
REMARK SMILES IDX 69 81 48 82 49 83 57 84 50 85 56 86 51 87 52 88 53 89 54 90
REMARK SMILES IDX 55 91
REMARK H PARENT 13 8 10 21 10 22 10 23 20 28 76 47 46 58
REMARK Flexibility Score: inf
ROOT
ATOM      1  C   UNL A   1      34.967  22.790  26.522  1.00  0.00     0.002 C 
ENDROOT
BRANCH   1   2
ATOM      2  C   UNL A   1      33.605  22.113  26.732  1.00  0.00     0.002 C 
BRANCH   2   3
ATOM      3  C   UNL A   1      32.470  23.004  27.246  1.00  0.00     0.021 C 
BRANCH   3   4
ATOM      4  C   UNL A   1      32.543  24.466  26.813  1.00  0.00     0.116 C 
BRANCH   4   5
ATOM      5  N   UNL A   1      31.301  24.932  26.227  1.00  0.00    -0.351 N 
ATOM      6  C   UNL A   1      30.974  26.187  25.802  1.00  0.00     0.281 C 
ATOM      7  O   UNL A   1      30.073  26.269  24.962  1.00  0.00    -0.268 OA
ATOM      8  H   UNL A   1      30.599  24.250  26.120  1.00  0.00     0.163 HD
BRANCH   6   9
ATOM      9  C   UNL A   1      31.806  27.435  26.248  1.00  0.00     0.176 C 
ATOM     10  C   UNL A   1      33.658  27.571  24.644  1.00  0.00     0.114 C 
ATOM     11  C   UNL A   1      32.687  28.727  24.339  1.00  0.00     0.034 C 
ATOM     12  C   UNL A   1      33.326  27.224  26.106  1.00  0.00     0.106 C 
ATOM     13  C   UNL A   1      31.567  28.679  25.384  1.00  0.00     0.081 C 
BRANCH  10  14
ATOM     14  N   UNL A   1      33.583  26.468  23.696  1.00  0.00    -0.269 N 
ATOM     15  C   UNL A   1      33.647  23.006  22.606  1.00  0.00     0.048 C 
ATOM     16  C   UNL A   1      33.584  24.471  22.778  1.00  0.00    -0.013 A 
ATOM     17  C   UNL A   1      32.970  25.436  21.957  1.00  0.00     0.138 A 
ATOM     18  C   UNL A   1      34.097  25.209  23.823  1.00  0.00     0.112 A 
ATOM     19  N   UNL A   1      33.025  26.662  22.482  1.00  0.00    -0.181 NA
ENDBRANCH  10  14
BRANCH   9  20
ATOM     20  N   UNL A   1      31.480  27.660  27.676  1.00  0.00    -0.345 N 
ATOM     21  H   UNL A   1      32.342  27.685  28.221  1.00  0.00     0.345 HD
ATOM     22  H   UNL A   1      30.886  26.902  28.013  1.00  0.00     0.345 HD
ATOM     23  H   UNL A   1      30.988  28.548  27.776  1.00  0.00     0.345 HD
ENDBRANCH   9  20
ENDBRANCH   6   9
ENDBRANCH   4   5
ENDBRANCH   3   4
ENDBRANCH   2   3
ENDBRANCH   1   2
BRANCH   1  24
ATOM     24  C   UNL A   1      36.015  22.013  25.713  1.00  0.00     0.021 C 
BRANCH  24  25
ATOM     25  C   UNL A   1      37.392  22.657  25.672  1.00  0.00     0.116 C 
BRANCH  25  26
ATOM     26  N   UNL A   1      38.476  21.693  25.843  1.00  0.00    -0.352 N 
ATOM     27  C   UNL A   1      39.763  21.932  26.295  1.00  0.00     0.251 C 
ATOM     28  H   UNL A   1      38.266  20.759  25.609  1.00  0.00     0.163 HD
ATOM     29  O   UNL A   1      40.670  21.163  26.029  1.00  0.00    -0.269 OA
BRANCH  27  30
ATOM     30  C   UNL A   1      40.009  23.144  27.101  1.00  0.00     0.039 A 
ATOM     31  C   UNL A   1      41.203  23.324  27.802  1.00  0.00     0.014 A 
ATOM     32  C   UNL A   1      39.024  24.129  27.114  1.00  0.00     0.014 A 
ATOM     33  C   UNL A   1      41.431  24.545  28.437  1.00  0.00     0.010 A 
ATOM     34  C   UNL A   1      39.314  25.378  27.603  1.00  0.00     0.010 A 
ATOM     35  C   UNL A   1      40.492  25.583  28.310  1.00  0.00    -0.014 A 
BRANCH  35  36
ATOM     36  C   UNL A   1      40.771  26.917  28.837  1.00  0.00     0.031 A 
ATOM     37  C   UNL A   1      41.883  27.645  28.167  1.00  0.00     0.074 A 
ATOM     38  C   UNL A   1      39.983  27.552  29.732  1.00  0.00     0.049 A 
ATOM     39  N   UNL A   1      43.058  27.885  28.644  1.00  0.00    -0.248 NA
ATOM     40  C   UNL A   1      41.720  28.043  26.760  1.00  0.00     0.031 C 
ATOM     41  C   UNL A   1      38.688  27.125  30.280  1.00  0.00     0.029 A 
ATOM     42  N   UNL A   1      40.136  28.793  30.269  1.00  0.00    -0.354 N 
ATOM     43  C   UNL A   1      43.720  28.646  27.688  1.00  0.00     0.074 A 
ATOM     44  C   UNL A   1      42.918  28.570  26.491  1.00  0.00     0.031 C 
ATOM     45  C   UNL A   1      38.074  28.177  30.867  1.00  0.00     0.029 A 
ATOM     46  C   UNL A   1      39.006  29.286  30.911  1.00  0.00     0.049 A 
ATOM     47  H   UNL A   1      40.978  29.299  30.207  1.00  0.00     0.167 HD
ATOM     48  C   UNL A   1      44.763  29.459  28.019  1.00  0.00     0.031 A 
ATOM     49  C   UNL A   1      38.847  30.521  31.446  1.00  0.00     0.031 A 
ATOM     50  C   UNL A   1      45.207  29.228  29.370  1.00  0.00     0.049 A 
ATOM     51  C   UNL A   1      40.203  31.057  31.704  1.00  0.00     0.074 A 
ATOM     52  C   UNL A   1      45.749  28.159  30.053  1.00  0.00     0.029 A 
ATOM     53  N   UNL A   1      44.731  30.096  30.325  1.00  0.00    -0.354 N 
ATOM     54  N   UNL A   1      41.018  30.541  32.583  1.00  0.00    -0.248 NA
ATOM     55  C   UNL A   1      40.828  31.885  30.687  1.00  0.00     0.031 C 
ATOM     56  C   UNL A   1      45.161  28.218  31.351  1.00  0.00     0.029 A 
ATOM     57  C   UNL A   1      44.348  29.353  31.412  1.00  0.00     0.049 A 
ATOM     58  H   UNL A   1      44.676  31.075  30.244  1.00  0.00     0.167 HD
ATOM     59  C   UNL A   1      42.270  30.608  31.988  1.00  0.00     0.074 A 
ATOM     60  C   UNL A   1      42.106  31.546  30.878  1.00  0.00     0.031 C 
ATOM     61  C   UNL A   1      43.241  29.695  32.285  1.00  0.00     0.031 A 
BRANCH  48  62
ATOM     62  C   UNL A   1      45.134  30.722  27.285  1.00  0.00    -0.014 A 
ATOM     63  C   UNL A   1      46.496  30.975  27.016  1.00  0.00     0.010 A 
ATOM     64  C   UNL A   1      44.234  31.791  27.102  1.00  0.00     0.010 A 
ATOM     65  C   UNL A   1      46.941  32.251  26.646  1.00  0.00     0.020 A 
ATOM     66  C   UNL A   1      44.662  33.056  26.692  1.00  0.00     0.020 A 
ATOM     67  C   UNL A   1      46.019  33.287  26.501  1.00  0.00     0.054 A 
BRANCH  67  68
ATOM     68  S   UNL A   1      46.615  34.954  26.126  1.00  0.00     0.124 S 
ATOM     69  O   UNL A   1      47.128  35.389  27.421  1.00  0.00    -0.237 OA
ATOM     70  O   UNL A   1      47.620  34.699  25.096  1.00  0.00    -0.237 OA
ATOM     71  O   UNL A   1      45.417  35.649  25.660  1.00  0.00    -0.744 OA
ENDBRANCH  67  68
ENDBRANCH  48  62
BRANCH  49  72
ATOM     72  C   UNL A   1      37.625  31.357  31.500  1.00  0.00    -0.014 A 
ATOM     73  C   UNL A   1      36.760  31.309  32.608  1.00  0.00     0.010 A 
ATOM     74  C   UNL A   1      37.468  32.422  30.588  1.00  0.00     0.010 A 
ATOM     75  C   UNL A   1      35.815  32.326  32.833  1.00  0.00     0.020 A 
ATOM     76  C   UNL A   1      36.527  33.437  30.804  1.00  0.00     0.020 A 
ATOM     77  C   UNL A   1      35.721  33.398  31.940  1.00  0.00     0.054 A 
BRANCH  77  78
ATOM     78  S   UNL A   1      34.633  34.799  32.338  1.00  0.00     0.124 S 
ATOM     79  O   UNL A   1      35.498  35.640  33.160  1.00  0.00    -0.237 OA
ATOM     80  O   UNL A   1      34.304  35.331  31.019  1.00  0.00    -0.237 OA
ATOM     81  O   UNL A   1      33.516  34.177  33.047  1.00  0.00    -0.744 OA
ENDBRANCH  77  78
ENDBRANCH  49  72
BRANCH  61  82
ATOM     82  C   UNL A   1      43.050  28.814  33.499  1.00  0.00    -0.014 A 
ATOM     83  C   UNL A   1      43.619  29.073  34.763  1.00  0.00     0.010 A 
ATOM     84  C   UNL A   1      42.133  27.754  33.384  1.00  0.00     0.010 A 
ATOM     85  C   UNL A   1      43.296  28.273  35.870  1.00  0.00     0.020 A 
ATOM     86  C   UNL A   1      41.793  26.968  34.486  1.00  0.00     0.020 A 
ATOM     87  C   UNL A   1      42.383  27.224  35.723  1.00  0.00     0.054 A 
BRANCH  87  88
ATOM     88  S   UNL A   1      41.934  26.215  37.164  1.00  0.00     0.124 S 
ATOM     89  O   UNL A   1      40.589  26.690  37.477  1.00  0.00    -0.237 OA
ATOM     90  O   UNL A   1      42.016  24.851  36.647  1.00  0.00    -0.237 OA
ATOM     91  O   UNL A   1      42.955  26.553  38.156  1.00  0.00    -0.744 OA
ENDBRANCH  87  88
ENDBRANCH  61  82
ENDBRANCH  35  36
ENDBRANCH  27  30
ENDBRANCH  25  26
ENDBRANCH  24  25
ENDBRANCH   1  24
TORSDOF 18
ENDMDL
