MODEL 1
REMARK VINA RESULT:     -12.8      0.000      0.000
REMARK SMILES O=C(NCCCCCCNC(=O)c1nnn(-c2cccc(C(F)(F)F)c2)c1[C@@H]1COc2ccccc2O1)c1ccc(-c2c3nc(c(-c4ccc(S(=O)(=O)[O-])cc4)c4ccc([nH]4)c(-c4ccc(S(=O)(=O)[O-])cc4)c4nc(c(-c5ccc(S(=O)(=O)[O-])cc5)c5ccc2[nH]5)C=C4)C=C3)cc1
REMARK SMILES IDX 6 1 5 2 4 3 3 4 1 5 2 6 38 8 39 9 97 10 40 11 96 12 41 13
REMARK SMILES IDX 42 14 43 15 90 16 44 17 95 18 89 19 91 20 45 21 94 22 88 23
REMARK SMILES IDX 87 24 46 26 76 27 57 28 75 29 58 30 61 31 74 32 92 33 59 34
REMARK SMILES IDX 60 35 73 37 93 38 62 39 47 40 48 41 56 42 49 43 55 44 50 45
REMARK SMILES IDX 51 46 52 47 53 48 54 49 77 50 78 51 86 52 79 53 85 54 80 55
REMARK SMILES IDX 81 56 82 57 83 58 84 59 63 60 64 61 72 62 65 63 71 64 66 65
REMARK SMILES IDX 67 66 68 67 69 68 70 69 7 70 8 71 9 72 10 73 11 74 12 76
REMARK SMILES IDX 13 77 14 78 27 79 15 80 16 81 28 82 29 83 37 84 30 85 36 86
REMARK SMILES IDX 31 87 35 88 32 89 34 90 33 91 17 92 18 93 26 94 19 95 21 96
REMARK SMILES IDX 20 97 22 98 23 99 24 100 25 101
REMARK H PARENT 3 7 91 25 61 36 10 75
REMARK Flexibility Score: inf
ROOT
ATOM      1  C   UNL A   1      39.681  21.832  26.279  1.00  0.00     0.002 C 
ENDROOT
BRANCH   1   2
ATOM      2  C   UNL A   1      40.734  21.262  27.240  1.00  0.00     0.021 C 
BRANCH   2   3
ATOM      3  C   UNL A   1      41.716  20.261  26.632  1.00  0.00     0.116 C 
BRANCH   3   4
ATOM      4  N   UNL A   1      42.503  20.772  25.531  1.00  0.00    -0.352 N 
ATOM      5  O   UNL A   1      43.832  21.969  24.240  1.00  0.00    -0.269 OA
ATOM      6  C   UNL A   1      43.182  21.933  25.288  1.00  0.00     0.251 C 
ATOM      7  H   UNL A   1      42.563  20.136  24.783  1.00  0.00     0.163 HD
BRANCH   6   8
ATOM      8  C   UNL A   1      43.141  23.145  26.151  1.00  0.00     0.039 A 
ATOM      9  C   UNL A   1      43.762  23.282  27.394  1.00  0.00     0.014 A 
ATOM     10  C   UNL A   1      42.398  24.228  25.647  1.00  0.00     0.014 A 
ATOM     11  C   UNL A   1      43.571  24.430  28.159  1.00  0.00     0.010 A 
ATOM     12  C   UNL A   1      42.226  25.386  26.393  1.00  0.00     0.010 A 
ATOM     13  C   UNL A   1      42.782  25.470  27.669  1.00  0.00    -0.014 A 
BRANCH  13  14
ATOM     14  C   UNL A   1      42.651  26.685  28.472  1.00  0.00     0.031 A 
ATOM     15  C   UNL A   1      43.777  27.665  28.365  1.00  0.00     0.074 A 
ATOM     16  C   UNL A   1      41.502  27.000  29.105  1.00  0.00     0.049 A 
ATOM     17  N   UNL A   1      44.461  28.232  29.307  1.00  0.00    -0.248 NA
ATOM     18  C   UNL A   1      44.242  28.004  27.008  1.00  0.00     0.031 C 
ATOM     19  C   UNL A   1      40.223  26.285  29.025  1.00  0.00     0.029 A 
ATOM     20  N   UNL A   1      41.189  28.114  29.826  1.00  0.00    -0.354 N 
ATOM     21  C   UNL A   1      45.319  29.135  28.675  1.00  0.00     0.074 A 
ATOM     22  C   UNL A   1      45.229  28.860  27.264  1.00  0.00     0.031 C 
ATOM     23  C   UNL A   1      39.234  27.103  29.444  1.00  0.00     0.029 A 
ATOM     24  C   UNL A   1      39.822  28.338  29.936  1.00  0.00     0.049 A 
ATOM     25  H   UNL A   1      41.867  28.702  30.231  1.00  0.00     0.167 HD
ATOM     26  C   UNL A   1      45.901  30.184  29.320  1.00  0.00     0.031 A 
ATOM     27  C   UNL A   1      39.210  29.491  30.301  1.00  0.00     0.031 A 
ATOM     28  C   UNL A   1      45.903  30.019  30.746  1.00  0.00     0.049 A 
ATOM     29  C   UNL A   1      40.209  30.331  31.001  1.00  0.00     0.074 A 
ATOM     30  C   UNL A   1      46.448  29.105  31.624  1.00  0.00     0.029 A 
ATOM     31  N   UNL A   1      44.978  30.730  31.472  1.00  0.00    -0.354 N 
ATOM     32  N   UNL A   1      40.741  30.021  32.150  1.00  0.00    -0.248 NA
ATOM     33  C   UNL A   1      40.932  31.330  30.230  1.00  0.00     0.031 C 
ATOM     34  C   UNL A   1      45.491  28.987  32.673  1.00  0.00     0.029 A 
ATOM     35  C   UNL A   1      44.444  29.866  32.391  1.00  0.00     0.049 A 
ATOM     36  H   UNL A   1      44.744  31.680  31.355  1.00  0.00     0.167 HD
ATOM     37  C   UNL A   1      42.053  30.463  32.068  1.00  0.00     0.074 A 
ATOM     38  C   UNL A   1      42.081  31.354  30.912  1.00  0.00     0.031 C 
ATOM     39  C   UNL A   1      43.050  29.857  32.779  1.00  0.00     0.031 A 
BRANCH  26  40
ATOM     40  C   UNL A   1      46.129  31.533  28.672  1.00  0.00    -0.014 A 
ATOM     41  C   UNL A   1      45.017  32.351  28.377  1.00  0.00     0.010 A 
ATOM     42  C   UNL A   1      47.356  31.889  28.075  1.00  0.00     0.010 A 
ATOM     43  C   UNL A   1      45.110  33.404  27.455  1.00  0.00     0.020 A 
ATOM     44  C   UNL A   1      47.471  32.963  27.191  1.00  0.00     0.020 A 
ATOM     45  C   UNL A   1      46.336  33.684  26.848  1.00  0.00     0.054 A 
BRANCH  45  46
ATOM     46  S   UNL A   1      46.415  34.927  25.535  1.00  0.00     0.124 S 
ATOM     47  O   UNL A   1      46.049  36.142  26.254  1.00  0.00    -0.237 OA
ATOM     48  O   UNL A   1      47.808  34.837  25.107  1.00  0.00    -0.237 OA
ATOM     49  O   UNL A   1      45.435  34.455  24.559  1.00  0.00    -0.744 OA
ENDBRANCH  45  46
ENDBRANCH  26  40
BRANCH  27  50
ATOM     50  C   UNL A   1      37.934  30.030  29.765  1.00  0.00    -0.014 A 
ATOM     51  C   UNL A   1      36.851  30.330  30.611  1.00  0.00     0.010 A 
ATOM     52  C   UNL A   1      37.873  30.497  28.435  1.00  0.00     0.010 A 
ATOM     53  C   UNL A   1      35.769  31.104  30.153  1.00  0.00     0.020 A 
ATOM     54  C   UNL A   1      36.797  31.258  27.968  1.00  0.00     0.020 A 
ATOM     55  C   UNL A   1      35.757  31.576  28.836  1.00  0.00     0.054 A 
BRANCH  55  56
ATOM     56  S   UNL A   1      34.441  32.706  28.297  1.00  0.00     0.124 S 
ATOM     57  O   UNL A   1      33.944  33.231  29.566  1.00  0.00    -0.237 OA
ATOM     58  O   UNL A   1      35.162  33.658  27.457  1.00  0.00    -0.237 OA
ATOM     59  O   UNL A   1      33.511  31.834  27.581  1.00  0.00    -0.744 OA
ENDBRANCH  55  56
ENDBRANCH  27  50
BRANCH  39  60
ATOM     60  C   UNL A   1      42.668  28.877  33.864  1.00  0.00    -0.014 A 
ATOM     61  C   UNL A   1      42.569  27.489  33.648  1.00  0.00     0.010 A 
ATOM     62  C   UNL A   1      42.581  29.358  35.183  1.00  0.00     0.010 A 
ATOM     63  C   UNL A   1      42.372  26.607  34.720  1.00  0.00     0.020 A 
ATOM     64  C   UNL A   1      42.403  28.483  36.259  1.00  0.00     0.020 A 
ATOM     65  C   UNL A   1      42.294  27.111  36.021  1.00  0.00     0.054 A 
BRANCH  65  66
ATOM     66  S   UNL A   1      42.121  25.956  37.411  1.00  0.00     0.124 S 
ATOM     67  O   UNL A   1      40.714  26.099  37.769  1.00  0.00    -0.237 OA
ATOM     68  O   UNL A   1      42.495  24.675  36.817  1.00  0.00    -0.237 OA
ATOM     69  O   UNL A   1      43.069  26.466  38.405  1.00  0.00    -0.744 OA
ENDBRANCH  65  66
ENDBRANCH  39  60
ENDBRANCH  13  14
ENDBRANCH   6   8
ENDBRANCH   3   4
ENDBRANCH   2   3
ENDBRANCH   1   2
BRANCH   1  70
ATOM     70  C   UNL A   1      38.707  20.835  25.640  1.00  0.00     0.002 C 
BRANCH  70  71
ATOM     71  C   UNL A   1      37.532  21.432  24.871  1.00  0.00     0.021 C 
BRANCH  71  72
ATOM     72  C   UNL A   1      36.218  21.554  25.632  1.00  0.00     0.116 C 
BRANCH  72  73
ATOM     73  N   UNL A   1      35.229  20.550  25.342  1.00  0.00    -0.351 N 
ATOM     74  C   UNL A   1      33.963  20.565  24.792  1.00  0.00     0.273 C 
ATOM     75  H   UNL A   1      35.521  19.644  25.593  1.00  0.00     0.163 HD
ATOM     76  O   UNL A   1      33.433  19.447  24.777  1.00  0.00    -0.267 OA
BRANCH  74  77
ATOM     77  C   UNL A   1      33.213  21.731  24.265  1.00  0.00     0.178 A 
ATOM     78  N   UNL A   1      32.395  21.476  23.169  1.00  0.00    -0.124 NA
ATOM     79  C   UNL A   1      33.038  23.084  24.592  1.00  0.00     0.122 A 
ATOM     80  N   UNL A   1      31.732  22.568  22.841  1.00  0.00    -0.061 NA
ATOM     81  N   UNL A   1      32.214  23.574  23.585  1.00  0.00    -0.213 N 
BRANCH  79  82
ATOM     82  C   UNL A   1      33.365  23.867  25.827  1.00  0.00     0.262 C 
ATOM     83  C   UNL A   1      32.165  23.809  26.800  1.00  0.00     0.281 C 
ATOM     84  O   UNL A   1      33.849  25.188  25.567  1.00  0.00    -0.477 OA
ATOM     85  O   UNL A   1      31.179  24.795  26.496  1.00  0.00    -0.485 OA
ATOM     86  C   UNL A   1      33.131  26.178  26.190  1.00  0.00     0.162 A 
ATOM     87  C   UNL A   1      31.798  26.012  26.575  1.00  0.00     0.161 A 
ATOM     88  C   UNL A   1      33.752  27.408  26.373  1.00  0.00     0.050 A 
ATOM     89  C   UNL A   1      31.052  27.081  27.053  1.00  0.00     0.050 A 
ATOM     90  C   UNL A   1      33.024  28.472  26.910  1.00  0.00     0.004 A 
ATOM     91  C   UNL A   1      31.672  28.317  27.227  1.00  0.00     0.004 A 
ENDBRANCH  79  82
BRANCH  81  92
ATOM     92  C   UNL A   1      31.830  24.899  23.311  1.00  0.00     0.067 A 
ATOM     93  C   UNL A   1      30.500  25.283  23.506  1.00  0.00     0.028 A 
ATOM     94  C   UNL A   1      32.811  25.835  22.969  1.00  0.00     0.041 A 
ATOM     95  C   UNL A   1      30.178  26.640  23.465  1.00  0.00     0.003 A 
ATOM     96  C   UNL A   1      32.483  27.196  22.897  1.00  0.00     0.058 A 
ATOM     97  C   UNL A   1      31.164  27.590  23.178  1.00  0.00     0.013 A 
BRANCH  96  98
ATOM     98  C   UNL A   1      33.540  28.229  22.597  1.00  0.00     0.416 C 
ATOM     99  F   UNL A   1      33.028  29.491  22.534  1.00  0.00    -0.166 F 
ATOM    100  F   UNL A   1      34.516  28.268  23.543  1.00  0.00    -0.166 F 
ATOM    101  F   UNL A   1      34.170  28.027  21.406  1.00  0.00    -0.166 F 
ENDBRANCH  96  98
ENDBRANCH  81  92
ENDBRANCH  74  77
ENDBRANCH  72  73
ENDBRANCH  71  72
ENDBRANCH  70  71
ENDBRANCH   1  70
TORSDOF 19
ENDMDL
MODEL 2
REMARK VINA RESULT:     -12.7      0.889      1.124
REMARK SMILES O=C(NCCCCCCNC(=O)c1nnn(-c2cccc(C(F)(F)F)c2)c1[C@@H]1COc2ccccc2O1)c1ccc(-c2c3nc(c(-c4ccc(S(=O)(=O)[O-])cc4)c4ccc([nH]4)c(-c4ccc(S(=O)(=O)[O-])cc4)c4nc(c(-c5ccc(S(=O)(=O)[O-])cc5)c5ccc2[nH]5)C=C4)C=C3)cc1
REMARK SMILES IDX 6 1 5 2 4 3 3 4 1 5 2 6 38 8 39 9 97 10 40 11 96 12 41 13
REMARK SMILES IDX 42 14 43 15 90 16 44 17 95 18 89 19 91 20 45 21 94 22 88 23
REMARK SMILES IDX 87 24 46 26 76 27 57 28 75 29 58 30 61 31 74 32 92 33 59 34
REMARK SMILES IDX 60 35 73 37 93 38 62 39 47 40 48 41 56 42 49 43 55 44 50 45
REMARK SMILES IDX 51 46 52 47 53 48 54 49 77 50 78 51 86 52 79 53 85 54 80 55
REMARK SMILES IDX 81 56 82 57 83 58 84 59 63 60 64 61 72 62 65 63 71 64 66 65
REMARK SMILES IDX 67 66 68 67 69 68 70 69 7 70 8 71 9 72 10 73 11 74 12 76
REMARK SMILES IDX 13 77 14 78 27 79 15 80 16 81 28 82 29 83 37 84 30 85 36 86
REMARK SMILES IDX 31 87 35 88 32 89 34 90 33 91 17 92 18 93 26 94 19 95 21 96
REMARK SMILES IDX 20 97 22 98 23 99 24 100 25 101
REMARK H PARENT 3 7 91 25 61 36 10 75
REMARK Flexibility Score: inf
ROOT
ATOM      1  C   UNL A   1      39.367  22.087  26.171  1.00  0.00     0.002 C 
ENDROOT
BRANCH   1   2
ATOM      2  C   UNL A   1      40.484  21.681  27.143  1.00  0.00     0.021 C 
BRANCH   2   3
ATOM      3  C   UNL A   1      41.610  20.837  26.547  1.00  0.00     0.116 C 
BRANCH   3   4
ATOM      4  N   UNL A   1      42.273  21.427  25.405  1.00  0.00    -0.352 N 
ATOM      5  O   UNL A   1      43.419  22.741  24.054  1.00  0.00    -0.269 OA
ATOM      6  C   UNL A   1      42.859  22.635  25.147  1.00  0.00     0.251 C 
ATOM      7  H   UNL A   1      42.311  20.818  24.633  1.00  0.00     0.163 HD
BRANCH   6   8
ATOM      8  C   UNL A   1      42.815  23.816  26.051  1.00  0.00     0.039 A 
ATOM      9  C   UNL A   1      43.489  23.939  27.267  1.00  0.00     0.014 A 
ATOM     10  C   UNL A   1      42.010  24.886  25.618  1.00  0.00     0.014 A 
ATOM     11  C   UNL A   1      43.293  25.054  28.078  1.00  0.00     0.010 A 
ATOM     12  C   UNL A   1      41.832  26.013  26.409  1.00  0.00     0.010 A 
ATOM     13  C   UNL A   1      42.444  26.078  27.660  1.00  0.00    -0.014 A 
BRANCH  13  14
ATOM     14  C   UNL A   1      42.307  27.262  28.507  1.00  0.00     0.031 A 
ATOM     15  C   UNL A   1      43.422  28.257  28.426  1.00  0.00     0.074 A 
ATOM     16  C   UNL A   1      41.161  27.540  29.161  1.00  0.00     0.049 A 
ATOM     17  N   UNL A   1      44.108  28.797  29.383  1.00  0.00    -0.248 NA
ATOM     18  C   UNL A   1      43.871  28.650  27.079  1.00  0.00     0.031 C 
ATOM     19  C   UNL A   1      39.889  26.815  29.066  1.00  0.00     0.029 A 
ATOM     20  N   UNL A   1      40.843  28.624  29.925  1.00  0.00    -0.354 N 
ATOM     21  C   UNL A   1      44.950  29.731  28.776  1.00  0.00     0.074 A 
ATOM     22  C   UNL A   1      44.851  29.507  27.357  1.00  0.00     0.031 C 
ATOM     23  C   UNL A   1      38.895  27.606  29.523  1.00  0.00     0.029 A 
ATOM     24  C   UNL A   1      39.474  28.829  30.054  1.00  0.00     0.049 A 
ATOM     25  H   UNL A   1      41.518  29.204  30.346  1.00  0.00     0.167 HD
ATOM     26  C   UNL A   1      45.528  30.763  29.454  1.00  0.00     0.031 A 
ATOM     27  C   UNL A   1      38.853  29.961  30.466  1.00  0.00     0.031 A 
ATOM     28  C   UNL A   1      45.543  30.546  30.873  1.00  0.00     0.049 A 
ATOM     29  C   UNL A   1      39.850  30.787  31.187  1.00  0.00     0.074 A 
ATOM     30  C   UNL A   1      46.106  29.607  31.713  1.00  0.00     0.029 A 
ATOM     31  N   UNL A   1      44.618  31.221  31.633  1.00  0.00    -0.354 N 
ATOM     32  N   UNL A   1      40.394  30.441  32.320  1.00  0.00    -0.248 NA
ATOM     33  C   UNL A   1      40.554  31.821  30.448  1.00  0.00     0.031 C 
ATOM     34  C   UNL A   1      45.160  29.440  32.765  1.00  0.00     0.029 A 
ATOM     35  C   UNL A   1      44.101  30.318  32.524  1.00  0.00     0.049 A 
ATOM     36  H   UNL A   1      44.372  32.171  31.552  1.00  0.00     0.167 HD
ATOM     37  C   UNL A   1      41.701  30.899  32.244  1.00  0.00     0.074 A 
ATOM     38  C   UNL A   1      41.709  31.832  31.120  1.00  0.00     0.031 C 
ATOM     39  C   UNL A   1      42.711  30.279  32.924  1.00  0.00     0.031 A 
BRANCH  26  40
ATOM     40  C   UNL A   1      45.735  32.137  28.854  1.00  0.00    -0.014 A 
ATOM     41  C   UNL A   1      46.940  32.826  29.113  1.00  0.00     0.010 A 
ATOM     42  C   UNL A   1      44.677  32.890  28.303  1.00  0.00     0.010 A 
ATOM     43  C   UNL A   1      47.041  34.213  28.925  1.00  0.00     0.020 A 
ATOM     44  C   UNL A   1      44.782  34.263  28.069  1.00  0.00     0.020 A 
ATOM     45  C   UNL A   1      45.949  34.924  28.427  1.00  0.00     0.054 A 
BRANCH  45  46
ATOM     46  S   UNL A   1      46.024  36.731  28.348  1.00  0.00     0.124 S 
ATOM     47  O   UNL A   1      47.460  36.972  28.441  1.00  0.00    -0.237 OA
ATOM     48  O   UNL A   1      45.415  37.010  27.051  1.00  0.00    -0.237 OA
ATOM     49  O   UNL A   1      45.240  37.156  29.506  1.00  0.00    -0.744 OA
ENDBRANCH  45  46
ENDBRANCH  26  40
BRANCH  27  50
ATOM     50  C   UNL A   1      37.567  30.506  29.961  1.00  0.00    -0.014 A 
ATOM     51  C   UNL A   1      36.611  31.060  30.832  1.00  0.00     0.010 A 
ATOM     52  C   UNL A   1      37.389  30.715  28.578  1.00  0.00     0.010 A 
ATOM     53  C   UNL A   1      35.544  31.830  30.337  1.00  0.00     0.020 A 
ATOM     54  C   UNL A   1      36.324  31.470  28.076  1.00  0.00     0.020 A 
ATOM     55  C   UNL A   1      35.416  32.043  28.961  1.00  0.00     0.054 A 
BRANCH  55  56
ATOM     56  S   UNL A   1      34.131  33.168  28.340  1.00  0.00     0.124 S 
ATOM     57  O   UNL A   1      33.620  33.765  29.570  1.00  0.00    -0.237 OA
ATOM     58  O   UNL A   1      34.886  34.062  27.468  1.00  0.00    -0.237 OA
ATOM     59  O   UNL A   1      33.199  32.277  27.650  1.00  0.00    -0.744 OA
ENDBRANCH  55  56
ENDBRANCH  27  50
BRANCH  39  60
ATOM     60  C   UNL A   1      42.349  29.256  33.976  1.00  0.00    -0.014 A 
ATOM     61  C   UNL A   1      41.884  27.964  33.665  1.00  0.00     0.010 A 
ATOM     62  C   UNL A   1      42.659  29.554  35.315  1.00  0.00     0.010 A 
ATOM     63  C   UNL A   1      41.718  27.000  34.669  1.00  0.00     0.020 A 
ATOM     64  C   UNL A   1      42.513  28.591  36.319  1.00  0.00     0.020 A 
ATOM     65  C   UNL A   1      42.038  27.320  35.991  1.00  0.00     0.054 A 
BRANCH  65  66
ATOM     66  S   UNL A   1      41.898  26.042  37.272  1.00  0.00     0.124 S 
ATOM     67  O   UNL A   1      40.508  26.167  37.695  1.00  0.00    -0.237 OA
ATOM     68  O   UNL A   1      42.230  24.818  36.547  1.00  0.00    -0.237 OA
ATOM     69  O   UNL A   1      42.889  26.443  38.273  1.00  0.00    -0.744 OA
ENDBRANCH  65  66
ENDBRANCH  39  60
ENDBRANCH  13  14
ENDBRANCH   6   8
ENDBRANCH   3   4
ENDBRANCH   2   3
ENDBRANCH   1   2
BRANCH   1  70
ATOM     70  C   UNL A   1      38.653  20.960  25.416  1.00  0.00     0.002 C 
BRANCH  70  71
ATOM     71  C   UNL A   1      37.337  21.324  24.737  1.00  0.00     0.021 C 
BRANCH  71  72
ATOM     72  C   UNL A   1      36.147  21.569  25.656  1.00  0.00     0.116 C 
BRANCH  72  73
ATOM     73  N   UNL A   1      35.060  20.633  25.537  1.00  0.00    -0.351 N 
ATOM     74  C   UNL A   1      33.758  20.710  25.084  1.00  0.00     0.273 C 
ATOM     75  H   UNL A   1      35.298  19.731  25.852  1.00  0.00     0.163 HD
ATOM     76  O   UNL A   1      33.140  19.647  25.215  1.00  0.00    -0.267 OA
BRANCH  74  77
ATOM     77  C   UNL A   1      33.063  21.886  24.505  1.00  0.00     0.178 A 
ATOM     78  N   UNL A   1      32.247  21.624  23.410  1.00  0.00    -0.124 NA
ATOM     79  C   UNL A   1      32.943  23.257  24.779  1.00  0.00     0.122 A 
ATOM     80  N   UNL A   1      31.633  22.730  23.034  1.00  0.00    -0.061 NA
ATOM     81  N   UNL A   1      32.151  23.742  23.745  1.00  0.00    -0.213 N 
BRANCH  79  82
ATOM     82  C   UNL A   1      33.291  24.071  25.987  1.00  0.00     0.262 C 
ATOM     83  C   UNL A   1      32.076  24.111  26.943  1.00  0.00     0.281 C 
ATOM     84  O   UNL A   1      33.843  25.356  25.684  1.00  0.00    -0.477 OA
ATOM     85  O   UNL A   1      31.144  25.131  26.585  1.00  0.00    -0.485 OA
ATOM     86  C   UNL A   1      33.166  26.404  26.256  1.00  0.00     0.162 A 
ATOM     87  C   UNL A   1      31.821  26.319  26.625  1.00  0.00     0.161 A 
ATOM     88  C   UNL A   1      33.844  27.608  26.400  1.00  0.00     0.050 A 
ATOM     89  C   UNL A   1      31.122  27.441  27.049  1.00  0.00     0.050 A 
ATOM     90  C   UNL A   1      33.162  28.727  26.883  1.00  0.00     0.004 A 
ATOM     91  C   UNL A   1      31.799  28.651  27.185  1.00  0.00     0.004 A 
ENDBRANCH  79  82
BRANCH  81  92
ATOM     92  C   UNL A   1      31.825  25.071  23.417  1.00  0.00     0.067 A 
ATOM     93  C   UNL A   1      30.506  25.509  23.553  1.00  0.00     0.028 A 
ATOM     94  C   UNL A   1      32.852  25.960  23.082  1.00  0.00     0.041 A 
ATOM     95  C   UNL A   1      30.235  26.875  23.459  1.00  0.00     0.003 A 
ATOM     96  C   UNL A   1      32.577  27.328  22.956  1.00  0.00     0.058 A 
ATOM     97  C   UNL A   1      31.265  27.779  23.178  1.00  0.00     0.013 A 
BRANCH  96  98
ATOM     98  C   UNL A   1      33.682  28.313  22.662  1.00  0.00     0.416 C 
ATOM     99  F   UNL A   1      33.264  29.606  22.763  1.00  0.00    -0.166 F 
ATOM    100  F   UNL A   1      34.732  28.191  23.517  1.00  0.00    -0.166 F 
ATOM    101  F   UNL A   1      34.196  28.188  21.407  1.00  0.00    -0.166 F 
ENDBRANCH  96  98
ENDBRANCH  81  92
ENDBRANCH  74  77
ENDBRANCH  72  73
ENDBRANCH  71  72
ENDBRANCH  70  71
ENDBRANCH   1  70
TORSDOF 19
ENDMDL
MODEL 3
REMARK VINA RESULT:     -12.4      2.859      9.179
REMARK SMILES O=C(NCCCCCCNC(=O)c1nnn(-c2cccc(C(F)(F)F)c2)c1[C@@H]1COc2ccccc2O1)c1ccc(-c2c3nc(c(-c4ccc(S(=O)(=O)[O-])cc4)c4ccc([nH]4)c(-c4ccc(S(=O)(=O)[O-])cc4)c4nc(c(-c5ccc(S(=O)(=O)[O-])cc5)c5ccc2[nH]5)C=C4)C=C3)cc1
REMARK SMILES IDX 6 1 5 2 4 3 3 4 1 5 2 6 38 8 39 9 97 10 40 11 96 12 41 13
REMARK SMILES IDX 42 14 43 15 90 16 44 17 95 18 89 19 91 20 45 21 94 22 88 23
REMARK SMILES IDX 87 24 46 26 76 27 57 28 75 29 58 30 61 31 74 32 92 33 59 34
REMARK SMILES IDX 60 35 73 37 93 38 62 39 47 40 48 41 56 42 49 43 55 44 50 45
REMARK SMILES IDX 51 46 52 47 53 48 54 49 77 50 78 51 86 52 79 53 85 54 80 55
REMARK SMILES IDX 81 56 82 57 83 58 84 59 63 60 64 61 72 62 65 63 71 64 66 65
REMARK SMILES IDX 67 66 68 67 69 68 70 69 7 70 8 71 9 72 10 73 11 74 12 76
REMARK SMILES IDX 13 77 14 78 27 79 15 80 16 81 28 82 29 83 37 84 30 85 36 86
REMARK SMILES IDX 31 87 35 88 32 89 34 90 33 91 17 92 18 93 26 94 19 95 21 96
REMARK SMILES IDX 20 97 22 98 23 99 24 100 25 101
REMARK H PARENT 3 7 91 25 61 36 10 75
REMARK Flexibility Score: inf
ROOT
ATOM      1  C   UNL A   1      34.804  31.655  27.661  1.00  0.00     0.002 C 
ENDROOT
BRANCH   1   2
ATOM      2  C   UNL A   1      33.765  32.731  28.005  1.00  0.00     0.021 C 
BRANCH   2   3
ATOM      3  C   UNL A   1      34.185  33.745  29.069  1.00  0.00     0.116 C 
BRANCH   3   4
ATOM      4  N   UNL A   1      33.932  33.337  30.433  1.00  0.00    -0.352 N 
ATOM      5  O   UNL A   1      34.117  32.590  32.500  1.00  0.00    -0.269 OA
ATOM      6  C   UNL A   1      34.648  32.673  31.390  1.00  0.00     0.251 C 
ATOM      7  H   UNL A   1      33.036  33.596  30.745  1.00  0.00     0.163 HD
BRANCH   6   8
ATOM      8  C   UNL A   1      35.962  32.012  31.170  1.00  0.00     0.039 A 
ATOM      9  C   UNL A   1      36.176  30.637  31.061  1.00  0.00     0.014 A 
ATOM     10  C   UNL A   1      37.070  32.874  31.074  1.00  0.00     0.014 A 
ATOM     11  C   UNL A   1      37.468  30.126  30.956  1.00  0.00     0.010 A 
ATOM     12  C   UNL A   1      38.358  32.373  30.941  1.00  0.00     0.010 A 
ATOM     13  C   UNL A   1      38.559  30.993  30.922  1.00  0.00    -0.014 A 
BRANCH  13  14
ATOM     14  C   UNL A   1      39.896  30.427  30.752  1.00  0.00     0.031 A 
ATOM     15  C   UNL A   1      40.734  30.342  31.989  1.00  0.00     0.074 A 
ATOM     16  C   UNL A   1      40.276  29.831  29.603  1.00  0.00     0.049 A 
ATOM     17  N   UNL A   1      41.946  30.752  32.187  1.00  0.00    -0.248 NA
ATOM     18  C   UNL A   1      40.095  29.777  33.192  1.00  0.00     0.031 C 
ATOM     19  C   UNL A   1      39.441  29.563  28.427  1.00  0.00     0.029 A 
ATOM     20  N   UNL A   1      41.445  29.195  29.304  1.00  0.00    -0.354 N 
ATOM     21  C   UNL A   1      42.291  30.337  33.475  1.00  0.00     0.074 A 
ATOM     22  C   UNL A   1      41.077  29.858  34.086  1.00  0.00     0.031 C 
ATOM     23  C   UNL A   1      40.034  28.614  27.671  1.00  0.00     0.029 A 
ATOM     24  C   UNL A   1      41.337  28.308  28.240  1.00  0.00     0.049 A 
ATOM     25  H   UNL A   1      42.284  29.351  29.794  1.00  0.00     0.167 HD
ATOM     26  C   UNL A   1      43.581  30.224  33.900  1.00  0.00     0.031 A 
ATOM     27  C   UNL A   1      42.202  27.318  27.911  1.00  0.00     0.031 A 
ATOM     28  C   UNL A   1      44.496  30.965  33.079  1.00  0.00     0.049 A 
ATOM     29  C   UNL A   1      43.497  27.612  28.570  1.00  0.00     0.074 A 
ATOM     30  C   UNL A   1      44.661  32.296  32.754  1.00  0.00     0.029 A 
ATOM     31  N   UNL A   1      45.256  30.262  32.176  1.00  0.00    -0.354 N 
ATOM     32  N   UNL A   1      44.248  28.634  28.270  1.00  0.00    -0.248 NA
ATOM     33  C   UNL A   1      43.772  26.992  29.855  1.00  0.00     0.031 C 
ATOM     34  C   UNL A   1      45.104  32.292  31.400  1.00  0.00     0.029 A 
ATOM     35  C   UNL A   1      45.220  30.960  30.997  1.00  0.00     0.049 A 
ATOM     36  H   UNL A   1      45.735  29.418  32.342  1.00  0.00     0.167 HD
ATOM     37  C   UNL A   1      44.797  29.040  29.477  1.00  0.00     0.074 A 
ATOM     38  C   UNL A   1      44.556  27.930  30.395  1.00  0.00     0.031 C 
ATOM     39  C   UNL A   1      45.153  30.342  29.691  1.00  0.00     0.031 A 
BRANCH  26  40
ATOM     40  C   UNL A   1      44.053  29.133  34.837  1.00  0.00    -0.014 A 
ATOM     41  C   UNL A   1      43.998  27.788  34.411  1.00  0.00     0.010 A 
ATOM     42  C   UNL A   1      44.260  29.355  36.215  1.00  0.00     0.010 A 
ATOM     43  C   UNL A   1      44.046  26.730  35.330  1.00  0.00     0.020 A 
ATOM     44  C   UNL A   1      44.355  28.308  37.133  1.00  0.00     0.020 A 
ATOM     45  C   UNL A   1      44.198  27.002  36.690  1.00  0.00     0.054 A 
BRANCH  45  46
ATOM     46  S   UNL A   1      44.087  25.648  37.886  1.00  0.00     0.124 S 
ATOM     47  O   UNL A   1      45.397  25.022  37.749  1.00  0.00    -0.237 OA
ATOM     48  O   UNL A   1      43.851  26.360  39.139  1.00  0.00    -0.237 OA
ATOM     49  O   UNL A   1      42.957  24.857  37.402  1.00  0.00    -0.744 OA
ENDBRANCH  45  46
ENDBRANCH  26  40
BRANCH  27  50
ATOM     50  C   UNL A   1      41.860  25.980  27.363  1.00  0.00    -0.014 A 
ATOM     51  C   UNL A   1      42.584  25.416  26.297  1.00  0.00     0.010 A 
ATOM     52  C   UNL A   1      40.973  25.140  28.068  1.00  0.00     0.010 A 
ATOM     53  C   UNL A   1      42.455  24.052  25.979  1.00  0.00     0.020 A 
ATOM     54  C   UNL A   1      40.830  23.786  27.752  1.00  0.00     0.020 A 
ATOM     55  C   UNL A   1      41.589  23.242  26.720  1.00  0.00     0.054 A 
BRANCH  55  56
ATOM     56  S   UNL A   1      41.545  21.452  26.410  1.00  0.00     0.124 S 
ATOM     57  O   UNL A   1      41.862  20.901  27.724  1.00  0.00    -0.237 OA
ATOM     58  O   UNL A   1      40.176  21.242  25.947  1.00  0.00    -0.237 OA
ATOM     59  O   UNL A   1      42.576  21.254  25.391  1.00  0.00    -0.744 OA
ENDBRANCH  55  56
ENDBRANCH  27  50
BRANCH  39  60
ATOM     60  C   UNL A   1      45.199  31.281  28.507  1.00  0.00    -0.014 A 
ATOM     61  C   UNL A   1      44.087  32.028  28.075  1.00  0.00     0.010 A 
ATOM     62  C   UNL A   1      46.452  31.546  27.927  1.00  0.00     0.010 A 
ATOM     63  C   UNL A   1      44.222  33.004  27.078  1.00  0.00     0.020 A 
ATOM     64  C   UNL A   1      46.597  32.530  26.945  1.00  0.00     0.020 A 
ATOM     65  C   UNL A   1      45.480  33.251  26.521  1.00  0.00     0.054 A 
BRANCH  65  66
ATOM     66  S   UNL A   1      45.660  34.572  25.290  1.00  0.00     0.124 S 
ATOM     67  O   UNL A   1      45.139  35.738  25.995  1.00  0.00    -0.237 OA
ATOM     68  O   UNL A   1      47.098  34.582  25.031  1.00  0.00    -0.237 OA
ATOM     69  O   UNL A   1      44.843  34.112  24.165  1.00  0.00    -0.744 OA
ENDBRANCH  65  66
ENDBRANCH  39  60
ENDBRANCH  13  14
ENDBRANCH   6   8
ENDBRANCH   3   4
ENDBRANCH   2   3
ENDBRANCH   1   2
BRANCH   1  70
ATOM     70  C   UNL A   1      34.306  30.207  27.575  1.00  0.00     0.002 C 
BRANCH  70  71
ATOM     71  C   UNL A   1      33.634  29.797  26.269  1.00  0.00     0.021 C 
BRANCH  71  72
ATOM     72  C   UNL A   1      32.110  29.807  26.260  1.00  0.00     0.116 C 
BRANCH  72  73
ATOM     73  N   UNL A   1      31.490  29.874  24.964  1.00  0.00    -0.351 N 
ATOM     74  C   UNL A   1      31.039  28.940  24.053  1.00  0.00     0.273 C 
ATOM     75  H   UNL A   1      31.357  30.800  24.653  1.00  0.00     0.163 HD
ATOM     76  O   UNL A   1      30.610  29.452  23.012  1.00  0.00    -0.267 OA
BRANCH  74  77
ATOM     77  C   UNL A   1      31.037  27.463  24.190  1.00  0.00     0.178 A 
ATOM     78  N   UNL A   1      29.796  26.848  24.060  1.00  0.00    -0.124 NA
ATOM     79  C   UNL A   1      31.978  26.438  24.376  1.00  0.00     0.122 A 
ATOM     80  N   UNL A   1      29.936  25.538  24.129  1.00  0.00    -0.061 NA
ATOM     81  N   UNL A   1      31.209  25.283  24.466  1.00  0.00    -0.213 N 
BRANCH  79  82
ATOM     82  C   UNL A   1      33.470  26.414  24.250  1.00  0.00     0.262 C 
ATOM     83  C   UNL A   1      33.853  26.092  22.787  1.00  0.00     0.281 C 
ATOM     84  O   UNL A   1      34.122  25.592  25.224  1.00  0.00    -0.477 OA
ATOM     85  O   UNL A   1      33.858  24.688  22.530  1.00  0.00    -0.485 OA
ATOM     86  C   UNL A   1      34.939  24.629  24.686  1.00  0.00     0.162 A 
ATOM     87  C   UNL A   1      34.760  24.129  23.393  1.00  0.00     0.161 A 
ATOM     88  C   UNL A   1      35.930  24.095  25.499  1.00  0.00     0.050 A 
ATOM     89  C   UNL A   1      35.496  23.044  22.937  1.00  0.00     0.050 A 
ATOM     90  C   UNL A   1      36.715  23.043  25.025  1.00  0.00     0.004 A 
ATOM     91  C   UNL A   1      36.484  22.502  23.757  1.00  0.00     0.004 A 
ENDBRANCH  79  82
BRANCH  81  92
ATOM     92  C   UNL A   1      31.600  23.975  24.804  1.00  0.00     0.067 A 
ATOM     93  C   UNL A   1      31.516  22.963  23.843  1.00  0.00     0.028 A 
ATOM     94  C   UNL A   1      32.181  23.740  26.054  1.00  0.00     0.041 A 
ATOM     95  C   UNL A   1      32.123  21.735  24.104  1.00  0.00     0.003 A 
ATOM     96  C   UNL A   1      32.764  22.495  26.330  1.00  0.00     0.058 A 
ATOM     97  C   UNL A   1      32.755  21.507  25.331  1.00  0.00     0.013 A 
BRANCH  96  98
ATOM     98  C   UNL A   1      33.455  22.243  27.647  1.00  0.00     0.416 C 
ATOM     99  F   UNL A   1      32.595  21.802  28.608  1.00  0.00    -0.166 F 
ATOM    100  F   UNL A   1      34.428  21.297  27.553  1.00  0.00    -0.166 F 
ATOM    101  F   UNL A   1      34.050  23.353  28.165  1.00  0.00    -0.166 F 
ENDBRANCH  96  98
ENDBRANCH  81  92
ENDBRANCH  74  77
ENDBRANCH  72  73
ENDBRANCH  71  72
ENDBRANCH  70  71
ENDBRANCH   1  70
TORSDOF 19
ENDMDL
