MODEL 1
REMARK VINA RESULT:     -12.1      0.000      0.000
REMARK SMILES Nc1ccc2[nH]cc(C(=O)NCCCCCCNC(=O)c3ccc(-c4c5nc(c(-c6ccc(S(=O)(=O)[O-])cc6)c6ccc([nH]6)c(-c6ccc(S(=O)(=O)[O-])cc6)c6nc(c(-c7ccc(S(=O)(=O)[O-])cc7)c7ccc4[nH]7)C=C6)C=C5)cc3)c2c1
REMARK SMILES IDX 15 1 14 2 13 3 12 4 11 5 9 6 10 7 8 9 2 10 3 11 82 12 4 13
REMARK SMILES IDX 81 14 5 15 6 16 7 17 1 19 16 22 17 23 18 24 19 25 20 27
REMARK SMILES IDX 21 28 22 29 80 30 23 31 79 32 24 33 25 34 26 35 73 36 27 37
REMARK SMILES IDX 78 38 72 39 74 40 28 41 77 42 71 43 70 44 29 46 59 47 40 48
REMARK SMILES IDX 58 49 41 50 44 51 57 52 75 53 42 54 43 55 56 57 76 58 45 59
REMARK SMILES IDX 30 60 31 61 39 62 32 63 38 64 33 65 34 66 35 67 36 68 37 69
REMARK SMILES IDX 60 70 61 71 69 72 62 73 68 74 63 75 64 76 65 77 66 78 67 79
REMARK SMILES IDX 46 80 47 81 55 82 48 83 54 84 49 85 50 86 51 87 52 88 53 89
REMARK H PARENT 11 8 6 18 1 20 1 21 18 26 74 45 44 56
REMARK Flexibility Score: inf
ROOT
ATOM      1  C   UNL A   1      38.396  23.404  26.026  1.00  0.00     0.002 C 
ENDROOT
BRANCH   1   2
ATOM      2  C   UNL A   1      37.032  23.706  25.394  1.00  0.00     0.002 C 
BRANCH   2   3
ATOM      3  C   UNL A   1      36.516  22.725  24.344  1.00  0.00     0.021 C 
BRANCH   3   4
ATOM      4  C   UNL A   1      35.207  23.074  23.654  1.00  0.00     0.116 C 
BRANCH   4   5
ATOM      5  N   UNL A   1      34.085  23.340  24.517  1.00  0.00    -0.352 N 
ATOM      6  C   UNL A   1      32.913  22.636  24.688  1.00  0.00     0.253 C 
ATOM      7  O   UNL A   1      32.114  23.104  25.506  1.00  0.00    -0.269 OA
ATOM      8  H   UNL A   1      34.167  24.151  25.069  1.00  0.00     0.163 HD
BRANCH   6   9
ATOM      9  C   UNL A   1      32.551  21.457  23.879  1.00  0.00     0.065 A 
ATOM     10  C   UNL A   1      33.139  17.793  24.937  1.00  0.00     0.032 A 
ATOM     11  C   UNL A   1      32.888  17.250  23.683  1.00  0.00     0.027 A 
ATOM     12  C   UNL A   1      32.864  19.148  25.158  1.00  0.00     0.036 A 
ATOM     13  C   UNL A   1      32.418  18.041  22.630  1.00  0.00     0.029 A 
ATOM     14  C   UNL A   1      32.587  20.023  24.080  1.00  0.00     0.014 A 
ATOM     15  C   UNL A   1      32.305  19.418  22.850  1.00  0.00     0.046 A 
ATOM     16  N   UNL A   1      31.902  20.410  21.995  1.00  0.00    -0.360 N 
ATOM     17  C   UNL A   1      32.059  21.627  22.588  1.00  0.00     0.097 A 
ATOM     18  H   UNL A   1      31.551  20.266  21.087  1.00  0.00     0.166 HD
BRANCH  10  19
ATOM     19  N   UNL A   1      33.591  16.996  25.975  1.00  0.00    -0.399 N 
ATOM     20  H   UNL A   1      33.054  16.227  26.276  1.00  0.00     0.156 HD
ATOM     21  H   UNL A   1      34.450  17.197  26.413  1.00  0.00     0.156 HD
ENDBRANCH  10  19
ENDBRANCH   6   9
ENDBRANCH   4   5
ENDBRANCH   3   4
ENDBRANCH   2   3
ENDBRANCH   1   2
BRANCH   1  22
ATOM     22  C   UNL A   1      38.863  21.943  26.049  1.00  0.00     0.021 C 
BRANCH  22  23
ATOM     23  C   UNL A   1      40.275  21.690  26.579  1.00  0.00     0.116 C 
BRANCH  23  24
ATOM     24  N   UNL A   1      41.334  22.024  25.653  1.00  0.00    -0.352 N 
ATOM     25  C   UNL A   1      42.204  23.067  25.504  1.00  0.00     0.251 C 
ATOM     26  H   UNL A   1      41.459  21.333  24.964  1.00  0.00     0.163 HD
ATOM     27  O   UNL A   1      43.063  22.922  24.629  1.00  0.00    -0.269 OA
BRANCH  25  28
ATOM     28  C   UNL A   1      42.159  24.347  26.262  1.00  0.00     0.039 A 
ATOM     29  C   UNL A   1      42.740  24.582  27.507  1.00  0.00     0.014 A 
ATOM     30  C   UNL A   1      41.421  25.387  25.661  1.00  0.00     0.014 A 
ATOM     31  C   UNL A   1      42.517  25.785  28.175  1.00  0.00     0.010 A 
ATOM     32  C   UNL A   1      41.210  26.596  26.316  1.00  0.00     0.010 A 
ATOM     33  C   UNL A   1      41.721  26.776  27.597  1.00  0.00    -0.014 A 
BRANCH  33  34
ATOM     34  C   UNL A   1      41.490  28.000  28.361  1.00  0.00     0.031 A 
ATOM     35  C   UNL A   1      42.529  29.064  28.238  1.00  0.00     0.074 A 
ATOM     36  C   UNL A   1      40.365  28.233  29.065  1.00  0.00     0.049 A 
ATOM     37  N   UNL A   1      43.239  29.606  29.175  1.00  0.00    -0.248 NA
ATOM     38  C   UNL A   1      42.861  29.538  26.886  1.00  0.00     0.031 C 
ATOM     39  C   UNL A   1      39.120  27.462  29.068  1.00  0.00     0.029 A 
ATOM     40  N   UNL A   1      40.066  29.307  29.848  1.00  0.00    -0.354 N 
ATOM     41  C   UNL A   1      44.015  30.589  28.562  1.00  0.00     0.074 A 
ATOM     42  C   UNL A   1      43.814  30.434  27.143  1.00  0.00     0.031 C 
ATOM     43  C   UNL A   1      38.134  28.217  29.604  1.00  0.00     0.029 A 
ATOM     44  C   UNL A   1      38.711  29.451  30.110  1.00  0.00     0.049 A 
ATOM     45  H   UNL A   1      40.748  29.925  30.196  1.00  0.00     0.167 HD
ATOM     46  C   UNL A   1      44.675  31.558  29.260  1.00  0.00     0.031 A 
ATOM     47  C   UNL A   1      38.103  30.554  30.614  1.00  0.00     0.031 A 
ATOM     48  C   UNL A   1      44.794  31.237  30.655  1.00  0.00     0.049 A 
ATOM     49  C   UNL A   1      39.137  31.350  31.319  1.00  0.00     0.074 A 
ATOM     50  C   UNL A   1      45.407  30.221  31.361  1.00  0.00     0.029 A 
ATOM     51  N   UNL A   1      43.928  31.837  31.538  1.00  0.00    -0.354 N 
ATOM     52  N   UNL A   1      39.743  30.954  32.403  1.00  0.00    -0.248 NA
ATOM     53  C   UNL A   1      39.800  32.421  30.591  1.00  0.00     0.031 C 
ATOM     54  C   UNL A   1      44.523  29.943  32.441  1.00  0.00     0.029 A 
ATOM     55  C   UNL A   1      43.459  30.844  32.362  1.00  0.00     0.049 A 
ATOM     56  H   UNL A   1      43.691  32.791  31.573  1.00  0.00     0.167 HD
ATOM     57  C   UNL A   1      41.046  31.411  32.271  1.00  0.00     0.074 A 
ATOM     58  C   UNL A   1      40.992  32.393  31.189  1.00  0.00     0.031 C 
ATOM     59  C   UNL A   1      42.097  30.763  32.855  1.00  0.00     0.031 A 
BRANCH  46  60
ATOM     60  C   UNL A   1      45.011  32.922  28.716  1.00  0.00    -0.014 A 
ATOM     61  C   UNL A   1      44.025  33.816  28.253  1.00  0.00     0.010 A 
ATOM     62  C   UNL A   1      46.315  33.437  28.873  1.00  0.00     0.010 A 
ATOM     63  C   UNL A   1      44.319  35.145  27.934  1.00  0.00     0.020 A 
ATOM     64  C   UNL A   1      46.612  34.782  28.599  1.00  0.00     0.020 A 
ATOM     65  C   UNL A   1      45.609  35.625  28.124  1.00  0.00     0.054 A 
BRANCH  65  66
ATOM     66  S   UNL A   1      45.917  37.384  27.824  1.00  0.00     0.124 S 
ATOM     67  O   UNL A   1      46.387  37.375  26.441  1.00  0.00    -0.237 OA
ATOM     68  O   UNL A   1      44.599  37.973  28.038  1.00  0.00    -0.237 OA
ATOM     69  O   UNL A   1      46.924  37.731  28.823  1.00  0.00    -0.744 OA
ENDBRANCH  65  66
ENDBRANCH  46  60
BRANCH  47  70
ATOM     70  C   UNL A   1      36.841  31.159  30.109  1.00  0.00    -0.014 A 
ATOM     71  C   UNL A   1      36.751  31.591  28.768  1.00  0.00     0.010 A 
ATOM     72  C   UNL A   1      35.851  31.597  31.007  1.00  0.00     0.010 A 
ATOM     73  C   UNL A   1      35.770  32.497  28.359  1.00  0.00     0.020 A 
ATOM     74  C   UNL A   1      34.864  32.513  30.604  1.00  0.00     0.020 A 
ATOM     75  C   UNL A   1      34.859  32.987  29.291  1.00  0.00     0.054 A 
BRANCH  75  76
ATOM     76  S   UNL A   1      33.749  34.328  28.780  1.00  0.00     0.124 S 
ATOM     77  O   UNL A   1      32.905  33.657  27.789  1.00  0.00    -0.237 OA
ATOM     78  O   UNL A   1      33.075  34.672  30.035  1.00  0.00    -0.237 OA
ATOM     79  O   UNL A   1      34.643  35.344  28.257  1.00  0.00    -0.744 OA
ENDBRANCH  75  76
ENDBRANCH  47  70
BRANCH  59  80
ATOM     80  C   UNL A   1      41.826  29.661  33.862  1.00  0.00    -0.014 A 
ATOM     81  C   UNL A   1      42.121  29.921  35.215  1.00  0.00     0.010 A 
ATOM     82  C   UNL A   1      41.511  28.337  33.493  1.00  0.00     0.010 A 
ATOM     83  C   UNL A   1      42.143  28.892  36.159  1.00  0.00     0.020 A 
ATOM     84  C   UNL A   1      41.504  27.305  34.443  1.00  0.00     0.020 A 
ATOM     85  C   UNL A   1      41.849  27.586  35.766  1.00  0.00     0.054 A 
BRANCH  85  86
ATOM     86  S   UNL A   1      41.964  26.269  37.007  1.00  0.00     0.124 S 
ATOM     87  O   UNL A   1      42.937  26.816  37.951  1.00  0.00    -0.237 OA
ATOM     88  O   UNL A   1      40.594  26.177  37.509  1.00  0.00    -0.237 OA
ATOM     89  O   UNL A   1      42.421  25.105  36.250  1.00  0.00    -0.744 OA
ENDBRANCH  85  86
ENDBRANCH  59  80
ENDBRANCH  33  34
ENDBRANCH  25  28
ENDBRANCH  23  24
ENDBRANCH  22  23
ENDBRANCH   1  22
TORSDOF 17
ENDMDL
MODEL 2
REMARK VINA RESULT:     -12.1      0.719      1.494
REMARK SMILES Nc1ccc2[nH]cc(C(=O)NCCCCCCNC(=O)c3ccc(-c4c5nc(c(-c6ccc(S(=O)(=O)[O-])cc6)c6ccc([nH]6)c(-c6ccc(S(=O)(=O)[O-])cc6)c6nc(c(-c7ccc(S(=O)(=O)[O-])cc7)c7ccc4[nH]7)C=C6)C=C5)cc3)c2c1
REMARK SMILES IDX 15 1 14 2 13 3 12 4 11 5 9 6 10 7 8 9 2 10 3 11 82 12 4 13
REMARK SMILES IDX 81 14 5 15 6 16 7 17 1 19 16 22 17 23 18 24 19 25 20 27
REMARK SMILES IDX 21 28 22 29 80 30 23 31 79 32 24 33 25 34 26 35 73 36 27 37
REMARK SMILES IDX 78 38 72 39 74 40 28 41 77 42 71 43 70 44 29 46 59 47 40 48
REMARK SMILES IDX 58 49 41 50 44 51 57 52 75 53 42 54 43 55 56 57 76 58 45 59
REMARK SMILES IDX 30 60 31 61 39 62 32 63 38 64 33 65 34 66 35 67 36 68 37 69
REMARK SMILES IDX 60 70 61 71 69 72 62 73 68 74 63 75 64 76 65 77 66 78 67 79
REMARK SMILES IDX 46 80 47 81 55 82 48 83 54 84 49 85 50 86 51 87 52 88 53 89
REMARK H PARENT 11 8 6 18 1 20 1 21 18 26 74 45 44 56
REMARK Flexibility Score: inf
ROOT
ATOM      1  C   UNL A   1      38.515  23.595  26.293  1.00  0.00     0.002 C 
ENDROOT
BRANCH   1   2
ATOM      2  C   UNL A   1      37.011  23.891  26.321  1.00  0.00     0.002 C 
BRANCH   2   3
ATOM      3  C   UNL A   1      36.182  23.416  25.131  1.00  0.00     0.021 C 
BRANCH   3   4
ATOM      4  C   UNL A   1      35.060  24.327  24.659  1.00  0.00     0.116 C 
BRANCH   4   5
ATOM      5  N   UNL A   1      33.964  24.511  25.575  1.00  0.00    -0.352 N 
ATOM      6  C   UNL A   1      33.152  23.579  26.183  1.00  0.00     0.253 C 
ATOM      7  O   UNL A   1      32.276  24.027  26.929  1.00  0.00    -0.269 OA
ATOM      8  H   UNL A   1      33.763  25.448  25.800  1.00  0.00     0.163 HD
BRANCH   6   9
ATOM      9  C   UNL A   1      33.219  22.134  25.893  1.00  0.00     0.065 A 
ATOM     10  C   UNL A   1      32.108  20.496  22.581  1.00  0.00     0.032 A 
ATOM     11  C   UNL A   1      32.133  19.192  23.062  1.00  0.00     0.027 A 
ATOM     12  C   UNL A   1      32.637  21.522  23.373  1.00  0.00     0.036 A 
ATOM     13  C   UNL A   1      32.625  18.897  24.337  1.00  0.00     0.029 A 
ATOM     14  C   UNL A   1      32.953  21.305  24.737  1.00  0.00     0.014 A 
ATOM     15  C   UNL A   1      32.999  19.970  25.154  1.00  0.00     0.046 A 
ATOM     16  N   UNL A   1      33.481  19.965  26.437  1.00  0.00    -0.360 N 
ATOM     17  C   UNL A   1      33.601  21.244  26.893  1.00  0.00     0.097 A 
ATOM     18  H   UNL A   1      33.708  19.158  26.953  1.00  0.00     0.166 HD
BRANCH  10  19
ATOM     19  N   UNL A   1      31.631  20.772  21.310  1.00  0.00    -0.399 N 
ATOM     20  H   UNL A   1      32.102  20.422  20.520  1.00  0.00     0.156 HD
ATOM     21  H   UNL A   1      30.819  21.319  21.197  1.00  0.00     0.156 HD
ENDBRANCH  10  19
ENDBRANCH   6   9
ENDBRANCH   4   5
ENDBRANCH   3   4
ENDBRANCH   2   3
ENDBRANCH   1   2
BRANCH   1  22
ATOM     22  C   UNL A   1      38.951  22.138  26.085  1.00  0.00     0.021 C 
BRANCH  22  23
ATOM     23  C   UNL A   1      40.351  21.772  26.579  1.00  0.00     0.116 C 
BRANCH  23  24
ATOM     24  N   UNL A   1      41.418  22.098  25.659  1.00  0.00    -0.352 N 
ATOM     25  C   UNL A   1      42.282  23.143  25.500  1.00  0.00     0.251 C 
ATOM     26  H   UNL A   1      41.555  21.395  24.983  1.00  0.00     0.163 HD
ATOM     27  O   UNL A   1      43.151  22.989  24.637  1.00  0.00    -0.269 OA
BRANCH  25  28
ATOM     28  C   UNL A   1      42.220  24.436  26.235  1.00  0.00     0.039 A 
ATOM     29  C   UNL A   1      42.798  24.701  27.476  1.00  0.00     0.014 A 
ATOM     30  C   UNL A   1      41.469  25.456  25.616  1.00  0.00     0.014 A 
ATOM     31  C   UNL A   1      42.560  25.913  28.122  1.00  0.00     0.010 A 
ATOM     32  C   UNL A   1      41.242  26.673  26.249  1.00  0.00     0.010 A 
ATOM     33  C   UNL A   1      41.750  26.883  27.526  1.00  0.00    -0.014 A 
BRANCH  33  34
ATOM     34  C   UNL A   1      41.504  28.117  28.269  1.00  0.00     0.031 A 
ATOM     35  C   UNL A   1      42.530  29.191  28.129  1.00  0.00     0.074 A 
ATOM     36  C   UNL A   1      40.375  28.349  28.966  1.00  0.00     0.049 A 
ATOM     37  N   UNL A   1      43.232  29.758  29.058  1.00  0.00    -0.248 NA
ATOM     38  C   UNL A   1      42.859  29.646  26.770  1.00  0.00     0.031 C 
ATOM     39  C   UNL A   1      39.139  27.563  28.981  1.00  0.00     0.029 A 
ATOM     40  N   UNL A   1      40.061  29.433  29.730  1.00  0.00    -0.354 N 
ATOM     41  C   UNL A   1      43.998  30.739  28.429  1.00  0.00     0.074 A 
ATOM     42  C   UNL A   1      43.801  30.557  27.012  1.00  0.00     0.031 C 
ATOM     43  C   UNL A   1      38.143  28.316  29.502  1.00  0.00     0.029 A 
ATOM     44  C   UNL A   1      38.704  29.566  29.987  1.00  0.00     0.049 A 
ATOM     45  H   UNL A   1      40.736  30.065  30.068  1.00  0.00     0.167 HD
ATOM     46  C   UNL A   1      44.645  31.728  29.111  1.00  0.00     0.031 A 
ATOM     47  C   UNL A   1      38.082  30.669  30.471  1.00  0.00     0.031 A 
ATOM     48  C   UNL A   1      44.765  31.433  30.512  1.00  0.00     0.049 A 
ATOM     49  C   UNL A   1      39.106  31.490  31.163  1.00  0.00     0.074 A 
ATOM     50  C   UNL A   1      45.388  30.436  31.236  1.00  0.00     0.029 A 
ATOM     51  N   UNL A   1      43.890  32.037  31.382  1.00  0.00    -0.354 N 
ATOM     52  N   UNL A   1      39.714  31.120  32.256  1.00  0.00    -0.248 NA
ATOM     53  C   UNL A   1      39.757  32.556  30.418  1.00  0.00     0.031 C 
ATOM     54  C   UNL A   1      44.506  30.167  32.319  1.00  0.00     0.029 A 
ATOM     55  C   UNL A   1      43.431  31.054  32.223  1.00  0.00     0.049 A 
ATOM     56  H   UNL A   1      43.641  32.989  31.400  1.00  0.00     0.167 HD
ATOM     57  C   UNL A   1      41.012  31.591  32.118  1.00  0.00     0.074 A 
ATOM     58  C   UNL A   1      40.949  32.552  31.019  1.00  0.00     0.031 C 
ATOM     59  C   UNL A   1      42.070  30.965  32.715  1.00  0.00     0.031 A 
BRANCH  46  60
ATOM     60  C   UNL A   1      44.965  33.087  28.543  1.00  0.00    -0.014 A 
ATOM     61  C   UNL A   1      44.020  33.852  27.832  1.00  0.00     0.010 A 
ATOM     62  C   UNL A   1      46.162  33.735  28.914  1.00  0.00     0.010 A 
ATOM     63  C   UNL A   1      44.257  35.183  27.479  1.00  0.00     0.020 A 
ATOM     64  C   UNL A   1      46.392  35.086  28.605  1.00  0.00     0.020 A 
ATOM     65  C   UNL A   1      45.437  35.798  27.882  1.00  0.00     0.054 A 
BRANCH  65  66
ATOM     66  S   UNL A   1      45.648  37.559  27.518  1.00  0.00     0.124 S 
ATOM     67  O   UNL A   1      46.819  37.548  26.645  1.00  0.00    -0.237 OA
ATOM     68  O   UNL A   1      44.384  37.899  26.872  1.00  0.00    -0.237 OA
ATOM     69  O   UNL A   1      45.855  38.159  28.834  1.00  0.00    -0.744 OA
ENDBRANCH  65  66
ENDBRANCH  46  60
BRANCH  47  70
ATOM     70  C   UNL A   1      36.815  31.251  29.953  1.00  0.00    -0.014 A 
ATOM     71  C   UNL A   1      36.755  31.761  28.638  1.00  0.00     0.010 A 
ATOM     72  C   UNL A   1      35.773  31.590  30.835  1.00  0.00     0.010 A 
ATOM     73  C   UNL A   1      35.750  32.647  28.245  1.00  0.00     0.020 A 
ATOM     74  C   UNL A   1      34.761  32.487  30.450  1.00  0.00     0.020 A 
ATOM     75  C   UNL A   1      34.785  33.040  29.168  1.00  0.00     0.054 A 
BRANCH  75  76
ATOM     76  S   UNL A   1      33.636  34.362  28.694  1.00  0.00     0.124 S 
ATOM     77  O   UNL A   1      33.103  34.776  29.995  1.00  0.00    -0.237 OA
ATOM     78  O   UNL A   1      34.524  35.335  28.053  1.00  0.00    -0.237 OA
ATOM     79  O   UNL A   1      32.690  33.707  27.810  1.00  0.00    -0.744 OA
ENDBRANCH  75  76
ENDBRANCH  47  70
BRANCH  59  80
ATOM     80  C   UNL A   1      41.809  29.878  33.741  1.00  0.00    -0.014 A 
ATOM     81  C   UNL A   1      42.125  30.155  35.085  1.00  0.00     0.010 A 
ATOM     82  C   UNL A   1      41.484  28.551  33.394  1.00  0.00     0.010 A 
ATOM     83  C   UNL A   1      42.158  29.139  36.043  1.00  0.00     0.020 A 
ATOM     84  C   UNL A   1      41.488  27.531  34.358  1.00  0.00     0.020 A 
ATOM     85  C   UNL A   1      41.853  27.829  35.672  1.00  0.00     0.054 A 
BRANCH  85  86
ATOM     86  S   UNL A   1      41.982  26.528  36.929  1.00  0.00     0.124 S 
ATOM     87  O   UNL A   1      40.680  26.605  37.589  1.00  0.00    -0.237 OA
ATOM     88  O   UNL A   1      42.203  25.325  36.128  1.00  0.00    -0.237 OA
ATOM     89  O   UNL A   1      43.118  26.938  37.751  1.00  0.00    -0.744 OA
ENDBRANCH  85  86
ENDBRANCH  59  80
ENDBRANCH  33  34
ENDBRANCH  25  28
ENDBRANCH  23  24
ENDBRANCH  22  23
ENDBRANCH   1  22
TORSDOF 17
ENDMDL
MODEL 3
REMARK VINA RESULT:     -11.7      3.994     10.030
REMARK SMILES Nc1ccc2[nH]cc(C(=O)NCCCCCCNC(=O)c3ccc(-c4c5nc(c(-c6ccc(S(=O)(=O)[O-])cc6)c6ccc([nH]6)c(-c6ccc(S(=O)(=O)[O-])cc6)c6nc(c(-c7ccc(S(=O)(=O)[O-])cc7)c7ccc4[nH]7)C=C6)C=C5)cc3)c2c1
REMARK SMILES IDX 15 1 14 2 13 3 12 4 11 5 9 6 10 7 8 9 2 10 3 11 82 12 4 13
REMARK SMILES IDX 81 14 5 15 6 16 7 17 1 19 16 22 17 23 18 24 19 25 20 27
REMARK SMILES IDX 21 28 22 29 80 30 23 31 79 32 24 33 25 34 26 35 73 36 27 37
REMARK SMILES IDX 78 38 72 39 74 40 28 41 77 42 71 43 70 44 29 46 59 47 40 48
REMARK SMILES IDX 58 49 41 50 44 51 57 52 75 53 42 54 43 55 56 57 76 58 45 59
REMARK SMILES IDX 30 60 31 61 39 62 32 63 38 64 33 65 34 66 35 67 36 68 37 69
REMARK SMILES IDX 60 70 61 71 69 72 62 73 68 74 63 75 64 76 65 77 66 78 67 79
REMARK SMILES IDX 46 80 47 81 55 82 48 83 54 84 49 85 50 86 51 87 52 88 53 89
REMARK H PARENT 11 8 6 18 1 20 1 21 18 26 74 45 44 56
REMARK Flexibility Score: inf
ROOT
ATOM      1  C   UNL A   1      34.829  29.943  27.517  1.00  0.00     0.002 C 
ENDROOT
BRANCH   1   2
ATOM      2  C   UNL A   1      34.124  28.635  27.142  1.00  0.00     0.002 C 
BRANCH   2   3
ATOM      3  C   UNL A   1      32.660  28.726  26.718  1.00  0.00     0.021 C 
BRANCH   3   4
ATOM      4  C   UNL A   1      32.365  28.671  25.228  1.00  0.00     0.116 C 
BRANCH   4   5
ATOM      5  N   UNL A   1      32.624  27.414  24.574  1.00  0.00    -0.352 N 
ATOM      6  C   UNL A   1      31.795  26.633  23.799  1.00  0.00     0.253 C 
ATOM      7  O   UNL A   1      32.288  25.587  23.363  1.00  0.00    -0.269 OA
ATOM      8  H   UNL A   1      33.533  27.058  24.702  1.00  0.00     0.163 HD
BRANCH   6   9
ATOM      9  C   UNL A   1      30.368  26.935  23.579  1.00  0.00     0.065 A 
ATOM     10  C   UNL A   1      29.003  30.304  22.286  1.00  0.00     0.032 A 
ATOM     11  C   UNL A   1      27.675  30.039  22.598  1.00  0.00     0.027 A 
ATOM     12  C   UNL A   1      29.944  29.272  22.388  1.00  0.00     0.036 A 
ATOM     13  C   UNL A   1      27.275  28.781  23.059  1.00  0.00     0.029 A 
ATOM     14  C   UNL A   1      29.627  28.055  23.038  1.00  0.00     0.014 A 
ATOM     15  C   UNL A   1      28.271  27.826  23.293  1.00  0.00     0.046 A 
ATOM     16  N   UNL A   1      28.159  26.544  23.763  1.00  0.00    -0.360 N 
ATOM     17  C   UNL A   1      29.398  26.009  23.953  1.00  0.00     0.097 A 
ATOM     18  H   UNL A   1      27.310  26.077  23.938  1.00  0.00     0.166 HD
BRANCH  10  19
ATOM     19  N   UNL A   1      29.384  31.550  21.817  1.00  0.00    -0.399 N 
ATOM     20  H   UNL A   1      29.130  32.362  22.312  1.00  0.00     0.156 HD
ATOM     21  H   UNL A   1      29.910  31.625  20.987  1.00  0.00     0.156 HD
ENDBRANCH  10  19
ENDBRANCH   6   9
ENDBRANCH   4   5
ENDBRANCH   3   4
ENDBRANCH   2   3
ENDBRANCH   1   2
BRANCH   1  22
ATOM     22  C   UNL A   1      33.971  31.212  27.615  1.00  0.00     0.021 C 
BRANCH  22  23
ATOM     23  C   UNL A   1      34.601  32.403  28.339  1.00  0.00     0.116 C 
BRANCH  23  24
ATOM     24  N   UNL A   1      34.355  32.441  29.763  1.00  0.00    -0.352 N 
ATOM     25  C   UNL A   1      35.053  32.088  30.882  1.00  0.00     0.251 C 
ATOM     26  H   UNL A   1      33.468  32.810  29.978  1.00  0.00     0.163 HD
ATOM     27  O   UNL A   1      34.528  32.395  31.956  1.00  0.00    -0.269 OA
BRANCH  25  28
ATOM     28  C   UNL A   1      36.339  31.340  30.900  1.00  0.00     0.039 A 
ATOM     29  C   UNL A   1      37.615  31.902  30.941  1.00  0.00     0.014 A 
ATOM     30  C   UNL A   1      36.230  29.936  30.826  1.00  0.00     0.014 A 
ATOM     31  C   UNL A   1      38.746  31.098  30.821  1.00  0.00     0.010 A 
ATOM     32  C   UNL A   1      37.357  29.127  30.723  1.00  0.00     0.010 A 
ATOM     33  C   UNL A   1      38.617  29.715  30.673  1.00  0.00    -0.014 A 
BRANCH  33  34
ATOM     34  C   UNL A   1      39.837  28.927  30.512  1.00  0.00     0.031 A 
ATOM     35  C   UNL A   1      40.616  28.649  31.754  1.00  0.00     0.074 A 
ATOM     36  C   UNL A   1      40.214  28.377  29.341  1.00  0.00     0.049 A 
ATOM     37  N   UNL A   1      41.845  28.957  32.018  1.00  0.00    -0.248 NA
ATOM     38  C   UNL A   1      39.910  28.000  32.869  1.00  0.00     0.031 C 
ATOM     39  C   UNL A   1      39.450  28.278  28.096  1.00  0.00     0.029 A 
ATOM     40  N   UNL A   1      41.347  27.672  29.066  1.00  0.00    -0.354 N 
ATOM     41  C   UNL A   1      42.123  28.424  33.276  1.00  0.00     0.074 A 
ATOM     42  C   UNL A   1      40.869  27.934  33.792  1.00  0.00     0.031 C 
ATOM     43  C   UNL A   1      40.025  27.350  27.297  1.00  0.00     0.029 A 
ATOM     44  C   UNL A   1      41.266  26.909  27.910  1.00  0.00     0.049 A 
ATOM     45  H   UNL A   1      42.150  27.701  29.635  1.00  0.00     0.167 HD
ATOM     46  C   UNL A   1      43.390  28.296  33.766  1.00  0.00     0.031 A 
ATOM     47  C   UNL A   1      42.112  25.914  27.543  1.00  0.00     0.031 A 
ATOM     48  C   UNL A   1      44.337  29.093  33.038  1.00  0.00     0.049 A 
ATOM     49  C   UNL A   1      43.390  26.126  28.267  1.00  0.00     0.074 A 
ATOM     50  C   UNL A   1      44.489  30.447  32.818  1.00  0.00     0.029 A 
ATOM     51  N   UNL A   1      45.130  28.470  32.103  1.00  0.00    -0.354 N 
ATOM     52  N   UNL A   1      44.183  27.139  28.057  1.00  0.00    -0.248 NA
ATOM     53  C   UNL A   1      43.596  25.425  29.525  1.00  0.00     0.031 C 
ATOM     54  C   UNL A   1      44.942  30.550  31.472  1.00  0.00     0.029 A 
ATOM     55  C   UNL A   1      45.095  29.252  30.976  1.00  0.00     0.049 A 
ATOM     56  H   UNL A   1      45.625  27.628  32.220  1.00  0.00     0.167 HD
ATOM     57  C   UNL A   1      44.687  27.463  29.307  1.00  0.00     0.074 A 
ATOM     58  C   UNL A   1      44.372  26.311  30.150  1.00  0.00     0.031 C 
ATOM     59  C   UNL A   1      45.068  28.738  29.620  1.00  0.00     0.031 A 
BRANCH  46  60
ATOM     60  C   UNL A   1      43.815  27.256  34.770  1.00  0.00    -0.014 A 
ATOM     61  C   UNL A   1      44.135  25.935  34.401  1.00  0.00     0.010 A 
ATOM     62  C   UNL A   1      44.132  27.645  36.089  1.00  0.00     0.010 A 
ATOM     63  C   UNL A   1      44.713  25.033  35.299  1.00  0.00     0.020 A 
ATOM     64  C   UNL A   1      44.755  26.762  36.985  1.00  0.00     0.020 A 
ATOM     65  C   UNL A   1      45.035  25.457  36.584  1.00  0.00     0.054 A 
BRANCH  65  66
ATOM     66  S   UNL A   1      45.901  24.299  37.672  1.00  0.00     0.124 S 
ATOM     67  O   UNL A   1      46.041  23.126  36.813  1.00  0.00    -0.237 OA
ATOM     68  O   UNL A   1      47.139  25.014  37.969  1.00  0.00    -0.237 OA
ATOM     69  O   UNL A   1      44.988  24.141  38.801  1.00  0.00    -0.744 OA
ENDBRANCH  65  66
ENDBRANCH  46  60
BRANCH  47  70
ATOM     70  C   UNL A   1      41.713  24.584  27.009  1.00  0.00    -0.014 A 
ATOM     71  C   UNL A   1      40.812  23.774  27.732  1.00  0.00     0.010 A 
ATOM     72  C   UNL A   1      42.445  23.984  25.968  1.00  0.00     0.010 A 
ATOM     73  C   UNL A   1      40.713  22.402  27.492  1.00  0.00     0.020 A 
ATOM     74  C   UNL A   1      42.355  22.603  25.724  1.00  0.00     0.020 A 
ATOM     75  C   UNL A   1      41.518  21.817  26.519  1.00  0.00     0.054 A 
BRANCH  75  76
ATOM     76  S   UNL A   1      41.530  20.007  26.391  1.00  0.00     0.124 S 
ATOM     77  O   UNL A   1      42.601  19.783  25.416  1.00  0.00    -0.237 OA
ATOM     78  O   UNL A   1      41.847  19.598  27.762  1.00  0.00    -0.237 OA
ATOM     79  O   UNL A   1      40.192  19.677  25.939  1.00  0.00    -0.744 OA
ENDBRANCH  75  76
ENDBRANCH  47  70
BRANCH  59  80
ATOM     80  C   UNL A   1      45.170  29.776  28.519  1.00  0.00    -0.014 A 
ATOM     81  C   UNL A   1      46.341  30.556  28.458  1.00  0.00     0.010 A 
ATOM     82  C   UNL A   1      44.081  30.148  27.704  1.00  0.00     0.010 A 
ATOM     83  C   UNL A   1      46.410  31.692  27.648  1.00  0.00     0.020 A 
ATOM     84  C   UNL A   1      44.155  31.271  26.867  1.00  0.00     0.020 A 
ATOM     85  C   UNL A   1      45.312  32.053  26.867  1.00  0.00     0.054 A 
BRANCH  85  86
ATOM     86  S   UNL A   1      45.416  33.576  25.888  1.00  0.00     0.124 S 
ATOM     87  O   UNL A   1      44.770  34.551  26.764  1.00  0.00    -0.237 OA
ATOM     88  O   UNL A   1      46.856  33.752  25.716  1.00  0.00    -0.237 OA
ATOM     89  O   UNL A   1      44.683  33.262  24.663  1.00  0.00    -0.744 OA
ENDBRANCH  85  86
ENDBRANCH  59  80
ENDBRANCH  33  34
ENDBRANCH  25  28
ENDBRANCH  23  24
ENDBRANCH  22  23
ENDBRANCH   1  22
TORSDOF 17
ENDMDL
