MODEL 1
REMARK VINA RESULT:     -10.9      0.000      0.000
REMARK SMILES C[C@](C(=O)NCCCCCCNC(=O)c1ccc(-c2c3nc(c(-c4ccc(S(=O)(=O)[O-])cc4)c4ccc([nH]4)c(-c4ccc(S(=O)(=O)[O-])cc4)c4nc(c(-c5ccc(S(=O)(=O)[O-])cc5)c5ccc2[nH]5)C=C4)C=C3)cc1)(c1cc(F)cc(F)c1)[NH+]1CCCC1
REMARK SMILES IDX 9 1 8 2 7 3 6 4 5 5 3 6 4 7 2 9 1 10 75 11 76 12 82 13 77 14
REMARK SMILES IDX 80 15 78 16 79 17 81 18 83 19 84 20 87 21 85 23 86 24 10 25
REMARK SMILES IDX 11 26 12 27 13 28 14 30 15 31 16 32 74 33 17 34 73 35 18 36
REMARK SMILES IDX 19 37 20 38 67 39 21 40 72 41 66 42 68 43 22 44 71 45 65 46
REMARK SMILES IDX 64 47 23 49 53 50 34 51 52 52 35 53 38 54 51 55 69 56 36 57
REMARK SMILES IDX 37 58 50 60 70 61 39 62 24 63 25 64 33 65 26 66 32 67 27 68
REMARK SMILES IDX 28 69 29 70 30 71 31 72 54 73 55 74 63 75 56 76 62 77 57 78
REMARK SMILES IDX 58 79 59 80 60 81 61 82 40 83 41 84 49 85 42 86 48 87 43 88
REMARK SMILES IDX 44 89 45 90 46 91 47 92
REMARK H PARENT 5 8 83 22 12 29 68 48 38 59
REMARK Flexibility Score: inf
ROOT
ATOM      1  C   UNL A   1      36.580  22.328  25.949  1.00  0.00     0.002 C 
ENDROOT
BRANCH   1   2
ATOM      2  C   UNL A   1      35.166  22.378  26.533  1.00  0.00     0.002 C 
BRANCH   2   3
ATOM      3  C   UNL A   1      34.124  23.177  25.740  1.00  0.00     0.021 C 
BRANCH   3   4
ATOM      4  C   UNL A   1      33.677  24.506  26.349  1.00  0.00     0.116 C 
BRANCH   4   5
ATOM      5  N   UNL A   1      32.254  24.562  26.622  1.00  0.00    -0.350 N 
ATOM      6  C   UNL A   1      31.224  25.258  26.057  1.00  0.00     0.286 C 
ATOM      7  O   UNL A   1      30.104  24.883  26.435  1.00  0.00    -0.267 OA
ATOM      8  H   UNL A   1      31.973  23.981  27.365  1.00  0.00     0.163 HD
BRANCH   6   9
ATOM      9  C   UNL A   1      31.420  26.510  25.078  1.00  0.00     0.200 C 
ATOM     10  C   UNL A   1      29.994  26.715  24.492  1.00  0.00     0.096 C 
BRANCH   9  11
ATOM     11  C   UNL A   1      31.934  27.800  25.758  1.00  0.00     0.028 A 
ATOM     12  C   UNL A   1      31.327  29.045  25.496  1.00  0.00     0.050 A 
ATOM     13  C   UNL A   1      33.085  27.813  26.569  1.00  0.00     0.050 A 
ATOM     14  C   UNL A   1      31.840  30.227  26.035  1.00  0.00     0.126 A 
ATOM     15  C   UNL A   1      33.559  29.001  27.126  1.00  0.00     0.126 A 
ATOM     16  F   UNL A   1      31.258  31.392  25.725  1.00  0.00    -0.207 F 
ATOM     17  C   UNL A   1      32.948  30.215  26.863  1.00  0.00     0.078 A 
ATOM     18  F   UNL A   1      34.637  28.964  27.921  1.00  0.00    -0.207 F 
ENDBRANCH   9  11
BRANCH   9  19
ATOM     19  N   UNL A   1      32.366  26.057  24.009  1.00  0.00    -0.319 N 
ATOM     20  C   UNL A   1      33.433  26.991  23.635  1.00  0.00     0.263 C 
ATOM     21  C   UNL A   1      31.886  25.448  22.779  1.00  0.00     0.263 C 
ATOM     22  H   UNL A   1      32.714  25.288  24.582  1.00  0.00     0.349 HD
ATOM     23  C   UNL A   1      33.023  27.532  22.275  1.00  0.00     0.067 C 
ATOM     24  C   UNL A   1      32.217  26.410  21.644  1.00  0.00     0.067 C 
ENDBRANCH   9  19
ENDBRANCH   6   9
ENDBRANCH   4   5
ENDBRANCH   3   4
ENDBRANCH   2   3
ENDBRANCH   1   2
BRANCH   1  25
ATOM     25  C   UNL A   1      37.204  23.674  25.576  1.00  0.00     0.021 C 
BRANCH  25  26
ATOM     26  C   UNL A   1      38.247  24.221  26.548  1.00  0.00     0.116 C 
BRANCH  26  27
ATOM     27  N   UNL A   1      39.571  24.330  25.960  1.00  0.00    -0.352 N 
ATOM     28  C   UNL A   1      40.624  25.142  26.304  1.00  0.00     0.251 C 
ATOM     29  H   UNL A   1      39.741  23.730  25.199  1.00  0.00     0.163 HD
ATOM     30  O   UNL A   1      41.625  25.165  25.585  1.00  0.00    -0.269 OA
BRANCH  28  31
ATOM     31  C   UNL A   1      40.564  26.009  27.505  1.00  0.00     0.039 A 
ATOM     32  C   UNL A   1      41.394  27.132  27.556  1.00  0.00     0.014 A 
ATOM     33  C   UNL A   1      39.731  25.716  28.588  1.00  0.00     0.014 A 
ATOM     34  C   UNL A   1      41.344  27.989  28.660  1.00  0.00     0.010 A 
ATOM     35  C   UNL A   1      39.628  26.610  29.657  1.00  0.00     0.010 A 
ATOM     36  C   UNL A   1      40.434  27.756  29.706  1.00  0.00    -0.014 A 
BRANCH  36  37
ATOM     37  C   UNL A   1      40.318  28.720  30.835  1.00  0.00     0.031 A 
ATOM     38  C   UNL A   1      41.182  28.582  32.061  1.00  0.00     0.074 A 
ATOM     39  C   UNL A   1      39.411  29.715  30.763  1.00  0.00     0.049 A 
ATOM     40  N   UNL A   1      41.222  29.340  33.129  1.00  0.00    -0.248 NA
ATOM     41  C   UNL A   1      42.108  27.439  32.104  1.00  0.00     0.031 C 
ATOM     42  C   UNL A   1      38.475  29.929  29.655  1.00  0.00     0.029 A 
ATOM     43  N   UNL A   1      39.126  30.737  31.636  1.00  0.00    -0.354 N 
ATOM     44  C   UNL A   1      42.177  28.772  33.964  1.00  0.00     0.074 A 
ATOM     45  C   UNL A   1      42.646  27.571  33.308  1.00  0.00     0.031 C 
ATOM     46  C   UNL A   1      37.744  31.029  29.901  1.00  0.00     0.029 A 
ATOM     47  C   UNL A   1      38.131  31.579  31.197  1.00  0.00     0.049 A 
ATOM     48  H   UNL A   1      39.591  30.855  32.495  1.00  0.00     0.167 HD
ATOM     49  C   UNL A   1      42.644  29.222  35.154  1.00  0.00     0.031 A 
ATOM     50  C   UNL A   1      37.583  32.669  31.769  1.00  0.00     0.031 A 
ATOM     51  C   UNL A   1      42.174  30.415  35.811  1.00  0.00     0.049 A 
ATOM     52  C   UNL A   1      38.110  33.140  33.098  1.00  0.00     0.074 A 
ATOM     53  C   UNL A   1      42.604  30.967  37.005  1.00  0.00     0.029 A 
ATOM     54  N   UNL A   1      41.170  31.242  35.330  1.00  0.00    -0.354 N 
ATOM     55  N   UNL A   1      39.058  32.621  33.840  1.00  0.00    -0.248 NA
ATOM     56  C   UNL A   1      37.504  34.357  33.657  1.00  0.00     0.031 C 
ATOM     57  C   UNL A   1      41.827  32.099  37.271  1.00  0.00     0.029 A 
ATOM     58  C   UNL A   1      40.955  32.289  36.212  1.00  0.00     0.049 A 
ATOM     59  H   UNL A   1      40.681  31.105  34.487  1.00  0.00     0.167 HD
ATOM     60  C   UNL A   1      39.177  33.460  34.943  1.00  0.00     0.074 A 
ATOM     61  C   UNL A   1      38.225  34.535  34.754  1.00  0.00     0.031 C 
ATOM     62  C   UNL A   1      39.999  33.349  36.017  1.00  0.00     0.031 A 
BRANCH  49  63
ATOM     63  C   UNL A   1      43.735  28.424  35.823  1.00  0.00    -0.014 A 
ATOM     64  C   UNL A   1      43.420  27.383  36.717  1.00  0.00     0.010 A 
ATOM     65  C   UNL A   1      45.085  28.673  35.515  1.00  0.00     0.010 A 
ATOM     66  C   UNL A   1      44.435  26.629  37.314  1.00  0.00     0.020 A 
ATOM     67  C   UNL A   1      46.101  27.902  36.087  1.00  0.00     0.020 A 
ATOM     68  C   UNL A   1      45.769  26.893  36.994  1.00  0.00     0.054 A 
BRANCH  68  69
ATOM     69  S   UNL A   1      47.060  25.872  37.756  1.00  0.00     0.124 S 
ATOM     70  O   UNL A   1      48.268  26.386  37.114  1.00  0.00    -0.237 OA
ATOM     71  O   UNL A   1      46.921  26.188  39.175  1.00  0.00    -0.237 OA
ATOM     72  O   UNL A   1      46.691  24.508  37.385  1.00  0.00    -0.744 OA
ENDBRANCH  68  69
ENDBRANCH  49  63
BRANCH  50  73
ATOM     73  C   UNL A   1      36.471  33.390  31.090  1.00  0.00    -0.014 A 
ATOM     74  C   UNL A   1      35.184  33.435  31.656  1.00  0.00     0.010 A 
ATOM     75  C   UNL A   1      36.695  34.028  29.857  1.00  0.00     0.010 A 
ATOM     76  C   UNL A   1      34.137  34.077  30.988  1.00  0.00     0.020 A 
ATOM     77  C   UNL A   1      35.660  34.701  29.202  1.00  0.00     0.020 A 
ATOM     78  C   UNL A   1      34.383  34.705  29.763  1.00  0.00     0.054 A 
BRANCH  78  79
ATOM     79  S   UNL A   1      33.018  35.556  28.924  1.00  0.00     0.124 S 
ATOM     80  O   UNL A   1      32.250  36.081  30.048  1.00  0.00    -0.237 OA
ATOM     81  O   UNL A   1      33.716  36.551  28.114  1.00  0.00    -0.237 OA
ATOM     82  O   UNL A   1      32.367  34.490  28.164  1.00  0.00    -0.744 OA
ENDBRANCH  78  79
ENDBRANCH  50  73
BRANCH  62  83
ATOM     83  C   UNL A   1      39.921  34.436  37.058  1.00  0.00    -0.014 A 
ATOM     84  C   UNL A   1      40.657  35.628  36.927  1.00  0.00     0.010 A 
ATOM     85  C   UNL A   1      39.081  34.270  38.174  1.00  0.00     0.010 A 
ATOM     86  C   UNL A   1      40.592  36.612  37.919  1.00  0.00     0.020 A 
ATOM     87  C   UNL A   1      38.989  35.264  39.152  1.00  0.00     0.020 A 
ATOM     88  C   UNL A   1      39.762  36.420  39.027  1.00  0.00     0.054 A 
BRANCH  88  89
ATOM     89  S   UNL A   1      39.683  37.718  40.292  1.00  0.00     0.124 S 
ATOM     90  O   UNL A   1      39.185  36.981  41.451  1.00  0.00    -0.237 OA
ATOM     91  O   UNL A   1      41.071  38.165  40.381  1.00  0.00    -0.237 OA
ATOM     92  O   UNL A   1      38.754  38.695  39.730  1.00  0.00    -0.744 OA
ENDBRANCH  88  89
ENDBRANCH  62  83
ENDBRANCH  36  37
ENDBRANCH  28  31
ENDBRANCH  26  27
ENDBRANCH  25  26
ENDBRANCH   1  25
TORSDOF 18
ENDMDL
MODEL 2
REMARK VINA RESULT:     -10.9      2.557      8.971
REMARK SMILES C[C@](C(=O)NCCCCCCNC(=O)c1ccc(-c2c3nc(c(-c4ccc(S(=O)(=O)[O-])cc4)c4ccc([nH]4)c(-c4ccc(S(=O)(=O)[O-])cc4)c4nc(c(-c5ccc(S(=O)(=O)[O-])cc5)c5ccc2[nH]5)C=C4)C=C3)cc1)(c1cc(F)cc(F)c1)[NH+]1CCCC1
REMARK SMILES IDX 9 1 8 2 7 3 6 4 5 5 3 6 4 7 2 9 1 10 75 11 76 12 82 13 77 14
REMARK SMILES IDX 80 15 78 16 79 17 81 18 83 19 84 20 87 21 85 23 86 24 10 25
REMARK SMILES IDX 11 26 12 27 13 28 14 30 15 31 16 32 74 33 17 34 73 35 18 36
REMARK SMILES IDX 19 37 20 38 67 39 21 40 72 41 66 42 68 43 22 44 71 45 65 46
REMARK SMILES IDX 64 47 23 49 53 50 34 51 52 52 35 53 38 54 51 55 69 56 36 57
REMARK SMILES IDX 37 58 50 60 70 61 39 62 24 63 25 64 33 65 26 66 32 67 27 68
REMARK SMILES IDX 28 69 29 70 30 71 31 72 54 73 55 74 63 75 56 76 62 77 57 78
REMARK SMILES IDX 58 79 59 80 60 81 61 82 40 83 41 84 49 85 42 86 48 87 43 88
REMARK SMILES IDX 44 89 45 90 46 91 47 92
REMARK H PARENT 5 8 83 22 12 29 68 48 38 59
REMARK Flexibility Score: inf
ROOT
ATOM      1  C   UNL A   1      38.868  22.633  26.158  1.00  0.00     0.002 C 
ENDROOT
BRANCH   1   2
ATOM      2  C   UNL A   1      38.025  21.480  25.610  1.00  0.00     0.002 C 
BRANCH   2   3
ATOM      3  C   UNL A   1      37.219  21.764  24.335  1.00  0.00     0.021 C 
BRANCH   3   4
ATOM      4  C   UNL A   1      35.698  21.795  24.485  1.00  0.00     0.116 C 
BRANCH   4   5
ATOM      5  N   UNL A   1      35.052  22.734  23.587  1.00  0.00    -0.350 N 
ATOM      6  C   UNL A   1      33.764  23.167  23.463  1.00  0.00     0.286 C 
ATOM      7  O   UNL A   1      33.637  24.139  22.702  1.00  0.00    -0.267 OA
ATOM      8  H   UNL A   1      35.667  23.142  22.936  1.00  0.00     0.163 HD
BRANCH   6   9
ATOM      9  C   UNL A   1      32.506  22.444  24.141  1.00  0.00     0.200 C 
ATOM     10  C   UNL A   1      31.311  22.967  23.294  1.00  0.00     0.096 C 
BRANCH   9  11
ATOM     11  C   UNL A   1      32.558  20.899  24.138  1.00  0.00     0.028 A 
ATOM     12  C   UNL A   1      32.373  20.172  22.943  1.00  0.00     0.050 A 
ATOM     13  C   UNL A   1      32.679  20.149  25.324  1.00  0.00     0.050 A 
ATOM     14  C   UNL A   1      32.330  18.777  22.945  1.00  0.00     0.126 A 
ATOM     15  C   UNL A   1      32.668  18.754  25.298  1.00  0.00     0.126 A 
ATOM     16  F   UNL A   1      32.107  18.129  21.795  1.00  0.00    -0.207 F 
ATOM     17  C   UNL A   1      32.490  18.057  24.115  1.00  0.00     0.078 A 
ATOM     18  F   UNL A   1      32.821  18.079  26.444  1.00  0.00    -0.207 F 
ENDBRANCH   9  11
BRANCH   9  19
ATOM     19  N   UNL A   1      32.428  22.971  25.540  1.00  0.00    -0.319 N 
ATOM     20  C   UNL A   1      31.087  23.128  26.112  1.00  0.00     0.263 C 
ATOM     21  C   UNL A   1      33.205  24.128  25.960  1.00  0.00     0.263 C 
ATOM     22  H   UNL A   1      32.913  22.159  25.921  1.00  0.00     0.349 HD
ATOM     23  C   UNL A   1      30.835  24.626  26.119  1.00  0.00     0.067 C 
ATOM     24  C   UNL A   1      32.214  25.246  26.262  1.00  0.00     0.067 C 
ENDBRANCH   9  19
ENDBRANCH   6   9
ENDBRANCH   4   5
ENDBRANCH   3   4
ENDBRANCH   2   3
ENDBRANCH   1   2
BRANCH   1  25
ATOM     25  C   UNL A   1      40.058  22.242  27.036  1.00  0.00     0.021 C 
BRANCH  25  26
ATOM     26  C   UNL A   1      41.085  23.342  27.301  1.00  0.00     0.116 C 
BRANCH  26  27
ATOM     27  N   UNL A   1      41.255  24.245  26.176  1.00  0.00    -0.352 N 
ATOM     28  C   UNL A   1      41.225  25.617  26.136  1.00  0.00     0.251 C 
ATOM     29  H   UNL A   1      41.419  23.808  25.311  1.00  0.00     0.163 HD
ATOM     30  O   UNL A   1      41.266  26.187  25.044  1.00  0.00    -0.269 OA
BRANCH  28  31
ATOM     31  C   UNL A   1      41.114  26.420  27.378  1.00  0.00     0.039 A 
ATOM     32  C   UNL A   1      42.093  27.382  27.638  1.00  0.00     0.014 A 
ATOM     33  C   UNL A   1      40.082  26.217  28.299  1.00  0.00     0.014 A 
ATOM     34  C   UNL A   1      42.005  28.178  28.784  1.00  0.00     0.010 A 
ATOM     35  C   UNL A   1      39.954  27.061  29.406  1.00  0.00     0.010 A 
ATOM     36  C   UNL A   1      40.915  28.050  29.662  1.00  0.00    -0.014 A 
BRANCH  36  37
ATOM     37  C   UNL A   1      40.775  28.960  30.831  1.00  0.00     0.031 A 
ATOM     38  C   UNL A   1      39.727  30.042  30.847  1.00  0.00     0.074 A 
ATOM     39  C   UNL A   1      41.612  28.824  31.880  1.00  0.00     0.049 A 
ATOM     40  N   UNL A   1      39.456  30.912  31.789  1.00  0.00    -0.248 NA
ATOM     41  C   UNL A   1      38.885  30.178  29.648  1.00  0.00     0.031 C 
ATOM     42  C   UNL A   1      42.705  27.852  31.968  1.00  0.00     0.029 A 
ATOM     43  N   UNL A   1      41.677  29.501  33.073  1.00  0.00    -0.354 N 
ATOM     44  C   UNL A   1      38.413  31.691  31.300  1.00  0.00     0.074 A 
ATOM     45  C   UNL A   1      38.143  31.233  29.955  1.00  0.00     0.031 C 
ATOM     46  C   UNL A   1      43.310  27.974  33.161  1.00  0.00     0.029 A 
ATOM     47  C   UNL A   1      42.674  29.055  33.909  1.00  0.00     0.049 A 
ATOM     48  H   UNL A   1      41.067  30.236  33.308  1.00  0.00     0.167 HD
ATOM     49  C   UNL A   1      37.723  32.678  31.922  1.00  0.00     0.031 A 
ATOM     50  C   UNL A   1      43.043  29.467  35.138  1.00  0.00     0.031 A 
ATOM     51  C   UNL A   1      37.995  33.138  33.260  1.00  0.00     0.049 A 
ATOM     52  C   UNL A   1      42.270  30.574  35.801  1.00  0.00     0.074 A 
ATOM     53  C   UNL A   1      37.334  34.114  33.985  1.00  0.00     0.029 A 
ATOM     54  N   UNL A   1      39.009  32.657  34.074  1.00  0.00    -0.354 N 
ATOM     55  N   UNL A   1      41.245  31.254  35.343  1.00  0.00    -0.248 NA
ATOM     56  C   UNL A   1      42.689  30.956  37.157  1.00  0.00     0.031 C 
ATOM     57  C   UNL A   1      37.977  34.256  35.219  1.00  0.00     0.029 A 
ATOM     58  C   UNL A   1      39.002  33.326  35.287  1.00  0.00     0.049 A 
ATOM     59  H   UNL A   1      39.642  31.944  33.826  1.00  0.00     0.167 HD
ATOM     60  C   UNL A   1      40.886  32.129  36.363  1.00  0.00     0.074 A 
ATOM     61  C   UNL A   1      41.783  31.871  37.470  1.00  0.00     0.031 C 
ATOM     62  C   UNL A   1      39.904  33.065  36.379  1.00  0.00     0.031 A 
BRANCH  49  63
ATOM     63  C   UNL A   1      36.590  33.323  31.164  1.00  0.00    -0.014 A 
ATOM     64  C   UNL A   1      35.381  33.640  31.811  1.00  0.00     0.010 A 
ATOM     65  C   UNL A   1      36.751  33.671  29.811  1.00  0.00     0.010 A 
ATOM     66  C   UNL A   1      34.343  34.262  31.111  1.00  0.00     0.020 A 
ATOM     67  C   UNL A   1      35.726  34.321  29.115  1.00  0.00     0.020 A 
ATOM     68  C   UNL A   1      34.523  34.599  29.767  1.00  0.00     0.054 A 
BRANCH  68  69
ATOM     69  S   UNL A   1      33.172  35.440  28.897  1.00  0.00     0.124 S 
ATOM     70  O   UNL A   1      32.315  35.857  30.003  1.00  0.00    -0.237 OA
ATOM     71  O   UNL A   1      33.865  36.519  28.198  1.00  0.00    -0.237 OA
ATOM     72  O   UNL A   1      32.613  34.401  28.034  1.00  0.00    -0.744 OA
ENDBRANCH  68  69
ENDBRANCH  49  63
BRANCH  50  73
ATOM     73  C   UNL A   1      44.204  28.831  35.821  1.00  0.00    -0.014 A 
ATOM     74  C   UNL A   1      45.467  29.450  35.831  1.00  0.00     0.010 A 
ATOM     75  C   UNL A   1      44.050  27.587  36.459  1.00  0.00     0.010 A 
ATOM     76  C   UNL A   1      46.560  28.823  36.437  1.00  0.00     0.020 A 
ATOM     77  C   UNL A   1      45.132  26.973  37.097  1.00  0.00     0.020 A 
ATOM     78  C   UNL A   1      46.384  27.586  37.065  1.00  0.00     0.054 A 
BRANCH  78  79
ATOM     79  S   UNL A   1      47.808  26.801  37.870  1.00  0.00     0.124 S 
ATOM     80  O   UNL A   1      47.199  25.628  38.488  1.00  0.00    -0.237 OA
ATOM     81  O   UNL A   1      48.699  26.534  36.744  1.00  0.00    -0.237 OA
ATOM     82  O   UNL A   1      48.281  27.824  38.800  1.00  0.00    -0.744 OA
ENDBRANCH  78  79
ENDBRANCH  50  73
BRANCH  62  83
ATOM     83  C   UNL A   1      39.732  33.860  37.649  1.00  0.00    -0.014 A 
ATOM     84  C   UNL A   1      38.836  33.450  38.652  1.00  0.00     0.010 A 
ATOM     85  C   UNL A   1      40.497  35.024  37.848  1.00  0.00     0.010 A 
ATOM     86  C   UNL A   1      38.671  34.217  39.809  1.00  0.00     0.020 A 
ATOM     87  C   UNL A   1      40.359  35.776  39.018  1.00  0.00     0.020 A 
ATOM     88  C   UNL A   1      39.431  35.378  39.982  1.00  0.00     0.054 A 
BRANCH  88  89
ATOM     89  S   UNL A   1      39.210  36.348  41.498  1.00  0.00     0.124 S 
ATOM     90  O   UNL A   1      40.485  36.137  42.180  1.00  0.00    -0.237 OA
ATOM     91  O   UNL A   1      38.986  37.698  40.987  1.00  0.00    -0.237 OA
ATOM     92  O   UNL A   1      38.051  35.730  42.140  1.00  0.00    -0.744 OA
ENDBRANCH  88  89
ENDBRANCH  62  83
ENDBRANCH  36  37
ENDBRANCH  28  31
ENDBRANCH  26  27
ENDBRANCH  25  26
ENDBRANCH   1  25
TORSDOF 18
ENDMDL
MODEL 3
REMARK VINA RESULT:     -10.8      1.165      2.210
REMARK SMILES C[C@](C(=O)NCCCCCCNC(=O)c1ccc(-c2c3nc(c(-c4ccc(S(=O)(=O)[O-])cc4)c4ccc([nH]4)c(-c4ccc(S(=O)(=O)[O-])cc4)c4nc(c(-c5ccc(S(=O)(=O)[O-])cc5)c5ccc2[nH]5)C=C4)C=C3)cc1)(c1cc(F)cc(F)c1)[NH+]1CCCC1
REMARK SMILES IDX 9 1 8 2 7 3 6 4 5 5 3 6 4 7 2 9 1 10 75 11 76 12 82 13 77 14
REMARK SMILES IDX 80 15 78 16 79 17 81 18 83 19 84 20 87 21 85 23 86 24 10 25
REMARK SMILES IDX 11 26 12 27 13 28 14 30 15 31 16 32 74 33 17 34 73 35 18 36
REMARK SMILES IDX 19 37 20 38 67 39 21 40 72 41 66 42 68 43 22 44 71 45 65 46
REMARK SMILES IDX 64 47 23 49 53 50 34 51 52 52 35 53 38 54 51 55 69 56 36 57
REMARK SMILES IDX 37 58 50 60 70 61 39 62 24 63 25 64 33 65 26 66 32 67 27 68
REMARK SMILES IDX 28 69 29 70 30 71 31 72 54 73 55 74 63 75 56 76 62 77 57 78
REMARK SMILES IDX 58 79 59 80 60 81 61 82 40 83 41 84 49 85 42 86 48 87 43 88
REMARK SMILES IDX 44 89 45 90 46 91 47 92
REMARK H PARENT 5 8 83 22 12 29 68 48 38 59
REMARK Flexibility Score: inf
ROOT
ATOM      1  C   UNL A   1      38.487  23.118  26.236  1.00  0.00     0.002 C 
ENDROOT
BRANCH   1   2
ATOM      2  C   UNL A   1      37.340  22.400  25.521  1.00  0.00     0.002 C 
BRANCH   2   3
ATOM      3  C   UNL A   1      36.601  23.197  24.439  1.00  0.00     0.021 C 
BRANCH   3   4
ATOM      4  C   UNL A   1      35.095  22.961  24.330  1.00  0.00     0.116 C 
BRANCH   4   5
ATOM      5  N   UNL A   1      34.440  23.854  23.392  1.00  0.00    -0.350 N 
ATOM      6  C   UNL A   1      33.648  24.954  23.552  1.00  0.00     0.286 C 
ATOM      7  O   UNL A   1      33.445  25.578  22.499  1.00  0.00    -0.267 OA
ATOM      8  H   UNL A   1      34.601  23.620  22.450  1.00  0.00     0.163 HD
BRANCH   6   9
ATOM      9  C   UNL A   1      32.949  25.362  24.934  1.00  0.00     0.200 C 
ATOM     10  C   UNL A   1      33.853  24.671  25.994  1.00  0.00     0.096 C 
BRANCH   9  11
ATOM     11  C   UNL A   1      32.847  26.882  25.194  1.00  0.00     0.028 A 
ATOM     12  C   UNL A   1      33.683  27.511  26.139  1.00  0.00     0.050 A 
ATOM     13  C   UNL A   1      31.856  27.682  24.592  1.00  0.00     0.050 A 
ATOM     14  C   UNL A   1      33.539  28.865  26.444  1.00  0.00     0.126 A 
ATOM     15  C   UNL A   1      31.752  29.042  24.886  1.00  0.00     0.126 A 
ATOM     16  F   UNL A   1      34.325  29.411  27.380  1.00  0.00    -0.207 F 
ATOM     17  C   UNL A   1      32.585  29.645  25.813  1.00  0.00     0.078 A 
ATOM     18  F   UNL A   1      30.818  29.774  24.266  1.00  0.00    -0.207 F 
ENDBRANCH   9  11
BRANCH   9  19
ATOM     19  N   UNL A   1      31.590  24.733  24.913  1.00  0.00    -0.319 N 
ATOM     20  C   UNL A   1      30.809  24.809  26.152  1.00  0.00     0.263 C 
ATOM     21  C   UNL A   1      31.377  23.405  24.360  1.00  0.00     0.263 C 
ATOM     22  H   UNL A   1      31.251  25.385  24.206  1.00  0.00     0.349 HD
ATOM     23  C   UNL A   1      30.847  23.404  26.728  1.00  0.00     0.067 C 
ATOM     24  C   UNL A   1      30.977  22.497  25.517  1.00  0.00     0.067 C 
ENDBRANCH   9  19
ENDBRANCH   6   9
ENDBRANCH   4   5
ENDBRANCH   3   4
ENDBRANCH   2   3
ENDBRANCH   1   2
BRANCH   1  25
ATOM     25  C   UNL A   1      39.674  22.248  26.653  1.00  0.00     0.021 C 
BRANCH  25  26
ATOM     26  C   UNL A   1      40.950  22.995  27.039  1.00  0.00     0.116 C 
BRANCH  26  27
ATOM     27  N   UNL A   1      41.443  23.863  25.983  1.00  0.00    -0.352 N 
ATOM     28  C   UNL A   1      41.628  25.223  25.976  1.00  0.00     0.251 C 
ATOM     29  H   UNL A   1      41.682  23.407  25.145  1.00  0.00     0.163 HD
ATOM     30  O   UNL A   1      41.939  25.782  24.923  1.00  0.00    -0.269 OA
BRANCH  28  31
ATOM     31  C   UNL A   1      41.432  26.031  27.204  1.00  0.00     0.039 A 
ATOM     32  C   UNL A   1      42.416  26.961  27.552  1.00  0.00     0.014 A 
ATOM     33  C   UNL A   1      40.316  25.864  28.029  1.00  0.00     0.014 A 
ATOM     34  C   UNL A   1      42.251  27.761  28.687  1.00  0.00     0.010 A 
ATOM     35  C   UNL A   1      40.117  26.714  29.121  1.00  0.00     0.010 A 
ATOM     36  C   UNL A   1      41.083  27.670  29.464  1.00  0.00    -0.014 A 
BRANCH  36  37
ATOM     37  C   UNL A   1      40.868  28.587  30.616  1.00  0.00     0.031 A 
ATOM     38  C   UNL A   1      41.695  28.460  31.869  1.00  0.00     0.074 A 
ATOM     39  C   UNL A   1      39.907  29.530  30.541  1.00  0.00     0.049 A 
ATOM     40  N   UNL A   1      41.651  29.184  32.961  1.00  0.00    -0.248 NA
ATOM     41  C   UNL A   1      42.686  27.372  31.912  1.00  0.00     0.031 C 
ATOM     42  C   UNL A   1      39.000  29.725  29.407  1.00  0.00     0.029 A 
ATOM     43  N   UNL A   1      39.530  30.503  31.435  1.00  0.00    -0.354 N 
ATOM     44  C   UNL A   1      42.609  28.645  33.813  1.00  0.00     0.074 A 
ATOM     45  C   UNL A   1      43.172  27.496  33.139  1.00  0.00     0.031 C 
ATOM     46  C   UNL A   1      38.196  30.771  29.659  1.00  0.00     0.029 A 
ATOM     47  C   UNL A   1      38.502  31.299  30.985  1.00  0.00     0.049 A 
ATOM     48  H   UNL A   1      39.956  30.620  32.314  1.00  0.00     0.167 HD
ATOM     49  C   UNL A   1      43.005  29.081  35.034  1.00  0.00     0.031 A 
ATOM     50  C   UNL A   1      37.870  32.335  31.570  1.00  0.00     0.031 A 
ATOM     51  C   UNL A   1      42.441  30.223  35.709  1.00  0.00     0.049 A 
ATOM     52  C   UNL A   1      38.320  32.792  32.931  1.00  0.00     0.074 A 
ATOM     53  C   UNL A   1      42.795  30.759  36.935  1.00  0.00     0.029 A 
ATOM     54  N   UNL A   1      41.407  31.004  35.217  1.00  0.00    -0.354 N 
ATOM     55  N   UNL A   1      39.271  32.305  33.692  1.00  0.00    -0.248 NA
ATOM     56  C   UNL A   1      37.623  33.952  33.505  1.00  0.00     0.031 C 
ATOM     57  C   UNL A   1      41.942  31.834  37.207  1.00  0.00     0.029 A 
ATOM     58  C   UNL A   1      41.098  32.007  36.122  1.00  0.00     0.049 A 
ATOM     59  H   UNL A   1      40.957  30.867  34.352  1.00  0.00     0.167 HD
ATOM     60  C   UNL A   1      39.300  33.113  34.824  1.00  0.00     0.074 A 
ATOM     61  C   UNL A   1      38.292  34.136  34.633  1.00  0.00     0.031 C 
ATOM     62  C   UNL A   1      40.088  33.015  35.924  1.00  0.00     0.031 A 
BRANCH  49  63
ATOM     63  C   UNL A   1      44.118  28.328  35.718  1.00  0.00    -0.014 A 
ATOM     64  C   UNL A   1      43.832  27.272  36.604  1.00  0.00     0.010 A 
ATOM     65  C   UNL A   1      45.460  28.634  35.432  1.00  0.00     0.010 A 
ATOM     66  C   UNL A   1      44.867  26.559  37.215  1.00  0.00     0.020 A 
ATOM     67  C   UNL A   1      46.499  27.903  36.018  1.00  0.00     0.020 A 
ATOM     68  C   UNL A   1      46.194  26.878  36.918  1.00  0.00     0.054 A 
BRANCH  68  69
ATOM     69  S   UNL A   1      47.514  25.910  37.698  1.00  0.00     0.124 S 
ATOM     70  O   UNL A   1      47.219  24.561  37.222  1.00  0.00    -0.237 OA
ATOM     71  O   UNL A   1      48.723  26.518  37.149  1.00  0.00    -0.237 OA
ATOM     72  O   UNL A   1      47.307  26.125  39.128  1.00  0.00    -0.744 OA
ENDBRANCH  68  69
ENDBRANCH  49  63
BRANCH  50  73
ATOM     73  C   UNL A   1      36.742  33.012  30.872  1.00  0.00    -0.014 A 
ATOM     74  C   UNL A   1      36.979  33.920  29.824  1.00  0.00     0.010 A 
ATOM     75  C   UNL A   1      35.416  32.756  31.265  1.00  0.00     0.010 A 
ATOM     76  C   UNL A   1      35.914  34.583  29.206  1.00  0.00     0.020 A 
ATOM     77  C   UNL A   1      34.346  33.391  30.627  1.00  0.00     0.020 A 
ATOM     78  C   UNL A   1      34.604  34.314  29.613  1.00  0.00     0.054 A 
BRANCH  78  79
ATOM     79  S   UNL A   1      33.234  35.164  28.780  1.00  0.00     0.124 S 
ATOM     80  O   UNL A   1      33.935  36.177  28.000  1.00  0.00    -0.237 OA
ATOM     81  O   UNL A   1      32.615  34.086  28.011  1.00  0.00    -0.237 OA
ATOM     82  O   UNL A   1      32.425  35.672  29.886  1.00  0.00    -0.744 OA
ENDBRANCH  78  79
ENDBRANCH  50  73
BRANCH  62  83
ATOM     83  C   UNL A   1      39.908  34.061  36.995  1.00  0.00    -0.014 A 
ATOM     84  C   UNL A   1      39.113  33.816  38.129  1.00  0.00     0.010 A 
ATOM     85  C   UNL A   1      40.564  35.299  36.874  1.00  0.00     0.010 A 
ATOM     86  C   UNL A   1      38.937  34.809  39.097  1.00  0.00     0.020 A 
ATOM     87  C   UNL A   1      40.416  36.283  37.856  1.00  0.00     0.020 A 
ATOM     88  C   UNL A   1      39.586  36.038  38.951  1.00  0.00     0.054 A 
BRANCH  88  89
ATOM     89  S   UNL A   1      39.354  37.305  40.228  1.00  0.00     0.124 S 
ATOM     90  O   UNL A   1      38.519  38.283  39.536  1.00  0.00    -0.237 OA
ATOM     91  O   UNL A   1      38.696  36.564  41.301  1.00  0.00    -0.237 OA
ATOM     92  O   UNL A   1      40.714  37.749  40.528  1.00  0.00    -0.744 OA
ENDBRANCH  88  89
ENDBRANCH  62  83
ENDBRANCH  36  37
ENDBRANCH  28  31
ENDBRANCH  26  27
ENDBRANCH  25  26
ENDBRANCH   1  25
TORSDOF 18
ENDMDL
