MODEL 1
REMARK VINA RESULT:     -11.5      0.000      0.000
REMARK SMILES CCc1c(C(=O)NCC(=O)NCCCCCCNC(=O)c2ccc(-c3c4nc(c(-c5ccc(S(=O)(=O)[O-])cc5)c5ccc([nH]5)c(-c5ccc(S(=O)(=O)[O-])cc5)c5nc(c(-c6ccc(S(=O)(=O)[O-])cc6)c6ccc3[nH]6)C=C5)C=C4)cc2)nnn1-c1ccc(Cl)cc1
REMARK SMILES IDX 14 1 13 2 12 3 11 4 9 5 10 6 8 8 7 9 5 10 6 11 4 13 3 14
REMARK SMILES IDX 83 15 81 16 82 17 2 18 1 19 84 20 85 21 90 22 86 23 89 24
REMARK SMILES IDX 87 25 88 26 15 27 16 28 17 29 18 30 19 31 20 33 21 34 22 35
REMARK SMILES IDX 80 36 23 37 79 38 24 39 25 40 26 41 73 42 27 43 78 44 72 45
REMARK SMILES IDX 74 46 28 47 77 48 71 49 70 50 29 52 59 53 40 54 58 55 41 56
REMARK SMILES IDX 44 57 57 58 75 59 42 60 43 61 56 63 76 64 45 65 30 66 31 67
REMARK SMILES IDX 39 68 32 69 38 70 33 71 34 72 35 73 36 74 37 75 60 76 61 77
REMARK SMILES IDX 69 78 62 79 68 80 63 81 64 82 65 83 66 84 67 85 46 86 47 87
REMARK SMILES IDX 55 88 48 89 54 90 49 91 50 92 51 93 52 94 53 95
REMARK H PARENT 11 7 7 12 18 32 74 51 44 62
REMARK Flexibility Score: inf
ROOT
ATOM      1  C   UNL A   1      33.270  28.014  26.690  1.00  0.00     0.002 C 
ENDROOT
BRANCH   1   2
ATOM      2  C   UNL A   1      34.000  27.353  25.518  1.00  0.00     0.021 C 
BRANCH   2   3
ATOM      3  C   UNL A   1      33.259  26.162  24.927  1.00  0.00     0.116 C 
BRANCH   3   4
ATOM      4  N   UNL A   1      32.673  26.446  23.633  1.00  0.00    -0.355 N 
ATOM      5  C   UNL A   1      31.679  25.847  22.926  1.00  0.00     0.239 C 
ATOM      6  O   UNL A   1      31.313  26.434  21.899  1.00  0.00    -0.273 OA
ATOM      7  H   UNL A   1      33.074  27.222  23.178  1.00  0.00     0.163 HD
BRANCH   5   8
ATOM      8  C   UNL A   1      30.888  24.605  23.396  1.00  0.00     0.216 C 
BRANCH   8   9
ATOM      9  N   UNL A   1      31.131  23.296  22.842  1.00  0.00    -0.342 N 
ATOM     10  C   UNL A   1      32.138  22.371  22.889  1.00  0.00     0.274 C 
ATOM     11  O   UNL A   1      31.818  21.288  22.390  1.00  0.00    -0.267 OA
ATOM     12  H   UNL A   1      30.377  22.988  22.288  1.00  0.00     0.164 HD
BRANCH  10  13
ATOM     13  C   UNL A   1      33.520  22.577  23.363  1.00  0.00     0.174 A 
ATOM     14  C   UNL A   1      34.269  22.352  24.527  1.00  0.00     0.077 A 
ATOM     15  N   UNL A   1      35.545  22.793  24.172  1.00  0.00    -0.217 N 
ATOM     16  N   UNL A   1      34.326  23.296  22.491  1.00  0.00    -0.124 NA
ATOM     17  N   UNL A   1      35.491  23.527  23.055  1.00  0.00    -0.061 NA
BRANCH  14  18
ATOM     18  C   UNL A   1      33.939  21.864  25.902  1.00  0.00     0.055 C 
ATOM     19  C   UNL A   1      33.546  22.908  26.945  1.00  0.00     0.011 C 
ENDBRANCH  14  18
BRANCH  15  20
ATOM     20  C   UNL A   1      36.777  22.626  24.838  1.00  0.00     0.067 A 
ATOM     21  C   UNL A   1      37.326  23.712  25.532  1.00  0.00     0.030 A 
ATOM     22  C   UNL A   1      37.420  21.382  24.828  1.00  0.00     0.030 A 
ATOM     23  C   UNL A   1      38.480  23.525  26.295  1.00  0.00     0.023 A 
ATOM     24  C   UNL A   1      38.591  21.213  25.568  1.00  0.00     0.023 A 
ATOM     25  C   UNL A   1      39.102  22.276  26.314  1.00  0.00     0.041 A 
ATOM     26  Cl  UNL A   1      40.506  22.038  27.281  1.00  0.00    -0.084 Cl
ENDBRANCH  15  20
ENDBRANCH  10  13
ENDBRANCH   8   9
ENDBRANCH   5   8
ENDBRANCH   3   4
ENDBRANCH   2   3
ENDBRANCH   1   2
BRANCH   1  27
ATOM     27  C   UNL A   1      32.172  29.020  26.310  1.00  0.00     0.002 C 
BRANCH  27  28
ATOM     28  C   UNL A   1      32.348  30.455  26.829  1.00  0.00     0.021 C 
BRANCH  28  29
ATOM     29  C   UNL A   1      33.754  30.765  27.322  1.00  0.00     0.116 C 
BRANCH  29  30
ATOM     30  N   UNL A   1      33.757  31.767  28.386  1.00  0.00    -0.352 N 
ATOM     31  C   UNL A   1      34.662  31.912  29.412  1.00  0.00     0.251 C 
ATOM     32  H   UNL A   1      33.020  32.420  28.366  1.00  0.00     0.163 HD
ATOM     33  O   UNL A   1      34.342  32.532  30.432  1.00  0.00    -0.269 OA
BRANCH  31  34
ATOM     34  C   UNL A   1      36.009  31.330  29.286  1.00  0.00     0.039 A 
ATOM     35  C   UNL A   1      37.135  32.147  29.151  1.00  0.00     0.014 A 
ATOM     36  C   UNL A   1      36.142  29.941  29.295  1.00  0.00     0.014 A 
ATOM     37  C   UNL A   1      38.395  31.557  29.103  1.00  0.00     0.010 A 
ATOM     38  C   UNL A   1      37.388  29.364  29.369  1.00  0.00     0.010 A 
ATOM     39  C   UNL A   1      38.517  30.162  29.235  1.00  0.00    -0.014 A 
BRANCH  39  40
ATOM     40  C   UNL A   1      39.831  29.545  29.388  1.00  0.00     0.031 A 
ATOM     41  C   UNL A   1      40.155  29.167  30.790  1.00  0.00     0.074 A 
ATOM     42  C   UNL A   1      40.612  29.154  28.359  1.00  0.00     0.049 A 
ATOM     43  N   UNL A   1      40.977  29.763  31.587  1.00  0.00    -0.248 NA
ATOM     44  C   UNL A   1      39.353  28.118  31.441  1.00  0.00     0.031 C 
ATOM     45  C   UNL A   1      40.304  29.163  26.924  1.00  0.00     0.029 A 
ATOM     46  N   UNL A   1      41.836  28.559  28.393  1.00  0.00    -0.354 N 
ATOM     47  C   UNL A   1      40.983  29.016  32.761  1.00  0.00     0.074 A 
ATOM     48  C   UNL A   1      39.830  28.155  32.687  1.00  0.00     0.031 C 
ATOM     49  C   UNL A   1      41.204  28.400  26.260  1.00  0.00     0.029 A 
ATOM     50  C   UNL A   1      42.245  27.995  27.187  1.00  0.00     0.049 A 
ATOM     51  H   UNL A   1      42.390  28.531  29.206  1.00  0.00     0.167 HD
ATOM     52  C   UNL A   1      42.079  28.991  33.572  1.00  0.00     0.031 A 
ATOM     53  C   UNL A   1      43.355  27.240  26.973  1.00  0.00     0.031 A 
ATOM     54  C   UNL A   1      43.022  30.019  33.203  1.00  0.00     0.049 A 
ATOM     55  C   UNL A   1      44.298  27.544  28.077  1.00  0.00     0.074 A 
ATOM     56  C   UNL A   1      42.984  31.397  33.121  1.00  0.00     0.029 A 
ATOM     57  N   UNL A   1      44.095  29.619  32.438  1.00  0.00    -0.354 N 
ATOM     58  N   UNL A   1      44.859  28.710  28.235  1.00  0.00    -0.248 NA
ATOM     59  C   UNL A   1      44.261  26.702  29.261  1.00  0.00     0.031 C 
ATOM     60  C   UNL A   1      43.728  31.714  31.947  1.00  0.00     0.029 A 
ATOM     61  C   UNL A   1      44.253  30.528  31.427  1.00  0.00     0.049 A 
ATOM     62  H   UNL A   1      44.649  28.821  32.592  1.00  0.00     0.167 HD
ATOM     63  C   UNL A   1      44.831  28.930  29.604  1.00  0.00     0.074 A 
ATOM     64  C   UNL A   1      44.546  27.619  30.190  1.00  0.00     0.031 C 
ATOM     65  C   UNL A   1      44.764  30.196  30.112  1.00  0.00     0.031 A 
BRANCH  52  66
ATOM     66  C   UNL A   1      42.505  27.795  34.395  1.00  0.00    -0.014 A 
ATOM     67  C   UNL A   1      42.734  27.982  35.776  1.00  0.00     0.010 A 
ATOM     68  C   UNL A   1      42.957  26.583  33.835  1.00  0.00     0.010 A 
ATOM     69  C   UNL A   1      43.461  27.053  36.529  1.00  0.00     0.020 A 
ATOM     70  C   UNL A   1      43.647  25.629  34.589  1.00  0.00     0.020 A 
ATOM     71  C   UNL A   1      43.927  25.888  35.923  1.00  0.00     0.054 A 
BRANCH  71  72
ATOM     72  S   UNL A   1      44.945  24.742  36.883  1.00  0.00     0.124 S 
ATOM     73  O   UNL A   1      46.285  25.278  36.666  1.00  0.00    -0.237 OA
ATOM     74  O   UNL A   1      44.406  24.905  38.230  1.00  0.00    -0.237 OA
ATOM     75  O   UNL A   1      44.679  23.446  36.261  1.00  0.00    -0.744 OA
ENDBRANCH  71  72
ENDBRANCH  52  66
BRANCH  53  76
ATOM     76  C   UNL A   1      43.557  26.084  26.061  1.00  0.00    -0.014 A 
ATOM     77  C   UNL A   1      44.831  25.786  25.537  1.00  0.00     0.010 A 
ATOM     78  C   UNL A   1      42.560  25.092  25.953  1.00  0.00     0.010 A 
ATOM     79  C   UNL A   1      45.119  24.518  24.998  1.00  0.00     0.020 A 
ATOM     80  C   UNL A   1      42.839  23.828  25.414  1.00  0.00     0.020 A 
ATOM     81  C   UNL A   1      44.125  23.538  24.963  1.00  0.00     0.054 A 
BRANCH  81  82
ATOM     82  S   UNL A   1      44.554  21.844  24.449  1.00  0.00     0.124 S 
ATOM     83  O   UNL A   1      44.473  21.929  22.994  1.00  0.00    -0.237 OA
ATOM     84  O   UNL A   1      45.896  21.674  24.998  1.00  0.00    -0.237 OA
ATOM     85  O   UNL A   1      43.522  21.022  25.080  1.00  0.00    -0.744 OA
ENDBRANCH  81  82
ENDBRANCH  53  76
BRANCH  65  86
ATOM     86  C   UNL A   1      45.044  31.364  29.193  1.00  0.00    -0.014 A 
ATOM     87  C   UNL A   1      46.333  31.823  28.856  1.00  0.00     0.010 A 
ATOM     88  C   UNL A   1      43.939  31.919  28.524  1.00  0.00     0.010 A 
ATOM     89  C   UNL A   1      46.503  32.830  27.891  1.00  0.00     0.020 A 
ATOM     90  C   UNL A   1      44.103  32.904  27.549  1.00  0.00     0.020 A 
ATOM     91  C   UNL A   1      45.383  33.364  27.244  1.00  0.00     0.054 A 
BRANCH  91  92
ATOM     92  S   UNL A   1      45.601  34.637  25.969  1.00  0.00     0.124 S 
ATOM     93  O   UNL A   1      45.754  35.855  26.758  1.00  0.00    -0.237 OA
ATOM     94  O   UNL A   1      46.801  34.190  25.263  1.00  0.00    -0.237 OA
ATOM     95  O   UNL A   1      44.369  34.559  25.185  1.00  0.00    -0.744 OA
ENDBRANCH  91  92
ENDBRANCH  65  86
ENDBRANCH  39  40
ENDBRANCH  31  34
ENDBRANCH  29  30
ENDBRANCH  28  29
ENDBRANCH  27  28
ENDBRANCH   1  27
TORSDOF 20
ENDMDL
MODEL 2
REMARK VINA RESULT:     -11.5      2.940      9.300
REMARK SMILES CCc1c(C(=O)NCC(=O)NCCCCCCNC(=O)c2ccc(-c3c4nc(c(-c5ccc(S(=O)(=O)[O-])cc5)c5ccc([nH]5)c(-c5ccc(S(=O)(=O)[O-])cc5)c5nc(c(-c6ccc(S(=O)(=O)[O-])cc6)c6ccc3[nH]6)C=C5)C=C4)cc2)nnn1-c1ccc(Cl)cc1
REMARK SMILES IDX 14 1 13 2 12 3 11 4 9 5 10 6 8 8 7 9 5 10 6 11 4 13 3 14
REMARK SMILES IDX 83 15 81 16 82 17 2 18 1 19 84 20 85 21 90 22 86 23 89 24
REMARK SMILES IDX 87 25 88 26 15 27 16 28 17 29 18 30 19 31 20 33 21 34 22 35
REMARK SMILES IDX 80 36 23 37 79 38 24 39 25 40 26 41 73 42 27 43 78 44 72 45
REMARK SMILES IDX 74 46 28 47 77 48 71 49 70 50 29 52 59 53 40 54 58 55 41 56
REMARK SMILES IDX 44 57 57 58 75 59 42 60 43 61 56 63 76 64 45 65 30 66 31 67
REMARK SMILES IDX 39 68 32 69 38 70 33 71 34 72 35 73 36 74 37 75 60 76 61 77
REMARK SMILES IDX 69 78 62 79 68 80 63 81 64 82 65 83 66 84 67 85 46 86 47 87
REMARK SMILES IDX 55 88 48 89 54 90 49 91 50 92 51 93 52 94 53 95
REMARK H PARENT 11 7 7 12 18 32 74 51 44 62
REMARK Flexibility Score: inf
ROOT
ATOM      1  C   UNL A   1      35.490  24.301  25.460  1.00  0.00     0.002 C 
ENDROOT
BRANCH   1   2
ATOM      2  C   UNL A   1      33.985  24.248  25.729  1.00  0.00     0.021 C 
BRANCH   2   3
ATOM      3  C   UNL A   1      33.555  23.059  26.578  1.00  0.00     0.116 C 
BRANCH   3   4
ATOM      4  N   UNL A   1      33.726  21.790  25.900  1.00  0.00    -0.355 N 
ATOM      5  C   UNL A   1      33.212  21.292  24.745  1.00  0.00     0.239 C 
ATOM      6  O   UNL A   1      33.679  20.210  24.364  1.00  0.00    -0.273 OA
ATOM      7  H   UNL A   1      34.330  21.169  26.367  1.00  0.00     0.163 HD
BRANCH   5   8
ATOM      8  C   UNL A   1      32.230  22.046  23.819  1.00  0.00     0.216 C 
BRANCH   8   9
ATOM      9  N   UNL A   1      32.582  22.404  22.468  1.00  0.00    -0.342 N 
ATOM     10  C   UNL A   1      32.975  23.539  21.812  1.00  0.00     0.274 C 
ATOM     11  O   UNL A   1      33.351  23.320  20.657  1.00  0.00    -0.267 OA
ATOM     12  H   UNL A   1      32.526  21.631  21.860  1.00  0.00     0.164 HD
BRANCH  10  13
ATOM     13  C   UNL A   1      32.897  24.928  22.304  1.00  0.00     0.174 A 
ATOM     14  C   UNL A   1      32.140  25.669  23.223  1.00  0.00     0.077 A 
ATOM     15  N   UNL A   1      32.705  26.943  23.143  1.00  0.00    -0.217 N 
ATOM     16  N   UNL A   1      33.701  25.827  21.618  1.00  0.00    -0.124 NA
ATOM     17  N   UNL A   1      33.469  27.046  22.049  1.00  0.00    -0.061 NA
BRANCH  14  18
ATOM     18  C   UNL A   1      30.952  25.367  24.081  1.00  0.00     0.055 C 
ATOM     19  C   UNL A   1      29.588  25.845  23.589  1.00  0.00     0.011 C 
ENDBRANCH  14  18
BRANCH  15  20
ATOM     20  C   UNL A   1      32.525  28.066  23.977  1.00  0.00     0.067 A 
ATOM     21  C   UNL A   1      31.386  28.864  23.805  1.00  0.00     0.030 A 
ATOM     22  C   UNL A   1      33.458  28.355  24.980  1.00  0.00     0.030 A 
ATOM     23  C   UNL A   1      31.136  29.903  24.701  1.00  0.00     0.023 A 
ATOM     24  C   UNL A   1      33.215  29.417  25.852  1.00  0.00     0.023 A 
ATOM     25  C   UNL A   1      32.047  30.170  25.724  1.00  0.00     0.041 A 
ATOM     26  Cl  UNL A   1      31.720  31.431  26.849  1.00  0.00    -0.084 Cl
ENDBRANCH  15  20
ENDBRANCH  10  13
ENDBRANCH   8   9
ENDBRANCH   5   8
ENDBRANCH   3   4
ENDBRANCH   2   3
ENDBRANCH   1   2
BRANCH   1  27
ATOM     27  C   UNL A   1      35.963  23.604  24.174  1.00  0.00     0.002 C 
BRANCH  27  28
ATOM     28  C   UNL A   1      37.054  22.535  24.336  1.00  0.00     0.021 C 
BRANCH  28  29
ATOM     29  C   UNL A   1      37.497  22.318  25.776  1.00  0.00     0.116 C 
BRANCH  29  30
ATOM     30  N   UNL A   1      38.703  21.497  25.864  1.00  0.00    -0.352 N 
ATOM     31  C   UNL A   1      39.971  21.889  26.223  1.00  0.00     0.251 C 
ATOM     32  H   UNL A   1      38.594  20.545  25.637  1.00  0.00     0.163 HD
ATOM     33  O   UNL A   1      40.945  21.206  25.887  1.00  0.00    -0.269 OA
BRANCH  31  34
ATOM     34  C   UNL A   1      40.160  23.119  27.011  1.00  0.00     0.039 A 
ATOM     35  C   UNL A   1      41.316  23.314  27.772  1.00  0.00     0.014 A 
ATOM     36  C   UNL A   1      39.155  24.087  26.991  1.00  0.00     0.014 A 
ATOM     37  C   UNL A   1      41.483  24.521  28.447  1.00  0.00     0.010 A 
ATOM     38  C   UNL A   1      39.371  25.322  27.557  1.00  0.00     0.010 A 
ATOM     39  C   UNL A   1      40.514  25.532  28.317  1.00  0.00    -0.014 A 
BRANCH  39  40
ATOM     40  C   UNL A   1      40.763  26.868  28.850  1.00  0.00     0.031 A 
ATOM     41  C   UNL A   1      41.884  27.581  28.179  1.00  0.00     0.074 A 
ATOM     42  C   UNL A   1      39.950  27.504  29.720  1.00  0.00     0.049 A 
ATOM     43  N   UNL A   1      43.064  27.797  28.654  1.00  0.00    -0.248 NA
ATOM     44  C   UNL A   1      41.739  27.944  26.760  1.00  0.00     0.031 C 
ATOM     45  C   UNL A   1      38.645  27.072  30.232  1.00  0.00     0.029 A 
ATOM     46  N   UNL A   1      40.081  28.746  30.261  1.00  0.00    -0.354 N 
ATOM     47  C   UNL A   1      43.736  28.541  27.689  1.00  0.00     0.074 A 
ATOM     48  C   UNL A   1      42.955  28.422  26.484  1.00  0.00     0.031 C 
ATOM     49  C   UNL A   1      38.014  28.119  30.813  1.00  0.00     0.029 A 
ATOM     50  C   UNL A   1      38.932  29.242  30.871  1.00  0.00     0.049 A 
ATOM     51  H   UNL A   1      40.923  29.255  30.224  1.00  0.00     0.167 HD
ATOM     52  C   UNL A   1      44.738  29.398  28.035  1.00  0.00     0.031 A 
ATOM     53  C   UNL A   1      38.748  30.491  31.376  1.00  0.00     0.031 A 
ATOM     54  C   UNL A   1      45.154  29.187  29.401  1.00  0.00     0.049 A 
ATOM     55  C   UNL A   1      40.097  31.050  31.634  1.00  0.00     0.074 A 
ATOM     56  C   UNL A   1      45.677  28.124  30.110  1.00  0.00     0.029 A 
ATOM     57  N   UNL A   1      44.648  30.061  30.337  1.00  0.00    -0.354 N 
ATOM     58  N   UNL A   1      40.908  30.572  32.535  1.00  0.00    -0.248 NA
ATOM     59  C   UNL A   1      40.723  31.839  30.586  1.00  0.00     0.031 C 
ATOM     60  C   UNL A   1      45.039  28.186  31.383  1.00  0.00     0.029 A 
ATOM     61  C   UNL A   1      44.234  29.327  31.416  1.00  0.00     0.049 A 
ATOM     62  H   UNL A   1      44.593  31.039  30.245  1.00  0.00     0.167 HD
ATOM     63  C   UNL A   1      42.158  30.605  31.936  1.00  0.00     0.074 A 
ATOM     64  C   UNL A   1      41.997  31.488  30.779  1.00  0.00     0.031 C 
ATOM     65  C   UNL A   1      43.124  29.699  32.270  1.00  0.00     0.031 A 
BRANCH  52  66
ATOM     66  C   UNL A   1      45.039  30.695  27.316  1.00  0.00    -0.014 A 
ATOM     67  C   UNL A   1      46.385  30.988  27.003  1.00  0.00     0.010 A 
ATOM     68  C   UNL A   1      44.113  31.750  27.187  1.00  0.00     0.010 A 
ATOM     69  C   UNL A   1      46.794  32.286  26.677  1.00  0.00     0.020 A 
ATOM     70  C   UNL A   1      44.505  33.041  26.820  1.00  0.00     0.020 A 
ATOM     71  C   UNL A   1      45.850  33.309  26.604  1.00  0.00     0.054 A 
BRANCH  71  72
ATOM     72  S   UNL A   1      46.404  34.999  26.276  1.00  0.00     0.124 S 
ATOM     73  O   UNL A   1      46.951  34.879  24.928  1.00  0.00    -0.237 OA
ATOM     74  O   UNL A   1      45.162  35.757  26.392  1.00  0.00    -0.237 OA
ATOM     75  O   UNL A   1      47.383  35.248  27.332  1.00  0.00    -0.744 OA
ENDBRANCH  71  72
ENDBRANCH  52  66
BRANCH  53  76
ATOM     76  C   UNL A   1      37.527  31.338  31.395  1.00  0.00    -0.014 A 
ATOM     77  C   UNL A   1      36.624  31.286  32.476  1.00  0.00     0.010 A 
ATOM     78  C   UNL A   1      37.410  32.422  30.501  1.00  0.00     0.010 A 
ATOM     79  C   UNL A   1      35.692  32.318  32.698  1.00  0.00     0.020 A 
ATOM     80  C   UNL A   1      36.482  33.451  30.713  1.00  0.00     0.020 A 
ATOM     81  C   UNL A   1      35.645  33.408  31.827  1.00  0.00     0.054 A 
BRANCH  81  82
ATOM     82  S   UNL A   1      34.581  34.830  32.226  1.00  0.00     0.124 S 
ATOM     83  O   UNL A   1      35.474  35.681  33.006  1.00  0.00    -0.237 OA
ATOM     84  O   UNL A   1      34.218  35.339  30.906  1.00  0.00    -0.237 OA
ATOM     85  O   UNL A   1      33.478  34.234  32.980  1.00  0.00    -0.744 OA
ENDBRANCH  81  82
ENDBRANCH  53  76
BRANCH  65  86
ATOM     86  C   UNL A   1      42.938  28.866  33.519  1.00  0.00    -0.014 A 
ATOM     87  C   UNL A   1      43.017  29.369  34.833  1.00  0.00     0.010 A 
ATOM     88  C   UNL A   1      42.511  27.540  33.335  1.00  0.00     0.010 A 
ATOM     89  C   UNL A   1      42.701  28.553  35.931  1.00  0.00     0.020 A 
ATOM     90  C   UNL A   1      42.173  26.730  34.420  1.00  0.00     0.020 A 
ATOM     91  C   UNL A   1      42.280  27.236  35.715  1.00  0.00     0.054 A 
BRANCH  91  92
ATOM     92  S   UNL A   1      41.832  26.190  37.129  1.00  0.00     0.124 S 
ATOM     93  O   UNL A   1      41.724  24.866  36.524  1.00  0.00    -0.237 OA
ATOM     94  O   UNL A   1      42.958  26.375  38.042  1.00  0.00    -0.237 OA
ATOM     95  O   UNL A   1      40.568  26.760  37.597  1.00  0.00    -0.744 OA
ENDBRANCH  91  92
ENDBRANCH  65  86
ENDBRANCH  39  40
ENDBRANCH  31  34
ENDBRANCH  29  30
ENDBRANCH  28  29
ENDBRANCH  27  28
ENDBRANCH   1  27
TORSDOF 20
ENDMDL
MODEL 3
REMARK VINA RESULT:     -11.5      3.045      9.576
REMARK SMILES CCc1c(C(=O)NCC(=O)NCCCCCCNC(=O)c2ccc(-c3c4nc(c(-c5ccc(S(=O)(=O)[O-])cc5)c5ccc([nH]5)c(-c5ccc(S(=O)(=O)[O-])cc5)c5nc(c(-c6ccc(S(=O)(=O)[O-])cc6)c6ccc3[nH]6)C=C5)C=C4)cc2)nnn1-c1ccc(Cl)cc1
REMARK SMILES IDX 14 1 13 2 12 3 11 4 9 5 10 6 8 8 7 9 5 10 6 11 4 13 3 14
REMARK SMILES IDX 83 15 81 16 82 17 2 18 1 19 84 20 85 21 90 22 86 23 89 24
REMARK SMILES IDX 87 25 88 26 15 27 16 28 17 29 18 30 19 31 20 33 21 34 22 35
REMARK SMILES IDX 80 36 23 37 79 38 24 39 25 40 26 41 73 42 27 43 78 44 72 45
REMARK SMILES IDX 74 46 28 47 77 48 71 49 70 50 29 52 59 53 40 54 58 55 41 56
REMARK SMILES IDX 44 57 57 58 75 59 42 60 43 61 56 63 76 64 45 65 30 66 31 67
REMARK SMILES IDX 39 68 32 69 38 70 33 71 34 72 35 73 36 74 37 75 60 76 61 77
REMARK SMILES IDX 69 78 62 79 68 80 63 81 64 82 65 83 66 84 67 85 46 86 47 87
REMARK SMILES IDX 55 88 48 89 54 90 49 91 50 92 51 93 52 94 53 95
REMARK H PARENT 11 7 7 12 18 32 74 51 44 62
REMARK Flexibility Score: inf
ROOT
ATOM      1  C   UNL A   1      38.875  21.832  25.904  1.00  0.00     0.002 C 
ENDROOT
BRANCH   1   2
ATOM      2  C   UNL A   1      38.456  23.285  26.139  1.00  0.00     0.021 C 
BRANCH   2   3
ATOM      3  C   UNL A   1      36.949  23.501  26.110  1.00  0.00     0.116 C 
BRANCH   3   4
ATOM      4  N   UNL A   1      36.237  22.429  25.445  1.00  0.00    -0.355 N 
ATOM      5  C   UNL A   1      34.959  21.979  25.543  1.00  0.00     0.239 C 
ATOM      6  O   UNL A   1      34.619  21.122  24.716  1.00  0.00    -0.273 OA
ATOM      7  H   UNL A   1      36.787  21.928  24.799  1.00  0.00     0.163 HD
BRANCH   5   8
ATOM      8  C   UNL A   1      33.886  22.572  26.485  1.00  0.00     0.216 C 
BRANCH   8   9
ATOM      9  N   UNL A   1      32.522  22.105  26.471  1.00  0.00    -0.342 N 
ATOM     10  C   UNL A   1      31.316  22.577  26.029  1.00  0.00     0.274 C 
ATOM     11  O   UNL A   1      30.422  21.727  26.074  1.00  0.00    -0.267 OA
ATOM     12  H   UNL A   1      32.436  21.217  26.888  1.00  0.00     0.164 HD
BRANCH  10  13
ATOM     13  C   UNL A   1      30.991  23.958  25.623  1.00  0.00     0.174 A 
ATOM     14  C   UNL A   1      31.228  24.809  24.534  1.00  0.00     0.077 A 
ATOM     15  N   UNL A   1      30.545  25.974  24.888  1.00  0.00    -0.217 N 
ATOM     16  N   UNL A   1      30.372  24.716  26.607  1.00  0.00    -0.124 NA
ATOM     17  N   UNL A   1      30.235  25.955  26.190  1.00  0.00    -0.061 NA
BRANCH  14  18
ATOM     18  C   UNL A   1      32.044  24.703  23.284  1.00  0.00     0.055 C 
ATOM     19  C   UNL A   1      33.550  24.924  23.405  1.00  0.00     0.011 C 
ENDBRANCH  14  18
BRANCH  15  20
ATOM     20  C   UNL A   1      30.227  27.107  24.112  1.00  0.00     0.067 A 
ATOM     21  C   UNL A   1      28.927  27.243  23.608  1.00  0.00     0.030 A 
ATOM     22  C   UNL A   1      31.193  28.094  23.879  1.00  0.00     0.030 A 
ATOM     23  C   UNL A   1      28.568  28.417  22.944  1.00  0.00     0.023 A 
ATOM     24  C   UNL A   1      30.834  29.251  23.186  1.00  0.00     0.023 A 
ATOM     25  C   UNL A   1      29.521  29.417  22.743  1.00  0.00     0.041 A 
ATOM     26  Cl  UNL A   1      29.069  30.878  21.953  1.00  0.00    -0.084 Cl
ENDBRANCH  15  20
ENDBRANCH  10  13
ENDBRANCH   8   9
ENDBRANCH   5   8
ENDBRANCH   3   4
ENDBRANCH   2   3
ENDBRANCH   1   2
BRANCH   1  27
ATOM     27  C   UNL A   1      40.103  21.355  26.697  1.00  0.00     0.002 C 
BRANCH  27  28
ATOM     28  C   UNL A   1      40.717  20.014  26.267  1.00  0.00     0.021 C 
BRANCH  28  29
ATOM     29  C   UNL A   1      42.007  19.664  26.996  1.00  0.00     0.116 C 
BRANCH  29  30
ATOM     30  N   UNL A   1      43.130  19.489  26.077  1.00  0.00    -0.352 N 
ATOM     31  C   UNL A   1      43.789  20.454  25.351  1.00  0.00     0.251 C 
ATOM     32  H   UNL A   1      43.454  18.567  25.962  1.00  0.00     0.163 HD
ATOM     33  O   UNL A   1      44.438  20.135  24.349  1.00  0.00    -0.269 OA
BRANCH  31  34
ATOM     34  C   UNL A   1      43.721  21.862  25.777  1.00  0.00     0.039 A 
ATOM     35  C   UNL A   1      42.973  22.796  25.056  1.00  0.00     0.014 A 
ATOM     36  C   UNL A   1      44.429  22.251  26.916  1.00  0.00     0.014 A 
ATOM     37  C   UNL A   1      42.883  24.101  25.533  1.00  0.00     0.010 A 
ATOM     38  C   UNL A   1      44.244  23.504  27.452  1.00  0.00     0.010 A 
ATOM     39  C   UNL A   1      43.504  24.445  26.747  1.00  0.00    -0.014 A 
BRANCH  39  40
ATOM     40  C   UNL A   1      43.257  25.744  27.364  1.00  0.00     0.031 A 
ATOM     41  C   UNL A   1      44.265  26.778  27.006  1.00  0.00     0.074 A 
ATOM     42  C   UNL A   1      42.128  26.068  28.030  1.00  0.00     0.049 A 
ATOM     43  N   UNL A   1      45.206  27.242  27.758  1.00  0.00    -0.248 NA
ATOM     44  C   UNL A   1      44.351  27.223  25.605  1.00  0.00     0.031 C 
ATOM     45  C   UNL A   1      40.908  25.271  28.199  1.00  0.00     0.029 A 
ATOM     46  N   UNL A   1      41.794  27.246  28.625  1.00  0.00    -0.354 N 
ATOM     47  C   UNL A   1      45.851  28.219  27.008  1.00  0.00     0.074 A 
ATOM     48  C   UNL A   1      45.423  28.019  25.647  1.00  0.00     0.031 C 
ATOM     49  C   UNL A   1      39.904  26.064  28.642  1.00  0.00     0.029 A 
ATOM     50  C   UNL A   1      40.447  27.374  28.954  1.00  0.00     0.049 A 
ATOM     51  H   UNL A   1      42.454  27.954  28.808  1.00  0.00     0.167 HD
ATOM     52  C   UNL A   1      46.480  29.267  27.611  1.00  0.00     0.031 A 
ATOM     53  C   UNL A   1      39.826  28.482  29.437  1.00  0.00     0.031 A 
ATOM     54  C   UNL A   1      46.620  29.043  29.030  1.00  0.00     0.049 A 
ATOM     55  C   UNL A   1      40.881  29.339  30.030  1.00  0.00     0.074 A 
ATOM     56  C   UNL A   1      47.236  28.086  29.812  1.00  0.00     0.029 A 
ATOM     57  N   UNL A   1      45.699  29.667  29.842  1.00  0.00    -0.354 N 
ATOM     58  N   UNL A   1      41.566  29.001  31.085  1.00  0.00    -0.248 NA
ATOM     59  C   UNL A   1      41.489  30.356  29.188  1.00  0.00     0.031 C 
ATOM     60  C   UNL A   1      46.336  27.864  30.894  1.00  0.00     0.029 A 
ATOM     61  C   UNL A   1      45.267  28.755  30.767  1.00  0.00     0.049 A 
ATOM     62  H   UNL A   1      45.405  30.603  29.770  1.00  0.00     0.167 HD
ATOM     63  C   UNL A   1      42.862  29.407  30.807  1.00  0.00     0.074 A 
ATOM     64  C   UNL A   1      42.734  30.324  29.673  1.00  0.00     0.031 C 
ATOM     65  C   UNL A   1      43.935  28.750  31.337  1.00  0.00     0.031 A 
BRANCH  52  66
ATOM     66  C   UNL A   1      46.575  30.659  27.026  1.00  0.00    -0.014 A 
ATOM     67  C   UNL A   1      47.824  31.316  27.062  1.00  0.00     0.010 A 
ATOM     68  C   UNL A   1      45.452  31.448  26.703  1.00  0.00     0.010 A 
ATOM     69  C   UNL A   1      47.929  32.701  26.885  1.00  0.00     0.020 A 
ATOM     70  C   UNL A   1      45.552  32.825  26.480  1.00  0.00     0.020 A 
ATOM     71  C   UNL A   1      46.785  33.448  26.610  1.00  0.00     0.054 A 
BRANCH  71  72
ATOM     72  S   UNL A   1      46.919  35.247  26.477  1.00  0.00     0.124 S 
ATOM     73  O   UNL A   1      48.160  35.401  25.726  1.00  0.00    -0.237 OA
ATOM     74  O   UNL A   1      45.695  35.594  25.761  1.00  0.00    -0.237 OA
ATOM     75  O   UNL A   1      46.968  35.690  27.870  1.00  0.00    -0.744 OA
ENDBRANCH  71  72
ENDBRANCH  52  66
BRANCH  53  76
ATOM     76  C   UNL A   1      38.450  28.985  29.186  1.00  0.00    -0.014 A 
ATOM     77  C   UNL A   1      37.615  29.379  30.251  1.00  0.00     0.010 A 
ATOM     78  C   UNL A   1      38.070  29.370  27.884  1.00  0.00     0.010 A 
ATOM     79  C   UNL A   1      36.487  30.193  30.031  1.00  0.00     0.020 A 
ATOM     80  C   UNL A   1      36.946  30.177  27.657  1.00  0.00     0.020 A 
ATOM     81  C   UNL A   1      36.175  30.608  28.735  1.00  0.00     0.054 A 
BRANCH  81  82
ATOM     82  S   UNL A   1      34.837  31.817  28.479  1.00  0.00     0.124 S 
ATOM     83  O   UNL A   1      33.790  31.000  27.871  1.00  0.00    -0.237 OA
ATOM     84  O   UNL A   1      34.566  32.285  29.835  1.00  0.00    -0.237 OA
ATOM     85  O   UNL A   1      35.439  32.813  27.593  1.00  0.00    -0.744 OA
ENDBRANCH  81  82
ENDBRANCH  53  76
BRANCH  65  86
ATOM     86  C   UNL A   1      43.705  27.784  32.479  1.00  0.00    -0.014 A 
ATOM     87  C   UNL A   1      43.823  26.384  32.376  1.00  0.00     0.010 A 
ATOM     88  C   UNL A   1      43.508  28.347  33.751  1.00  0.00     0.010 A 
ATOM     89  C   UNL A   1      43.721  25.572  33.518  1.00  0.00     0.020 A 
ATOM     90  C   UNL A   1      43.427  27.548  34.892  1.00  0.00     0.020 A 
ATOM     91  C   UNL A   1      43.523  26.163  34.771  1.00  0.00     0.054 A 
BRANCH  91  92
ATOM     92  S   UNL A   1      43.430  25.121  36.253  1.00  0.00     0.124 S 
ATOM     93  O   UNL A   1      42.406  24.145  35.892  1.00  0.00    -0.237 OA
ATOM     94  O   UNL A   1      44.789  24.594  36.369  1.00  0.00    -0.237 OA
ATOM     95  O   UNL A   1      43.046  26.055  37.312  1.00  0.00    -0.744 OA
ENDBRANCH  91  92
ENDBRANCH  65  86
ENDBRANCH  39  40
ENDBRANCH  31  34
ENDBRANCH  29  30
ENDBRANCH  28  29
ENDBRANCH  27  28
ENDBRANCH   1  27
TORSDOF 20
ENDMDL
