MODEL 1
REMARK VINA RESULT:     -10.9      0.000      0.000
REMARK SMILES [NH3+][C@H]1C=C[C@@H](C(=O)N2CCC(CC(=O)NCCCCCCNC(=O)c3ccc(-c4c5nc(c(-c6ccc(S(=O)(=O)[O-])cc6)c6ccc([nH]6)c(-c6ccc(S(=O)(=O)[O-])cc6)c6nc(c(-c7ccc(S(=O)(=O)[O-])cc7)c7ccc4[nH]7)C=C6)C=C5)cc3)CC2)C1
REMARK SMILES IDX 18 1 17 2 16 3 15 4 13 5 14 6 12 8 11 9 6 10 7 11 8 12 9 13
REMARK SMILES IDX 86 14 10 15 85 16 5 17 2 18 3 19 87 20 4 21 1 22 19 26 20 27
REMARK SMILES IDX 21 28 22 29 23 30 24 32 25 33 26 34 84 35 27 36 83 37 28 38
REMARK SMILES IDX 29 39 30 40 77 41 31 42 82 43 76 44 78 45 32 46 81 47 75 48
REMARK SMILES IDX 74 49 33 51 63 52 44 53 62 54 45 55 48 56 61 57 79 58 46 59
REMARK SMILES IDX 47 60 60 62 80 63 49 64 34 65 35 66 43 67 36 68 42 69 37 70
REMARK SMILES IDX 38 71 39 72 40 73 41 74 64 75 65 76 73 77 66 78 72 79 67 80
REMARK SMILES IDX 68 81 69 82 70 83 71 84 50 85 51 86 59 87 52 88 58 89 53 90
REMARK SMILES IDX 54 91 55 92 56 93 57 94
REMARK H PARENT 15 7 1 23 1 24 1 25 22 31 78 50 48 61
REMARK Flexibility Score: inf
ROOT
ATOM      1  C   UNL A   1      34.050  31.101  28.110  1.00  0.00     0.002 C 
ENDROOT
BRANCH   1   2
ATOM      2  C   UNL A   1      34.786  30.110  27.208  1.00  0.00     0.021 C 
BRANCH   2   3
ATOM      3  C   UNL A   1      33.883  29.072  26.535  1.00  0.00     0.116 C 
BRANCH   3   4
ATOM      4  N   UNL A   1      33.746  29.357  25.115  1.00  0.00    -0.356 N 
ATOM      5  C   UNL A   1      33.221  28.598  24.113  1.00  0.00     0.220 C 
ATOM      6  O   UNL A   1      33.332  28.999  22.952  1.00  0.00    -0.275 OA
ATOM      7  H   UNL A   1      34.086  30.239  24.835  1.00  0.00     0.163 HD
BRANCH   5   8
ATOM      8  C   UNL A   1      32.505  27.295  24.420  1.00  0.00     0.103 C 
BRANCH   8   9
ATOM      9  C   UNL A   1      33.446  26.095  24.640  1.00  0.00     0.002 C 
ATOM     10  C   UNL A   1      32.960  22.279  23.970  1.00  0.00     0.229 C 
ATOM     11  O   UNL A   1      31.759  22.549  23.918  1.00  0.00    -0.274 OA
ATOM     12  N   UNL A   1      33.895  23.212  24.406  1.00  0.00    -0.342 N 
ATOM     13  C   UNL A   1      33.676  23.793  25.716  1.00  0.00     0.120 C 
ATOM     14  C   UNL A   1      34.517  24.108  23.444  1.00  0.00     0.120 C 
ATOM     15  C   UNL A   1      32.863  25.080  25.631  1.00  0.00     0.026 C 
ATOM     16  C   UNL A   1      33.733  25.412  23.291  1.00  0.00     0.026 C 
BRANCH  10  17
ATOM     17  C   UNL A   1      33.471  20.846  23.762  1.00  0.00     0.107 C 
ATOM     18  C   UNL A   1      33.427  18.807  25.154  1.00  0.00     0.205 C 
ATOM     19  C   UNL A   1      32.307  18.836  24.173  1.00  0.00     0.033 C 
ATOM     20  C   UNL A   1      34.113  20.171  24.979  1.00  0.00     0.087 C 
ATOM     21  C   UNL A   1      32.338  19.927  23.403  1.00  0.00    -0.012 C 
BRANCH  18  22
ATOM     22  N   UNL A   1      32.942  18.623  26.513  1.00  0.00    -0.352 N 
ATOM     23  H   UNL A   1      33.456  17.863  26.957  1.00  0.00     0.345 HD
ATOM     24  H   UNL A   1      31.948  18.393  26.490  1.00  0.00     0.345 HD
ATOM     25  H   UNL A   1      33.080  19.483  27.043  1.00  0.00     0.345 HD
ENDBRANCH  18  22
ENDBRANCH  10  17
ENDBRANCH   8   9
ENDBRANCH   5   8
ENDBRANCH   3   4
ENDBRANCH   2   3
ENDBRANCH   1   2
BRANCH   1  26
ATOM     26  C   UNL A   1      34.537  32.548  28.016  1.00  0.00     0.002 C 
BRANCH  26  27
ATOM     27  C   UNL A   1      36.058  32.739  27.997  1.00  0.00     0.021 C 
BRANCH  27  28
ATOM     28  C   UNL A   1      36.709  32.967  29.360  1.00  0.00     0.116 C 
BRANCH  28  29
ATOM     29  N   UNL A   1      36.197  32.059  30.373  1.00  0.00    -0.352 N 
ATOM     30  C   UNL A   1      36.672  30.837  30.777  1.00  0.00     0.251 C 
ATOM     31  H   UNL A   1      35.387  32.367  30.840  1.00  0.00     0.163 HD
ATOM     32  O   UNL A   1      35.984  30.128  31.504  1.00  0.00    -0.269 OA
BRANCH  30  33
ATOM     33  C   UNL A   1      38.003  30.368  30.333  1.00  0.00     0.039 A 
ATOM     34  C   UNL A   1      38.217  30.142  28.970  1.00  0.00     0.014 A 
ATOM     35  C   UNL A   1      39.024  30.117  31.254  1.00  0.00     0.014 A 
ATOM     36  C   UNL A   1      39.471  29.713  28.527  1.00  0.00     0.010 A 
ATOM     37  C   UNL A   1      40.291  29.748  30.805  1.00  0.00     0.010 A 
ATOM     38  C   UNL A   1      40.526  29.536  29.438  1.00  0.00    -0.014 A 
BRANCH  38  39
ATOM     39  C   UNL A   1      41.876  29.127  28.974  1.00  0.00     0.031 A 
ATOM     40  C   UNL A   1      42.992  30.135  28.903  1.00  0.00     0.074 A 
ATOM     41  C   UNL A   1      42.084  27.860  28.564  1.00  0.00     0.049 A 
ATOM     42  N   UNL A   1      44.222  29.974  28.485  1.00  0.00    -0.248 NA
ATOM     43  C   UNL A   1      42.680  31.506  29.336  1.00  0.00     0.031 C 
ATOM     44  C   UNL A   1      41.073  26.800  28.540  1.00  0.00     0.029 A 
ATOM     45  N   UNL A   1      43.213  27.250  28.077  1.00  0.00    -0.354 N 
ATOM     46  C   UNL A   1      44.822  31.223  28.586  1.00  0.00     0.074 A 
ATOM     47  C   UNL A   1      43.812  32.140  29.066  1.00  0.00     0.031 C 
ATOM     48  C   UNL A   1      41.632  25.668  28.085  1.00  0.00     0.029 A 
ATOM     49  C   UNL A   1      43.030  25.928  27.753  1.00  0.00     0.049 A 
ATOM     50  H   UNL A   1      44.074  27.717  27.971  1.00  0.00     0.167 HD
ATOM     51  C   UNL A   1      46.104  31.573  28.320  1.00  0.00     0.031 A 
ATOM     52  C   UNL A   1      43.888  25.023  27.241  1.00  0.00     0.031 A 
ATOM     53  C   UNL A   1      47.112  30.657  27.858  1.00  0.00     0.049 A 
ATOM     54  C   UNL A   1      45.308  25.431  26.966  1.00  0.00     0.074 A 
ATOM     55  C   UNL A   1      48.454  30.903  27.618  1.00  0.00     0.029 A 
ATOM     56  N   UNL A   1      46.893  29.320  27.565  1.00  0.00    -0.354 N 
ATOM     57  N   UNL A   1      45.875  26.603  27.134  1.00  0.00    -0.248 NA
ATOM     58  C   UNL A   1      46.209  24.392  26.447  1.00  0.00     0.031 C 
ATOM     59  C   UNL A   1      49.035  29.723  27.139  1.00  0.00     0.029 A 
ATOM     60  C   UNL A   1      48.068  28.731  27.128  1.00  0.00     0.049 A 
ATOM     61  H   UNL A   1      46.028  28.857  27.653  1.00  0.00     0.167 HD
ATOM     62  C   UNL A   1      47.204  26.436  26.763  1.00  0.00     0.074 A 
ATOM     63  C   UNL A   1      47.360  25.047  26.377  1.00  0.00     0.031 C 
ATOM     64  C   UNL A   1      48.206  27.349  26.745  1.00  0.00     0.031 A 
BRANCH  51  65
ATOM     65  C   UNL A   1      46.486  33.017  28.516  1.00  0.00    -0.014 A 
ATOM     66  C   UNL A   1      47.015  33.468  29.740  1.00  0.00     0.010 A 
ATOM     67  C   UNL A   1      46.350  33.928  27.453  1.00  0.00     0.010 A 
ATOM     68  C   UNL A   1      47.357  34.811  29.911  1.00  0.00     0.020 A 
ATOM     69  C   UNL A   1      46.717  35.268  27.612  1.00  0.00     0.020 A 
ATOM     70  C   UNL A   1      47.201  35.704  28.847  1.00  0.00     0.054 A 
BRANCH  70  71
ATOM     71  S   UNL A   1      47.670  37.441  29.090  1.00  0.00     0.124 S 
ATOM     72  O   UNL A   1      47.106  37.721  30.408  1.00  0.00    -0.237 OA
ATOM     73  O   UNL A   1      49.128  37.392  29.029  1.00  0.00    -0.237 OA
ATOM     74  O   UNL A   1      47.025  38.132  27.976  1.00  0.00    -0.744 OA
ENDBRANCH  70  71
ENDBRANCH  51  65
BRANCH  52  75
ATOM     75  C   UNL A   1      43.428  23.634  26.974  1.00  0.00    -0.014 A 
ATOM     76  C   UNL A   1      43.233  23.188  25.655  1.00  0.00     0.010 A 
ATOM     77  C   UNL A   1      43.200  22.743  28.039  1.00  0.00     0.010 A 
ATOM     78  C   UNL A   1      42.802  21.883  25.405  1.00  0.00     0.020 A 
ATOM     79  C   UNL A   1      42.793  21.429  27.792  1.00  0.00     0.020 A 
ATOM     80  C   UNL A   1      42.586  21.010  26.475  1.00  0.00     0.054 A 
BRANCH  80  81
ATOM     81  S   UNL A   1      42.081  19.302  26.127  1.00  0.00     0.124 S 
ATOM     82  O   UNL A   1      42.882  18.984  24.948  1.00  0.00    -0.237 OA
ATOM     83  O   UNL A   1      42.455  18.604  27.355  1.00  0.00    -0.237 OA
ATOM     84  O   UNL A   1      40.642  19.412  25.896  1.00  0.00    -0.744 OA
ENDBRANCH  80  81
ENDBRANCH  52  75
BRANCH  64  85
ATOM     85  C   UNL A   1      49.569  26.871  26.322  1.00  0.00    -0.014 A 
ATOM     86  C   UNL A   1      50.493  26.385  27.264  1.00  0.00     0.010 A 
ATOM     87  C   UNL A   1      49.910  26.863  24.958  1.00  0.00     0.010 A 
ATOM     88  C   UNL A   1      51.747  25.930  26.850  1.00  0.00     0.020 A 
ATOM     89  C   UNL A   1      51.153  26.385  24.538  1.00  0.00     0.020 A 
ATOM     90  C   UNL A   1      52.071  25.935  25.489  1.00  0.00     0.054 A 
BRANCH  90  91
ATOM     91  S   UNL A   1      53.690  25.303  24.972  1.00  0.00     0.124 S 
ATOM     92  O   UNL A   1      53.933  26.056  23.745  1.00  0.00    -0.237 OA
ATOM     93  O   UNL A   1      54.548  25.650  26.102  1.00  0.00    -0.237 OA
ATOM     94  O   UNL A   1      53.461  23.871  24.790  1.00  0.00    -0.744 OA
ENDBRANCH  90  91
ENDBRANCH  64  85
ENDBRANCH  38  39
ENDBRANCH  30  33
ENDBRANCH  28  29
ENDBRANCH  27  28
ENDBRANCH  26  27
ENDBRANCH   1  26
TORSDOF 19
ENDMDL
MODEL 2
REMARK VINA RESULT:     -10.9      2.795      9.170
REMARK SMILES [NH3+][C@H]1C=C[C@@H](C(=O)N2CCC(CC(=O)NCCCCCCNC(=O)c3ccc(-c4c5nc(c(-c6ccc(S(=O)(=O)[O-])cc6)c6ccc([nH]6)c(-c6ccc(S(=O)(=O)[O-])cc6)c6nc(c(-c7ccc(S(=O)(=O)[O-])cc7)c7ccc4[nH]7)C=C6)C=C5)cc3)CC2)C1
REMARK SMILES IDX 18 1 17 2 16 3 15 4 13 5 14 6 12 8 11 9 6 10 7 11 8 12 9 13
REMARK SMILES IDX 86 14 10 15 85 16 5 17 2 18 3 19 87 20 4 21 1 22 19 26 20 27
REMARK SMILES IDX 21 28 22 29 23 30 24 32 25 33 26 34 84 35 27 36 83 37 28 38
REMARK SMILES IDX 29 39 30 40 77 41 31 42 82 43 76 44 78 45 32 46 81 47 75 48
REMARK SMILES IDX 74 49 33 51 63 52 44 53 62 54 45 55 48 56 61 57 79 58 46 59
REMARK SMILES IDX 47 60 60 62 80 63 49 64 34 65 35 66 43 67 36 68 42 69 37 70
REMARK SMILES IDX 38 71 39 72 40 73 41 74 64 75 65 76 73 77 66 78 72 79 67 80
REMARK SMILES IDX 68 81 69 82 70 83 71 84 50 85 51 86 59 87 52 88 58 89 53 90
REMARK SMILES IDX 54 91 55 92 56 93 57 94
REMARK H PARENT 15 7 1 23 1 24 1 25 22 31 78 50 48 61
REMARK Flexibility Score: inf
ROOT
ATOM      1  C   UNL A   1      40.829  22.848  26.968  1.00  0.00     0.002 C 
ENDROOT
BRANCH   1   2
ATOM      2  C   UNL A   1      39.649  23.730  27.378  1.00  0.00     0.021 C 
BRANCH   2   3
ATOM      3  C   UNL A   1      38.451  23.669  26.427  1.00  0.00     0.116 C 
BRANCH   3   4
ATOM      4  N   UNL A   1      38.265  22.317  25.924  1.00  0.00    -0.356 N 
ATOM      5  C   UNL A   1      37.465  21.854  24.924  1.00  0.00     0.220 C 
ATOM      6  O   UNL A   1      37.375  20.635  24.760  1.00  0.00    -0.275 OA
ATOM      7  H   UNL A   1      38.803  21.628  26.379  1.00  0.00     0.163 HD
BRANCH   5   8
ATOM      8  C   UNL A   1      36.712  22.817  24.023  1.00  0.00     0.103 C 
BRANCH   8   9
ATOM      9  C   UNL A   1      35.217  22.959  24.362  1.00  0.00     0.002 C 
ATOM     10  C   UNL A   1      32.698  25.878  23.743  1.00  0.00     0.229 C 
ATOM     11  O   UNL A   1      33.703  26.569  23.570  1.00  0.00    -0.274 OA
ATOM     12  N   UNL A   1      32.784  24.583  24.243  1.00  0.00    -0.342 N 
ATOM     13  C   UNL A   1      33.467  24.417  25.511  1.00  0.00     0.120 C 
ATOM     14  C   UNL A   1      32.938  23.467  23.323  1.00  0.00     0.120 C 
ATOM     15  C   UNL A   1      34.951  24.129  25.317  1.00  0.00     0.026 C 
ATOM     16  C   UNL A   1      34.410  23.143  23.064  1.00  0.00     0.026 C 
BRANCH  10  17
ATOM     17  C   UNL A   1      31.286  26.471  23.620  1.00  0.00     0.107 C 
ATOM     18  C   UNL A   1      30.374  28.752  23.864  1.00  0.00     0.205 C 
ATOM     19  C   UNL A   1      30.643  28.409  22.440  1.00  0.00     0.033 C 
ATOM     20  C   UNL A   1      30.909  27.544  24.647  1.00  0.00     0.087 C 
ATOM     21  C   UNL A   1      31.117  27.168  22.300  1.00  0.00    -0.012 C 
BRANCH  18  22
ATOM     22  N   UNL A   1      31.046  29.982  24.252  1.00  0.00    -0.352 N 
ATOM     23  H   UNL A   1      30.511  30.443  24.988  1.00  0.00     0.345 HD
ATOM     24  H   UNL A   1      31.115  30.601  23.443  1.00  0.00     0.345 HD
ATOM     25  H   UNL A   1      31.981  29.766  24.595  1.00  0.00     0.345 HD
ENDBRANCH  18  22
ENDBRANCH  10  17
ENDBRANCH   8   9
ENDBRANCH   5   8
ENDBRANCH   3   4
ENDBRANCH   2   3
ENDBRANCH   1   2
BRANCH   1  26
ATOM     26  C   UNL A   1      41.284  21.841  28.026  1.00  0.00     0.002 C 
BRANCH  26  27
ATOM     27  C   UNL A   1      41.438  20.394  27.544  1.00  0.00     0.021 C 
BRANCH  27  28
ATOM     28  C   UNL A   1      41.188  20.166  26.055  1.00  0.00     0.116 C 
BRANCH  28  29
ATOM     29  N   UNL A   1      42.306  19.501  25.405  1.00  0.00    -0.352 N 
ATOM     30  C   UNL A   1      43.517  20.006  25.006  1.00  0.00     0.251 C 
ATOM     31  H   UNL A   1      42.173  18.541  25.225  1.00  0.00     0.163 HD
ATOM     32  O   UNL A   1      44.250  19.332  24.289  1.00  0.00    -0.269 OA
BRANCH  30  33
ATOM     33  C   UNL A   1      43.937  21.361  25.427  1.00  0.00     0.039 A 
ATOM     34  C   UNL A   1      43.557  22.456  24.647  1.00  0.00     0.014 A 
ATOM     35  C   UNL A   1      44.731  21.549  26.562  1.00  0.00     0.014 A 
ATOM     36  C   UNL A   1      43.930  23.746  25.034  1.00  0.00     0.010 A 
ATOM     37  C   UNL A   1      45.052  22.840  26.980  1.00  0.00     0.010 A 
ATOM     38  C   UNL A   1      44.661  23.951  26.217  1.00  0.00    -0.014 A 
BRANCH  38  39
ATOM     39  C   UNL A   1      45.023  25.320  26.665  1.00  0.00     0.031 A 
ATOM     40  C   UNL A   1      46.377  25.891  26.342  1.00  0.00     0.074 A 
ATOM     41  C   UNL A   1      44.153  26.027  27.413  1.00  0.00     0.049 A 
ATOM     42  N   UNL A   1      46.886  27.048  26.684  1.00  0.00    -0.248 NA
ATOM     43  C   UNL A   1      47.285  25.046  25.551  1.00  0.00     0.031 C 
ATOM     44  C   UNL A   1      42.827  25.567  27.834  1.00  0.00     0.029 A 
ATOM     45  N   UNL A   1      44.256  27.281  27.962  1.00  0.00    -0.354 N 
ATOM     46  C   UNL A   1      48.177  27.060  26.168  1.00  0.00     0.074 A 
ATOM     47  C   UNL A   1      48.387  25.782  25.526  1.00  0.00     0.031 C 
ATOM     48  C   UNL A   1      42.234  26.532  28.555  1.00  0.00     0.029 A 
ATOM     49  C   UNL A   1      43.147  27.664  28.677  1.00  0.00     0.049 A 
ATOM     50  H   UNL A   1      45.051  27.852  27.853  1.00  0.00     0.167 HD
ATOM     51  C   UNL A   1      49.098  28.053  26.210  1.00  0.00     0.031 A 
ATOM     52  C   UNL A   1      42.893  28.798  29.360  1.00  0.00     0.031 A 
ATOM     53  C   UNL A   1      48.882  29.330  26.837  1.00  0.00     0.049 A 
ATOM     54  C   UNL A   1      43.925  29.890  29.381  1.00  0.00     0.074 A 
ATOM     55  C   UNL A   1      49.732  30.423  26.880  1.00  0.00     0.029 A 
ATOM     56  N   UNL A   1      47.735  29.688  27.529  1.00  0.00    -0.354 N 
ATOM     57  N   UNL A   1      45.115  29.909  28.828  1.00  0.00    -0.248 NA
ATOM     58  C   UNL A   1      43.576  31.120  30.106  1.00  0.00     0.031 C 
ATOM     59  C   UNL A   1      49.115  31.426  27.635  1.00  0.00     0.029 A 
ATOM     60  C   UNL A   1      47.862  30.977  28.020  1.00  0.00     0.049 A 
ATOM     61  H   UNL A   1      46.948  29.111  27.655  1.00  0.00     0.167 HD
ATOM     62  C   UNL A   1      45.646  31.160  29.118  1.00  0.00     0.074 A 
ATOM     63  C   UNL A   1      44.643  31.874  29.883  1.00  0.00     0.031 C 
ATOM     64  C   UNL A   1      46.856  31.673  28.782  1.00  0.00     0.031 A 
BRANCH  51  65
ATOM     65  C   UNL A   1      50.433  27.790  25.564  1.00  0.00    -0.014 A 
ATOM     66  C   UNL A   1      51.536  27.360  26.326  1.00  0.00     0.010 A 
ATOM     67  C   UNL A   1      50.579  27.940  24.174  1.00  0.00     0.010 A 
ATOM     68  C   UNL A   1      52.770  27.127  25.714  1.00  0.00     0.020 A 
ATOM     69  C   UNL A   1      51.806  27.682  23.555  1.00  0.00     0.020 A 
ATOM     70  C   UNL A   1      52.899  27.295  24.333  1.00  0.00     0.054 A 
BRANCH  70  71
ATOM     71  S   UNL A   1      54.509  26.970  23.562  1.00  0.00     0.124 S 
ATOM     72  O   UNL A   1      55.029  25.890  24.396  1.00  0.00    -0.237 OA
ATOM     73  O   UNL A   1      54.143  26.592  22.200  1.00  0.00    -0.237 OA
ATOM     74  O   UNL A   1      55.214  28.245  23.682  1.00  0.00    -0.744 OA
ENDBRANCH  70  71
ENDBRANCH  51  65
BRANCH  52  75
ATOM     75  C   UNL A   1      41.592  28.963  30.063  1.00  0.00    -0.014 A 
ATOM     76  C   UNL A   1      40.469  29.459  29.378  1.00  0.00     0.010 A 
ATOM     77  C   UNL A   1      41.466  28.606  31.418  1.00  0.00     0.010 A 
ATOM     78  C   UNL A   1      39.248  29.613  30.039  1.00  0.00     0.020 A 
ATOM     79  C   UNL A   1      40.239  28.734  32.076  1.00  0.00     0.020 A 
ATOM     80  C   UNL A   1      39.139  29.248  31.384  1.00  0.00     0.054 A 
BRANCH  80  81
ATOM     81  S   UNL A   1      37.530  29.401  32.208  1.00  0.00     0.124 S 
ATOM     82  O   UNL A   1      36.605  29.340  31.081  1.00  0.00    -0.237 OA
ATOM     83  O   UNL A   1      37.519  28.244  33.101  1.00  0.00    -0.237 OA
ATOM     84  O   UNL A   1      37.614  30.696  32.881  1.00  0.00    -0.744 OA
ENDBRANCH  80  81
ENDBRANCH  52  75
BRANCH  64  85
ATOM     85  C   UNL A   1      47.151  33.084  29.211  1.00  0.00    -0.014 A 
ATOM     86  C   UNL A   1      46.797  34.179  28.403  1.00  0.00     0.010 A 
ATOM     87  C   UNL A   1      47.748  33.319  30.463  1.00  0.00     0.010 A 
ATOM     88  C   UNL A   1      47.065  35.483  28.826  1.00  0.00     0.020 A 
ATOM     89  C   UNL A   1      47.995  34.622  30.900  1.00  0.00     0.020 A 
ATOM     90  C   UNL A   1      47.665  35.697  30.072  1.00  0.00     0.054 A 
BRANCH  90  91
ATOM     91  S   UNL A   1      47.968  37.400  30.617  1.00  0.00     0.124 S 
ATOM     92  O   UNL A   1      49.424  37.435  30.709  1.00  0.00    -0.237 OA
ATOM     93  O   UNL A   1      47.388  38.193  29.537  1.00  0.00    -0.237 OA
ATOM     94  O   UNL A   1      47.260  37.486  31.893  1.00  0.00    -0.744 OA
ENDBRANCH  90  91
ENDBRANCH  64  85
ENDBRANCH  38  39
ENDBRANCH  30  33
ENDBRANCH  28  29
ENDBRANCH  27  28
ENDBRANCH  26  27
ENDBRANCH   1  26
TORSDOF 19
ENDMDL
MODEL 3
REMARK VINA RESULT:     -10.8      6.264     12.144
REMARK SMILES [NH3+][C@H]1C=C[C@@H](C(=O)N2CCC(CC(=O)NCCCCCCNC(=O)c3ccc(-c4c5nc(c(-c6ccc(S(=O)(=O)[O-])cc6)c6ccc([nH]6)c(-c6ccc(S(=O)(=O)[O-])cc6)c6nc(c(-c7ccc(S(=O)(=O)[O-])cc7)c7ccc4[nH]7)C=C6)C=C5)cc3)CC2)C1
REMARK SMILES IDX 18 1 17 2 16 3 15 4 13 5 14 6 12 8 11 9 6 10 7 11 8 12 9 13
REMARK SMILES IDX 86 14 10 15 85 16 5 17 2 18 3 19 87 20 4 21 1 22 19 26 20 27
REMARK SMILES IDX 21 28 22 29 23 30 24 32 25 33 26 34 84 35 27 36 83 37 28 38
REMARK SMILES IDX 29 39 30 40 77 41 31 42 82 43 76 44 78 45 32 46 81 47 75 48
REMARK SMILES IDX 74 49 33 51 63 52 44 53 62 54 45 55 48 56 61 57 79 58 46 59
REMARK SMILES IDX 47 60 60 62 80 63 49 64 34 65 35 66 43 67 36 68 42 69 37 70
REMARK SMILES IDX 38 71 39 72 40 73 41 74 64 75 65 76 73 77 66 78 72 79 67 80
REMARK SMILES IDX 68 81 69 82 70 83 71 84 50 85 51 86 59 87 52 88 58 89 53 90
REMARK SMILES IDX 54 91 55 92 56 93 57 94
REMARK H PARENT 15 7 1 23 1 24 1 25 22 31 78 50 48 61
REMARK Flexibility Score: inf
ROOT
ATOM      1  C   UNL A   1      37.575  21.580  25.360  1.00  0.00     0.002 C 
ENDROOT
BRANCH   1   2
ATOM      2  C   UNL A   1      36.160  21.194  25.792  1.00  0.00     0.021 C 
BRANCH   2   3
ATOM      3  C   UNL A   1      35.271  20.669  24.660  1.00  0.00     0.116 C 
BRANCH   3   4
ATOM      4  N   UNL A   1      34.305  19.710  25.172  1.00  0.00    -0.356 N 
ATOM      5  C   UNL A   1      32.944  19.722  25.119  1.00  0.00     0.220 C 
ATOM      6  O   UNL A   1      32.324  18.857  25.743  1.00  0.00    -0.275 OA
ATOM      7  H   UNL A   1      34.697  18.930  25.629  1.00  0.00     0.163 HD
BRANCH   5   8
ATOM      8  C   UNL A   1      32.208  20.767  24.300  1.00  0.00     0.103 C 
BRANCH   8   9
ATOM      9  C   UNL A   1      31.599  21.909  25.135  1.00  0.00     0.002 C 
ATOM     10  C   UNL A   1      32.905  25.501  25.932  1.00  0.00     0.229 C 
ATOM     11  O   UNL A   1      34.000  25.070  25.566  1.00  0.00    -0.274 OA
ATOM     12  N   UNL A   1      31.820  24.653  26.129  1.00  0.00    -0.342 N 
ATOM     13  C   UNL A   1      32.014  23.547  27.046  1.00  0.00     0.120 C 
ATOM     14  C   UNL A   1      30.921  24.369  25.022  1.00  0.00     0.120 C 
ATOM     15  C   UNL A   1      32.490  22.293  26.322  1.00  0.00     0.026 C 
ATOM     16  C   UNL A   1      31.360  23.134  24.235  1.00  0.00     0.026 C 
BRANCH  10  17
ATOM     17  C   UNL A   1      32.729  26.955  26.395  1.00  0.00     0.107 C 
ATOM     18  C   UNL A   1      32.988  29.140  25.274  1.00  0.00     0.205 C 
ATOM     19  C   UNL A   1      31.571  28.683  25.284  1.00  0.00     0.033 C 
ATOM     20  C   UNL A   1      33.765  27.961  25.881  1.00  0.00     0.087 C 
ATOM     21  C   UNL A   1      31.422  27.512  25.908  1.00  0.00    -0.012 C 
BRANCH  18  22
ATOM     22  N   UNL A   1      33.442  29.441  23.925  1.00  0.00    -0.352 N 
ATOM     23  H   UNL A   1      33.207  28.665  23.307  1.00  0.00     0.345 HD
ATOM     24  H   UNL A   1      34.453  29.578  23.929  1.00  0.00     0.345 HD
ATOM     25  H   UNL A   1      32.985  30.290  23.594  1.00  0.00     0.345 HD
ENDBRANCH  18  22
ENDBRANCH  10  17
ENDBRANCH   8   9
ENDBRANCH   5   8
ENDBRANCH   3   4
ENDBRANCH   2   3
ENDBRANCH   1   2
BRANCH   1  26
ATOM     26  C   UNL A   1      37.830  23.084  25.246  1.00  0.00     0.002 C 
BRANCH  26  27
ATOM     27  C   UNL A   1      38.266  23.785  26.538  1.00  0.00     0.021 C 
BRANCH  27  28
ATOM     28  C   UNL A   1      39.712  23.539  26.964  1.00  0.00     0.116 C 
BRANCH  28  29
ATOM     29  N   UNL A   1      40.665  24.106  26.026  1.00  0.00    -0.352 N 
ATOM     30  C   UNL A   1      41.258  25.344  26.015  1.00  0.00     0.251 C 
ATOM     31  H   UNL A   1      40.926  23.512  25.284  1.00  0.00     0.163 HD
ATOM     32  O   UNL A   1      41.880  25.712  25.024  1.00  0.00    -0.269 OA
BRANCH  30  33
ATOM     33  C   UNL A   1      41.141  26.237  27.189  1.00  0.00     0.039 A 
ATOM     34  C   UNL A   1      41.950  27.375  27.251  1.00  0.00     0.014 A 
ATOM     35  C   UNL A   1      40.268  25.939  28.239  1.00  0.00     0.014 A 
ATOM     36  C   UNL A   1      41.846  28.241  28.343  1.00  0.00     0.010 A 
ATOM     37  C   UNL A   1      40.122  26.835  29.298  1.00  0.00     0.010 A 
ATOM     38  C   UNL A   1      40.914  27.991  29.364  1.00  0.00    -0.014 A 
BRANCH  38  39
ATOM     39  C   UNL A   1      40.760  28.928  30.506  1.00  0.00     0.031 A 
ATOM     40  C   UNL A   1      41.627  28.786  31.728  1.00  0.00     0.074 A 
ATOM     41  C   UNL A   1      39.799  29.873  30.466  1.00  0.00     0.049 A 
ATOM     42  N   UNL A   1      41.608  29.481  32.837  1.00  0.00    -0.248 NA
ATOM     43  C   UNL A   1      42.630  27.709  31.711  1.00  0.00     0.031 C 
ATOM     44  C   UNL A   1      38.863  30.084  29.359  1.00  0.00     0.029 A 
ATOM     45  N   UNL A   1      39.443  30.827  31.386  1.00  0.00    -0.354 N 
ATOM     46  C   UNL A   1      42.579  28.915  33.655  1.00  0.00     0.074 A 
ATOM     47  C   UNL A   1      43.139  27.795  32.931  1.00  0.00     0.031 C 
ATOM     48  C   UNL A   1      38.056  31.115  29.655  1.00  0.00     0.029 A 
ATOM     49  C   UNL A   1      38.393  31.617  30.984  1.00  0.00     0.049 A 
ATOM     50  H   UNL A   1      39.898  30.936  32.253  1.00  0.00     0.167 HD
ATOM     51  C   UNL A   1      42.980  29.303  34.890  1.00  0.00     0.031 A 
ATOM     52  C   UNL A   1      37.765  32.630  31.615  1.00  0.00     0.031 A 
ATOM     53  C   UNL A   1      42.431  30.426  35.601  1.00  0.00     0.049 A 
ATOM     54  C   UNL A   1      38.237  33.050  32.979  1.00  0.00     0.074 A 
ATOM     55  C   UNL A   1      42.813  30.935  36.831  1.00  0.00     0.029 A 
ATOM     56  N   UNL A   1      41.386  31.216  35.149  1.00  0.00    -0.354 N 
ATOM     57  N   UNL A   1      39.204  32.544  33.708  1.00  0.00    -0.248 NA
ATOM     58  C   UNL A   1      37.542  34.187  33.600  1.00  0.00     0.031 C 
ATOM     59  C   UNL A   1      41.969  32.007  37.141  1.00  0.00     0.029 A 
ATOM     60  C   UNL A   1      41.094  32.196  36.083  1.00  0.00     0.049 A 
ATOM     61  H   UNL A   1      40.918  31.097  34.291  1.00  0.00     0.167 HD
ATOM     62  C   UNL A   1      39.250  33.317  34.863  1.00  0.00     0.074 A 
ATOM     63  C   UNL A   1      38.223  34.331  34.729  1.00  0.00     0.031 C 
ATOM     64  C   UNL A   1      40.068  33.197  35.937  1.00  0.00     0.031 A 
BRANCH  51  65
ATOM     65  C   UNL A   1      44.064  28.495  35.554  1.00  0.00    -0.014 A 
ATOM     66  C   UNL A   1      45.422  28.817  35.376  1.00  0.00     0.010 A 
ATOM     67  C   UNL A   1      43.720  27.423  36.397  1.00  0.00     0.010 A 
ATOM     68  C   UNL A   1      46.417  28.055  35.992  1.00  0.00     0.020 A 
ATOM     69  C   UNL A   1      44.713  26.674  37.037  1.00  0.00     0.020 A 
ATOM     70  C   UNL A   1      46.056  26.984  36.815  1.00  0.00     0.054 A 
BRANCH  70  71
ATOM     71  S   UNL A   1      47.368  26.020  37.617  1.00  0.00     0.124 S 
ATOM     72  O   UNL A   1      47.246  24.730  36.944  1.00  0.00    -0.237 OA
ATOM     73  O   UNL A   1      48.570  26.785  37.296  1.00  0.00    -0.237 OA
ATOM     74  O   UNL A   1      46.988  26.026  39.028  1.00  0.00    -0.744 OA
ENDBRANCH  70  71
ENDBRANCH  51  65
BRANCH  52  75
ATOM     75  C   UNL A   1      36.634  33.329  30.949  1.00  0.00    -0.014 A 
ATOM     76  C   UNL A   1      36.850  34.086  29.785  1.00  0.00     0.010 A 
ATOM     77  C   UNL A   1      35.330  33.224  31.466  1.00  0.00     0.010 A 
ATOM     78  C   UNL A   1      35.786  34.742  29.160  1.00  0.00     0.020 A 
ATOM     79  C   UNL A   1      34.259  33.857  30.829  1.00  0.00     0.020 A 
ATOM     80  C   UNL A   1      34.496  34.622  29.685  1.00  0.00     0.054 A 
BRANCH  80  81
ATOM     81  S   UNL A   1      33.120  35.435  28.825  1.00  0.00     0.124 S 
ATOM     82  O   UNL A   1      32.353  35.990  29.937  1.00  0.00    -0.237 OA
ATOM     83  O   UNL A   1      33.805  36.409  27.978  1.00  0.00    -0.237 OA
ATOM     84  O   UNL A   1      32.474  34.339  28.104  1.00  0.00    -0.744 OA
ENDBRANCH  80  81
ENDBRANCH  52  75
BRANCH  64  85
ATOM     85  C   UNL A   1      39.909  34.206  37.041  1.00  0.00    -0.014 A 
ATOM     86  C   UNL A   1      40.404  35.516  36.907  1.00  0.00     0.010 A 
ATOM     87  C   UNL A   1      39.211  33.853  38.211  1.00  0.00     0.010 A 
ATOM     88  C   UNL A   1      40.233  36.443  37.937  1.00  0.00     0.020 A 
ATOM     89  C   UNL A   1      39.016  34.785  39.232  1.00  0.00     0.020 A 
ATOM     90  C   UNL A   1      39.541  36.071  39.095  1.00  0.00     0.054 A 
BRANCH  90  91
ATOM     91  S   UNL A   1      39.297  37.304  40.402  1.00  0.00     0.124 S 
ATOM     92  O   UNL A   1      40.668  37.580  40.821  1.00  0.00    -0.237 OA
ATOM     93  O   UNL A   1      38.625  38.393  39.699  1.00  0.00    -0.237 OA
ATOM     94  O   UNL A   1      38.473  36.606  41.387  1.00  0.00    -0.744 OA
ENDBRANCH  90  91
ENDBRANCH  64  85
ENDBRANCH  38  39
ENDBRANCH  30  33
ENDBRANCH  28  29
ENDBRANCH  27  28
ENDBRANCH  26  27
ENDBRANCH   1  26
TORSDOF 19
ENDMDL
