MODEL 1
REMARK VINA RESULT:     -10.6      0.000      0.000
REMARK SMILES Cc1cc(N(C)[C@H](C)C(=O)NCCCCCCNC(=O)c2ccc(-c3c4nc(c(-c5ccc(S(=O)(=O)[O-])cc5)c5ccc([nH]5)c(-c5ccc(S(=O)(=O)[O-])cc5)c5nc(c(-c6ccc(S(=O)(=O)[O-])cc6)c6ccc3[nH]6)C=C5)C=C4)cc2)ncc1[N+](=O)[O-]
REMARK SMILES IDX 14 1 13 2 12 3 11 4 9 5 10 6 7 8 8 9 5 10 6 11 4 12 1 13
REMARK SMILES IDX 2 14 3 15 83 16 82 17 81 18 84 19 85 20 86 21 15 22 16 23
REMARK SMILES IDX 17 24 18 25 19 26 20 28 21 29 22 30 80 31 23 32 79 33 24 34
REMARK SMILES IDX 25 35 26 36 73 37 27 38 78 39 72 40 74 41 28 42 77 43 71 44
REMARK SMILES IDX 70 45 29 47 59 48 40 49 58 50 41 51 44 52 57 53 75 54 42 55
REMARK SMILES IDX 43 56 56 58 76 59 45 60 30 61 31 62 39 63 32 64 38 65 33 66
REMARK SMILES IDX 34 67 35 68 36 69 37 70 60 71 61 72 69 73 62 74 68 75 63 76
REMARK SMILES IDX 64 77 65 78 66 79 67 80 46 81 47 82 55 83 48 84 54 85 49 86
REMARK SMILES IDX 50 87 51 88 52 89 53 90
REMARK H PARENT 11 7 18 27 74 46 44 57
REMARK Flexibility Score: inf
ROOT
ATOM      1  C   UNL A   1      30.786  26.207  24.867  1.00  0.00     0.002 C 
ENDROOT
BRANCH   1   2
ATOM      2  C   UNL A   1      30.538  25.067  23.871  1.00  0.00     0.021 C 
BRANCH   2   3
ATOM      3  C   UNL A   1      31.153  23.734  24.275  1.00  0.00     0.116 C 
BRANCH   3   4
ATOM      4  N   UNL A   1      31.257  22.811  23.164  1.00  0.00    -0.354 N 
ATOM      5  C   UNL A   1      32.166  21.831  22.889  1.00  0.00     0.242 C 
ATOM      6  O   UNL A   1      31.863  21.069  21.959  1.00  0.00    -0.273 OA
ATOM      7  H   UNL A   1      30.548  22.907  22.488  1.00  0.00     0.163 HD
BRANCH   5   8
ATOM      8  C   UNL A   1      33.503  21.646  23.651  1.00  0.00     0.169 C 
ATOM      9  C   UNL A   1      34.341  22.924  23.721  1.00  0.00     0.042 C 
BRANCH   8  10
ATOM     10  N   UNL A   1      33.402  20.953  24.968  1.00  0.00    -0.348 N 
ATOM     11  C   UNL A   1      33.323  21.690  26.214  1.00  0.00     0.146 C 
BRANCH  10  12
ATOM     12  C   UNL A   1      33.240  19.572  24.964  1.00  0.00     0.129 A 
ATOM     13  C   UNL A   1      34.459  16.633  22.911  1.00  0.00     0.052 C 
ATOM     14  C   UNL A   1      33.747  17.348  24.025  1.00  0.00     0.032 A 
ATOM     15  C   UNL A   1      33.762  18.758  23.952  1.00  0.00     0.057 A 
ATOM     16  C   UNL A   1      33.100  16.779  25.124  1.00  0.00     0.290 A 
ATOM     17  C   UNL A   1      32.538  17.635  26.063  1.00  0.00     0.199 A 
ATOM     18  N   UNL A   1      32.596  18.990  25.995  1.00  0.00    -0.232 NA
BRANCH  16  19
ATOM     19  N   UNL A   1      32.964  15.346  25.367  1.00  0.00     0.064 N 
ATOM     20  O   UNL A   1      31.823  14.907  25.574  1.00  0.00    -0.258 OA
ATOM     21  O   UNL A   1      33.977  14.637  25.328  1.00  0.00    -0.258 OA
ENDBRANCH  16  19
ENDBRANCH  10  12
ENDBRANCH   8  10
ENDBRANCH   5   8
ENDBRANCH   3   4
ENDBRANCH   2   3
ENDBRANCH   1   2
BRANCH   1  22
ATOM     22  C   UNL A   1      32.255  26.554  25.142  1.00  0.00     0.002 C 
BRANCH  22  23
ATOM     23  C   UNL A   1      32.564  27.103  26.536  1.00  0.00     0.021 C 
BRANCH  23  24
ATOM     24  C   UNL A   1      33.796  27.996  26.624  1.00  0.00     0.116 C 
BRANCH  24  25
ATOM     25  N   UNL A   1      33.474  29.346  27.044  1.00  0.00    -0.352 N 
ATOM     26  C   UNL A   1      34.232  30.239  27.760  1.00  0.00     0.251 C 
ATOM     27  H   UNL A   1      32.583  29.669  26.778  1.00  0.00     0.163 HD
ATOM     28  O   UNL A   1      33.724  31.281  28.161  1.00  0.00    -0.269 OA
BRANCH  26  29
ATOM     29  C   UNL A   1      35.648  29.935  28.066  1.00  0.00     0.039 A 
ATOM     30  C   UNL A   1      35.984  29.546  29.365  1.00  0.00     0.014 A 
ATOM     31  C   UNL A   1      36.644  30.053  27.091  1.00  0.00     0.014 A 
ATOM     32  C   UNL A   1      37.309  29.237  29.675  1.00  0.00     0.010 A 
ATOM     33  C   UNL A   1      37.950  29.671  27.383  1.00  0.00     0.010 A 
ATOM     34  C   UNL A   1      38.301  29.274  28.681  1.00  0.00    -0.014 A 
BRANCH  34  35
ATOM     35  C   UNL A   1      39.711  28.924  28.994  1.00  0.00     0.031 A 
ATOM     36  C   UNL A   1      40.616  29.939  29.638  1.00  0.00     0.074 A 
ATOM     37  C   UNL A   1      40.187  27.708  28.661  1.00  0.00     0.049 A 
ATOM     38  N   UNL A   1      41.880  29.830  29.961  1.00  0.00    -0.248 NA
ATOM     39  C   UNL A   1      40.035  31.259  29.937  1.00  0.00     0.031 C 
ATOM     40  C   UNL A   1      39.421  26.650  27.998  1.00  0.00     0.029 A 
ATOM     41  N   UNL A   1      41.431  27.155  28.835  1.00  0.00    -0.354 N 
ATOM     42  C   UNL A   1      42.246  31.065  30.486  1.00  0.00     0.074 A 
ATOM     43  C   UNL A   1      41.087  31.925  30.387  1.00  0.00     0.031 C 
ATOM     44  C   UNL A   1      40.202  25.568  27.851  1.00  0.00     0.029 A 
ATOM     45  C   UNL A   1      41.532  25.865  28.372  1.00  0.00     0.049 A 
ATOM     46  H   UNL A   1      42.181  27.638  29.252  1.00  0.00     0.167 HD
ATOM     47  C   UNL A   1      43.431  31.443  31.022  1.00  0.00     0.031 A 
ATOM     48  C   UNL A   1      42.578  25.016  28.365  1.00  0.00     0.031 A 
ATOM     49  C   UNL A   1      44.578  30.581  31.129  1.00  0.00     0.049 A 
ATOM     50  C   UNL A   1      43.886  25.459  28.964  1.00  0.00     0.074 A 
ATOM     51  C   UNL A   1      45.809  30.853  31.700  1.00  0.00     0.029 A 
ATOM     52  N   UNL A   1      44.635  29.278  30.657  1.00  0.00    -0.354 N 
ATOM     53  N   UNL A   1      44.193  26.613  29.508  1.00  0.00    -0.248 NA
ATOM     54  C   UNL A   1      44.981  24.480  28.962  1.00  0.00     0.031 C 
ATOM     55  C   UNL A   1      46.628  29.733  31.527  1.00  0.00     0.029 A 
ATOM     56  C   UNL A   1      45.886  28.740  30.906  1.00  0.00     0.049 A 
ATOM     57  H   UNL A   1      43.896  28.805  30.210  1.00  0.00     0.167 HD
ATOM     58  C   UNL A   1      45.507  26.486  29.946  1.00  0.00     0.074 A 
ATOM     59  C   UNL A   1      45.929  25.140  29.613  1.00  0.00     0.031 C 
ATOM     60  C   UNL A   1      46.292  27.398  30.571  1.00  0.00     0.031 A 
BRANCH  47  61
ATOM     61  C   UNL A   1      43.546  32.857  31.532  1.00  0.00    -0.014 A 
ATOM     62  C   UNL A   1      43.300  33.167  32.882  1.00  0.00     0.010 A 
ATOM     63  C   UNL A   1      43.943  33.886  30.658  1.00  0.00     0.010 A 
ATOM     64  C   UNL A   1      43.407  34.483  33.339  1.00  0.00     0.020 A 
ATOM     65  C   UNL A   1      44.082  35.199  31.118  1.00  0.00     0.020 A 
ATOM     66  C   UNL A   1      43.796  35.492  32.452  1.00  0.00     0.054 A 
BRANCH  66  67
ATOM     67  S   UNL A   1      43.947  37.187  33.079  1.00  0.00     0.124 S 
ATOM     68  O   UNL A   1      45.236  37.140  33.764  1.00  0.00    -0.237 OA
ATOM     69  O   UNL A   1      43.914  37.985  31.856  1.00  0.00    -0.237 OA
ATOM     70  O   UNL A   1      42.784  37.340  33.951  1.00  0.00    -0.744 OA
ENDBRANCH  66  67
ENDBRANCH  47  61
BRANCH  48  71
ATOM     71  C   UNL A   1      42.425  23.650  27.791  1.00  0.00    -0.014 A 
ATOM     72  C   UNL A   1      42.578  23.431  26.411  1.00  0.00     0.010 A 
ATOM     73  C   UNL A   1      42.130  22.558  28.628  1.00  0.00     0.010 A 
ATOM     74  C   UNL A   1      42.417  22.152  25.874  1.00  0.00     0.020 A 
ATOM     75  C   UNL A   1      41.998  21.271  28.098  1.00  0.00     0.020 A 
ATOM     76  C   UNL A   1      42.129  21.078  26.721  1.00  0.00     0.054 A 
BRANCH  76  77
ATOM     77  S   UNL A   1      41.968  19.417  26.008  1.00  0.00     0.124 S 
ATOM     78  O   UNL A   1      40.534  19.332  25.758  1.00  0.00    -0.237 OA
ATOM     79  O   UNL A   1      42.815  19.501  24.821  1.00  0.00    -0.237 OA
ATOM     80  O   UNL A   1      42.475  18.543  27.065  1.00  0.00    -0.744 OA
ENDBRANCH  76  77
ENDBRANCH  48  71
BRANCH  60  81
ATOM     81  C   UNL A   1      47.674  26.959  30.980  1.00  0.00    -0.014 A 
ATOM     82  C   UNL A   1      47.887  26.186  32.135  1.00  0.00     0.010 A 
ATOM     83  C   UNL A   1      48.773  27.297  30.169  1.00  0.00     0.010 A 
ATOM     84  C   UNL A   1      49.179  25.795  32.493  1.00  0.00     0.020 A 
ATOM     85  C   UNL A   1      50.063  26.882  30.507  1.00  0.00     0.020 A 
ATOM     86  C   UNL A   1      50.260  26.148  31.678  1.00  0.00     0.054 A 
BRANCH  86  87
ATOM     87  S   UNL A   1      51.925  25.606  32.150  1.00  0.00     0.124 S 
ATOM     88  O   UNL A   1      52.721  26.038  31.005  1.00  0.00    -0.237 OA
ATOM     89  O   UNL A   1      52.159  26.340  33.392  1.00  0.00    -0.237 OA
ATOM     90  O   UNL A   1      51.788  24.160  32.306  1.00  0.00    -0.744 OA
ENDBRANCH  86  87
ENDBRANCH  60  81
ENDBRANCH  34  35
ENDBRANCH  26  29
ENDBRANCH  24  25
ENDBRANCH  23  24
ENDBRANCH  22  23
ENDBRANCH   1  22
TORSDOF 19
ENDMDL
MODEL 2
REMARK VINA RESULT:     -10.4      2.623      8.774
REMARK SMILES Cc1cc(N(C)[C@H](C)C(=O)NCCCCCCNC(=O)c2ccc(-c3c4nc(c(-c5ccc(S(=O)(=O)[O-])cc5)c5ccc([nH]5)c(-c5ccc(S(=O)(=O)[O-])cc5)c5nc(c(-c6ccc(S(=O)(=O)[O-])cc6)c6ccc3[nH]6)C=C5)C=C4)cc2)ncc1[N+](=O)[O-]
REMARK SMILES IDX 14 1 13 2 12 3 11 4 9 5 10 6 7 8 8 9 5 10 6 11 4 12 1 13
REMARK SMILES IDX 2 14 3 15 83 16 82 17 81 18 84 19 85 20 86 21 15 22 16 23
REMARK SMILES IDX 17 24 18 25 19 26 20 28 21 29 22 30 80 31 23 32 79 33 24 34
REMARK SMILES IDX 25 35 26 36 73 37 27 38 78 39 72 40 74 41 28 42 77 43 71 44
REMARK SMILES IDX 70 45 29 47 59 48 40 49 58 50 41 51 44 52 57 53 75 54 42 55
REMARK SMILES IDX 43 56 56 58 76 59 45 60 30 61 31 62 39 63 32 64 38 65 33 66
REMARK SMILES IDX 34 67 35 68 36 69 37 70 60 71 61 72 69 73 62 74 68 75 63 76
REMARK SMILES IDX 64 77 65 78 66 79 67 80 46 81 47 82 55 83 48 84 54 85 49 86
REMARK SMILES IDX 50 87 51 88 52 89 53 90
REMARK H PARENT 11 7 18 27 74 46 44 57
REMARK Flexibility Score: inf
ROOT
ATOM      1  C   UNL A   1      34.157  24.884  23.550  1.00  0.00     0.002 C 
ENDROOT
BRANCH   1   2
ATOM      2  C   UNL A   1      33.106  25.559  24.440  1.00  0.00     0.021 C 
BRANCH   2   3
ATOM      3  C   UNL A   1      33.144  25.126  25.899  1.00  0.00     0.116 C 
BRANCH   3   4
ATOM      4  N   UNL A   1      31.825  24.860  26.434  1.00  0.00    -0.354 N 
ATOM      5  C   UNL A   1      31.095  23.710  26.503  1.00  0.00     0.242 C 
ATOM      6  O   UNL A   1      30.079  23.765  27.212  1.00  0.00    -0.273 OA
ATOM      7  H   UNL A   1      31.375  25.649  26.815  1.00  0.00     0.163 HD
BRANCH   5   8
ATOM      8  C   UNL A   1      31.463  22.401  25.759  1.00  0.00     0.169 C 
ATOM      9  C   UNL A   1      31.510  22.562  24.239  1.00  0.00     0.042 C 
BRANCH   8  10
ATOM     10  N   UNL A   1      32.646  21.666  26.295  1.00  0.00    -0.348 N 
ATOM     11  C   UNL A   1      33.230  21.995  27.580  1.00  0.00     0.146 C 
BRANCH  10  12
ATOM     12  C   UNL A   1      33.092  20.553  25.591  1.00  0.00     0.129 A 
ATOM     13  C   UNL A   1      36.416  18.982  24.686  1.00  0.00     0.052 C 
ATOM     14  C   UNL A   1      34.922  19.114  24.774  1.00  0.00     0.032 A 
ATOM     15  C   UNL A   1      34.449  20.319  25.339  1.00  0.00     0.057 A 
ATOM     16  C   UNL A   1      33.961  18.178  24.387  1.00  0.00     0.290 A 
ATOM     17  C   UNL A   1      32.624  18.493  24.596  1.00  0.00     0.199 A 
ATOM     18  N   UNL A   1      32.190  19.642  25.176  1.00  0.00    -0.232 NA
BRANCH  16  19
ATOM     19  N   UNL A   1      34.250  16.887  23.771  1.00  0.00     0.064 N 
ATOM     20  O   UNL A   1      34.631  15.971  24.515  1.00  0.00    -0.258 OA
ATOM     21  O   UNL A   1      34.076  16.756  22.553  1.00  0.00    -0.258 OA
ENDBRANCH  16  19
ENDBRANCH  10  12
ENDBRANCH   8  10
ENDBRANCH   5   8
ENDBRANCH   3   4
ENDBRANCH   2   3
ENDBRANCH   1   2
BRANCH   1  22
ATOM     22  C   UNL A   1      34.924  23.715  24.183  1.00  0.00     0.002 C 
BRANCH  22  23
ATOM     23  C   UNL A   1      36.358  24.016  24.626  1.00  0.00     0.021 C 
BRANCH  23  24
ATOM     24  C   UNL A   1      36.723  23.523  26.020  1.00  0.00     0.116 C 
BRANCH  24  25
ATOM     25  N   UNL A   1      37.856  22.617  26.009  1.00  0.00    -0.352 N 
ATOM     26  C   UNL A   1      39.167  22.858  26.341  1.00  0.00     0.251 C 
ATOM     27  H   UNL A   1      37.657  21.698  25.722  1.00  0.00     0.163 HD
ATOM     28  O   UNL A   1      40.017  22.004  26.112  1.00  0.00    -0.269 OA
BRANCH  26  29
ATOM     29  C   UNL A   1      39.553  24.149  26.952  1.00  0.00     0.039 A 
ATOM     30  C   UNL A   1      39.273  24.361  28.305  1.00  0.00     0.014 A 
ATOM     31  C   UNL A   1      40.164  25.156  26.198  1.00  0.00     0.014 A 
ATOM     32  C   UNL A   1      39.643  25.564  28.909  1.00  0.00     0.010 A 
ATOM     33  C   UNL A   1      40.601  26.323  26.821  1.00  0.00     0.010 A 
ATOM     34  C   UNL A   1      40.331  26.547  28.178  1.00  0.00    -0.014 A 
BRANCH  34  35
ATOM     35  C   UNL A   1      40.750  27.821  28.817  1.00  0.00     0.031 A 
ATOM     36  C   UNL A   1      42.136  27.960  29.388  1.00  0.00     0.074 A 
ATOM     37  C   UNL A   1      39.872  28.838  28.919  1.00  0.00     0.049 A 
ATOM     38  N   UNL A   1      42.675  28.980  30.005  1.00  0.00    -0.248 NA
ATOM     39  C   UNL A   1      43.027  26.792  29.272  1.00  0.00     0.031 C 
ATOM     40  C   UNL A   1      38.487  28.814  28.440  1.00  0.00     0.029 A 
ATOM     41  N   UNL A   1      40.012  30.092  29.460  1.00  0.00    -0.354 N 
ATOM     42  C   UNL A   1      43.956  28.574  30.363  1.00  0.00     0.074 A 
ATOM     43  C   UNL A   1      44.095  27.197  29.943  1.00  0.00     0.031 C 
ATOM     44  C   UNL A   1      37.918  30.007  28.680  1.00  0.00     0.029 A 
ATOM     45  C   UNL A   1      38.880  30.865  29.362  1.00  0.00     0.049 A 
ATOM     46  H   UNL A   1      40.846  30.407  29.879  1.00  0.00     0.167 HD
ATOM     47  C   UNL A   1      44.938  29.288  30.965  1.00  0.00     0.031 A 
ATOM     48  C   UNL A   1      38.641  32.125  29.777  1.00  0.00     0.031 A 
ATOM     49  C   UNL A   1      44.799  30.661  31.372  1.00  0.00     0.049 A 
ATOM     50  C   UNL A   1      39.746  32.897  30.447  1.00  0.00     0.074 A 
ATOM     51  C   UNL A   1      45.750  31.488  31.946  1.00  0.00     0.029 A 
ATOM     52  N   UNL A   1      43.640  31.412  31.245  1.00  0.00    -0.354 N 
ATOM     53  N   UNL A   1      40.970  32.514  30.723  1.00  0.00    -0.248 NA
ATOM     54  C   UNL A   1      39.441  34.278  30.845  1.00  0.00     0.031 C 
ATOM     55  C   UNL A   1      45.149  32.722  32.215  1.00  0.00     0.029 A 
ATOM     56  C   UNL A   1      43.845  32.685  31.749  1.00  0.00     0.049 A 
ATOM     57  H   UNL A   1      42.796  31.087  30.857  1.00  0.00     0.167 HD
ATOM     58  C   UNL A   1      41.592  33.618  31.295  1.00  0.00     0.074 A 
ATOM     59  C   UNL A   1      40.612  34.685  31.314  1.00  0.00     0.031 C 
ATOM     60  C   UNL A   1      42.860  33.739  31.760  1.00  0.00     0.031 A 
BRANCH  47  61
ATOM     61  C   UNL A   1      46.248  28.591  31.225  1.00  0.00    -0.014 A 
ATOM     62  C   UNL A   1      47.289  28.620  30.278  1.00  0.00     0.010 A 
ATOM     63  C   UNL A   1      46.458  27.928  32.448  1.00  0.00     0.010 A 
ATOM     64  C   UNL A   1      48.497  27.966  30.532  1.00  0.00     0.020 A 
ATOM     65  C   UNL A   1      47.677  27.299  32.719  1.00  0.00     0.020 A 
ATOM     66  C   UNL A   1      48.683  27.307  31.751  1.00  0.00     0.054 A 
BRANCH  66  67
ATOM     67  S   UNL A   1      50.270  26.485  32.060  1.00  0.00     0.124 S 
ATOM     68  O   UNL A   1      49.870  25.372  32.918  1.00  0.00    -0.237 OA
ATOM     69  O   UNL A   1      50.708  26.117  30.716  1.00  0.00    -0.237 OA
ATOM     70  O   UNL A   1      51.073  27.516  32.713  1.00  0.00    -0.744 OA
ENDBRANCH  66  67
ENDBRANCH  47  61
BRANCH  48  71
ATOM     71  C   UNL A   1      37.306  32.743  29.550  1.00  0.00    -0.014 A 
ATOM     72  C   UNL A   1      36.981  33.312  28.306  1.00  0.00     0.010 A 
ATOM     73  C   UNL A   1      36.347  32.760  30.580  1.00  0.00     0.010 A 
ATOM     74  C   UNL A   1      35.733  33.906  28.102  1.00  0.00     0.020 A 
ATOM     75  C   UNL A   1      35.087  33.327  30.369  1.00  0.00     0.020 A 
ATOM     76  C   UNL A   1      34.792  33.909  29.135  1.00  0.00     0.054 A 
BRANCH  76  77
ATOM     77  S   UNL A   1      33.162  34.645  28.833  1.00  0.00     0.124 S 
ATOM     78  O   UNL A   1      32.572  33.701  27.891  1.00  0.00    -0.237 OA
ATOM     79  O   UNL A   1      32.571  34.660  30.169  1.00  0.00    -0.237 OA
ATOM     80  O   UNL A   1      33.479  35.963  28.286  1.00  0.00    -0.744 OA
ENDBRANCH  76  77
ENDBRANCH  48  71
BRANCH  60  81
ATOM     81  C   UNL A   1      43.281  35.087  32.285  1.00  0.00    -0.014 A 
ATOM     82  C   UNL A   1      43.130  35.426  33.641  1.00  0.00     0.010 A 
ATOM     83  C   UNL A   1      43.873  36.013  31.407  1.00  0.00     0.010 A 
ATOM     84  C   UNL A   1      43.526  36.685  34.100  1.00  0.00     0.020 A 
ATOM     85  C   UNL A   1      44.299  37.261  31.869  1.00  0.00     0.020 A 
ATOM     86  C   UNL A   1      44.106  37.595  33.211  1.00  0.00     0.054 A 
BRANCH  86  87
ATOM     87  S   UNL A   1      44.636  39.213  33.836  1.00  0.00     0.124 S 
ATOM     88  O   UNL A   1      45.432  39.723  32.724  1.00  0.00    -0.237 OA
ATOM     89  O   UNL A   1      43.366  39.898  34.068  1.00  0.00    -0.237 OA
ATOM     90  O   UNL A   1      45.389  38.887  35.045  1.00  0.00    -0.744 OA
ENDBRANCH  86  87
ENDBRANCH  60  81
ENDBRANCH  34  35
ENDBRANCH  26  29
ENDBRANCH  24  25
ENDBRANCH  23  24
ENDBRANCH  22  23
ENDBRANCH   1  22
TORSDOF 19
ENDMDL
MODEL 3
REMARK VINA RESULT:     -10.3      2.939      7.058
REMARK SMILES Cc1cc(N(C)[C@H](C)C(=O)NCCCCCCNC(=O)c2ccc(-c3c4nc(c(-c5ccc(S(=O)(=O)[O-])cc5)c5ccc([nH]5)c(-c5ccc(S(=O)(=O)[O-])cc5)c5nc(c(-c6ccc(S(=O)(=O)[O-])cc6)c6ccc3[nH]6)C=C5)C=C4)cc2)ncc1[N+](=O)[O-]
REMARK SMILES IDX 14 1 13 2 12 3 11 4 9 5 10 6 7 8 8 9 5 10 6 11 4 12 1 13
REMARK SMILES IDX 2 14 3 15 83 16 82 17 81 18 84 19 85 20 86 21 15 22 16 23
REMARK SMILES IDX 17 24 18 25 19 26 20 28 21 29 22 30 80 31 23 32 79 33 24 34
REMARK SMILES IDX 25 35 26 36 73 37 27 38 78 39 72 40 74 41 28 42 77 43 71 44
REMARK SMILES IDX 70 45 29 47 59 48 40 49 58 50 41 51 44 52 57 53 75 54 42 55
REMARK SMILES IDX 43 56 56 58 76 59 45 60 30 61 31 62 39 63 32 64 38 65 33 66
REMARK SMILES IDX 34 67 35 68 36 69 37 70 60 71 61 72 69 73 62 74 68 75 63 76
REMARK SMILES IDX 64 77 65 78 66 79 67 80 46 81 47 82 55 83 48 84 54 85 49 86
REMARK SMILES IDX 50 87 51 88 52 89 53 90
REMARK H PARENT 11 7 18 27 74 46 44 57
REMARK Flexibility Score: inf
ROOT
ATOM      1  C   UNL A   1      34.348  24.795  23.608  1.00  0.00     0.002 C 
ENDROOT
BRANCH   1   2
ATOM      2  C   UNL A   1      33.313  25.504  24.491  1.00  0.00     0.021 C 
BRANCH   2   3
ATOM      3  C   UNL A   1      33.309  25.049  25.944  1.00  0.00     0.116 C 
BRANCH   3   4
ATOM      4  N   UNL A   1      31.972  24.829  26.454  1.00  0.00    -0.354 N 
ATOM      5  C   UNL A   1      31.201  23.704  26.507  1.00  0.00     0.242 C 
ATOM      6  O   UNL A   1      30.175  23.793  27.196  1.00  0.00    -0.273 OA
ATOM      7  H   UNL A   1      31.542  25.632  26.829  1.00  0.00     0.163 HD
BRANCH   5   8
ATOM      8  C   UNL A   1      31.537  22.385  25.766  1.00  0.00     0.169 C 
ATOM      9  C   UNL A   1      31.573  22.537  24.245  1.00  0.00     0.042 C 
BRANCH   8  10
ATOM     10  N   UNL A   1      32.711  21.631  26.295  1.00  0.00    -0.348 N 
ATOM     11  C   UNL A   1      33.305  21.946  27.579  1.00  0.00     0.146 C 
BRANCH  10  12
ATOM     12  C   UNL A   1      33.138  20.514  25.585  1.00  0.00     0.129 A 
ATOM     13  C   UNL A   1      36.436  18.891  24.672  1.00  0.00     0.052 C 
ATOM     14  C   UNL A   1      34.943  19.048  24.761  1.00  0.00     0.032 A 
ATOM     15  C   UNL A   1      34.491  20.258  25.332  1.00  0.00     0.057 A 
ATOM     16  C   UNL A   1      33.967  18.131  24.369  1.00  0.00     0.290 A 
ATOM     17  C   UNL A   1      32.636  18.467  24.580  1.00  0.00     0.199 A 
ATOM     18  N   UNL A   1      32.221  19.620  25.166  1.00  0.00    -0.232 NA
BRANCH  16  19
ATOM     19  N   UNL A   1      34.234  16.837  23.746  1.00  0.00     0.064 N 
ATOM     20  O   UNL A   1      34.657  15.928  24.476  1.00  0.00    -0.258 OA
ATOM     21  O   UNL A   1      34.003  16.699  22.539  1.00  0.00    -0.258 OA
ENDBRANCH  16  19
ENDBRANCH  10  12
ENDBRANCH   8  10
ENDBRANCH   5   8
ENDBRANCH   3   4
ENDBRANCH   2   3
ENDBRANCH   1   2
BRANCH   1  22
ATOM     22  C   UNL A   1      35.065  23.596  24.242  1.00  0.00     0.002 C 
BRANCH  22  23
ATOM     23  C   UNL A   1      36.533  23.815  24.616  1.00  0.00     0.021 C 
BRANCH  23  24
ATOM     24  C   UNL A   1      36.904  23.429  26.043  1.00  0.00     0.116 C 
BRANCH  24  25
ATOM     25  N   UNL A   1      37.774  22.270  26.095  1.00  0.00    -0.352 N 
ATOM     26  C   UNL A   1      39.122  22.204  26.352  1.00  0.00     0.251 C 
ATOM     27  H   UNL A   1      37.336  21.406  25.923  1.00  0.00     0.163 HD
ATOM     28  O   UNL A   1      39.717  21.143  26.193  1.00  0.00    -0.269 OA
BRANCH  26  29
ATOM     29  C   UNL A   1      39.854  23.410  26.796  1.00  0.00     0.039 A 
ATOM     30  C   UNL A   1      39.880  24.525  25.954  1.00  0.00     0.014 A 
ATOM     31  C   UNL A   1      40.531  23.441  28.019  1.00  0.00     0.014 A 
ATOM     32  C   UNL A   1      40.549  25.682  26.356  1.00  0.00     0.010 A 
ATOM     33  C   UNL A   1      41.132  24.621  28.451  1.00  0.00     0.010 A 
ATOM     34  C   UNL A   1      41.162  25.749  27.619  1.00  0.00    -0.014 A 
BRANCH  34  35
ATOM     35  C   UNL A   1      41.857  26.983  28.068  1.00  0.00     0.031 A 
ATOM     36  C   UNL A   1      41.065  28.139  28.618  1.00  0.00     0.074 A 
ATOM     37  C   UNL A   1      43.195  27.079  27.942  1.00  0.00     0.049 A 
ATOM     38  N   UNL A   1      41.489  29.305  29.034  1.00  0.00    -0.248 NA
ATOM     39  C   UNL A   1      39.603  27.973  28.689  1.00  0.00     0.031 C 
ATOM     40  C   UNL A   1      44.072  26.044  27.389  1.00  0.00     0.029 A 
ATOM     41  N   UNL A   1      44.055  28.097  28.273  1.00  0.00    -0.354 N 
ATOM     42  C   UNL A   1      40.350  30.014  29.401  1.00  0.00     0.074 A 
ATOM     43  C   UNL A   1      39.214  29.169  29.106  1.00  0.00     0.031 C 
ATOM     44  C   UNL A   1      45.345  26.468  27.448  1.00  0.00     0.029 A 
ATOM     45  C   UNL A   1      45.374  27.815  28.006  1.00  0.00     0.049 A 
ATOM     46  H   UNL A   1      43.754  28.949  28.665  1.00  0.00     0.167 HD
ATOM     47  C   UNL A   1      40.257  31.247  29.953  1.00  0.00     0.031 A 
ATOM     48  C   UNL A   1      46.483  28.559  28.187  1.00  0.00     0.031 A 
ATOM     49  C   UNL A   1      41.391  32.081  30.255  1.00  0.00     0.049 A 
ATOM     50  C   UNL A   1      46.355  29.927  28.800  1.00  0.00     0.074 A 
ATOM     51  C   UNL A   1      41.406  33.326  30.860  1.00  0.00     0.029 A 
ATOM     52  N   UNL A   1      42.710  31.754  29.978  1.00  0.00    -0.354 N 
ATOM     53  N   UNL A   1      45.272  30.556  29.194  1.00  0.00    -0.248 NA
ATOM     54  C   UNL A   1      47.600  30.679  29.008  1.00  0.00     0.031 C 
ATOM     55  C   UNL A   1      42.730  33.775  30.901  1.00  0.00     0.029 A 
ATOM     56  C   UNL A   1      43.545  32.782  30.381  1.00  0.00     0.049 A 
ATOM     57  H   UNL A   1      43.008  30.916  29.556  1.00  0.00     0.167 HD
ATOM     58  C   UNL A   1      45.710  31.763  29.729  1.00  0.00     0.074 A 
ATOM     59  C   UNL A   1      47.155  31.769  29.618  1.00  0.00     0.031 C 
ATOM     60  C   UNL A   1      44.983  32.773  30.266  1.00  0.00     0.031 A 
BRANCH  47  61
ATOM     61  C   UNL A   1      38.878  31.771  30.264  1.00  0.00    -0.014 A 
ATOM     62  C   UNL A   1      38.282  31.554  31.519  1.00  0.00     0.010 A 
ATOM     63  C   UNL A   1      38.183  32.524  29.300  1.00  0.00     0.010 A 
ATOM     64  C   UNL A   1      37.002  32.043  31.790  1.00  0.00     0.020 A 
ATOM     65  C   UNL A   1      36.914  33.042  29.577  1.00  0.00     0.020 A 
ATOM     66  C   UNL A   1      36.324  32.782  30.816  1.00  0.00     0.054 A 
BRANCH  66  67
ATOM     67  S   UNL A   1      34.672  33.422  31.204  1.00  0.00     0.124 S 
ATOM     68  O   UNL A   1      34.025  33.399  29.895  1.00  0.00    -0.237 OA
ATOM     69  O   UNL A   1      34.170  32.448  32.171  1.00  0.00    -0.237 OA
ATOM     70  O   UNL A   1      34.934  34.754  31.745  1.00  0.00    -0.744 OA
ENDBRANCH  66  67
ENDBRANCH  47  61
BRANCH  48  71
ATOM     71  C   UNL A   1      47.814  28.015  27.804  1.00  0.00    -0.014 A 
ATOM     72  C   UNL A   1      48.580  27.278  28.725  1.00  0.00     0.010 A 
ATOM     73  C   UNL A   1      48.323  28.227  26.509  1.00  0.00     0.010 A 
ATOM     74  C   UNL A   1      49.837  26.783  28.368  1.00  0.00     0.020 A 
ATOM     75  C   UNL A   1      49.566  27.708  26.139  1.00  0.00     0.020 A 
ATOM     76  C   UNL A   1      50.322  27.000  27.076  1.00  0.00     0.054 A 
BRANCH  76  77
ATOM     77  S   UNL A   1      51.937  26.310  26.618  1.00  0.00     0.124 S 
ATOM     78  O   UNL A   1      52.204  26.979  25.350  1.00  0.00    -0.237 OA
ATOM     79  O   UNL A   1      52.781  26.713  27.740  1.00  0.00    -0.237 OA
ATOM     80  O   UNL A   1      51.679  24.873  26.528  1.00  0.00    -0.744 OA
ENDBRANCH  76  77
ENDBRANCH  48  71
BRANCH  60  81
ATOM     81  C   UNL A   1      45.738  33.952  30.823  1.00  0.00    -0.014 A 
ATOM     82  C   UNL A   1      46.031  35.077  30.032  1.00  0.00     0.010 A 
ATOM     83  C   UNL A   1      46.127  33.944  32.175  1.00  0.00     0.010 A 
ATOM     84  C   UNL A   1      46.735  36.155  30.573  1.00  0.00     0.020 A 
ATOM     85  C   UNL A   1      46.804  35.033  32.728  1.00  0.00     0.020 A 
ATOM     86  C   UNL A   1      47.120  36.125  31.917  1.00  0.00     0.054 A 
BRANCH  86  87
ATOM     87  S   UNL A   1      48.012  37.548  32.603  1.00  0.00     0.124 S 
ATOM     88  O   UNL A   1      48.405  38.270  31.397  1.00  0.00    -0.237 OA
ATOM     89  O   UNL A   1      46.992  38.199  33.423  1.00  0.00    -0.237 OA
ATOM     90  O   UNL A   1      49.109  36.941  33.353  1.00  0.00    -0.744 OA
ENDBRANCH  86  87
ENDBRANCH  60  81
ENDBRANCH  34  35
ENDBRANCH  26  29
ENDBRANCH  24  25
ENDBRANCH  23  24
ENDBRANCH  22  23
ENDBRANCH   1  22
TORSDOF 19
ENDMDL
