MODEL 1
REMARK VINA RESULT:      -6.7      0.000      0.000
REMARK SMILES CC1(CNS(=O)(=O)Cc2ccc(C(=O)NCCCCCCNC(=O)c3ccc(-c4c5nc(c(-c6ccc(S(=O)(=O)[O-])cc6)c6ccc([nH]6)c(-c6ccc(S(=O)(=O)[O-])cc6)c6nc(c(-c7ccc(S(=O)(=O)[O-])cc7)c7ccc4[nH]7)C=C6)C=C5)cc3)cc2)COC1
REMARK SMILES IDX 17 1 16 2 15 3 13 4 14 5 12 7 9 8 10 9 86 10 11 11 85 12
REMARK SMILES IDX 8 13 5 14 6 15 7 16 4 17 3 19 2 20 1 21 87 22 89 23 88 24
REMARK SMILES IDX 18 25 19 26 20 27 21 28 22 29 23 30 24 32 25 33 26 34 84 35
REMARK SMILES IDX 27 36 83 37 28 38 29 39 30 40 77 41 31 42 82 43 76 44 78 45
REMARK SMILES IDX 32 46 81 47 75 48 74 49 33 51 63 52 44 53 62 54 45 55 48 56
REMARK SMILES IDX 61 57 79 58 46 59 47 60 60 62 80 63 49 64 34 65 35 66 43 67
REMARK SMILES IDX 36 68 42 69 37 70 38 71 39 72 40 73 41 74 64 75 65 76 73 77
REMARK SMILES IDX 66 78 72 79 67 80 68 81 69 82 70 83 71 84 50 85 51 86 59 87
REMARK SMILES IDX 52 88 58 89 53 90 54 91 55 92 56 93 57 94
REMARK H PARENT 15 6 4 18 22 31 78 50 48 61
REMARK Flexibility Score: inf
ROOT
ATOM      1  C   UNL A   1      48.389  25.094  26.801  1.00  0.00     0.021 C 
ENDROOT
BRANCH   1   2
ATOM      2  C   UNL A   1      47.417  24.700  27.916  1.00  0.00     0.116 C 
BRANCH   2   3
ATOM      3  N   UNL A   1      46.283  23.991  27.352  1.00  0.00    -0.352 N 
ATOM      4  C   UNL A   1      44.947  24.292  27.296  1.00  0.00     0.251 C 
ATOM      5  O   UNL A   1      44.195  23.482  26.755  1.00  0.00    -0.269 OA
ATOM      6  H   UNL A   1      46.518  23.133  26.932  1.00  0.00     0.163 HD
BRANCH   4   7
ATOM      7  C   UNL A   1      44.388  25.577  27.797  1.00  0.00     0.039 A 
ATOM      8  C   UNL A   1      43.107  27.914  28.772  1.00  0.00    -0.032 A 
ATOM      9  C   UNL A   1      43.002  26.689  29.455  1.00  0.00     0.005 A 
ATOM     10  C   UNL A   1      43.880  27.941  27.610  1.00  0.00     0.005 A 
ATOM     11  C   UNL A   1      43.623  25.535  28.967  1.00  0.00     0.014 A 
ATOM     12  C   UNL A   1      44.568  26.808  27.172  1.00  0.00     0.014 A 
BRANCH   8  13
ATOM     13  C   UNL A   1      42.323  29.087  29.312  1.00  0.00     0.189 C 
BRANCH  13  14
ATOM     14  S   UNL A   1      40.668  28.727  29.917  1.00  0.00     0.215 S 
ATOM     15  O   UNL A   1      40.763  28.329  31.304  1.00  0.00    -0.212 OA
ATOM     16  O   UNL A   1      39.985  27.885  28.955  1.00  0.00    -0.212 OA
BRANCH  14  17
ATOM     17  N   UNL A   1      39.848  30.197  29.884  1.00  0.00    -0.214 NA
ATOM     18  H   UNL A   1      40.538  30.925  29.697  1.00  0.00     0.141 HD
BRANCH  17  19
ATOM     19  C   UNL A   1      39.104  30.597  31.088  1.00  0.00     0.110 C 
BRANCH  19  20
ATOM     20  C   UNL A   1      37.596  30.677  30.832  1.00  0.00     0.028 C 
ATOM     21  C   UNL A   1      36.827  31.505  31.852  1.00  0.00     0.018 C 
ATOM     22  C   UNL A   1      36.997  29.279  30.580  1.00  0.00     0.170 C 
ATOM     23  C   UNL A   1      37.215  30.917  29.357  1.00  0.00     0.170 C 
ATOM     24  O   UNL A   1      37.054  29.490  29.145  1.00  0.00    -0.380 OA
ENDBRANCH  19  20
ENDBRANCH  17  19
ENDBRANCH  14  17
ENDBRANCH  13  14
ENDBRANCH   8  13
ENDBRANCH   4   7
ENDBRANCH   2   3
ENDBRANCH   1   2
BRANCH   1  25
ATOM     25  C   UNL A   1      49.819  25.302  27.312  1.00  0.00     0.002 C 
BRANCH  25  26
ATOM     26  C   UNL A   1      50.894  25.219  26.222  1.00  0.00     0.002 C 
BRANCH  26  27
ATOM     27  C   UNL A   1      52.300  25.615  26.680  1.00  0.00     0.021 C 
BRANCH  27  28
ATOM     28  C   UNL A   1      52.411  27.055  27.168  1.00  0.00     0.116 C 
BRANCH  28  29
ATOM     29  N   UNL A   1      52.331  27.993  26.059  1.00  0.00    -0.352 N 
ATOM     30  C   UNL A   1      51.290  28.788  25.660  1.00  0.00     0.251 C 
ATOM     31  H   UNL A   1      53.147  28.068  25.514  1.00  0.00     0.163 HD
ATOM     32  O   UNL A   1      51.308  29.291  24.540  1.00  0.00    -0.269 OA
BRANCH  30  33
ATOM     33  C   UNL A   1      50.153  29.042  26.571  1.00  0.00     0.039 A 
ATOM     34  C   UNL A   1      48.884  28.599  26.198  1.00  0.00     0.014 A 
ATOM     35  C   UNL A   1      50.324  29.755  27.763  1.00  0.00     0.014 A 
ATOM     36  C   UNL A   1      47.794  28.845  27.033  1.00  0.00     0.010 A 
ATOM     37  C   UNL A   1      49.252  29.925  28.634  1.00  0.00     0.010 A 
ATOM     38  C   UNL A   1      47.972  29.490  28.270  1.00  0.00    -0.014 A 
BRANCH  38  39
ATOM     39  C   UNL A   1      46.815  29.702  29.176  1.00  0.00     0.031 A 
ATOM     40  C   UNL A   1      46.432  28.660  30.193  1.00  0.00     0.074 A 
ATOM     41  C   UNL A   1      46.103  30.842  29.074  1.00  0.00     0.049 A 
ATOM     42  N   UNL A   1      45.496  28.708  31.107  1.00  0.00    -0.248 NA
ATOM     43  C   UNL A   1      47.180  27.392  30.172  1.00  0.00     0.031 C 
ATOM     44  C   UNL A   1      46.343  31.903  28.091  1.00  0.00     0.029 A 
ATOM     45  N   UNL A   1      45.044  31.308  29.811  1.00  0.00    -0.354 N 
ATOM     46  C   UNL A   1      45.541  27.483  31.763  1.00  0.00     0.074 A 
ATOM     47  C   UNL A   1      46.553  26.689  31.103  1.00  0.00     0.031 C 
ATOM     48  C   UNL A   1      45.494  32.916  28.321  1.00  0.00     0.029 A 
ATOM     49  C   UNL A   1      44.624  32.562  29.438  1.00  0.00     0.049 A 
ATOM     50  H   UNL A   1      44.626  30.793  30.540  1.00  0.00     0.167 HD
ATOM     51  C   UNL A   1      44.821  27.065  32.831  1.00  0.00     0.031 A 
ATOM     52  C   UNL A   1      43.651  33.347  29.941  1.00  0.00     0.031 A 
ATOM     53  C   UNL A   1      43.812  27.861  33.482  1.00  0.00     0.049 A 
ATOM     54  C   UNL A   1      42.865  32.860  31.126  1.00  0.00     0.074 A 
ATOM     55  C   UNL A   1      43.060  27.551  34.602  1.00  0.00     0.029 A 
ATOM     56  N   UNL A   1      43.407  29.122  33.068  1.00  0.00    -0.354 N 
ATOM     57  N   UNL A   1      42.975  31.728  31.782  1.00  0.00    -0.248 NA
ATOM     58  C   UNL A   1      41.837  33.765  31.653  1.00  0.00     0.031 C 
ATOM     59  C   UNL A   1      42.158  28.595  34.826  1.00  0.00     0.029 A 
ATOM     60  C   UNL A   1      42.398  29.590  33.893  1.00  0.00     0.049 A 
ATOM     61  H   UNL A   1      43.782  29.611  32.300  1.00  0.00     0.167 HD
ATOM     62  C   UNL A   1      42.049  31.798  32.816  1.00  0.00     0.074 A 
ATOM     63  C   UNL A   1      41.407  33.093  32.711  1.00  0.00     0.031 C 
ATOM     64  C   UNL A   1      41.758  30.877  33.768  1.00  0.00     0.031 A 
BRANCH  51  65
ATOM     65  C   UNL A   1      45.093  25.678  33.361  1.00  0.00    -0.014 A 
ATOM     66  C   UNL A   1      46.048  25.457  34.372  1.00  0.00     0.010 A 
ATOM     67  C   UNL A   1      44.352  24.586  32.874  1.00  0.00     0.010 A 
ATOM     68  C   UNL A   1      46.285  24.167  34.854  1.00  0.00     0.020 A 
ATOM     69  C   UNL A   1      44.564  23.298  33.378  1.00  0.00     0.020 A 
ATOM     70  C   UNL A   1      45.541  23.096  34.354  1.00  0.00     0.054 A 
BRANCH  70  71
ATOM     71  S   UNL A   1      45.853  21.437  35.019  1.00  0.00     0.124 S 
ATOM     72  O   UNL A   1      47.062  21.047  34.298  1.00  0.00    -0.237 OA
ATOM     73  O   UNL A   1      46.027  21.692  36.446  1.00  0.00    -0.237 OA
ATOM     74  O   UNL A   1      44.649  20.688  34.664  1.00  0.00    -0.744 OA
ENDBRANCH  70  71
ENDBRANCH  51  65
BRANCH  52  75
ATOM     75  C   UNL A   1      43.389  34.683  29.339  1.00  0.00    -0.014 A 
ATOM     76  C   UNL A   1      43.907  35.851  29.925  1.00  0.00     0.010 A 
ATOM     77  C   UNL A   1      42.624  34.791  28.162  1.00  0.00     0.010 A 
ATOM     78  C   UNL A   1      43.648  37.104  29.359  1.00  0.00     0.020 A 
ATOM     79  C   UNL A   1      42.391  36.038  27.575  1.00  0.00     0.020 A 
ATOM     80  C   UNL A   1      42.894  37.188  28.185  1.00  0.00     0.054 A 
BRANCH  80  81
ATOM     81  S   UNL A   1      42.610  38.818  27.443  1.00  0.00     0.124 S 
ATOM     82  O   UNL A   1      43.858  39.045  26.721  1.00  0.00    -0.237 OA
ATOM     83  O   UNL A   1      41.431  38.585  26.612  1.00  0.00    -0.237 OA
ATOM     84  O   UNL A   1      42.387  39.686  28.597  1.00  0.00    -0.744 OA
ENDBRANCH  80  81
ENDBRANCH  52  75
BRANCH  64  85
ATOM     85  C   UNL A   1      40.721  31.255  34.796  1.00  0.00    -0.014 A 
ATOM     86  C   UNL A   1      39.382  30.841  34.676  1.00  0.00     0.010 A 
ATOM     87  C   UNL A   1      41.101  32.026  35.909  1.00  0.00     0.010 A 
ATOM     88  C   UNL A   1      38.432  31.241  35.620  1.00  0.00     0.020 A 
ATOM     89  C   UNL A   1      40.162  32.397  36.874  1.00  0.00     0.020 A 
ATOM     90  C   UNL A   1      38.827  32.023  36.710  1.00  0.00     0.054 A 
BRANCH  90  91
ATOM     91  S   UNL A   1      37.577  32.526  37.922  1.00  0.00     0.124 S 
ATOM     92  O   UNL A   1      37.121  31.239  38.439  1.00  0.00    -0.237 OA
ATOM     93  O   UNL A   1      38.347  33.342  38.858  1.00  0.00    -0.237 OA
ATOM     94  O   UNL A   1      36.596  33.259  37.125  1.00  0.00    -0.744 OA
ENDBRANCH  90  91
ENDBRANCH  64  85
ENDBRANCH  38  39
ENDBRANCH  30  33
ENDBRANCH  28  29
ENDBRANCH  27  28
ENDBRANCH  26  27
ENDBRANCH  25  26
ENDBRANCH   1  25
TORSDOF 21
ENDMDL
MODEL 2
REMARK VINA RESULT:      -6.7      4.444      9.798
REMARK SMILES CC1(CNS(=O)(=O)Cc2ccc(C(=O)NCCCCCCNC(=O)c3ccc(-c4c5nc(c(-c6ccc(S(=O)(=O)[O-])cc6)c6ccc([nH]6)c(-c6ccc(S(=O)(=O)[O-])cc6)c6nc(c(-c7ccc(S(=O)(=O)[O-])cc7)c7ccc4[nH]7)C=C6)C=C5)cc3)cc2)COC1
REMARK SMILES IDX 17 1 16 2 15 3 13 4 14 5 12 7 9 8 10 9 86 10 11 11 85 12
REMARK SMILES IDX 8 13 5 14 6 15 7 16 4 17 3 19 2 20 1 21 87 22 89 23 88 24
REMARK SMILES IDX 18 25 19 26 20 27 21 28 22 29 23 30 24 32 25 33 26 34 84 35
REMARK SMILES IDX 27 36 83 37 28 38 29 39 30 40 77 41 31 42 82 43 76 44 78 45
REMARK SMILES IDX 32 46 81 47 75 48 74 49 33 51 63 52 44 53 62 54 45 55 48 56
REMARK SMILES IDX 61 57 79 58 46 59 47 60 60 62 80 63 49 64 34 65 35 66 43 67
REMARK SMILES IDX 36 68 42 69 37 70 38 71 39 72 40 73 41 74 64 75 65 76 73 77
REMARK SMILES IDX 66 78 72 79 67 80 68 81 69 82 70 83 71 84 50 85 51 86 59 87
REMARK SMILES IDX 52 88 58 89 53 90 54 91 55 92 56 93 57 94
REMARK H PARENT 15 6 4 18 22 31 78 50 48 61
REMARK Flexibility Score: inf
ROOT
ATOM      1  C   UNL A   1      42.082  19.081  25.993  1.00  0.00     0.021 C 
ENDROOT
BRANCH   1   2
ATOM      2  C   UNL A   1      43.532  18.658  26.246  1.00  0.00     0.116 C 
BRANCH   2   3
ATOM      3  N   UNL A   1      44.224  18.492  24.981  1.00  0.00    -0.352 N 
ATOM      4  C   UNL A   1      44.864  19.385  24.160  1.00  0.00     0.251 C 
ATOM      5  O   UNL A   1      45.362  18.957  23.119  1.00  0.00    -0.269 OA
ATOM      6  H   UNL A   1      44.234  17.566  24.650  1.00  0.00     0.163 HD
BRANCH   4   7
ATOM      7  C   UNL A   1      45.039  20.820  24.510  1.00  0.00     0.039 A 
ATOM      8  C   UNL A   1      45.386  23.604  24.938  1.00  0.00    -0.032 A 
ATOM      9  C   UNL A   1      44.406  23.122  24.054  1.00  0.00     0.005 A 
ATOM     10  C   UNL A   1      46.167  22.663  25.612  1.00  0.00     0.005 A 
ATOM     11  C   UNL A   1      44.243  21.751  23.834  1.00  0.00     0.014 A 
ATOM     12  C   UNL A   1      45.946  21.294  25.455  1.00  0.00     0.014 A 
BRANCH   8  13
ATOM     13  C   UNL A   1      45.562  25.101  25.042  1.00  0.00     0.189 C 
BRANCH  13  14
ATOM     14  S   UNL A   1      45.420  25.807  26.690  1.00  0.00     0.215 S 
ATOM     15  O   UNL A   1      46.579  25.416  27.459  1.00  0.00    -0.212 OA
ATOM     16  O   UNL A   1      44.084  25.561  27.196  1.00  0.00    -0.212 OA
BRANCH  14  17
ATOM     17  N   UNL A   1      45.514  27.474  26.474  1.00  0.00    -0.214 NA
ATOM     18  H   UNL A   1      46.396  27.669  26.000  1.00  0.00     0.141 HD
BRANCH  17  19
ATOM     19  C   UNL A   1      45.463  28.326  27.671  1.00  0.00     0.110 C 
BRANCH  19  20
ATOM     20  C   UNL A   1      44.485  29.493  27.505  1.00  0.00     0.028 C 
ATOM     21  C   UNL A   1      43.381  29.250  26.485  1.00  0.00     0.018 C 
ATOM     22  C   UNL A   1      45.233  30.827  27.314  1.00  0.00     0.170 C 
ATOM     23  C   UNL A   1      44.033  30.136  28.833  1.00  0.00     0.170 C 
ATOM     24  O   UNL A   1      45.070  31.145  28.720  1.00  0.00    -0.380 OA
ENDBRANCH  19  20
ENDBRANCH  17  19
ENDBRANCH  14  17
ENDBRANCH  13  14
ENDBRANCH   8  13
ENDBRANCH   4   7
ENDBRANCH   2   3
ENDBRANCH   1   2
BRANCH   1  25
ATOM     25  C   UNL A   1      41.870  20.589  26.169  1.00  0.00     0.002 C 
BRANCH  25  26
ATOM     26  C   UNL A   1      41.833  21.051  27.631  1.00  0.00     0.002 C 
BRANCH  26  27
ATOM     27  C   UNL A   1      41.888  22.569  27.822  1.00  0.00     0.021 C 
BRANCH  27  28
ATOM     28  C   UNL A   1      41.705  23.364  26.533  1.00  0.00     0.116 C 
BRANCH  28  29
ATOM     29  N   UNL A   1      40.305  23.421  26.146  1.00  0.00    -0.352 N 
ATOM     30  C   UNL A   1      39.280  24.155  26.682  1.00  0.00     0.251 C 
ATOM     31  H   UNL A   1      40.056  22.848  25.386  1.00  0.00     0.163 HD
ATOM     32  O   UNL A   1      38.120  23.857  26.415  1.00  0.00    -0.269 OA
BRANCH  30  33
ATOM     33  C   UNL A   1      39.568  25.300  27.572  1.00  0.00     0.039 A 
ATOM     34  C   UNL A   1      38.969  25.336  28.832  1.00  0.00     0.014 A 
ATOM     35  C   UNL A   1      40.381  26.358  27.152  1.00  0.00     0.014 A 
ATOM     36  C   UNL A   1      39.211  26.416  29.681  1.00  0.00     0.010 A 
ATOM     37  C   UNL A   1      40.689  27.393  28.032  1.00  0.00     0.010 A 
ATOM     38  C   UNL A   1      40.092  27.443  29.297  1.00  0.00    -0.014 A 
BRANCH  38  39
ATOM     39  C   UNL A   1      40.384  28.564  30.226  1.00  0.00     0.031 A 
ATOM     40  C   UNL A   1      39.445  29.736  30.339  1.00  0.00     0.074 A 
ATOM     41  C   UNL A   1      41.510  28.525  30.968  1.00  0.00     0.049 A 
ATOM     42  N   UNL A   1      39.509  30.766  31.144  1.00  0.00    -0.248 NA
ATOM     43  C   UNL A   1      38.297  29.769  29.418  1.00  0.00     0.031 C 
ATOM     44  C   UNL A   1      42.525  27.469  30.906  1.00  0.00     0.029 A 
ATOM     45  N   UNL A   1      41.982  29.383  31.927  1.00  0.00    -0.354 N 
ATOM     46  C   UNL A   1      38.418  31.567  30.825  1.00  0.00     0.074 A 
ATOM     47  C   UNL A   1      37.744  30.936  29.713  1.00  0.00     0.031 C 
ATOM     48  C   UNL A   1      43.470  27.714  31.826  1.00  0.00     0.029 A 
ATOM     49  C   UNL A   1      43.153  28.962  32.512  1.00  0.00     0.049 A 
ATOM     50  H   UNL A   1      41.526  30.220  32.174  1.00  0.00     0.167 HD
ATOM     51  C   UNL A   1      38.003  32.711  31.419  1.00  0.00     0.031 A 
ATOM     52  C   UNL A   1      43.887  29.514  33.498  1.00  0.00     0.031 A 
ATOM     53  C   UNL A   1      38.681  33.335  32.525  1.00  0.00     0.049 A 
ATOM     54  C   UNL A   1      43.406  30.785  34.140  1.00  0.00     0.074 A 
ATOM     55  C   UNL A   1      38.316  34.468  33.232  1.00  0.00     0.029 A 
ATOM     56  N   UNL A   1      39.869  32.885  33.083  1.00  0.00    -0.354 N 
ATOM     57  N   UNL A   1      42.328  31.486  33.876  1.00  0.00    -0.248 NA
ATOM     58  C   UNL A   1      44.228  31.327  35.228  1.00  0.00     0.031 C 
ATOM     59  C   UNL A   1      39.314  34.738  34.173  1.00  0.00     0.029 A 
ATOM     60  C   UNL A   1      40.264  33.732  34.106  1.00  0.00     0.049 A 
ATOM     61  H   UNL A   1      40.359  32.081  32.795  1.00  0.00     0.167 HD
ATOM     62  C   UNL A   1      42.330  32.538  34.785  1.00  0.00     0.074 A 
ATOM     63  C   UNL A   1      43.502  32.364  35.619  1.00  0.00     0.031 C 
ATOM     64  C   UNL A   1      41.442  33.554  34.919  1.00  0.00     0.031 A 
BRANCH  51  65
ATOM     65  C   UNL A   1      36.757  33.369  30.877  1.00  0.00    -0.014 A 
ATOM     66  C   UNL A   1      35.623  33.566  31.689  1.00  0.00     0.010 A 
ATOM     67  C   UNL A   1      36.735  33.840  29.552  1.00  0.00     0.010 A 
ATOM     68  C   UNL A   1      34.479  34.180  31.173  1.00  0.00     0.020 A 
ATOM     69  C   UNL A   1      35.603  34.485  29.042  1.00  0.00     0.020 A 
ATOM     70  C   UNL A   1      34.476  34.636  29.852  1.00  0.00     0.054 A 
BRANCH  70  71
ATOM     71  S   UNL A   1      32.986  35.455  29.220  1.00  0.00     0.124 S 
ATOM     72  O   UNL A   1      32.146  35.515  30.413  1.00  0.00    -0.237 OA
ATOM     73  O   UNL A   1      33.501  36.737  28.749  1.00  0.00    -0.237 OA
ATOM     74  O   UNL A   1      32.513  34.553  28.171  1.00  0.00    -0.744 OA
ENDBRANCH  70  71
ENDBRANCH  51  65
BRANCH  52  75
ATOM     75  C   UNL A   1      45.140  28.848  33.951  1.00  0.00    -0.014 A 
ATOM     76  C   UNL A   1      45.117  27.898  34.987  1.00  0.00     0.010 A 
ATOM     77  C   UNL A   1      46.368  29.156  33.335  1.00  0.00     0.010 A 
ATOM     78  C   UNL A   1      46.299  27.285  35.414  1.00  0.00     0.020 A 
ATOM     79  C   UNL A   1      47.547  28.521  33.736  1.00  0.00     0.020 A 
ATOM     80  C   UNL A   1      47.506  27.599  34.783  1.00  0.00     0.054 A 
BRANCH  80  81
ATOM     81  S   UNL A   1      49.020  26.756  35.321  1.00  0.00     0.124 S 
ATOM     82  O   UNL A   1      48.534  25.932  36.422  1.00  0.00    -0.237 OA
ATOM     83  O   UNL A   1      49.422  26.033  34.117  1.00  0.00    -0.237 OA
ATOM     84  O   UNL A   1      49.906  27.854  35.703  1.00  0.00    -0.744 OA
ENDBRANCH  80  81
ENDBRANCH  52  75
BRANCH  64  85
ATOM     85  C   UNL A   1      41.686  34.538  36.036  1.00  0.00    -0.014 A 
ATOM     86  C   UNL A   1      41.125  34.356  37.313  1.00  0.00     0.010 A 
ATOM     87  C   UNL A   1      42.507  35.657  35.802  1.00  0.00     0.010 A 
ATOM     88  C   UNL A   1      41.332  35.306  38.316  1.00  0.00     0.020 A 
ATOM     89  C   UNL A   1      42.746  36.589  36.814  1.00  0.00     0.020 A 
ATOM     90  C   UNL A   1      42.137  36.420  38.059  1.00  0.00     0.054 A 
BRANCH  90  91
ATOM     91  S   UNL A   1      42.393  37.636  39.379  1.00  0.00     0.124 S 
ATOM     92  O   UNL A   1      41.046  38.166  39.568  1.00  0.00    -0.237 OA
ATOM     93  O   UNL A   1      42.906  36.817  40.474  1.00  0.00    -0.237 OA
ATOM     94  O   UNL A   1      43.356  38.574  38.806  1.00  0.00    -0.744 OA
ENDBRANCH  90  91
ENDBRANCH  64  85
ENDBRANCH  38  39
ENDBRANCH  30  33
ENDBRANCH  28  29
ENDBRANCH  27  28
ENDBRANCH  26  27
ENDBRANCH  25  26
ENDBRANCH   1  25
TORSDOF 21
ENDMDL
MODEL 3
REMARK VINA RESULT:      -6.6      6.228     12.398
REMARK SMILES CC1(CNS(=O)(=O)Cc2ccc(C(=O)NCCCCCCNC(=O)c3ccc(-c4c5nc(c(-c6ccc(S(=O)(=O)[O-])cc6)c6ccc([nH]6)c(-c6ccc(S(=O)(=O)[O-])cc6)c6nc(c(-c7ccc(S(=O)(=O)[O-])cc7)c7ccc4[nH]7)C=C6)C=C5)cc3)cc2)COC1
REMARK SMILES IDX 17 1 16 2 15 3 13 4 14 5 12 7 9 8 10 9 86 10 11 11 85 12
REMARK SMILES IDX 8 13 5 14 6 15 7 16 4 17 3 19 2 20 1 21 87 22 89 23 88 24
REMARK SMILES IDX 18 25 19 26 20 27 21 28 22 29 23 30 24 32 25 33 26 34 84 35
REMARK SMILES IDX 27 36 83 37 28 38 29 39 30 40 77 41 31 42 82 43 76 44 78 45
REMARK SMILES IDX 32 46 81 47 75 48 74 49 33 51 63 52 44 53 62 54 45 55 48 56
REMARK SMILES IDX 61 57 79 58 46 59 47 60 60 62 80 63 49 64 34 65 35 66 43 67
REMARK SMILES IDX 36 68 42 69 37 70 38 71 39 72 40 73 41 74 64 75 65 76 73 77
REMARK SMILES IDX 66 78 72 79 67 80 68 81 69 82 70 83 71 84 50 85 51 86 59 87
REMARK SMILES IDX 52 88 58 89 53 90 54 91 55 92 56 93 57 94
REMARK H PARENT 15 6 4 18 22 31 78 50 48 61
REMARK Flexibility Score: inf
ROOT
ATOM      1  C   UNL A   1      35.327  33.399  27.854  1.00  0.00     0.021 C 
ENDROOT
BRANCH   1   2
ATOM      2  C   UNL A   1      34.453  32.158  28.053  1.00  0.00     0.116 C 
BRANCH   2   3
ATOM      3  N   UNL A   1      35.294  30.998  28.291  1.00  0.00    -0.352 N 
ATOM      4  C   UNL A   1      35.215  29.702  27.852  1.00  0.00     0.251 C 
ATOM      5  O   UNL A   1      36.079  28.911  28.232  1.00  0.00    -0.269 OA
ATOM      6  H   UNL A   1      36.063  31.176  28.878  1.00  0.00     0.163 HD
BRANCH   4   7
ATOM      7  C   UNL A   1      34.179  29.237  26.891  1.00  0.00     0.039 A 
ATOM      8  C   UNL A   1      32.086  28.254  25.246  1.00  0.00    -0.032 A 
ATOM      9  C   UNL A   1      31.810  29.020  26.392  1.00  0.00     0.005 A 
ATOM     10  C   UNL A   1      33.426  28.011  24.938  1.00  0.00     0.005 A 
ATOM     11  C   UNL A   1      32.842  29.495  27.208  1.00  0.00     0.014 A 
ATOM     12  C   UNL A   1      34.455  28.557  25.707  1.00  0.00     0.014 A 
BRANCH   8  13
ATOM     13  C   UNL A   1      30.911  27.696  24.476  1.00  0.00     0.189 C 
BRANCH  13  14
ATOM     14  S   UNL A   1      30.130  26.231  25.168  1.00  0.00     0.215 S 
ATOM     15  O   UNL A   1      28.776  26.153  24.669  1.00  0.00    -0.212 OA
ATOM     16  O   UNL A   1      30.393  26.182  26.593  1.00  0.00    -0.212 OA
BRANCH  14  17
ATOM     17  N   UNL A   1      30.969  24.926  24.516  1.00  0.00    -0.214 NA
ATOM     18  H   UNL A   1      30.350  24.116  24.556  1.00  0.00     0.141 HD
BRANCH  17  19
ATOM     19  C   UNL A   1      32.238  24.538  25.150  1.00  0.00     0.110 C 
BRANCH  19  20
ATOM     20  C   UNL A   1      32.169  23.138  25.768  1.00  0.00     0.028 C 
ATOM     21  C   UNL A   1      33.037  22.098  25.072  1.00  0.00     0.018 C 
ATOM     22  C   UNL A   1      30.709  22.694  25.983  1.00  0.00     0.170 C 
ATOM     23  C   UNL A   1      32.220  23.121  27.309  1.00  0.00     0.170 C 
ATOM     24  O   UNL A   1      30.770  23.093  27.377  1.00  0.00    -0.380 OA
ENDBRANCH  19  20
ENDBRANCH  17  19
ENDBRANCH  14  17
ENDBRANCH  13  14
ENDBRANCH   8  13
ENDBRANCH   4   7
ENDBRANCH   2   3
ENDBRANCH   1   2
BRANCH   1  25
ATOM     25  C   UNL A   1      34.958  34.539  28.810  1.00  0.00     0.002 C 
BRANCH  25  26
ATOM     26  C   UNL A   1      33.517  35.039  28.662  1.00  0.00     0.002 C 
BRANCH  26  27
ATOM     27  C   UNL A   1      33.320  36.523  28.988  1.00  0.00     0.021 C 
BRANCH  27  28
ATOM     28  C   UNL A   1      33.637  36.889  30.433  1.00  0.00     0.116 C 
BRANCH  28  29
ATOM     29  N   UNL A   1      32.607  36.403  31.336  1.00  0.00    -0.352 N 
ATOM     30  C   UNL A   1      32.641  35.354  32.217  1.00  0.00     0.251 C 
ATOM     31  H   UNL A   1      31.759  36.901  31.311  1.00  0.00     0.163 HD
ATOM     32  O   UNL A   1      31.591  34.918  32.678  1.00  0.00    -0.269 OA
BRANCH  30  33
ATOM     33  C   UNL A   1      33.933  34.755  32.614  1.00  0.00     0.039 A 
ATOM     34  C   UNL A   1      33.932  33.488  33.199  1.00  0.00     0.014 A 
ATOM     35  C   UNL A   1      35.135  35.454  32.457  1.00  0.00     0.014 A 
ATOM     36  C   UNL A   1      35.137  32.911  33.598  1.00  0.00     0.010 A 
ATOM     37  C   UNL A   1      36.345  34.842  32.779  1.00  0.00     0.010 A 
ATOM     38  C   UNL A   1      36.357  33.573  33.371  1.00  0.00    -0.014 A 
BRANCH  38  39
ATOM     39  C   UNL A   1      37.640  32.931  33.752  1.00  0.00     0.031 A 
ATOM     40  C   UNL A   1      38.369  33.350  35.001  1.00  0.00     0.074 A 
ATOM     41  C   UNL A   1      38.153  31.968  32.960  1.00  0.00     0.049 A 
ATOM     42  N   UNL A   1      39.463  32.852  35.521  1.00  0.00    -0.248 NA
ATOM     43  C   UNL A   1      37.814  34.485  35.756  1.00  0.00     0.031 C 
ATOM     44  C   UNL A   1      37.566  31.514  31.696  1.00  0.00     0.029 A 
ATOM     45  N   UNL A   1      39.270  31.186  33.106  1.00  0.00    -0.354 N 
ATOM     46  C   UNL A   1      39.727  33.612  36.654  1.00  0.00     0.074 A 
ATOM     47  C   UNL A   1      38.715  34.643  36.715  1.00  0.00     0.031 C 
ATOM     48  C   UNL A   1      38.298  30.500  31.211  1.00  0.00     0.029 A 
ATOM     49  C   UNL A   1      39.426  30.258  32.104  1.00  0.00     0.049 A 
ATOM     50  H   UNL A   1      39.900  31.280  33.857  1.00  0.00     0.167 HD
ATOM     51  C   UNL A   1      40.708  33.452  37.574  1.00  0.00     0.031 A 
ATOM     52  C   UNL A   1      40.368  29.311  31.925  1.00  0.00     0.031 A 
ATOM     53  C   UNL A   1      41.714  32.425  37.507  1.00  0.00     0.049 A 
ATOM     54  C   UNL A   1      41.448  29.155  32.960  1.00  0.00     0.074 A 
ATOM     55  C   UNL A   1      42.723  32.145  38.413  1.00  0.00     0.029 A 
ATOM     56  N   UNL A   1      41.845  31.510  36.471  1.00  0.00    -0.354 N 
ATOM     57  N   UNL A   1      41.634  29.835  34.067  1.00  0.00    -0.248 NA
ATOM     58  C   UNL A   1      42.431  28.090  32.731  1.00  0.00     0.031 C 
ATOM     59  C   UNL A   1      43.500  31.105  37.895  1.00  0.00     0.029 A 
ATOM     60  C   UNL A   1      42.934  30.685  36.703  1.00  0.00     0.049 A 
ATOM     61  H   UNL A   1      41.252  31.456  35.687  1.00  0.00     0.167 HD
ATOM     62  C   UNL A   1      42.741  29.260  34.681  1.00  0.00     0.074 A 
ATOM     63  C   UNL A   1      43.164  28.163  33.833  1.00  0.00     0.031 C 
ATOM     64  C   UNL A   1      43.351  29.605  35.842  1.00  0.00     0.031 A 
BRANCH  51  65
ATOM     65  C   UNL A   1      40.746  34.419  38.733  1.00  0.00    -0.014 A 
ATOM     66  C   UNL A   1      40.068  34.145  39.936  1.00  0.00     0.010 A 
ATOM     67  C   UNL A   1      41.509  35.598  38.635  1.00  0.00     0.010 A 
ATOM     68  C   UNL A   1      40.117  35.048  41.000  1.00  0.00     0.020 A 
ATOM     69  C   UNL A   1      41.586  36.489  39.711  1.00  0.00     0.020 A 
ATOM     70  C   UNL A   1      40.876  36.215  40.881  1.00  0.00     0.054 A 
BRANCH  70  71
ATOM     71  S   UNL A   1      40.942  37.356  42.290  1.00  0.00     0.124 S 
ATOM     72  O   UNL A   1      41.756  38.445  41.757  1.00  0.00    -0.237 OA
ATOM     73  O   UNL A   1      39.534  37.674  42.510  1.00  0.00    -0.237 OA
ATOM     74  O   UNL A   1      41.573  36.568  43.347  1.00  0.00    -0.744 OA
ENDBRANCH  70  71
ENDBRANCH  51  65
BRANCH  52  75
ATOM     75  C   UNL A   1      40.311  28.424  30.731  1.00  0.00    -0.014 A 
ATOM     76  C   UNL A   1      39.346  27.406  30.634  1.00  0.00     0.010 A 
ATOM     77  C   UNL A   1      41.221  28.603  29.672  1.00  0.00     0.010 A 
ATOM     78  C   UNL A   1      39.305  26.571  29.514  1.00  0.00     0.020 A 
ATOM     79  C   UNL A   1      41.163  27.791  28.536  1.00  0.00     0.020 A 
ATOM     80  C   UNL A   1      40.213  26.771  28.470  1.00  0.00     0.054 A 
BRANCH  80  81
ATOM     81  S   UNL A   1      40.112  25.706  27.006  1.00  0.00     0.124 S 
ATOM     82  O   UNL A   1      38.684  25.413  26.942  1.00  0.00    -0.237 OA
ATOM     83  O   UNL A   1      40.629  26.573  25.950  1.00  0.00    -0.237 OA
ATOM     84  O   UNL A   1      40.970  24.573  27.346  1.00  0.00    -0.744 OA
ENDBRANCH  80  81
ENDBRANCH  52  75
BRANCH  64  85
ATOM     85  C   UNL A   1      44.522  28.762  36.281  1.00  0.00    -0.014 A 
ATOM     86  C   UNL A   1      45.842  29.094  35.926  1.00  0.00     0.010 A 
ATOM     87  C   UNL A   1      44.294  27.624  37.077  1.00  0.00     0.010 A 
ATOM     88  C   UNL A   1      46.904  28.272  36.309  1.00  0.00     0.020 A 
ATOM     89  C   UNL A   1      45.357  26.820  37.493  1.00  0.00     0.020 A 
ATOM     90  C   UNL A   1      46.654  27.136  37.086  1.00  0.00     0.054 A 
BRANCH  90  91
ATOM     91  S   UNL A   1      48.050  26.087  37.573  1.00  0.00     0.124 S 
ATOM     92  O   UNL A   1      47.654  24.788  37.039  1.00  0.00    -0.237 OA
ATOM     93  O   UNL A   1      49.180  26.725  36.902  1.00  0.00    -0.237 OA
ATOM     94  O   UNL A   1      48.065  26.183  39.031  1.00  0.00    -0.744 OA
ENDBRANCH  90  91
ENDBRANCH  64  85
ENDBRANCH  38  39
ENDBRANCH  30  33
ENDBRANCH  28  29
ENDBRANCH  27  28
ENDBRANCH  26  27
ENDBRANCH  25  26
ENDBRANCH   1  25
TORSDOF 21
ENDMDL
