MODEL 1
REMARK VINA RESULT:     -11.4      0.000      0.000
REMARK SMILES C[C@@H](C(=O)NCCCCCCNC(=O)c1ccc(-c2c3nc(c(-c4ccc(S(=O)(=O)[O-])cc4)c4ccc([nH]4)c(-c4ccc(S(=O)(=O)[O-])cc4)c4nc(c(-c5ccc(S(=O)(=O)[O-])cc5)c5ccc2[nH]5)C=C4)C=C3)cc1)c1ccc(-c2ccc3[nH]ccc3c2)cc1
REMARK SMILES IDX 9 1 8 2 7 3 6 4 5 5 3 6 4 7 2 9 1 10 75 11 76 12 89 13 77 14
REMARK SMILES IDX 88 15 78 16 79 17 80 18 87 19 81 20 86 21 82 22 85 23 83 24
REMARK SMILES IDX 84 25 10 27 11 28 12 29 13 30 14 32 15 33 16 34 74 35 17 36
REMARK SMILES IDX 73 37 18 38 19 39 20 40 67 41 21 42 72 43 66 44 68 45 22 46
REMARK SMILES IDX 71 47 65 48 64 49 23 51 53 52 34 53 52 54 35 55 38 56 51 57
REMARK SMILES IDX 69 58 36 59 37 60 50 62 70 63 39 64 24 65 25 66 33 67 26 68
REMARK SMILES IDX 32 69 27 70 28 71 29 72 30 73 31 74 54 75 55 76 63 77 56 78
REMARK SMILES IDX 62 79 57 80 58 81 59 82 60 83 61 84 40 85 41 86 49 87 42 88
REMARK SMILES IDX 48 89 43 90 44 91 45 92 46 93 47 94
REMARK H PARENT 5 8 83 26 12 31 68 50 38 61
REMARK Flexibility Score: inf
ROOT
ATOM      1  C   UNL A   1      34.166  23.690  26.318  1.00  0.00     0.002 C 
ENDROOT
BRANCH   1   2
ATOM      2  C   UNL A   1      33.232  24.826  25.895  1.00  0.00     0.002 C 
BRANCH   2   3
ATOM      3  C   UNL A   1      33.912  26.192  25.723  1.00  0.00     0.021 C 
BRANCH   3   4
ATOM      4  C   UNL A   1      33.013  27.257  25.089  1.00  0.00     0.116 C 
BRANCH   4   5
ATOM      5  N   UNL A   1      33.596  27.733  23.854  1.00  0.00    -0.356 N 
ATOM      6  C   UNL A   1      33.247  27.470  22.563  1.00  0.00     0.227 C 
ATOM      7  O   UNL A   1      34.026  27.871  21.696  1.00  0.00    -0.274 OA
ATOM      8  H   UNL A   1      34.363  28.340  23.962  1.00  0.00     0.163 HD
BRANCH   6   9
ATOM      9  C   UNL A   1      31.918  26.755  22.257  1.00  0.00     0.105 C 
ATOM     10  C   UNL A   1      30.727  27.312  23.041  1.00  0.00     0.023 C 
BRANCH   9  11
ATOM     11  C   UNL A   1      32.003  25.252  22.501  1.00  0.00    -0.036 A 
ATOM     12  C   UNL A   1      33.117  24.525  22.063  1.00  0.00     0.005 A 
ATOM     13  C   UNL A   1      30.962  24.570  23.150  1.00  0.00     0.005 A 
ATOM     14  C   UNL A   1      33.191  23.148  22.285  1.00  0.00     0.009 A 
ATOM     15  C   UNL A   1      31.039  23.196  23.371  1.00  0.00     0.009 A 
ATOM     16  C   UNL A   1      32.156  22.471  22.946  1.00  0.00    -0.018 A 
BRANCH  16  17
ATOM     17  C   UNL A   1      32.251  21.036  23.213  1.00  0.00    -0.018 A 
ATOM     18  C   UNL A   1      32.114  20.116  22.165  1.00  0.00     0.011 A 
ATOM     19  C   UNL A   1      32.490  20.569  24.517  1.00  0.00     0.019 A 
ATOM     20  C   UNL A   1      32.216  18.738  22.377  1.00  0.00     0.027 A 
ATOM     21  C   UNL A   1      32.577  19.185  24.760  1.00  0.00    -0.000 A 
ATOM     22  C   UNL A   1      32.446  18.306  23.686  1.00  0.00     0.045 A 
ATOM     23  C   UNL A   1      32.774  18.396  25.926  1.00  0.00     0.028 A 
ATOM     24  N   UNL A   1      32.587  17.032  24.188  1.00  0.00    -0.361 N 
ATOM     25  C   UNL A   1      32.767  17.075  25.546  1.00  0.00     0.083 A 
ATOM     26  H   UNL A   1      32.562  16.208  23.649  1.00  0.00     0.166 HD
ENDBRANCH  16  17
ENDBRANCH   9  11
ENDBRANCH   6   9
ENDBRANCH   4   5
ENDBRANCH   3   4
ENDBRANCH   2   3
ENDBRANCH   1   2
BRANCH   1  27
ATOM     27  C   UNL A   1      35.210  23.294  25.270  1.00  0.00     0.021 C 
BRANCH  27  28
ATOM     28  C   UNL A   1      36.590  23.898  25.497  1.00  0.00     0.116 C 
BRANCH  28  29
ATOM     29  N   UNL A   1      37.613  22.875  25.628  1.00  0.00    -0.352 N 
ATOM     30  C   UNL A   1      38.886  22.984  26.129  1.00  0.00     0.251 C 
ATOM     31  H   UNL A   1      37.358  21.979  25.312  1.00  0.00     0.163 HD
ATOM     32  O   UNL A   1      39.685  22.066  25.968  1.00  0.00    -0.269 OA
BRANCH  30  33
ATOM     33  C   UNL A   1      39.294  24.209  26.851  1.00  0.00     0.039 A 
ATOM     34  C   UNL A   1      40.072  25.157  26.182  1.00  0.00     0.014 A 
ATOM     35  C   UNL A   1      38.944  24.408  28.190  1.00  0.00     0.014 A 
ATOM     36  C   UNL A   1      40.475  26.318  26.849  1.00  0.00     0.010 A 
ATOM     37  C   UNL A   1      39.279  25.599  28.827  1.00  0.00     0.010 A 
ATOM     38  C   UNL A   1      40.070  26.555  28.172  1.00  0.00    -0.014 A 
BRANCH  38  39
ATOM     39  C   UNL A   1      40.505  27.776  28.898  1.00  0.00     0.031 A 
ATOM     40  C   UNL A   1      41.886  27.842  29.498  1.00  0.00     0.074 A 
ATOM     41  C   UNL A   1      39.652  28.807  29.049  1.00  0.00     0.049 A 
ATOM     42  N   UNL A   1      42.446  28.811  30.175  1.00  0.00    -0.248 NA
ATOM     43  C   UNL A   1      42.740  26.652  29.340  1.00  0.00     0.031 C 
ATOM     44  C   UNL A   1      38.276  28.849  28.549  1.00  0.00     0.029 A 
ATOM     45  N   UNL A   1      39.818  30.022  29.666  1.00  0.00    -0.354 N 
ATOM     46  C   UNL A   1      43.703  28.342  30.541  1.00  0.00     0.074 A 
ATOM     47  C   UNL A   1      43.804  26.983  30.056  1.00  0.00     0.031 C 
ATOM     48  C   UNL A   1      37.737  30.044  28.844  1.00  0.00     0.029 A 
ATOM     49  C   UNL A   1      38.714  30.838  29.584  1.00  0.00     0.049 A 
ATOM     50  H   UNL A   1      40.649  30.284  30.123  1.00  0.00     0.167 HD
ATOM     51  C   UNL A   1      44.692  28.988  31.203  1.00  0.00     0.031 A 
ATOM     52  C   UNL A   1      38.513  32.086  30.048  1.00  0.00     0.031 A 
ATOM     53  C   UNL A   1      44.596  30.348  31.662  1.00  0.00     0.049 A 
ATOM     54  C   UNL A   1      39.631  32.788  30.770  1.00  0.00     0.074 A 
ATOM     55  C   UNL A   1      45.566  31.117  32.282  1.00  0.00     0.029 A 
ATOM     56  N   UNL A   1      43.465  31.142  31.552  1.00  0.00    -0.354 N 
ATOM     57  N   UNL A   1      40.837  32.352  31.045  1.00  0.00    -0.248 NA
ATOM     58  C   UNL A   1      39.364  34.158  31.228  1.00  0.00     0.031 C 
ATOM     59  C   UNL A   1      45.002  32.359  32.595  1.00  0.00     0.029 A 
ATOM     60  C   UNL A   1      43.703  32.385  32.113  1.00  0.00     0.049 A 
ATOM     61  H   UNL A   1      42.617  30.863  31.137  1.00  0.00     0.167 HD
ATOM     62  C   UNL A   1      41.487  33.409  31.676  1.00  0.00     0.074 A 
ATOM     63  C   UNL A   1      40.541  34.505  31.733  1.00  0.00     0.031 C 
ATOM     64  C   UNL A   1      42.752  33.468  32.159  1.00  0.00     0.031 A 
BRANCH  51  65
ATOM     65  C   UNL A   1      45.963  28.225  31.477  1.00  0.00    -0.014 A 
ATOM     66  C   UNL A   1      46.121  27.464  32.651  1.00  0.00     0.010 A 
ATOM     67  C   UNL A   1      47.006  28.248  30.534  1.00  0.00     0.010 A 
ATOM     68  C   UNL A   1      47.314  26.781  32.896  1.00  0.00     0.020 A 
ATOM     69  C   UNL A   1      48.190  27.540  30.761  1.00  0.00     0.020 A 
ATOM     70  C   UNL A   1      48.344  26.827  31.952  1.00  0.00     0.054 A 
BRANCH  70  71
ATOM     71  S   UNL A   1      49.877  25.921  32.291  1.00  0.00     0.124 S 
ATOM     72  O   UNL A   1      50.565  26.826  33.208  1.00  0.00    -0.237 OA
ATOM     73  O   UNL A   1      49.392  24.678  32.883  1.00  0.00    -0.237 OA
ATOM     74  O   UNL A   1      50.497  25.781  30.975  1.00  0.00    -0.744 OA
ENDBRANCH  70  71
ENDBRANCH  51  65
BRANCH  52  75
ATOM     75  C   UNL A   1      37.212  32.769  29.807  1.00  0.00    -0.014 A 
ATOM     76  C   UNL A   1      37.033  33.576  28.669  1.00  0.00     0.010 A 
ATOM     77  C   UNL A   1      36.144  32.610  30.708  1.00  0.00     0.010 A 
ATOM     78  C   UNL A   1      35.817  34.229  28.448  1.00  0.00     0.020 A 
ATOM     79  C   UNL A   1      34.917  33.239  30.474  1.00  0.00     0.020 A 
ATOM     80  C   UNL A   1      34.766  34.054  29.351  1.00  0.00     0.054 A 
BRANCH  80  81
ATOM     81  S   UNL A   1      33.180  34.873  29.018  1.00  0.00     0.124 S 
ATOM     82  O   UNL A   1      32.572  33.970  28.046  1.00  0.00    -0.237 OA
ATOM     83  O   UNL A   1      32.555  34.898  30.338  1.00  0.00    -0.237 OA
ATOM     84  O   UNL A   1      33.575  36.181  28.499  1.00  0.00    -0.744 OA
ENDBRANCH  80  81
ENDBRANCH  52  75
BRANCH  64  85
ATOM     85  C   UNL A   1      43.207  34.776  32.749  1.00  0.00    -0.014 A 
ATOM     86  C   UNL A   1      43.077  35.048  34.122  1.00  0.00     0.010 A 
ATOM     87  C   UNL A   1      43.814  35.733  31.914  1.00  0.00     0.010 A 
ATOM     88  C   UNL A   1      43.507  36.272  34.642  1.00  0.00     0.020 A 
ATOM     89  C   UNL A   1      44.273  36.944  32.436  1.00  0.00     0.020 A 
ATOM     90  C   UNL A   1      44.099  37.214  33.794  1.00  0.00     0.054 A 
BRANCH  90  91
ATOM     91  S   UNL A   1      44.675  38.784  34.498  1.00  0.00     0.124 S 
ATOM     92  O   UNL A   1      43.538  39.664  34.244  1.00  0.00    -0.237 OA
ATOM     93  O   UNL A   1      44.905  38.443  35.899  1.00  0.00    -0.237 OA
ATOM     94  O   UNL A   1      45.881  39.086  33.730  1.00  0.00    -0.744 OA
ENDBRANCH  90  91
ENDBRANCH  64  85
ENDBRANCH  38  39
ENDBRANCH  30  33
ENDBRANCH  28  29
ENDBRANCH  27  28
ENDBRANCH   1  27
TORSDOF 18
ENDMDL
MODEL 2
REMARK VINA RESULT:     -11.0      4.056      8.641
REMARK SMILES C[C@@H](C(=O)NCCCCCCNC(=O)c1ccc(-c2c3nc(c(-c4ccc(S(=O)(=O)[O-])cc4)c4ccc([nH]4)c(-c4ccc(S(=O)(=O)[O-])cc4)c4nc(c(-c5ccc(S(=O)(=O)[O-])cc5)c5ccc2[nH]5)C=C4)C=C3)cc1)c1ccc(-c2ccc3[nH]ccc3c2)cc1
REMARK SMILES IDX 9 1 8 2 7 3 6 4 5 5 3 6 4 7 2 9 1 10 75 11 76 12 89 13 77 14
REMARK SMILES IDX 88 15 78 16 79 17 80 18 87 19 81 20 86 21 82 22 85 23 83 24
REMARK SMILES IDX 84 25 10 27 11 28 12 29 13 30 14 32 15 33 16 34 74 35 17 36
REMARK SMILES IDX 73 37 18 38 19 39 20 40 67 41 21 42 72 43 66 44 68 45 22 46
REMARK SMILES IDX 71 47 65 48 64 49 23 51 53 52 34 53 52 54 35 55 38 56 51 57
REMARK SMILES IDX 69 58 36 59 37 60 50 62 70 63 39 64 24 65 25 66 33 67 26 68
REMARK SMILES IDX 32 69 27 70 28 71 29 72 30 73 31 74 54 75 55 76 63 77 56 78
REMARK SMILES IDX 62 79 57 80 58 81 59 82 60 83 61 84 40 85 41 86 49 87 42 88
REMARK SMILES IDX 48 89 43 90 44 91 45 92 46 93 47 94
REMARK H PARENT 5 8 83 26 12 31 68 50 38 61
REMARK Flexibility Score: inf
ROOT
ATOM      1  C   UNL A   1      42.510  23.023  27.726  1.00  0.00     0.002 C 
ENDROOT
BRANCH   1   2
ATOM      2  C   UNL A   1      43.270  24.067  26.905  1.00  0.00     0.002 C 
BRANCH   2   3
ATOM      3  C   UNL A   1      43.324  23.789  25.396  1.00  0.00     0.021 C 
BRANCH   3   4
ATOM      4  C   UNL A   1      44.647  23.180  24.925  1.00  0.00     0.116 C 
BRANCH   4   5
ATOM      5  N   UNL A   1      45.664  23.341  25.941  1.00  0.00    -0.356 N 
ATOM      6  C   UNL A   1      46.742  24.174  25.977  1.00  0.00     0.227 C 
ATOM      7  O   UNL A   1      47.548  23.982  26.890  1.00  0.00    -0.274 OA
ATOM      8  H   UNL A   1      45.560  22.760  26.729  1.00  0.00     0.163 HD
BRANCH   6   9
ATOM      9  C   UNL A   1      46.872  25.308  24.943  1.00  0.00     0.105 C 
ATOM     10  C   UNL A   1      48.245  25.369  24.270  1.00  0.00     0.023 C 
BRANCH   9  11
ATOM     11  C   UNL A   1      46.561  26.673  25.544  1.00  0.00    -0.036 A 
ATOM     12  C   UNL A   1      47.596  27.566  25.851  1.00  0.00     0.005 A 
ATOM     13  C   UNL A   1      45.238  27.054  25.818  1.00  0.00     0.005 A 
ATOM     14  C   UNL A   1      47.309  28.815  26.404  1.00  0.00     0.009 A 
ATOM     15  C   UNL A   1      44.953  28.301  26.369  1.00  0.00     0.009 A 
ATOM     16  C   UNL A   1      45.985  29.198  26.665  1.00  0.00    -0.018 A 
BRANCH  16  17
ATOM     17  C   UNL A   1      45.681  30.521  27.208  1.00  0.00    -0.018 A 
ATOM     18  C   UNL A   1      44.349  30.913  27.397  1.00  0.00     0.011 A 
ATOM     19  C   UNL A   1      46.719  31.404  27.554  1.00  0.00     0.019 A 
ATOM     20  C   UNL A   1      44.019  32.163  27.930  1.00  0.00     0.027 A 
ATOM     21  C   UNL A   1      46.411  32.676  28.074  1.00  0.00    -0.000 A 
ATOM     22  C   UNL A   1      45.073  33.021  28.256  1.00  0.00     0.045 A 
ATOM     23  C   UNL A   1      47.191  33.791  28.486  1.00  0.00     0.028 A 
ATOM     24  N   UNL A   1      45.052  34.291  28.785  1.00  0.00    -0.361 N 
ATOM     25  C   UNL A   1      46.328  34.773  28.911  1.00  0.00     0.083 A 
ATOM     26  H   UNL A   1      44.236  34.783  29.038  1.00  0.00     0.166 HD
ENDBRANCH  16  17
ENDBRANCH   9  11
ENDBRANCH   6   9
ENDBRANCH   4   5
ENDBRANCH   3   4
ENDBRANCH   2   3
ENDBRANCH   1   2
BRANCH   1  27
ATOM     27  C   UNL A   1      41.845  21.918  26.902  1.00  0.00     0.021 C 
BRANCH  27  28
ATOM     28  C   UNL A   1      40.434  21.559  27.354  1.00  0.00     0.116 C 
BRANCH  28  29
ATOM     29  N   UNL A   1      39.443  21.877  26.341  1.00  0.00    -0.352 N 
ATOM     30  C   UNL A   1      38.804  23.067  26.101  1.00  0.00     0.251 C 
ATOM     31  H   UNL A   1      39.195  21.135  25.745  1.00  0.00     0.163 HD
ATOM     32  O   UNL A   1      37.842  23.098  25.340  1.00  0.00    -0.269 OA
BRANCH  30  33
ATOM     33  C   UNL A   1      39.268  24.304  26.766  1.00  0.00     0.039 A 
ATOM     34  C   UNL A   1      38.972  24.494  28.118  1.00  0.00     0.014 A 
ATOM     35  C   UNL A   1      39.962  25.288  26.056  1.00  0.00     0.014 A 
ATOM     36  C   UNL A   1      39.395  25.658  28.763  1.00  0.00     0.010 A 
ATOM     37  C   UNL A   1      40.450  26.411  26.718  1.00  0.00     0.010 A 
ATOM     38  C   UNL A   1      40.150  26.620  28.072  1.00  0.00    -0.014 A 
BRANCH  38  39
ATOM     39  C   UNL A   1      40.590  27.871  28.741  1.00  0.00     0.031 A 
ATOM     40  C   UNL A   1      41.994  27.983  29.278  1.00  0.00     0.074 A 
ATOM     41  C   UNL A   1      39.722  28.890  28.899  1.00  0.00     0.049 A 
ATOM     42  N   UNL A   1      42.562  28.984  29.900  1.00  0.00    -0.248 NA
ATOM     43  C   UNL A   1      42.866  26.807  29.118  1.00  0.00     0.031 C 
ATOM     44  C   UNL A   1      38.326  28.889  28.458  1.00  0.00     0.029 A 
ATOM     45  N   UNL A   1      39.890  30.126  29.471  1.00  0.00    -0.354 N 
ATOM     46  C   UNL A   1      43.844  28.551  30.224  1.00  0.00     0.074 A 
ATOM     47  C   UNL A   1      43.952  27.181  29.776  1.00  0.00     0.031 C 
ATOM     48  C   UNL A   1      37.775  30.081  28.741  1.00  0.00     0.029 A 
ATOM     49  C   UNL A   1      38.766  30.917  29.414  1.00  0.00     0.049 A 
ATOM     50  H   UNL A   1      40.734  30.419  29.883  1.00  0.00     0.167 HD
ATOM     51  C   UNL A   1      44.847  29.238  30.822  1.00  0.00     0.031 A 
ATOM     52  C   UNL A   1      38.559  32.175  29.848  1.00  0.00     0.031 A 
ATOM     53  C   UNL A   1      44.742  30.609  31.244  1.00  0.00     0.049 A 
ATOM     54  C   UNL A   1      39.692  32.921  30.498  1.00  0.00     0.074 A 
ATOM     55  C   UNL A   1      45.721  31.416  31.797  1.00  0.00     0.029 A 
ATOM     56  N   UNL A   1      43.590  31.376  31.160  1.00  0.00    -0.354 N 
ATOM     57  N   UNL A   1      40.918  32.518  30.733  1.00  0.00    -0.248 NA
ATOM     58  C   UNL A   1      39.416  34.299  30.927  1.00  0.00     0.031 C 
ATOM     59  C   UNL A   1      45.145  32.656  32.097  1.00  0.00     0.029 A 
ATOM     60  C   UNL A   1      43.826  32.641  31.672  1.00  0.00     0.049 A 
ATOM     61  H   UNL A   1      42.731  31.068  30.791  1.00  0.00     0.167 HD
ATOM     62  C   UNL A   1      41.571  33.606  31.303  1.00  0.00     0.074 A 
ATOM     63  C   UNL A   1      40.606  34.684  31.368  1.00  0.00     0.031 C 
ATOM     64  C   UNL A   1      42.855  33.705  31.728  1.00  0.00     0.031 A 
BRANCH  51  65
ATOM     65  C   UNL A   1      46.144  28.509  31.062  1.00  0.00    -0.014 A 
ATOM     66  C   UNL A   1      46.379  27.810  32.262  1.00  0.00     0.010 A 
ATOM     67  C   UNL A   1      47.134  28.500  30.063  1.00  0.00     0.010 A 
ATOM     68  C   UNL A   1      47.597  27.159  32.474  1.00  0.00     0.020 A 
ATOM     69  C   UNL A   1      48.340  27.824  30.259  1.00  0.00     0.020 A 
ATOM     70  C   UNL A   1      48.573  27.173  31.473  1.00  0.00     0.054 A 
BRANCH  70  71
ATOM     71  S   UNL A   1      50.138  26.309  31.771  1.00  0.00     0.124 S 
ATOM     72  O   UNL A   1      51.113  27.267  31.257  1.00  0.00    -0.237 OA
ATOM     73  O   UNL A   1      50.137  26.132  33.220  1.00  0.00    -0.237 OA
ATOM     74  O   UNL A   1      50.008  25.077  30.996  1.00  0.00    -0.744 OA
ENDBRANCH  70  71
ENDBRANCH  51  65
BRANCH  52  75
ATOM     75  C   UNL A   1      37.234  32.824  29.644  1.00  0.00    -0.014 A 
ATOM     76  C   UNL A   1      36.327  32.938  30.713  1.00  0.00     0.010 A 
ATOM     77  C   UNL A   1      36.876  33.339  28.385  1.00  0.00     0.010 A 
ATOM     78  C   UNL A   1      35.078  33.535  30.521  1.00  0.00     0.020 A 
ATOM     79  C   UNL A   1      35.639  33.961  28.198  1.00  0.00     0.020 A 
ATOM     80  C   UNL A   1      34.743  34.045  29.264  1.00  0.00     0.054 A 
BRANCH  80  81
ATOM     81  S   UNL A   1      33.134  34.859  29.051  1.00  0.00     0.124 S 
ATOM     82  O   UNL A   1      33.525  36.177  28.564  1.00  0.00    -0.237 OA
ATOM     83  O   UNL A   1      32.470  33.994  28.079  1.00  0.00    -0.237 OA
ATOM     84  O   UNL A   1      32.558  34.832  30.394  1.00  0.00    -0.744 OA
ENDBRANCH  80  81
ENDBRANCH  52  75
BRANCH  64  85
ATOM     85  C   UNL A   1      43.308  35.040  32.257  1.00  0.00    -0.014 A 
ATOM     86  C   UNL A   1      43.855  36.019  31.409  1.00  0.00     0.010 A 
ATOM     87  C   UNL A   1      43.141  35.332  33.623  1.00  0.00     0.010 A 
ATOM     88  C   UNL A   1      44.268  37.250  31.927  1.00  0.00     0.020 A 
ATOM     89  C   UNL A   1      43.523  36.572  34.139  1.00  0.00     0.020 A 
ATOM     90  C   UNL A   1      44.101  37.517  33.290  1.00  0.00     0.054 A 
BRANCH  90  91
ATOM     91  S   UNL A   1      44.619  39.132  33.934  1.00  0.00     0.124 S 
ATOM     92  O   UNL A   1      44.555  38.918  35.377  1.00  0.00    -0.237 OA
ATOM     93  O   UNL A   1      45.962  39.283  33.380  1.00  0.00    -0.237 OA
ATOM     94  O   UNL A   1      43.622  40.054  33.395  1.00  0.00    -0.744 OA
ENDBRANCH  90  91
ENDBRANCH  64  85
ENDBRANCH  38  39
ENDBRANCH  30  33
ENDBRANCH  28  29
ENDBRANCH  27  28
ENDBRANCH   1  27
TORSDOF 18
ENDMDL
MODEL 3
REMARK VINA RESULT:     -10.7      3.579      5.737
REMARK SMILES C[C@@H](C(=O)NCCCCCCNC(=O)c1ccc(-c2c3nc(c(-c4ccc(S(=O)(=O)[O-])cc4)c4ccc([nH]4)c(-c4ccc(S(=O)(=O)[O-])cc4)c4nc(c(-c5ccc(S(=O)(=O)[O-])cc5)c5ccc2[nH]5)C=C4)C=C3)cc1)c1ccc(-c2ccc3[nH]ccc3c2)cc1
REMARK SMILES IDX 9 1 8 2 7 3 6 4 5 5 3 6 4 7 2 9 1 10 75 11 76 12 89 13 77 14
REMARK SMILES IDX 88 15 78 16 79 17 80 18 87 19 81 20 86 21 82 22 85 23 83 24
REMARK SMILES IDX 84 25 10 27 11 28 12 29 13 30 14 32 15 33 16 34 74 35 17 36
REMARK SMILES IDX 73 37 18 38 19 39 20 40 67 41 21 42 72 43 66 44 68 45 22 46
REMARK SMILES IDX 71 47 65 48 64 49 23 51 53 52 34 53 52 54 35 55 38 56 51 57
REMARK SMILES IDX 69 58 36 59 37 60 50 62 70 63 39 64 24 65 25 66 33 67 26 68
REMARK SMILES IDX 32 69 27 70 28 71 29 72 30 73 31 74 54 75 55 76 63 77 56 78
REMARK SMILES IDX 62 79 57 80 58 81 59 82 60 83 61 84 40 85 41 86 49 87 42 88
REMARK SMILES IDX 48 89 43 90 44 91 45 92 46 93 47 94
REMARK H PARENT 5 8 83 26 12 31 68 50 38 61
REMARK Flexibility Score: inf
ROOT
ATOM      1  C   UNL A   1      38.670  21.990  25.438  1.00  0.00     0.002 C 
ENDROOT
BRANCH   1   2
ATOM      2  C   UNL A   1      37.409  21.293  24.923  1.00  0.00     0.002 C 
BRANCH   2   3
ATOM      3  C   UNL A   1      36.105  21.726  25.610  1.00  0.00     0.021 C 
BRANCH   3   4
ATOM      4  C   UNL A   1      34.939  21.950  24.643  1.00  0.00     0.116 C 
BRANCH   4   5
ATOM      5  N   UNL A   1      33.835  21.078  24.980  1.00  0.00    -0.356 N 
ATOM      6  C   UNL A   1      32.503  21.214  24.727  1.00  0.00     0.227 C 
ATOM      7  O   UNL A   1      31.758  20.404  25.281  1.00  0.00    -0.274 OA
ATOM      8  H   UNL A   1      34.085  20.260  25.467  1.00  0.00     0.163 HD
BRANCH   6   9
ATOM      9  C   UNL A   1      32.013  22.304  23.754  1.00  0.00     0.105 C 
ATOM     10  C   UNL A   1      32.686  22.247  22.381  1.00  0.00     0.023 C 
BRANCH   9  11
ATOM     11  C   UNL A   1      32.188  23.706  24.326  1.00  0.00    -0.036 A 
ATOM     12  C   UNL A   1      31.868  23.972  25.663  1.00  0.00     0.005 A 
ATOM     13  C   UNL A   1      32.654  24.757  23.521  1.00  0.00     0.005 A 
ATOM     14  C   UNL A   1      32.025  25.258  26.183  1.00  0.00     0.009 A 
ATOM     15  C   UNL A   1      32.812  26.040  24.042  1.00  0.00     0.009 A 
ATOM     16  C   UNL A   1      32.503  26.304  25.380  1.00  0.00    -0.018 A 
BRANCH  16  17
ATOM     17  C   UNL A   1      32.706  27.642  25.935  1.00  0.00    -0.018 A 
ATOM     18  C   UNL A   1      31.666  28.581  25.901  1.00  0.00     0.011 A 
ATOM     19  C   UNL A   1      33.937  27.993  26.515  1.00  0.00     0.019 A 
ATOM     20  C   UNL A   1      31.815  29.863  26.436  1.00  0.00     0.027 A 
ATOM     21  C   UNL A   1      34.119  29.285  27.044  1.00  0.00    -0.000 A 
ATOM     22  C   UNL A   1      33.054  30.184  26.999  1.00  0.00     0.045 A 
ATOM     23  C   UNL A   1      35.211  29.959  27.656  1.00  0.00     0.028 A 
ATOM     24  N   UNL A   1      33.485  31.350  27.588  1.00  0.00    -0.361 N 
ATOM     25  C   UNL A   1      34.795  31.231  27.973  1.00  0.00     0.083 A 
ATOM     26  H   UNL A   1      32.932  32.155  27.716  1.00  0.00     0.166 HD
ENDBRANCH  16  17
ENDBRANCH   9  11
ENDBRANCH   6   9
ENDBRANCH   4   5
ENDBRANCH   3   4
ENDBRANCH   2   3
ENDBRANCH   1   2
BRANCH   1  27
ATOM     27  C   UNL A   1      38.434  22.984  26.578  1.00  0.00     0.021 C 
BRANCH  27  28
ATOM     28  C   UNL A   1      39.029  24.367  26.340  1.00  0.00     0.116 C 
BRANCH  28  29
ATOM     29  N   UNL A   1      40.442  24.301  26.013  1.00  0.00    -0.352 N 
ATOM     30  C   UNL A   1      41.470  25.099  26.449  1.00  0.00     0.251 C 
ATOM     31  H   UNL A   1      40.699  23.583  25.391  1.00  0.00     0.163 HD
ATOM     32  O   UNL A   1      42.567  25.030  25.905  1.00  0.00    -0.269 OA
BRANCH  30  33
ATOM     33  C   UNL A   1      41.249  26.046  27.564  1.00  0.00     0.039 A 
ATOM     34  C   UNL A   1      42.032  27.200  27.632  1.00  0.00     0.014 A 
ATOM     35  C   UNL A   1      40.299  25.784  28.556  1.00  0.00     0.014 A 
ATOM     36  C   UNL A   1      41.845  28.104  28.681  1.00  0.00     0.010 A 
ATOM     37  C   UNL A   1      40.061  26.722  29.556  1.00  0.00     0.010 A 
ATOM     38  C   UNL A   1      40.848  27.879  29.644  1.00  0.00    -0.014 A 
BRANCH  38  39
ATOM     39  C   UNL A   1      40.650  28.823  30.774  1.00  0.00     0.031 A 
ATOM     40  C   UNL A   1      41.515  28.716  32.004  1.00  0.00     0.074 A 
ATOM     41  C   UNL A   1      39.674  29.749  30.712  1.00  0.00     0.049 A 
ATOM     42  N   UNL A   1      41.490  29.436  33.095  1.00  0.00    -0.248 NA
ATOM     43  C   UNL A   1      42.522  27.641  32.020  1.00  0.00     0.031 C 
ATOM     44  C   UNL A   1      38.746  29.929  29.593  1.00  0.00     0.029 A 
ATOM     45  N   UNL A   1      39.302  30.718  31.611  1.00  0.00    -0.354 N 
ATOM     46  C   UNL A   1      42.456  28.890  33.933  1.00  0.00     0.074 A 
ATOM     47  C   UNL A   1      43.014  27.747  33.245  1.00  0.00     0.031 C 
ATOM     48  C   UNL A   1      37.938  30.969  29.856  1.00  0.00     0.029 A 
ATOM     49  C   UNL A   1      38.266  31.508  31.173  1.00  0.00     0.049 A 
ATOM     50  H   UNL A   1      39.737  30.836  32.485  1.00  0.00     0.167 HD
ATOM     51  C   UNL A   1      42.859  29.312  35.155  1.00  0.00     0.031 A 
ATOM     52  C   UNL A   1      37.652  32.552  31.763  1.00  0.00     0.031 A 
ATOM     53  C   UNL A   1      42.318  30.464  35.826  1.00  0.00     0.049 A 
ATOM     54  C   UNL A   1      38.124  33.010  33.116  1.00  0.00     0.074 A 
ATOM     55  C   UNL A   1      42.703  31.016  37.035  1.00  0.00     0.029 A 
ATOM     56  N   UNL A   1      41.276  31.242  35.345  1.00  0.00    -0.354 N 
ATOM     57  N   UNL A   1      39.088  32.522  33.862  1.00  0.00    -0.248 NA
ATOM     58  C   UNL A   1      37.437  34.170  33.698  1.00  0.00     0.031 C 
ATOM     59  C   UNL A   1      41.858  32.097  37.310  1.00  0.00     0.029 A 
ATOM     60  C   UNL A   1      40.988  32.256  36.243  1.00  0.00     0.049 A 
ATOM     61  H   UNL A   1      40.808  31.095  34.490  1.00  0.00     0.167 HD
ATOM     62  C   UNL A   1      39.146  33.341  34.986  1.00  0.00     0.074 A 
ATOM     63  C   UNL A   1      38.128  34.357  34.815  1.00  0.00     0.031 C 
ATOM     64  C   UNL A   1      39.973  33.262  36.058  1.00  0.00     0.031 A 
BRANCH  51  65
ATOM     65  C   UNL A   1      43.932  28.515  35.850  1.00  0.00    -0.014 A 
ATOM     66  C   UNL A   1      45.296  28.816  35.676  1.00  0.00     0.010 A 
ATOM     67  C   UNL A   1      43.571  27.463  36.713  1.00  0.00     0.010 A 
ATOM     68  C   UNL A   1      46.277  28.051  36.313  1.00  0.00     0.020 A 
ATOM     69  C   UNL A   1      44.548  26.716  37.376  1.00  0.00     0.020 A 
ATOM     70  C   UNL A   1      45.897  27.002  37.155  1.00  0.00     0.054 A 
BRANCH  70  71
ATOM     71  S   UNL A   1      47.190  26.034  37.978  1.00  0.00     0.124 S 
ATOM     72  O   UNL A   1      46.483  25.521  39.149  1.00  0.00    -0.237 OA
ATOM     73  O   UNL A   1      47.537  25.037  36.969  1.00  0.00    -0.237 OA
ATOM     74  O   UNL A   1      48.232  27.017  38.263  1.00  0.00    -0.744 OA
ENDBRANCH  70  71
ENDBRANCH  51  65
BRANCH  52  75
ATOM     75  C   UNL A   1      36.549  33.262  31.058  1.00  0.00    -0.014 A 
ATOM     76  C   UNL A   1      35.290  33.401  31.668  1.00  0.00     0.010 A 
ATOM     77  C   UNL A   1      36.754  33.811  29.780  1.00  0.00     0.010 A 
ATOM     78  C   UNL A   1      34.249  34.055  31.003  1.00  0.00     0.020 A 
ATOM     79  C   UNL A   1      35.724  34.491  29.124  1.00  0.00     0.020 A 
ATOM     80  C   UNL A   1      34.474  34.598  29.736  1.00  0.00     0.054 A 
BRANCH  80  81
ATOM     81  S   UNL A   1      33.122  35.486  28.912  1.00  0.00     0.124 S 
ATOM     82  O   UNL A   1      32.285  35.879  30.041  1.00  0.00    -0.237 OA
ATOM     83  O   UNL A   1      33.825  36.574  28.236  1.00  0.00    -0.237 OA
ATOM     84  O   UNL A   1      32.544  34.480  28.023  1.00  0.00    -0.744 OA
ENDBRANCH  80  81
ENDBRANCH  52  75
BRANCH  64  85
ATOM     85  C   UNL A   1      39.844  34.331  37.110  1.00  0.00    -0.014 A 
ATOM     86  C   UNL A   1      40.514  35.562  36.992  1.00  0.00     0.010 A 
ATOM     87  C   UNL A   1      39.003  34.112  38.216  1.00  0.00     0.010 A 
ATOM     88  C   UNL A   1      40.378  36.537  37.984  1.00  0.00     0.020 A 
ATOM     89  C   UNL A   1      38.840  35.095  39.194  1.00  0.00     0.020 A 
ATOM     90  C   UNL A   1      39.543  36.295  39.081  1.00  0.00     0.054 A 
BRANCH  90  91
ATOM     91  S   UNL A   1      39.361  37.586  40.342  1.00  0.00     0.124 S 
ATOM     92  O   UNL A   1      38.926  36.817  41.504  1.00  0.00    -0.237 OA
ATOM     93  O   UNL A   1      40.708  38.146  40.426  1.00  0.00    -0.237 OA
ATOM     94  O   UNL A   1      38.355  38.483  39.775  1.00  0.00    -0.744 OA
ENDBRANCH  90  91
ENDBRANCH  64  85
ENDBRANCH  38  39
ENDBRANCH  30  33
ENDBRANCH  28  29
ENDBRANCH  27  28
ENDBRANCH   1  27
TORSDOF 18
ENDMDL
