MODEL 1
REMARK VINA RESULT:     -12.0      0.000      0.000
REMARK SMILES O=C(NCCCCCCNC(=O)c1ccc(-c2c3nc(c(-c4ccc(S(=O)(=O)[O-])cc4)c4ccc([nH]4)c(-c4ccc(S(=O)(=O)[O-])cc4)c4nc(c(-c5ccc(S(=O)(=O)[O-])cc5)c5ccc2[nH]5)C=C4)C=C3)cc1)C1=Cc2cc(S(F)(F)(F)(F)F)cc(Br)c2O[C@@H]1C(F)(F)F
REMARK SMILES IDX 7 1 6 2 5 3 4 4 3 5 1 6 2 7 73 9 74 10 89 11 75 12 88 13
REMARK SMILES IDX 76 14 87 15 77 16 85 17 84 18 86 19 90 20 91 21 92 22 93 23
REMARK SMILES IDX 78 24 79 25 80 26 81 27 82 28 83 29 8 30 9 31 10 32 11 33
REMARK SMILES IDX 12 35 13 36 14 37 72 38 15 39 71 40 16 41 17 42 18 43 65 44
REMARK SMILES IDX 19 45 70 46 64 47 66 48 20 49 69 50 63 51 62 52 21 54 51 55
REMARK SMILES IDX 32 56 50 57 33 58 36 59 49 60 67 61 34 62 35 63 48 65 68 66
REMARK SMILES IDX 37 67 22 68 23 69 31 70 24 71 30 72 25 73 26 74 27 75 28 76
REMARK SMILES IDX 29 77 52 78 53 79 61 80 54 81 60 82 55 83 56 84 57 85 58 86
REMARK SMILES IDX 59 87 38 88 39 89 47 90 40 91 46 92 41 93 42 94 43 95 44 96
REMARK SMILES IDX 45 97
REMARK H PARENT 3 8 10 34 66 53 36 64
REMARK Flexibility Score: inf
ROOT
ATOM      1  C   UNL A   1      35.399  22.190  25.786  1.00  0.00     0.002 C 
ENDROOT
BRANCH   1   2
ATOM      2  C   UNL A   1      34.695  21.735  27.054  1.00  0.00     0.002 C 
BRANCH   2   3
ATOM      3  C   UNL A   1      33.729  22.815  27.513  1.00  0.00     0.021 C 
BRANCH   3   4
ATOM      4  C   UNL A   1      32.431  22.698  26.729  1.00  0.00     0.116 C 
BRANCH   4   5
ATOM      5  N   UNL A   1      31.503  23.755  27.157  1.00  0.00    -0.352 N 
ATOM      6  O   UNL A   1      29.923  25.413  26.526  1.00  0.00    -0.270 OA
ATOM      7  C   UNL A   1      30.725  24.500  26.156  1.00  0.00     0.251 C 
ATOM      8  H   UNL A   1      31.403  23.964  28.113  1.00  0.00     0.163 HD
BRANCH   7   9
ATOM      9  C   UNL A   1      30.881  24.178  24.678  1.00  0.00     0.067 C 
ATOM     10  C   UNL A   1      30.982  25.185  23.770  1.00  0.00     0.025 C 
ATOM     11  C   UNL A   1      30.925  22.731  24.217  1.00  0.00     0.314 C 
ATOM     12  C   UNL A   1      30.938  26.632  24.232  1.00  0.00     0.020 A 
ATOM     13  O   UNL A   1      32.312  26.051  26.081  1.00  0.00    -0.474 OA
ATOM     14  C   UNL A   1      30.147  27.526  23.529  1.00  0.00     0.036 A 
ATOM     15  C   UNL A   1      31.642  27.020  25.289  1.00  0.00     0.142 A 
ATOM     16  C   UNL A   1      30.392  28.883  23.847  1.00  0.00     0.109 A 
ATOM     17  C   UNL A   1      31.727  28.350  25.623  1.00  0.00     0.062 A 
ATOM     18  C   UNL A   1      31.019  29.295  24.933  1.00  0.00     0.044 A 
ATOM     19  Br  UNL A   1      32.881  28.900  27.109  1.00  0.00    -0.047 Br
BRANCH  11  20
ATOM     20  C   UNL A   1      32.247  22.462  23.516  1.00  0.00     0.429 C 
ATOM     21  F   UNL A   1      32.741  21.299  23.932  1.00  0.00    -0.167 F 
ATOM     22  F   UNL A   1      32.051  22.414  22.201  1.00  0.00    -0.167 F 
ATOM     23  F   UNL A   1      33.107  23.437  23.801  1.00  0.00    -0.167 F 
ENDBRANCH  11  20
BRANCH  16  24
ATOM     24  S   UNL A   1      29.805  30.140  22.685  1.00  0.00     0.310 S 
ATOM     25  F   UNL A   1      28.820  29.116  21.981  1.00  0.00    -0.094 F 
ATOM     26  F   UNL A   1      30.911  29.673  21.664  1.00  0.00    -0.094 F 
ATOM     27  F   UNL A   1      29.298  31.219  21.686  1.00  0.00    -0.094 F 
ATOM     28  F   UNL A   1      28.617  30.498  23.663  1.00  0.00    -0.094 F 
ATOM     29  F   UNL A   1      30.237  28.974  23.662  1.00  0.00    -0.094 F 
ENDBRANCH  16  24
ENDBRANCH   7   9
ENDBRANCH   4   5
ENDBRANCH   3   4
ENDBRANCH   2   3
ENDBRANCH   1   2
BRANCH   1  30
ATOM     30  C   UNL A   1      35.577  23.698  25.819  1.00  0.00     0.021 C 
BRANCH  30  31
ATOM     31  C   UNL A   1      36.977  24.054  25.344  1.00  0.00     0.116 C 
BRANCH  31  32
ATOM     32  N   UNL A   1      37.822  22.851  25.365  1.00  0.00    -0.352 N 
ATOM     33  C   UNL A   1      39.097  22.860  26.098  1.00  0.00     0.251 C 
ATOM     34  H   UNL A   1      37.534  22.039  24.888  1.00  0.00     0.163 HD
ATOM     35  O   UNL A   1      39.826  21.820  26.117  1.00  0.00    -0.269 OA
BRANCH  33  36
ATOM     36  C   UNL A   1      39.540  24.113  26.835  1.00  0.00     0.039 A 
ATOM     37  C   UNL A   1      39.173  24.286  28.160  1.00  0.00     0.014 A 
ATOM     38  C   UNL A   1      40.270  25.021  26.198  1.00  0.00     0.014 A 
ATOM     39  C   UNL A   1      39.385  25.598  28.646  1.00  0.00     0.010 A 
ATOM     40  C   UNL A   1      40.554  26.230  26.787  1.00  0.00     0.010 A 
ATOM     41  C   UNL A   1      40.171  26.491  28.073  1.00  0.00    -0.014 A 
BRANCH  41  42
ATOM     42  C   UNL A   1      40.626  27.744  28.805  1.00  0.00     0.031 A 
ATOM     43  C   UNL A   1      39.733  28.815  28.887  1.00  0.00     0.074 A 
ATOM     44  C   UNL A   1      41.898  27.754  29.349  1.00  0.00     0.049 A 
ATOM     45  N   UNL A   1      39.918  29.981  29.507  1.00  0.00    -0.248 NA
ATOM     46  C   UNL A   1      38.393  28.820  28.281  1.00  0.00     0.031 C 
ATOM     47  C   UNL A   1      42.801  26.675  29.278  1.00  0.00     0.029 A 
ATOM     48  N   UNL A   1      42.515  28.774  30.039  1.00  0.00    -0.354 N 
ATOM     49  C   UNL A   1      38.830  30.746  29.383  1.00  0.00     0.074 A 
ATOM     50  C   UNL A   1      37.837  30.012  28.588  1.00  0.00     0.031 C 
ATOM     51  C   UNL A   1      43.949  27.043  29.905  1.00  0.00     0.029 A 
ATOM     52  C   UNL A   1      43.783  28.358  30.379  1.00  0.00     0.049 A 
ATOM     53  H   UNL A   1      42.118  29.649  30.252  1.00  0.00     0.167 HD
ATOM     54  C   UNL A   1      38.628  32.025  29.905  1.00  0.00     0.031 A 
ATOM     55  C   UNL A   1      44.755  29.071  31.064  1.00  0.00     0.031 A 
ATOM     56  C   UNL A   1      39.585  32.721  30.626  1.00  0.00     0.049 A 
ATOM     57  C   UNL A   1      44.573  30.373  31.535  1.00  0.00     0.074 A 
ATOM     58  C   UNL A   1      39.394  34.007  31.166  1.00  0.00     0.029 A 
ATOM     59  N   UNL A   1      40.861  32.313  30.946  1.00  0.00    -0.354 N 
ATOM     60  N   UNL A   1      43.472  31.121  31.445  1.00  0.00    -0.248 NA
ATOM     61  C   UNL A   1      45.607  31.149  32.232  1.00  0.00     0.031 C 
ATOM     62  C   UNL A   1      40.543  34.376  31.793  1.00  0.00     0.029 A 
ATOM     63  C   UNL A   1      41.470  33.325  31.656  1.00  0.00     0.049 A 
ATOM     64  H   UNL A   1      41.268  31.450  30.707  1.00  0.00     0.167 HD
ATOM     65  C   UNL A   1      43.672  32.305  32.030  1.00  0.00     0.074 A 
ATOM     66  C   UNL A   1      45.050  32.342  32.538  1.00  0.00     0.031 C 
ATOM     67  C   UNL A   1      42.760  33.353  32.163  1.00  0.00     0.031 A 
BRANCH  54  68
ATOM     68  C   UNL A   1      37.283  32.692  29.668  1.00  0.00    -0.014 A 
ATOM     69  C   UNL A   1      37.039  33.413  28.511  1.00  0.00     0.010 A 
ATOM     70  C   UNL A   1      36.372  32.606  30.630  1.00  0.00     0.010 A 
ATOM     71  C   UNL A   1      35.904  34.255  28.588  1.00  0.00     0.020 A 
ATOM     72  C   UNL A   1      35.222  33.356  30.574  1.00  0.00     0.020 A 
ATOM     73  C   UNL A   1      34.944  34.137  29.487  1.00  0.00     0.054 A 
BRANCH  73  74
ATOM     74  S   UNL A   1      33.347  34.966  29.291  1.00  0.00     0.124 S 
ATOM     75  O   UNL A   1      33.571  36.390  28.781  1.00  0.00    -0.237 OA
ATOM     76  O   UNL A   1      32.491  34.192  28.286  1.00  0.00    -0.237 OA
ATOM     77  O   UNL A   1      32.545  35.020  30.800  1.00  0.00    -0.744 OA
ENDBRANCH  73  74
ENDBRANCH  54  68
BRANCH  55  78
ATOM     78  C   UNL A   1      46.093  28.397  31.315  1.00  0.00    -0.014 A 
ATOM     79  C   UNL A   1      47.060  28.510  30.329  1.00  0.00     0.010 A 
ATOM     80  C   UNL A   1      46.344  27.766  32.456  1.00  0.00     0.010 A 
ATOM     81  C   UNL A   1      48.180  27.666  30.525  1.00  0.00     0.020 A 
ATOM     82  C   UNL A   1      47.518  27.074  32.630  1.00  0.00     0.020 A 
ATOM     83  C   UNL A   1      48.493  27.092  31.672  1.00  0.00     0.054 A 
BRANCH  83  84
ATOM     84  S   UNL A   1      50.127  26.369  31.961  1.00  0.00     0.124 S 
ATOM     85  O   UNL A   1      50.067  24.858  31.724  1.00  0.00    -0.237 OA
ATOM     86  O   UNL A   1      51.140  26.996  31.000  1.00  0.00    -0.237 OA
ATOM     87  O   UNL A   1      50.608  26.674  33.574  1.00  0.00    -0.744 OA
ENDBRANCH  83  84
ENDBRANCH  55  78
BRANCH  67  88
ATOM     88  C   UNL A   1      43.208  34.598  32.909  1.00  0.00    -0.014 A 
ATOM     89  C   UNL A   1      43.078  34.646  34.287  1.00  0.00     0.010 A 
ATOM     90  C   UNL A   1      43.716  35.618  32.230  1.00  0.00     0.010 A 
ATOM     91  C   UNL A   1      43.248  35.940  34.835  1.00  0.00     0.020 A 
ATOM     92  C   UNL A   1      43.986  36.812  32.856  1.00  0.00     0.020 A 
ATOM     93  C   UNL A   1      43.824  36.949  34.207  1.00  0.00     0.054 A 
BRANCH  93  94
ATOM     94  S   UNL A   1      44.371  38.433  35.087  1.00  0.00     0.124 S 
ATOM     95  O   UNL A   1      43.735  39.669  34.447  1.00  0.00    -0.237 OA
ATOM     96  O   UNL A   1      43.945  38.341  36.554  1.00  0.00    -0.237 OA
ATOM     97  O   UNL A   1      46.075  38.555  34.995  1.00  0.00    -0.744 OA
ENDBRANCH  93  94
ENDBRANCH  67  88
ENDBRANCH  41  42
ENDBRANCH  33  36
ENDBRANCH  31  32
ENDBRANCH  30  31
ENDBRANCH   1  30
TORSDOF 18
ENDMDL
MODEL 2
REMARK VINA RESULT:     -11.9      4.311      9.317
REMARK SMILES O=C(NCCCCCCNC(=O)c1ccc(-c2c3nc(c(-c4ccc(S(=O)(=O)[O-])cc4)c4ccc([nH]4)c(-c4ccc(S(=O)(=O)[O-])cc4)c4nc(c(-c5ccc(S(=O)(=O)[O-])cc5)c5ccc2[nH]5)C=C4)C=C3)cc1)C1=Cc2cc(S(F)(F)(F)(F)F)cc(Br)c2O[C@@H]1C(F)(F)F
REMARK SMILES IDX 7 1 6 2 5 3 4 4 3 5 1 6 2 7 73 9 74 10 89 11 75 12 88 13
REMARK SMILES IDX 76 14 87 15 77 16 85 17 84 18 86 19 90 20 91 21 92 22 93 23
REMARK SMILES IDX 78 24 79 25 80 26 81 27 82 28 83 29 8 30 9 31 10 32 11 33
REMARK SMILES IDX 12 35 13 36 14 37 72 38 15 39 71 40 16 41 17 42 18 43 65 44
REMARK SMILES IDX 19 45 70 46 64 47 66 48 20 49 69 50 63 51 62 52 21 54 51 55
REMARK SMILES IDX 32 56 50 57 33 58 36 59 49 60 67 61 34 62 35 63 48 65 68 66
REMARK SMILES IDX 37 67 22 68 23 69 31 70 24 71 30 72 25 73 26 74 27 75 28 76
REMARK SMILES IDX 29 77 52 78 53 79 61 80 54 81 60 82 55 83 56 84 57 85 58 86
REMARK SMILES IDX 59 87 38 88 39 89 47 90 40 91 46 92 41 93 42 94 43 95 44 96
REMARK SMILES IDX 45 97
REMARK H PARENT 3 8 10 34 66 53 36 64
REMARK Flexibility Score: inf
ROOT
ATOM      1  C   UNL A   1      40.381  22.317  27.419  1.00  0.00     0.002 C 
ENDROOT
BRANCH   1   2
ATOM      2  C   UNL A   1      39.492  23.367  26.773  1.00  0.00     0.002 C 
BRANCH   2   3
ATOM      3  C   UNL A   1      38.305  22.688  26.110  1.00  0.00     0.021 C 
BRANCH   3   4
ATOM      4  C   UNL A   1      37.254  23.732  25.766  1.00  0.00     0.116 C 
BRANCH   4   5
ATOM      5  N   UNL A   1      36.989  23.703  24.320  1.00  0.00    -0.352 N 
ATOM      6  O   UNL A   1      35.608  22.928  22.549  1.00  0.00    -0.270 OA
ATOM      7  C   UNL A   1      35.837  22.953  23.799  1.00  0.00     0.251 C 
ATOM      8  H   UNL A   1      37.583  24.185  23.702  1.00  0.00     0.163 HD
BRANCH   7   9
ATOM      9  C   UNL A   1      34.920  22.206  24.755  1.00  0.00     0.067 C 
ATOM     10  C   UNL A   1      33.877  22.854  25.341  1.00  0.00     0.025 C 
ATOM     11  C   UNL A   1      35.168  20.738  25.053  1.00  0.00     0.314 C 
ATOM     12  C   UNL A   1      33.630  24.323  25.042  1.00  0.00     0.020 A 
ATOM     13  O   UNL A   1      34.126  23.909  22.755  1.00  0.00    -0.474 OA
ATOM     14  C   UNL A   1      33.354  25.175  26.099  1.00  0.00     0.036 A 
ATOM     15  C   UNL A   1      33.683  24.772  23.793  1.00  0.00     0.142 A 
ATOM     16  C   UNL A   1      32.859  26.440  25.702  1.00  0.00     0.109 A 
ATOM     17  C   UNL A   1      33.315  26.061  23.497  1.00  0.00     0.062 A 
ATOM     18  C   UNL A   1      32.973  26.940  24.486  1.00  0.00     0.044 A 
ATOM     19  Br  UNL A   1      33.280  26.650  21.626  1.00  0.00    -0.047 Br
BRANCH  11  20
ATOM     20  C   UNL A   1      33.952  19.924  24.641  1.00  0.00     0.429 C 
ATOM     21  F   UNL A   1      33.329  20.536  23.637  1.00  0.00    -0.167 F 
ATOM     22  F   UNL A   1      34.339  18.713  24.250  1.00  0.00    -0.167 F 
ATOM     23  F   UNL A   1      33.121  19.812  25.674  1.00  0.00    -0.167 F 
ENDBRANCH  11  20
BRANCH  16  24
ATOM     24  S   UNL A   1      32.012  27.442  26.950  1.00  0.00     0.310 S 
ATOM     25  F   UNL A   1      31.713  28.598  25.906  1.00  0.00    -0.094 F 
ATOM     26  F   UNL A   1      33.378  28.166  27.256  1.00  0.00    -0.094 F 
ATOM     27  F   UNL A   1      31.284  28.304  28.019  1.00  0.00    -0.094 F 
ATOM     28  F   UNL A   1      30.628  26.805  26.531  1.00  0.00    -0.094 F 
ATOM     29  F   UNL A   1      32.716  26.640  25.783  1.00  0.00    -0.094 F 
ENDBRANCH  16  24
ENDBRANCH   7   9
ENDBRANCH   4   5
ENDBRANCH   3   4
ENDBRANCH   2   3
ENDBRANCH   1   2
BRANCH   1  30
ATOM     30  C   UNL A   1      40.252  21.007  26.660  1.00  0.00     0.021 C 
BRANCH  30  31
ATOM     31  C   UNL A   1      41.145  19.958  27.304  1.00  0.00     0.116 C 
BRANCH  31  32
ATOM     32  N   UNL A   1      41.852  19.207  26.257  1.00  0.00    -0.352 N 
ATOM     33  C   UNL A   1      42.953  19.840  25.514  1.00  0.00     0.251 C 
ATOM     34  H   UNL A   1      41.589  18.281  26.052  1.00  0.00     0.163 HD
ATOM     35  O   UNL A   1      43.564  19.191  24.609  1.00  0.00    -0.269 OA
BRANCH  33  36
ATOM     36  C   UNL A   1      43.359  21.270  25.830  1.00  0.00     0.039 A 
ATOM     37  C   UNL A   1      43.150  22.259  24.882  1.00  0.00     0.014 A 
ATOM     38  C   UNL A   1      43.906  21.548  27.007  1.00  0.00     0.014 A 
ATOM     39  C   UNL A   1      43.823  23.472  25.163  1.00  0.00     0.010 A 
ATOM     40  C   UNL A   1      44.422  22.796  27.262  1.00  0.00     0.010 A 
ATOM     41  C   UNL A   1      44.304  23.805  26.346  1.00  0.00    -0.014 A 
BRANCH  41  42
ATOM     42  C   UNL A   1      44.706  25.235  26.674  1.00  0.00     0.031 A 
ATOM     43  C   UNL A   1      46.038  25.603  26.474  1.00  0.00     0.074 A 
ATOM     44  C   UNL A   1      43.729  26.091  27.152  1.00  0.00     0.049 A 
ATOM     45  N   UNL A   1      46.587  26.803  26.665  1.00  0.00    -0.248 NA
ATOM     46  C   UNL A   1      47.084  24.686  25.999  1.00  0.00     0.031 C 
ATOM     47  C   UNL A   1      42.382  25.729  27.348  1.00  0.00     0.029 A 
ATOM     48  N   UNL A   1      43.868  27.411  27.518  1.00  0.00    -0.354 N 
ATOM     49  C   UNL A   1      47.883  26.773  26.347  1.00  0.00     0.074 A 
ATOM     50  C   UNL A   1      48.223  25.408  25.921  1.00  0.00     0.031 C 
ATOM     51  C   UNL A   1      41.722  26.812  27.836  1.00  0.00     0.029 A 
ATOM     52  C   UNL A   1      42.645  27.869  27.953  1.00  0.00     0.049 A 
ATOM     53  H   UNL A   1      44.700  27.937  27.476  1.00  0.00     0.167 HD
ATOM     54  C   UNL A   1      48.794  27.829  26.396  1.00  0.00     0.031 A 
ATOM     55  C   UNL A   1      42.330  29.132  28.429  1.00  0.00     0.031 A 
ATOM     56  C   UNL A   1      48.470  29.104  26.832  1.00  0.00     0.049 A 
ATOM     57  C   UNL A   1      43.256  30.173  28.532  1.00  0.00     0.074 A 
ATOM     58  C   UNL A   1      49.374  30.183  26.878  1.00  0.00     0.029 A 
ATOM     59  N   UNL A   1      47.251  29.555  27.288  1.00  0.00    -0.354 N 
ATOM     60  N   UNL A   1      44.542  30.153  28.178  1.00  0.00    -0.248 NA
ATOM     61  C   UNL A   1      42.942  31.505  29.066  1.00  0.00     0.031 C 
ATOM     62  C   UNL A   1      48.713  31.266  27.367  1.00  0.00     0.029 A 
ATOM     63  C   UNL A   1      47.385  30.882  27.633  1.00  0.00     0.049 A 
ATOM     64  H   UNL A   1      46.427  29.020  27.358  1.00  0.00     0.167 HD
ATOM     65  C   UNL A   1      45.100  31.343  28.407  1.00  0.00     0.074 A 
ATOM     66  C   UNL A   1      44.081  32.228  28.989  1.00  0.00     0.031 C 
ATOM     67  C   UNL A   1      46.418  31.728  28.153  1.00  0.00     0.031 A 
BRANCH  54  68
ATOM     68  C   UNL A   1      50.222  27.567  25.945  1.00  0.00    -0.014 A 
ATOM     69  C   UNL A   1      50.560  27.589  24.603  1.00  0.00     0.010 A 
ATOM     70  C   UNL A   1      51.117  27.260  26.876  1.00  0.00     0.010 A 
ATOM     71  C   UNL A   1      51.809  26.987  24.316  1.00  0.00     0.020 A 
ATOM     72  C   UNL A   1      52.365  26.807  26.523  1.00  0.00     0.020 A 
ATOM     73  C   UNL A   1      52.748  26.747  25.212  1.00  0.00     0.054 A 
BRANCH  73  74
ATOM     74  S   UNL A   1      54.449  26.360  24.731  1.00  0.00     0.124 S 
ATOM     75  O   UNL A   1      54.645  26.680  23.248  1.00  0.00    -0.237 OA
ATOM     76  O   UNL A   1      55.419  27.198  25.566  1.00  0.00    -0.237 OA
ATOM     77  O   UNL A   1      54.753  24.699  25.001  1.00  0.00    -0.744 OA
ENDBRANCH  73  74
ENDBRANCH  54  68
BRANCH  55  78
ATOM     78  C   UNL A   1      40.899  29.398  28.863  1.00  0.00    -0.014 A 
ATOM     79  C   UNL A   1      39.963  29.637  27.870  1.00  0.00     0.010 A 
ATOM     80  C   UNL A   1      40.548  29.356  30.143  1.00  0.00     0.010 A 
ATOM     81  C   UNL A   1      38.720  30.109  28.354  1.00  0.00     0.020 A 
ATOM     82  C   UNL A   1      39.276  29.700  30.532  1.00  0.00     0.020 A 
ATOM     83  C   UNL A   1      38.316  30.005  29.607  1.00  0.00     0.054 A 
BRANCH  83  84
ATOM     84  S   UNL A   1      36.585  30.252  30.074  1.00  0.00     0.124 S 
ATOM     85  O   UNL A   1      36.305  31.749  30.223  1.00  0.00    -0.237 OA
ATOM     86  O   UNL A   1      35.676  29.668  28.991  1.00  0.00    -0.237 OA
ATOM     87  O   UNL A   1      36.278  29.465  31.562  1.00  0.00    -0.744 OA
ENDBRANCH  83  84
ENDBRANCH  55  78
BRANCH  67  88
ATOM     88  C   UNL A   1      46.815  33.161  28.464  1.00  0.00    -0.014 A 
ATOM     89  C   UNL A   1      47.312  33.470  29.720  1.00  0.00     0.010 A 
ATOM     90  C   UNL A   1      46.682  34.093  27.529  1.00  0.00     0.010 A 
ATOM     91  C   UNL A   1      47.370  34.858  29.988  1.00  0.00     0.020 A 
ATOM     92  C   UNL A   1      46.886  35.419  27.827  1.00  0.00     0.020 A 
ATOM     93  C   UNL A   1      47.320  35.802  29.066  1.00  0.00     0.054 A 
BRANCH  93  94
ATOM     94  S   UNL A   1      47.801  37.510  29.423  1.00  0.00     0.124 S 
ATOM     95  O   UNL A   1      49.285  37.556  29.791  1.00  0.00    -0.237 OA
ATOM     96  O   UNL A   1      47.554  38.378  28.187  1.00  0.00    -0.237 OA
ATOM     97  O   UNL A   1      46.870  38.102  30.731  1.00  0.00    -0.744 OA
ENDBRANCH  93  94
ENDBRANCH  67  88
ENDBRANCH  41  42
ENDBRANCH  33  36
ENDBRANCH  31  32
ENDBRANCH  30  31
ENDBRANCH   1  30
TORSDOF 18
ENDMDL
MODEL 3
REMARK VINA RESULT:     -11.8      4.742      9.907
REMARK SMILES O=C(NCCCCCCNC(=O)c1ccc(-c2c3nc(c(-c4ccc(S(=O)(=O)[O-])cc4)c4ccc([nH]4)c(-c4ccc(S(=O)(=O)[O-])cc4)c4nc(c(-c5ccc(S(=O)(=O)[O-])cc5)c5ccc2[nH]5)C=C4)C=C3)cc1)C1=Cc2cc(S(F)(F)(F)(F)F)cc(Br)c2O[C@@H]1C(F)(F)F
REMARK SMILES IDX 7 1 6 2 5 3 4 4 3 5 1 6 2 7 73 9 74 10 89 11 75 12 88 13
REMARK SMILES IDX 76 14 87 15 77 16 85 17 84 18 86 19 90 20 91 21 92 22 93 23
REMARK SMILES IDX 78 24 79 25 80 26 81 27 82 28 83 29 8 30 9 31 10 32 11 33
REMARK SMILES IDX 12 35 13 36 14 37 72 38 15 39 71 40 16 41 17 42 18 43 65 44
REMARK SMILES IDX 19 45 70 46 64 47 66 48 20 49 69 50 63 51 62 52 21 54 51 55
REMARK SMILES IDX 32 56 50 57 33 58 36 59 49 60 67 61 34 62 35 63 48 65 68 66
REMARK SMILES IDX 37 67 22 68 23 69 31 70 24 71 30 72 25 73 26 74 27 75 28 76
REMARK SMILES IDX 29 77 52 78 53 79 61 80 54 81 60 82 55 83 56 84 57 85 58 86
REMARK SMILES IDX 59 87 38 88 39 89 47 90 40 91 46 92 41 93 42 94 43 95 44 96
REMARK SMILES IDX 45 97
REMARK H PARENT 3 8 10 34 66 53 36 64
REMARK Flexibility Score: inf
ROOT
ATOM      1  C   UNL A   1      34.070  28.141  26.827  1.00  0.00     0.002 C 
ENDROOT
BRANCH   1   2
ATOM      2  C   UNL A   1      33.087  28.053  25.670  1.00  0.00     0.002 C 
BRANCH   2   3
ATOM      3  C   UNL A   1      33.678  27.190  24.567  1.00  0.00     0.021 C 
BRANCH   3   4
ATOM      4  C   UNL A   1      33.706  25.739  25.021  1.00  0.00     0.116 C 
BRANCH   4   5
ATOM      5  N   UNL A   1      34.037  24.875  23.879  1.00  0.00    -0.352 N 
ATOM      6  O   UNL A   1      33.477  22.968  22.578  1.00  0.00    -0.270 OA
ATOM      7  C   UNL A   1      33.190  23.715  23.565  1.00  0.00     0.251 C 
ATOM      8  H   UNL A   1      34.826  25.072  23.326  1.00  0.00     0.163 HD
BRANCH   7   9
ATOM      9  C   UNL A   1      31.972  23.409  24.421  1.00  0.00     0.067 C 
ATOM     10  C   UNL A   1      31.832  22.182  24.991  1.00  0.00     0.025 C 
ATOM     11  C   UNL A   1      30.911  24.475  24.641  1.00  0.00     0.314 C 
ATOM     12  C   UNL A   1      32.894  21.117  24.771  1.00  0.00     0.020 A 
ATOM     13  O   UNL A   1      34.572  22.779  25.030  1.00  0.00    -0.474 OA
ATOM     14  C   UNL A   1      32.484  19.830  24.461  1.00  0.00     0.036 A 
ATOM     15  C   UNL A   1      34.182  21.423  24.871  1.00  0.00     0.142 A 
ATOM     16  C   UNL A   1      33.510  18.861  24.560  1.00  0.00     0.109 A 
ATOM     17  C   UNL A   1      35.140  20.440  24.823  1.00  0.00     0.062 A 
ATOM     18  C   UNL A   1      34.801  19.138  24.580  1.00  0.00     0.044 A 
ATOM     19  Br  UNL A   1      37.022  20.912  25.107  1.00  0.00    -0.047 Br
BRANCH  11  20
ATOM     20  C   UNL A   1      30.791  24.771  26.127  1.00  0.00     0.429 C 
ATOM     21  F   UNL A   1      29.821  24.026  26.651  1.00  0.00    -0.167 F 
ATOM     22  F   UNL A   1      31.941  24.488  26.731  1.00  0.00    -0.167 F 
ATOM     23  F   UNL A   1      30.504  26.059  26.301  1.00  0.00    -0.167 F 
ENDBRANCH  11  20
BRANCH  16  24
ATOM     24  S   UNL A   1      33.020  17.122  24.666  1.00  0.00     0.310 S 
ATOM     25  F   UNL A   1      34.525  16.644  24.811  1.00  0.00    -0.094 F 
ATOM     26  F   UNL A   1      33.205  17.004  23.105  1.00  0.00    -0.094 F 
ATOM     27  F   UNL A   1      32.600  15.628  24.758  1.00  0.00    -0.094 F 
ATOM     28  F   UNL A   1      32.976  17.223  26.242  1.00  0.00    -0.094 F 
ATOM     29  F   UNL A   1      33.553  18.610  24.601  1.00  0.00    -0.094 F 
ENDBRANCH  16  24
ENDBRANCH   7   9
ENDBRANCH   4   5
ENDBRANCH   3   4
ENDBRANCH   2   3
ENDBRANCH   1   2
BRANCH   1  30
ATOM     30  C   UNL A   1      34.366  29.599  27.130  1.00  0.00     0.021 C 
BRANCH  30  31
ATOM     31  C   UNL A   1      35.686  29.703  27.879  1.00  0.00     0.116 C 
BRANCH  31  32
ATOM     32  N   UNL A   1      35.428  30.080  29.276  1.00  0.00    -0.352 N 
ATOM     33  C   UNL A   1      36.533  30.106  30.247  1.00  0.00     0.251 C 
ATOM     34  H   UNL A   1      34.516  30.316  29.562  1.00  0.00     0.163 HD
ATOM     35  O   UNL A   1      36.310  30.433  31.454  1.00  0.00    -0.269 OA
BRANCH  33  36
ATOM     36  C   UNL A   1      37.941  29.744  29.805  1.00  0.00     0.039 A 
ATOM     37  C   UNL A   1      38.849  29.284  30.745  1.00  0.00     0.014 A 
ATOM     38  C   UNL A   1      38.278  29.873  28.527  1.00  0.00     0.014 A 
ATOM     39  C   UNL A   1      40.187  29.259  30.284  1.00  0.00     0.010 A 
ATOM     40  C   UNL A   1      39.581  29.701  28.126  1.00  0.00     0.010 A 
ATOM     41  C   UNL A   1      40.542  29.305  29.013  1.00  0.00    -0.014 A 
BRANCH  41  42
ATOM     42  C   UNL A   1      41.947  28.936  28.561  1.00  0.00     0.031 A 
ATOM     43  C   UNL A   1      42.905  29.950  28.509  1.00  0.00     0.074 A 
ATOM     44  C   UNL A   1      42.197  27.617  28.226  1.00  0.00     0.049 A 
ATOM     45  N   UNL A   1      44.191  29.837  28.175  1.00  0.00    -0.248 NA
ATOM     46  C   UNL A   1      42.633  31.359  28.831  1.00  0.00     0.031 C 
ATOM     47  C   UNL A   1      41.237  26.587  28.285  1.00  0.00     0.029 A 
ATOM     48  N   UNL A   1      43.379  27.066  27.787  1.00  0.00    -0.354 N 
ATOM     49  C   UNL A   1      44.797  31.024  28.261  1.00  0.00     0.074 A 
ATOM     50  C   UNL A   1      43.801  32.021  28.678  1.00  0.00     0.031 C 
ATOM     51  C   UNL A   1      41.831  25.435  27.876  1.00  0.00     0.029 A 
ATOM     52  C   UNL A   1      43.170  25.725  27.555  1.00  0.00     0.049 A 
ATOM     53  H   UNL A   1      44.229  27.548  27.661  1.00  0.00     0.167 HD
ATOM     54  C   UNL A   1      46.139  31.312  28.010  1.00  0.00     0.031 A 
ATOM     55  C   UNL A   1      44.082  24.791  27.089  1.00  0.00     0.031 A 
ATOM     56  C   UNL A   1      47.061  30.370  27.585  1.00  0.00     0.049 A 
ATOM     57  C   UNL A   1      45.411  25.093  26.782  1.00  0.00     0.074 A 
ATOM     58  C   UNL A   1      48.420  30.643  27.336  1.00  0.00     0.029 A 
ATOM     59  N   UNL A   1      46.845  29.033  27.331  1.00  0.00    -0.354 N 
ATOM     60  N   UNL A   1      46.025  26.270  26.906  1.00  0.00    -0.248 NA
ATOM     61  C   UNL A   1      46.377  24.118  26.257  1.00  0.00     0.031 C 
ATOM     62  C   UNL A   1      49.013  29.490  26.926  1.00  0.00     0.029 A 
ATOM     63  C   UNL A   1      48.034  28.478  26.913  1.00  0.00     0.049 A 
ATOM     64  H   UNL A   1      45.989  28.558  27.429  1.00  0.00     0.167 HD
ATOM     65  C   UNL A   1      47.302  26.165  26.532  1.00  0.00     0.074 A 
ATOM     66  C   UNL A   1      47.545  24.781  26.103  1.00  0.00     0.031 C 
ATOM     67  C   UNL A   1      48.275  27.166  26.536  1.00  0.00     0.031 A 
BRANCH  54  68
ATOM     68  C   UNL A   1      46.615  32.742  28.214  1.00  0.00    -0.014 A 
ATOM     69  C   UNL A   1      47.090  33.165  29.443  1.00  0.00     0.010 A 
ATOM     70  C   UNL A   1      46.507  33.581  27.191  1.00  0.00     0.010 A 
ATOM     71  C   UNL A   1      47.155  34.573  29.579  1.00  0.00     0.020 A 
ATOM     72  C   UNL A   1      46.719  34.927  27.366  1.00  0.00     0.020 A 
ATOM     73  C   UNL A   1      47.132  35.424  28.570  1.00  0.00     0.054 A 
BRANCH  73  74
ATOM     74  S   UNL A   1      47.622  37.155  28.771  1.00  0.00     0.124 S 
ATOM     75  O   UNL A   1      49.111  37.227  29.115  1.00  0.00    -0.237 OA
ATOM     76  O   UNL A   1      47.362  37.913  27.468  1.00  0.00    -0.237 OA
ATOM     77  O   UNL A   1      46.710  37.862  30.033  1.00  0.00    -0.744 OA
ENDBRANCH  73  74
ENDBRANCH  54  68
BRANCH  55  78
ATOM     78  C   UNL A   1      43.609  23.359  26.902  1.00  0.00    -0.014 A 
ATOM     79  C   UNL A   1      43.434  22.909  25.604  1.00  0.00     0.010 A 
ATOM     80  C   UNL A   1      43.418  22.555  27.941  1.00  0.00     0.010 A 
ATOM     81  C   UNL A   1      42.770  21.662  25.514  1.00  0.00     0.020 A 
ATOM     82  C   UNL A   1      42.892  21.298  27.766  1.00  0.00     0.020 A 
ATOM     83  C   UNL A   1      42.638  20.810  26.515  1.00  0.00     0.054 A 
BRANCH  83  84
ATOM     84  S   UNL A   1      42.149  19.089  26.243  1.00  0.00     0.124 S 
ATOM     85  O   UNL A   1      43.054  18.463  25.179  1.00  0.00    -0.237 OA
ATOM     86  O   UNL A   1      42.284  18.307  27.551  1.00  0.00    -0.237 OA
ATOM     87  O   UNL A   1      40.524  19.035  25.712  1.00  0.00    -0.744 OA
ENDBRANCH  83  84
ENDBRANCH  55  78
BRANCH  67  88
ATOM     88  C   UNL A   1      49.683  26.794  26.100  1.00  0.00    -0.014 A 
ATOM     89  C   UNL A   1      50.567  26.278  27.033  1.00  0.00     0.010 A 
ATOM     90  C   UNL A   1      50.041  26.968  24.835  1.00  0.00     0.010 A 
ATOM     91  C   UNL A   1      51.911  26.246  26.593  1.00  0.00     0.020 A 
ATOM     92  C   UNL A   1      51.347  26.788  24.446  1.00  0.00     0.020 A 
ATOM     93  C   UNL A   1      52.287  26.336  25.330  1.00  0.00     0.054 A 
BRANCH  93  94
ATOM     94  S   UNL A   1      53.958  25.887  24.798  1.00  0.00     0.124 S 
ATOM     95  O   UNL A   1      54.177  24.388  25.016  1.00  0.00    -0.237 OA
ATOM     96  O   UNL A   1      54.128  26.218  23.314  1.00  0.00    -0.237 OA
ATOM     97  O   UNL A   1      55.104  26.769  25.714  1.00  0.00    -0.744 OA
ENDBRANCH  93  94
ENDBRANCH  67  88
ENDBRANCH  41  42
ENDBRANCH  33  36
ENDBRANCH  31  32
ENDBRANCH  30  31
ENDBRANCH   1  30
TORSDOF 18
ENDMDL
