MODEL 1
REMARK VINA RESULT:     -12.0      0.000      0.000
REMARK SMILES O=C(NCCCCCCNC(=O)c1cc(S(=O)(=O)Nc2cc(F)ccc2F)cc2c1OCCO2)c1ccc(-c2c3nc(c(-c4ccc(S(=O)(=O)[O-])cc4)c4ccc([nH]4)c(-c4ccc(S(=O)(=O)[O-])cc4)c4nc(c(-c5ccc(S(=O)(=O)[O-])cc5)c5ccc2[nH]5)C=C4)C=C3)cc1
REMARK SMILES IDX 6 1 5 2 4 3 3 4 1 5 2 6 35 8 36 9 94 10 37 11 93 12 38 13
REMARK SMILES IDX 39 14 40 15 87 16 41 17 92 18 86 19 88 20 42 21 91 22 85 23
REMARK SMILES IDX 84 24 43 26 73 27 54 28 72 29 55 30 58 31 71 32 89 33 56 34
REMARK SMILES IDX 57 35 70 37 90 38 59 39 44 40 45 41 53 42 46 43 52 44 47 45
REMARK SMILES IDX 48 46 49 47 50 48 51 49 74 50 75 51 83 52 76 53 82 54 77 55
REMARK SMILES IDX 78 56 79 57 80 58 81 59 60 60 61 61 69 62 62 63 68 64 63 65
REMARK SMILES IDX 64 66 65 67 66 68 67 69 7 70 8 71 9 72 10 73 11 74 12 76
REMARK SMILES IDX 13 77 14 78 30 79 15 80 29 81 31 82 28 83 34 84 32 85 33 86
REMARK SMILES IDX 16 87 17 88 18 89 19 90 20 92 21 93 26 94 22 95 25 96 27 97
REMARK SMILES IDX 23 98 24 99
REMARK H PARENT 3 7 88 25 58 36 10 75 19 91
REMARK Flexibility Score: inf
ROOT
ATOM      1  C   UNL A   1      37.064  23.161  25.187  1.00  0.00     0.002 C 
ENDROOT
BRANCH   1   2
ATOM      2  C   UNL A   1      37.831  24.127  26.090  1.00  0.00     0.021 C 
BRANCH   2   3
ATOM      3  C   UNL A   1      39.058  23.555  26.794  1.00  0.00     0.116 C 
BRANCH   3   4
ATOM      4  N   UNL A   1      40.307  23.876  26.123  1.00  0.00    -0.352 N 
ATOM      5  O   UNL A   1      42.116  25.093  25.561  1.00  0.00    -0.269 OA
ATOM      6  C   UNL A   1      41.162  24.936  26.317  1.00  0.00     0.251 C 
ATOM      7  H   UNL A   1      40.582  23.240  25.423  1.00  0.00     0.163 HD
BRANCH   6   8
ATOM      8  C   UNL A   1      40.920  25.907  27.411  1.00  0.00     0.039 A 
ATOM      9  C   UNL A   1      41.638  27.102  27.492  1.00  0.00     0.014 A 
ATOM     10  C   UNL A   1      39.943  25.618  28.370  1.00  0.00     0.014 A 
ATOM     11  C   UNL A   1      41.487  27.929  28.603  1.00  0.00     0.010 A 
ATOM     12  C   UNL A   1      39.736  26.490  29.445  1.00  0.00     0.010 A 
ATOM     13  C   UNL A   1      40.534  27.635  29.592  1.00  0.00    -0.014 A 
BRANCH  13  14
ATOM     14  C   UNL A   1      40.371  28.559  30.746  1.00  0.00     0.031 A 
ATOM     15  C   UNL A   1      41.286  28.488  31.940  1.00  0.00     0.074 A 
ATOM     16  C   UNL A   1      39.411  29.504  30.694  1.00  0.00     0.049 A 
ATOM     17  N   UNL A   1      41.328  29.269  32.991  1.00  0.00    -0.248 NA
ATOM     18  C   UNL A   1      42.279  27.402  31.962  1.00  0.00     0.031 C 
ATOM     19  C   UNL A   1      38.453  29.671  29.598  1.00  0.00     0.029 A 
ATOM     20  N   UNL A   1      39.100  30.517  31.564  1.00  0.00    -0.354 N 
ATOM     21  C   UNL A   1      42.330  28.758  33.809  1.00  0.00     0.074 A 
ATOM     22  C   UNL A   1      42.860  27.588  33.140  1.00  0.00     0.031 C 
ATOM     23  C   UNL A   1      37.704  30.760  29.831  1.00  0.00     0.029 A 
ATOM     24  C   UNL A   1      38.091  31.336  31.115  1.00  0.00     0.049 A 
ATOM     25  H   UNL A   1      39.555  30.646  32.427  1.00  0.00     0.167 HD
ATOM     26  C   UNL A   1      42.773  29.222  35.003  1.00  0.00     0.031 A 
ATOM     27  C   UNL A   1      37.534  32.430  31.668  1.00  0.00     0.031 A 
ATOM     28  C   UNL A   1      42.252  30.389  35.667  1.00  0.00     0.049 A 
ATOM     29  C   UNL A   1      38.036  32.917  32.995  1.00  0.00     0.074 A 
ATOM     30  C   UNL A   1      42.663  30.958  36.860  1.00  0.00     0.029 A 
ATOM     31  N   UNL A   1      41.202  31.164  35.198  1.00  0.00    -0.354 N 
ATOM     32  N   UNL A   1      39.011  32.440  33.730  1.00  0.00    -0.248 NA
ATOM     33  C   UNL A   1      37.363  34.091  33.565  1.00  0.00     0.031 C 
ATOM     34  C   UNL A   1      41.835  32.052  37.134  1.00  0.00     0.029 A 
ATOM     35  C   UNL A   1      40.936  32.192  36.088  1.00  0.00     0.049 A 
ATOM     36  H   UNL A   1      40.717  31.006  34.355  1.00  0.00     0.167 HD
ATOM     37  C   UNL A   1      39.078  33.265  34.847  1.00  0.00     0.074 A 
ATOM     38  C   UNL A   1      38.057  34.281  34.679  1.00  0.00     0.031 C 
ATOM     39  C   UNL A   1      39.910  33.189  35.914  1.00  0.00     0.031 A 
BRANCH  26  40
ATOM     40  C   UNL A   1      43.865  28.442  35.688  1.00  0.00    -0.014 A 
ATOM     41  C   UNL A   1      45.223  28.739  35.467  1.00  0.00     0.010 A 
ATOM     42  C   UNL A   1      43.527  27.418  36.593  1.00  0.00     0.010 A 
ATOM     43  C   UNL A   1      46.222  27.994  36.101  1.00  0.00     0.020 A 
ATOM     44  C   UNL A   1      44.524  26.686  37.246  1.00  0.00     0.020 A 
ATOM     45  C   UNL A   1      45.866  26.966  36.979  1.00  0.00     0.054 A 
BRANCH  45  46
ATOM     46  S   UNL A   1      47.181  26.012  37.787  1.00  0.00     0.124 S 
ATOM     47  O   UNL A   1      48.382  26.685  37.299  1.00  0.00    -0.237 OA
ATOM     48  O   UNL A   1      46.890  26.202  39.207  1.00  0.00    -0.237 OA
ATOM     49  O   UNL A   1      46.980  24.654  37.290  1.00  0.00    -0.744 OA
ENDBRANCH  45  46
ENDBRANCH  26  40
BRANCH  27  50
ATOM     50  C   UNL A   1      36.444  33.142  30.950  1.00  0.00    -0.014 A 
ATOM     51  C   UNL A   1      35.128  33.108  31.441  1.00  0.00     0.010 A 
ATOM     52  C   UNL A   1      36.726  33.890  29.792  1.00  0.00     0.010 A 
ATOM     53  C   UNL A   1      34.111  33.805  30.784  1.00  0.00     0.020 A 
ATOM     54  C   UNL A   1      35.717  34.609  29.148  1.00  0.00     0.020 A 
ATOM     55  C   UNL A   1      34.413  34.553  29.643  1.00  0.00     0.054 A 
BRANCH  55  56
ATOM     56  S   UNL A   1      33.093  35.510  28.845  1.00  0.00     0.124 S 
ATOM     57  O   UNL A   1      32.369  36.041  29.995  1.00  0.00    -0.237 OA
ATOM     58  O   UNL A   1      33.840  36.489  28.059  1.00  0.00    -0.237 OA
ATOM     59  O   UNL A   1      32.376  34.509  28.059  1.00  0.00    -0.744 OA
ENDBRANCH  55  56
ENDBRANCH  27  50
BRANCH  39  60
ATOM     60  C   UNL A   1      39.762  34.246  36.973  1.00  0.00    -0.014 A 
ATOM     61  C   UNL A   1      40.340  35.517  36.816  1.00  0.00     0.010 A 
ATOM     62  C   UNL A   1      39.012  33.970  38.131  1.00  0.00     0.010 A 
ATOM     63  C   UNL A   1      40.204  36.483  37.816  1.00  0.00     0.020 A 
ATOM     64  C   UNL A   1      38.855  34.940  39.122  1.00  0.00     0.020 A 
ATOM     65  C   UNL A   1      39.467  36.186  38.967  1.00  0.00     0.054 A 
BRANCH  65  66
ATOM     66  S   UNL A   1      39.280  37.461  40.243  1.00  0.00     0.124 S 
ATOM     67  O   UNL A   1      38.774  36.688  41.373  1.00  0.00    -0.237 OA
ATOM     68  O   UNL A   1      40.640  37.973  40.390  1.00  0.00    -0.237 OA
ATOM     69  O   UNL A   1      38.329  38.401  39.654  1.00  0.00    -0.744 OA
ENDBRANCH  65  66
ENDBRANCH  39  60
ENDBRANCH  13  14
ENDBRANCH   6   8
ENDBRANCH   3   4
ENDBRANCH   2   3
ENDBRANCH   1   2
BRANCH   1  70
ATOM     70  C   UNL A   1      36.642  21.831  25.815  1.00  0.00     0.002 C 
BRANCH  70  71
ATOM     71  C   UNL A   1      35.268  21.797  26.491  1.00  0.00     0.021 C 
BRANCH  71  72
ATOM     72  C   UNL A   1      34.581  23.145  26.701  1.00  0.00     0.116 C 
BRANCH  72  73
ATOM     73  N   UNL A   1      33.254  23.050  27.285  1.00  0.00    -0.352 N 
ATOM     74  C   UNL A   1      32.078  22.657  26.685  1.00  0.00     0.255 C 
ATOM     75  H   UNL A   1      33.186  23.300  28.235  1.00  0.00     0.163 HD
ATOM     76  O   UNL A   1      31.025  22.651  27.317  1.00  0.00    -0.269 OA
BRANCH  74  77
ATOM     77  C   UNL A   1      32.049  22.391  25.229  1.00  0.00     0.087 A 
ATOM     78  C   UNL A   1      32.014  23.522  24.404  1.00  0.00     0.040 A 
ATOM     79  C   UNL A   1      32.174  21.117  24.676  1.00  0.00     0.174 A 
ATOM     80  C   UNL A   1      32.304  23.405  23.047  1.00  0.00     0.092 A 
ATOM     81  C   UNL A   1      32.337  20.996  23.291  1.00  0.00     0.163 A 
ATOM     82  O   UNL A   1      32.141  20.031  25.512  1.00  0.00    -0.485 OA
ATOM     83  C   UNL A   1      32.445  22.131  22.484  1.00  0.00     0.072 A 
ATOM     84  O   UNL A   1      32.463  19.789  22.653  1.00  0.00    -0.486 OA
ATOM     85  C   UNL A   1      32.667  18.857  24.882  1.00  0.00     0.271 C 
ATOM     86  C   UNL A   1      32.075  18.696  23.494  1.00  0.00     0.271 C 
BRANCH  80  87
ATOM     87  S   UNL A   1      32.700  24.794  22.001  1.00  0.00     0.262 S 
ATOM     88  O   UNL A   1      33.270  24.234  20.789  1.00  0.00    -0.201 OA
ATOM     89  O   UNL A   1      31.521  25.624  21.962  1.00  0.00    -0.201 OA
BRANCH  87  90
ATOM     90  N   UNL A   1      33.870  25.736  22.732  1.00  0.00    -0.277 N 
ATOM     91  H   UNL A   1      34.809  25.540  22.507  1.00  0.00     0.180 HD
BRANCH  90  92
ATOM     92  C   UNL A   1      33.633  26.797  23.653  1.00  0.00     0.087 A 
ATOM     93  C   UNL A   1      33.162  26.614  24.953  1.00  0.00     0.069 A 
ATOM     94  C   UNL A   1      33.787  28.101  23.157  1.00  0.00     0.147 A 
ATOM     95  C   UNL A   1      32.723  27.727  25.671  1.00  0.00     0.125 A 
ATOM     96  C   UNL A   1      33.364  29.207  23.883  1.00  0.00     0.044 A 
ATOM     97  F   UNL A   1      34.271  28.280  21.917  1.00  0.00    -0.205 F 
ATOM     98  F   UNL A   1      32.167  27.553  26.877  1.00  0.00    -0.207 F 
ATOM     99  C   UNL A   1      32.799  29.015  25.141  1.00  0.00     0.042 A 
ENDBRANCH  90  92
ENDBRANCH  87  90
ENDBRANCH  80  87
ENDBRANCH  74  77
ENDBRANCH  72  73
ENDBRANCH  71  72
ENDBRANCH  70  71
ENDBRANCH   1  70
TORSDOF 19
ENDMDL
MODEL 2
REMARK VINA RESULT:     -12.0      1.721      2.457
REMARK SMILES O=C(NCCCCCCNC(=O)c1cc(S(=O)(=O)Nc2cc(F)ccc2F)cc2c1OCCO2)c1ccc(-c2c3nc(c(-c4ccc(S(=O)(=O)[O-])cc4)c4ccc([nH]4)c(-c4ccc(S(=O)(=O)[O-])cc4)c4nc(c(-c5ccc(S(=O)(=O)[O-])cc5)c5ccc2[nH]5)C=C4)C=C3)cc1
REMARK SMILES IDX 6 1 5 2 4 3 3 4 1 5 2 6 35 8 36 9 94 10 37 11 93 12 38 13
REMARK SMILES IDX 39 14 40 15 87 16 41 17 92 18 86 19 88 20 42 21 91 22 85 23
REMARK SMILES IDX 84 24 43 26 73 27 54 28 72 29 55 30 58 31 71 32 89 33 56 34
REMARK SMILES IDX 57 35 70 37 90 38 59 39 44 40 45 41 53 42 46 43 52 44 47 45
REMARK SMILES IDX 48 46 49 47 50 48 51 49 74 50 75 51 83 52 76 53 82 54 77 55
REMARK SMILES IDX 78 56 79 57 80 58 81 59 60 60 61 61 69 62 62 63 68 64 63 65
REMARK SMILES IDX 64 66 65 67 66 68 67 69 7 70 8 71 9 72 10 73 11 74 12 76
REMARK SMILES IDX 13 77 14 78 30 79 15 80 29 81 31 82 28 83 34 84 32 85 33 86
REMARK SMILES IDX 16 87 17 88 18 89 19 90 20 92 21 93 26 94 22 95 25 96 27 97
REMARK SMILES IDX 23 98 24 99
REMARK H PARENT 3 7 88 25 58 36 10 75 19 91
REMARK Flexibility Score: inf
ROOT
ATOM      1  C   UNL A   1      36.466  22.952  26.272  1.00  0.00     0.002 C 
ENDROOT
BRANCH   1   2
ATOM      2  C   UNL A   1      37.927  23.050  25.833  1.00  0.00     0.021 C 
BRANCH   2   3
ATOM      3  C   UNL A   1      38.827  23.931  26.695  1.00  0.00     0.116 C 
BRANCH   3   4
ATOM      4  N   UNL A   1      40.155  24.119  26.133  1.00  0.00    -0.352 N 
ATOM      5  O   UNL A   1      42.129  25.130  25.748  1.00  0.00    -0.269 OA
ATOM      6  C   UNL A   1      41.104  25.072  26.422  1.00  0.00     0.251 C 
ATOM      7  H   UNL A   1      40.412  23.467  25.442  1.00  0.00     0.163 HD
BRANCH   6   8
ATOM      8  C   UNL A   1      40.885  26.045  27.518  1.00  0.00     0.039 A 
ATOM      9  C   UNL A   1      41.637  27.219  27.607  1.00  0.00     0.014 A 
ATOM     10  C   UNL A   1      39.895  25.781  28.471  1.00  0.00     0.014 A 
ATOM     11  C   UNL A   1      41.503  28.046  28.719  1.00  0.00     0.010 A 
ATOM     12  C   UNL A   1      39.707  26.656  29.547  1.00  0.00     0.010 A 
ATOM     13  C   UNL A   1      40.537  27.777  29.703  1.00  0.00    -0.014 A 
BRANCH  13  14
ATOM     14  C   UNL A   1      40.394  28.702  30.858  1.00  0.00     0.031 A 
ATOM     15  C   UNL A   1      41.313  28.615  32.048  1.00  0.00     0.074 A 
ATOM     16  C   UNL A   1      39.449  29.662  30.812  1.00  0.00     0.049 A 
ATOM     17  N   UNL A   1      41.373  29.393  33.100  1.00  0.00    -0.248 NA
ATOM     18  C   UNL A   1      42.288  27.513  32.064  1.00  0.00     0.031 C 
ATOM     19  C   UNL A   1      38.488  29.847  29.720  1.00  0.00     0.029 A 
ATOM     20  N   UNL A   1      39.158  30.679  31.685  1.00  0.00    -0.354 N 
ATOM     21  C   UNL A   1      42.370  28.864  33.912  1.00  0.00     0.074 A 
ATOM     22  C   UNL A   1      42.877  27.687  33.240  1.00  0.00     0.031 C 
ATOM     23  C   UNL A   1      37.759  30.947  29.959  1.00  0.00     0.029 A 
ATOM     24  C   UNL A   1      38.160  31.515  31.241  1.00  0.00     0.049 A 
ATOM     25  H   UNL A   1      39.619  30.799  32.546  1.00  0.00     0.167 HD
ATOM     26  C   UNL A   1      42.826  29.319  35.105  1.00  0.00     0.031 A 
ATOM     27  C   UNL A   1      37.624  32.616  31.799  1.00  0.00     0.031 A 
ATOM     28  C   UNL A   1      42.327  30.494  35.773  1.00  0.00     0.049 A 
ATOM     29  C   UNL A   1      38.140  33.093  33.125  1.00  0.00     0.074 A 
ATOM     30  C   UNL A   1      42.752  31.054  36.965  1.00  0.00     0.029 A 
ATOM     31  N   UNL A   1      41.287  31.286  35.310  1.00  0.00    -0.354 N 
ATOM     32  N   UNL A   1      39.110  32.600  33.854  1.00  0.00    -0.248 NA
ATOM     33  C   UNL A   1      37.488  34.277  33.700  1.00  0.00     0.031 C 
ATOM     34  C   UNL A   1      41.943  32.161  37.244  1.00  0.00     0.029 A 
ATOM     35  C   UNL A   1      41.042  32.317  36.203  1.00  0.00     0.049 A 
ATOM     36  H   UNL A   1      40.795  31.138  34.469  1.00  0.00     0.167 HD
ATOM     37  C   UNL A   1      39.196  33.422  34.972  1.00  0.00     0.074 A 
ATOM     38  C   UNL A   1      38.191  34.455  34.810  1.00  0.00     0.031 C 
ATOM     39  C   UNL A   1      40.032  33.331  36.035  1.00  0.00     0.031 A 
BRANCH  26  40
ATOM     40  C   UNL A   1      43.908  28.521  35.784  1.00  0.00    -0.014 A 
ATOM     41  C   UNL A   1      45.269  28.812  35.576  1.00  0.00     0.010 A 
ATOM     42  C   UNL A   1      43.558  27.485  36.669  1.00  0.00     0.010 A 
ATOM     43  C   UNL A   1      46.259  28.051  36.204  1.00  0.00     0.020 A 
ATOM     44  C   UNL A   1      44.545  26.735  37.316  1.00  0.00     0.020 A 
ATOM     45  C   UNL A   1      45.891  27.010  37.062  1.00  0.00     0.054 A 
BRANCH  45  46
ATOM     46  S   UNL A   1      47.194  26.035  37.863  1.00  0.00     0.124 S 
ATOM     47  O   UNL A   1      48.340  26.297  36.997  1.00  0.00    -0.237 OA
ATOM     48  O   UNL A   1      47.269  26.629  39.196  1.00  0.00    -0.237 OA
ATOM     49  O   UNL A   1      46.680  24.668  37.822  1.00  0.00    -0.744 OA
ENDBRANCH  45  46
ENDBRANCH  26  40
BRANCH  27  50
ATOM     50  C   UNL A   1      36.542  33.348  31.087  1.00  0.00    -0.014 A 
ATOM     51  C   UNL A   1      36.806  34.003  29.873  1.00  0.00     0.010 A 
ATOM     52  C   UNL A   1      35.234  33.358  31.604  1.00  0.00     0.010 A 
ATOM     53  C   UNL A   1      35.782  34.662  29.189  1.00  0.00     0.020 A 
ATOM     54  C   UNL A   1      34.202  33.994  30.910  1.00  0.00     0.020 A 
ATOM     55  C   UNL A   1      34.485  34.651  29.711  1.00  0.00     0.054 A 
BRANCH  55  56
ATOM     56  S   UNL A   1      33.153  35.450  28.772  1.00  0.00     0.124 S 
ATOM     57  O   UNL A   1      32.547  34.315  28.083  1.00  0.00    -0.237 OA
ATOM     58  O   UNL A   1      32.343  36.059  29.824  1.00  0.00    -0.237 OA
ATOM     59  O   UNL A   1      33.863  36.398  27.917  1.00  0.00    -0.744 OA
ENDBRANCH  55  56
ENDBRANCH  27  50
BRANCH  39  60
ATOM     60  C   UNL A   1      39.905  34.388  37.096  1.00  0.00    -0.014 A 
ATOM     61  C   UNL A   1      40.481  35.659  36.926  1.00  0.00     0.010 A 
ATOM     62  C   UNL A   1      39.178  34.113  38.269  1.00  0.00     0.010 A 
ATOM     63  C   UNL A   1      40.365  36.626  37.928  1.00  0.00     0.020 A 
ATOM     64  C   UNL A   1      39.042  35.085  39.263  1.00  0.00     0.020 A 
ATOM     65  C   UNL A   1      39.651  36.329  39.094  1.00  0.00     0.054 A 
BRANCH  65  66
ATOM     66  S   UNL A   1      39.491  37.606  40.373  1.00  0.00     0.124 S 
ATOM     67  O   UNL A   1      40.868  38.073  40.508  1.00  0.00    -0.237 OA
ATOM     68  O   UNL A   1      38.561  38.556  39.768  1.00  0.00    -0.237 OA
ATOM     69  O   UNL A   1      38.965  36.876  41.524  1.00  0.00    -0.744 OA
ENDBRANCH  65  66
ENDBRANCH  39  60
ENDBRANCH  13  14
ENDBRANCH   6   8
ENDBRANCH   3   4
ENDBRANCH   2   3
ENDBRANCH   1   2
BRANCH   1  70
ATOM     70  C   UNL A   1      35.698  21.711  25.809  1.00  0.00     0.002 C 
BRANCH  70  71
ATOM     71  C   UNL A   1      34.408  21.381  26.565  1.00  0.00     0.021 C 
BRANCH  71  72
ATOM     72  C   UNL A   1      33.839  22.487  27.452  1.00  0.00     0.116 C 
BRANCH  72  73
ATOM     73  N   UNL A   1      32.394  22.444  27.600  1.00  0.00    -0.352 N 
ATOM     74  C   UNL A   1      31.439  23.167  26.920  1.00  0.00     0.255 C 
ATOM     75  H   UNL A   1      32.052  21.815  28.276  1.00  0.00     0.163 HD
ATOM     76  O   UNL A   1      30.247  23.029  27.179  1.00  0.00    -0.269 OA
BRANCH  74  77
ATOM     77  C   UNL A   1      31.855  24.234  25.982  1.00  0.00     0.087 A 
ATOM     78  C   UNL A   1      31.812  25.540  26.486  1.00  0.00     0.040 A 
ATOM     79  C   UNL A   1      32.381  23.983  24.715  1.00  0.00     0.174 A 
ATOM     80  C   UNL A   1      32.471  26.568  25.817  1.00  0.00     0.092 A 
ATOM     81  C   UNL A   1      32.930  25.047  23.989  1.00  0.00     0.163 A 
ATOM     82  O   UNL A   1      32.349  22.700  24.231  1.00  0.00    -0.485 OA
ATOM     83  C   UNL A   1      33.016  26.323  24.551  1.00  0.00     0.072 A 
ATOM     84  O   UNL A   1      33.467  24.903  22.735  1.00  0.00    -0.486 OA
ATOM     85  C   UNL A   1      33.254  22.521  23.135  1.00  0.00     0.271 C 
ATOM     86  C   UNL A   1      33.100  23.654  22.137  1.00  0.00     0.271 C 
BRANCH  80  87
ATOM     87  S   UNL A   1      32.840  28.148  26.558  1.00  0.00     0.262 S 
ATOM     88  O   UNL A   1      31.870  28.327  27.624  1.00  0.00    -0.201 OA
ATOM     89  O   UNL A   1      34.257  28.152  26.825  1.00  0.00    -0.201 OA
BRANCH  87  90
ATOM     90  N   UNL A   1      32.604  29.365  25.439  1.00  0.00    -0.277 N 
ATOM     91  H   UNL A   1      33.402  29.859  25.139  1.00  0.00     0.180 HD
BRANCH  90  92
ATOM     92  C   UNL A   1      31.353  29.753  24.877  1.00  0.00     0.087 A 
ATOM     93  C   UNL A   1      30.687  29.038  23.882  1.00  0.00     0.069 A 
ATOM     94  C   UNL A   1      30.840  30.991  25.294  1.00  0.00     0.147 A 
ATOM     95  C   UNL A   1      29.611  29.641  23.230  1.00  0.00     0.125 A 
ATOM     96  C   UNL A   1      29.757  31.579  24.652  1.00  0.00     0.044 A 
ATOM     97  F   UNL A   1      31.461  31.665  26.275  1.00  0.00    -0.205 F 
ATOM     98  F   UNL A   1      29.032  29.012  22.199  1.00  0.00    -0.207 F 
ATOM     99  C   UNL A   1      29.155  30.909  23.590  1.00  0.00     0.042 A 
ENDBRANCH  90  92
ENDBRANCH  87  90
ENDBRANCH  80  87
ENDBRANCH  74  77
ENDBRANCH  72  73
ENDBRANCH  71  72
ENDBRANCH  70  71
ENDBRANCH   1  70
TORSDOF 19
ENDMDL
MODEL 3
REMARK VINA RESULT:     -11.8      1.455      2.389
REMARK SMILES O=C(NCCCCCCNC(=O)c1cc(S(=O)(=O)Nc2cc(F)ccc2F)cc2c1OCCO2)c1ccc(-c2c3nc(c(-c4ccc(S(=O)(=O)[O-])cc4)c4ccc([nH]4)c(-c4ccc(S(=O)(=O)[O-])cc4)c4nc(c(-c5ccc(S(=O)(=O)[O-])cc5)c5ccc2[nH]5)C=C4)C=C3)cc1
REMARK SMILES IDX 6 1 5 2 4 3 3 4 1 5 2 6 35 8 36 9 94 10 37 11 93 12 38 13
REMARK SMILES IDX 39 14 40 15 87 16 41 17 92 18 86 19 88 20 42 21 91 22 85 23
REMARK SMILES IDX 84 24 43 26 73 27 54 28 72 29 55 30 58 31 71 32 89 33 56 34
REMARK SMILES IDX 57 35 70 37 90 38 59 39 44 40 45 41 53 42 46 43 52 44 47 45
REMARK SMILES IDX 48 46 49 47 50 48 51 49 74 50 75 51 83 52 76 53 82 54 77 55
REMARK SMILES IDX 78 56 79 57 80 58 81 59 60 60 61 61 69 62 62 63 68 64 63 65
REMARK SMILES IDX 64 66 65 67 66 68 67 69 7 70 8 71 9 72 10 73 11 74 12 76
REMARK SMILES IDX 13 77 14 78 30 79 15 80 29 81 31 82 28 83 34 84 32 85 33 86
REMARK SMILES IDX 16 87 17 88 18 89 19 90 20 92 21 93 26 94 22 95 25 96 27 97
REMARK SMILES IDX 23 98 24 99
REMARK H PARENT 3 7 88 25 58 36 10 75 19 91
REMARK Flexibility Score: inf
ROOT
ATOM      1  C   UNL A   1      38.750  22.358  26.007  1.00  0.00     0.002 C 
ENDROOT
BRANCH   1   2
ATOM      2  C   UNL A   1      39.299  23.309  27.071  1.00  0.00     0.021 C 
BRANCH   2   3
ATOM      3  C   UNL A   1      40.819  23.377  27.186  1.00  0.00     0.116 C 
BRANCH   3   4
ATOM      4  N   UNL A   1      41.442  24.138  26.116  1.00  0.00    -0.352 N 
ATOM      5  O   UNL A   1      42.119  25.957  24.974  1.00  0.00    -0.269 OA
ATOM      6  C   UNL A   1      41.682  25.490  26.022  1.00  0.00     0.251 C 
ATOM      7  H   UNL A   1      41.736  23.606  25.341  1.00  0.00     0.163 HD
BRANCH   6   8
ATOM      8  C   UNL A   1      41.386  26.388  27.164  1.00  0.00     0.039 A 
ATOM      9  C   UNL A   1      41.914  27.679  27.227  1.00  0.00     0.014 A 
ATOM     10  C   UNL A   1      40.549  25.929  28.188  1.00  0.00     0.014 A 
ATOM     11  C   UNL A   1      41.730  28.448  28.374  1.00  0.00     0.010 A 
ATOM     12  C   UNL A   1      40.301  26.736  29.304  1.00  0.00     0.010 A 
ATOM     13  C   UNL A   1      40.921  27.988  29.425  1.00  0.00    -0.014 A 
BRANCH  13  14
ATOM     14  C   UNL A   1      40.714  28.851  30.619  1.00  0.00     0.031 A 
ATOM     15  C   UNL A   1      41.631  28.770  31.811  1.00  0.00     0.074 A 
ATOM     16  C   UNL A   1      39.711  29.752  30.606  1.00  0.00     0.049 A 
ATOM     17  N   UNL A   1      41.636  29.504  32.895  1.00  0.00    -0.248 NA
ATOM     18  C   UNL A   1      42.674  27.732  31.787  1.00  0.00     0.031 C 
ATOM     19  C   UNL A   1      38.747  29.923  29.516  1.00  0.00     0.029 A 
ATOM     20  N   UNL A   1      39.352  30.709  31.520  1.00  0.00    -0.354 N 
ATOM     21  C   UNL A   1      42.660  29.004  33.693  1.00  0.00     0.074 A 
ATOM     22  C   UNL A   1      43.244  27.892  32.974  1.00  0.00     0.031 C 
ATOM     23  C   UNL A   1      37.948  30.964  29.795  1.00  0.00     0.029 A 
ATOM     24  C   UNL A   1      38.306  31.499  31.104  1.00  0.00     0.049 A 
ATOM     25  H   UNL A   1      39.800  30.821  32.389  1.00  0.00     0.167 HD
ATOM     26  C   UNL A   1      43.080  29.435  34.907  1.00  0.00     0.031 A 
ATOM     27  C   UNL A   1      37.699  32.540  31.704  1.00  0.00     0.031 A 
ATOM     28  C   UNL A   1      42.504  30.545  35.621  1.00  0.00     0.049 A 
ATOM     29  C   UNL A   1      38.176  32.990  33.053  1.00  0.00     0.074 A 
ATOM     30  C   UNL A   1      42.888  31.079  36.839  1.00  0.00     0.029 A 
ATOM     31  N   UNL A   1      41.419  31.291  35.184  1.00  0.00    -0.354 N 
ATOM     32  N   UNL A   1      39.172  32.527  33.769  1.00  0.00    -0.248 NA
ATOM     33  C   UNL A   1      37.449  34.105  33.674  1.00  0.00     0.031 C 
ATOM     34  C   UNL A   1      42.009  32.120  37.159  1.00  0.00     0.029 A 
ATOM     35  C   UNL A   1      41.106  32.264  36.119  1.00  0.00     0.049 A 
ATOM     36  H   UNL A   1      40.943  31.148  34.334  1.00  0.00     0.167 HD
ATOM     37  C   UNL A   1      39.200  33.304  34.922  1.00  0.00     0.074 A 
ATOM     38  C   UNL A   1      38.133  34.278  34.796  1.00  0.00     0.031 C 
ATOM     39  C   UNL A   1      40.034  33.219  35.987  1.00  0.00     0.031 A 
BRANCH  26  40
ATOM     40  C   UNL A   1      44.207  28.677  35.560  1.00  0.00    -0.014 A 
ATOM     41  C   UNL A   1      43.959  27.549  36.364  1.00  0.00     0.010 A 
ATOM     42  C   UNL A   1      45.537  29.081  35.339  1.00  0.00     0.010 A 
ATOM     43  C   UNL A   1      45.017  26.868  36.973  1.00  0.00     0.020 A 
ATOM     44  C   UNL A   1      46.599  28.389  35.928  1.00  0.00     0.020 A 
ATOM     45  C   UNL A   1      46.330  27.299  36.759  1.00  0.00     0.054 A 
BRANCH  45  46
ATOM     46  S   UNL A   1      47.686  26.400  37.563  1.00  0.00     0.124 S 
ATOM     47  O   UNL A   1      47.572  26.858  38.945  1.00  0.00    -0.237 OA
ATOM     48  O   UNL A   1      47.326  25.002  37.335  1.00  0.00    -0.237 OA
ATOM     49  O   UNL A   1      48.876  26.857  36.850  1.00  0.00    -0.744 OA
ENDBRANCH  45  46
ENDBRANCH  26  40
BRANCH  27  50
ATOM     50  C   UNL A   1      36.577  33.232  31.016  1.00  0.00    -0.014 A 
ATOM     51  C   UNL A   1      35.308  33.301  31.617  1.00  0.00     0.010 A 
ATOM     52  C   UNL A   1      36.784  33.859  29.774  1.00  0.00     0.010 A 
ATOM     53  C   UNL A   1      34.264  33.980  30.984  1.00  0.00     0.020 A 
ATOM     54  C   UNL A   1      35.749  34.560  29.151  1.00  0.00     0.020 A 
ATOM     55  C   UNL A   1      34.492  34.607  29.756  1.00  0.00     0.054 A 
BRANCH  55  56
ATOM     56  S   UNL A   1      33.143  35.546  28.985  1.00  0.00     0.124 S 
ATOM     57  O   UNL A   1      33.874  36.523  28.186  1.00  0.00    -0.237 OA
ATOM     58  O   UNL A   1      32.429  34.517  28.232  1.00  0.00    -0.237 OA
ATOM     59  O   UNL A   1      32.412  36.089  30.127  1.00  0.00    -0.744 OA
ENDBRANCH  55  56
ENDBRANCH  27  50
BRANCH  39  60
ATOM     60  C   UNL A   1      39.835  34.220  37.091  1.00  0.00    -0.014 A 
ATOM     61  C   UNL A   1      39.052  33.912  38.217  1.00  0.00     0.010 A 
ATOM     62  C   UNL A   1      40.461  35.478  37.011  1.00  0.00     0.010 A 
ATOM     63  C   UNL A   1      38.867  34.858  39.228  1.00  0.00     0.020 A 
ATOM     64  C   UNL A   1      40.295  36.418  38.030  1.00  0.00     0.020 A 
ATOM     65  C   UNL A   1      39.485  36.109  39.124  1.00  0.00     0.054 A 
BRANCH  65  66
ATOM     66  S   UNL A   1      39.252  37.316  40.458  1.00  0.00     0.124 S 
ATOM     67  O   UNL A   1      38.157  38.132  39.940  1.00  0.00    -0.237 OA
ATOM     68  O   UNL A   1      38.921  36.472  41.604  1.00  0.00    -0.237 OA
ATOM     69  O   UNL A   1      40.546  37.989  40.543  1.00  0.00    -0.744 OA
ENDBRANCH  65  66
ENDBRANCH  39  60
ENDBRANCH  13  14
ENDBRANCH   6   8
ENDBRANCH   3   4
ENDBRANCH   2   3
ENDBRANCH   1   2
BRANCH   1  70
ATOM     70  C   UNL A   1      37.250  22.456  25.715  1.00  0.00     0.002 C 
BRANCH  70  71
ATOM     71  C   UNL A   1      36.854  22.938  24.317  1.00  0.00     0.021 C 
BRANCH  71  72
ATOM     72  C   UNL A   1      35.473  23.579  24.185  1.00  0.00     0.116 C 
BRANCH  72  73
ATOM     73  N   UNL A   1      34.795  23.275  22.935  1.00  0.00    -0.352 N 
ATOM     74  C   UNL A   1      33.549  23.681  22.514  1.00  0.00     0.255 C 
ATOM     75  H   UNL A   1      35.294  22.703  22.307  1.00  0.00     0.163 HD
ATOM     76  O   UNL A   1      33.106  23.316  21.428  1.00  0.00    -0.269 OA
BRANCH  74  77
ATOM     77  C   UNL A   1      32.667  24.429  23.439  1.00  0.00     0.087 A 
ATOM     78  C   UNL A   1      32.411  25.761  23.093  1.00  0.00     0.040 A 
ATOM     79  C   UNL A   1      32.016  23.843  24.524  1.00  0.00     0.174 A 
ATOM     80  C   UNL A   1      31.363  26.450  23.698  1.00  0.00     0.092 A 
ATOM     81  C   UNL A   1      31.050  24.587  25.213  1.00  0.00     0.163 A 
ATOM     82  O   UNL A   1      32.340  22.557  24.870  1.00  0.00    -0.485 OA
ATOM     83  C   UNL A   1      30.693  25.866  24.779  1.00  0.00     0.072 A 
ATOM     84  O   UNL A   1      30.359  24.102  26.294  1.00  0.00    -0.486 OA
ATOM     85  C   UNL A   1      31.344  21.964  25.712  1.00  0.00     0.271 C 
ATOM     86  C   UNL A   1      30.966  22.919  26.829  1.00  0.00     0.271 C 
BRANCH  80  87
ATOM     87  S   UNL A   1      30.683  27.970  23.057  1.00  0.00     0.262 S 
ATOM     88  O   UNL A   1      30.649  27.817  21.614  1.00  0.00    -0.201 OA
ATOM     89  O   UNL A   1      29.483  28.230  23.814  1.00  0.00    -0.201 OA
BRANCH  87  90
ATOM     90  N   UNL A   1      31.707  29.241  23.415  1.00  0.00    -0.277 N 
ATOM     91  H   UNL A   1      31.877  29.895  22.699  1.00  0.00     0.180 HD
BRANCH  90  92
ATOM     92  C   UNL A   1      32.356  29.463  24.664  1.00  0.00     0.087 A 
ATOM     93  C   UNL A   1      33.530  28.823  25.061  1.00  0.00     0.069 A 
ATOM     94  C   UNL A   1      31.691  30.301  25.573  1.00  0.00     0.147 A 
ATOM     95  C   UNL A   1      33.930  28.921  26.394  1.00  0.00     0.125 A 
ATOM     96  C   UNL A   1      32.104  30.409  26.895  1.00  0.00     0.044 A 
ATOM     97  F   UNL A   1      30.579  30.944  25.182  1.00  0.00    -0.205 F 
ATOM     98  F   UNL A   1      34.993  28.222  26.813  1.00  0.00    -0.207 F 
ATOM     99  C   UNL A   1      33.218  29.688  27.316  1.00  0.00     0.042 A 
ENDBRANCH  90  92
ENDBRANCH  87  90
ENDBRANCH  80  87
ENDBRANCH  74  77
ENDBRANCH  72  73
ENDBRANCH  71  72
ENDBRANCH  70  71
ENDBRANCH   1  70
TORSDOF 19
ENDMDL
