MODEL 1
REMARK VINA RESULT:     -11.4      0.000      0.000
REMARK SMILES O=C(NCCCCCCNC(=O)[C@H]1CC[C@H]2CCCC[C@@H]2[N@H+]1C[C@@H]1CCCCO1)c1ccc(-c2c3nc(c(-c4ccc(S(=O)(=O)[O-])cc4)c4ccc([nH]4)c(-c4ccc(S(=O)(=O)[O-])cc4)c4nc(c(-c5ccc(S(=O)(=O)[O-])cc5)c5ccc2[nH]5)C=C4)C=C3)cc1
REMARK SMILES IDX 6 1 5 2 4 3 3 4 1 5 2 6 30 8 31 9 89 10 32 11 88 12 33 13
REMARK SMILES IDX 34 14 35 15 82 16 36 17 87 18 81 19 83 20 37 21 86 22 80 23
REMARK SMILES IDX 79 24 38 26 68 27 49 28 67 29 50 30 53 31 66 32 84 33 51 34
REMARK SMILES IDX 52 35 65 37 85 38 54 39 39 40 40 41 48 42 41 43 47 44 42 45
REMARK SMILES IDX 43 46 44 47 45 48 46 49 69 50 70 51 78 52 71 53 77 54 72 55
REMARK SMILES IDX 73 56 74 57 75 58 76 59 55 60 56 61 64 62 57 63 63 64 58 65
REMARK SMILES IDX 59 66 60 67 61 68 62 69 7 70 8 71 9 72 10 73 11 74 12 76
REMARK SMILES IDX 13 77 14 78 22 79 15 80 21 81 16 83 20 84 17 85 19 86 18 87
REMARK SMILES IDX 23 88 24 89 25 90 29 91 26 92 28 93 27 94
REMARK H PARENT 3 7 83 25 53 36 10 75 22 82
REMARK Flexibility Score: inf
ROOT
ATOM      1  C   UNL A   1      32.220  30.130  26.163  1.00  0.00     0.002 C 
ENDROOT
BRANCH   1   2
ATOM      2  C   UNL A   1      31.914  31.523  26.707  1.00  0.00     0.021 C 
BRANCH   2   3
ATOM      3  C   UNL A   1      33.108  32.172  27.385  1.00  0.00     0.116 C 
BRANCH   3   4
ATOM      4  N   UNL A   1      32.835  33.559  27.726  1.00  0.00    -0.352 N 
ATOM      5  O   UNL A   1      32.858  35.371  29.076  1.00  0.00    -0.269 OA
ATOM      6  C   UNL A   1      33.357  34.297  28.758  1.00  0.00     0.251 C 
ATOM      7  H   UNL A   1      32.196  34.028  27.142  1.00  0.00     0.163 HD
BRANCH   6   8
ATOM      8  C   UNL A   1      34.521  33.759  29.483  1.00  0.00     0.039 A 
ATOM      9  C   UNL A   1      35.807  34.193  29.146  1.00  0.00     0.014 A 
ATOM     10  C   UNL A   1      34.333  32.797  30.477  1.00  0.00     0.014 A 
ATOM     11  C   UNL A   1      36.911  33.571  29.704  1.00  0.00     0.010 A 
ATOM     12  C   UNL A   1      35.445  32.255  31.121  1.00  0.00     0.010 A 
ATOM     13  C   UNL A   1      36.742  32.632  30.732  1.00  0.00    -0.014 A 
BRANCH  13  14
ATOM     14  C   UNL A   1      37.932  32.158  31.476  1.00  0.00     0.031 A 
ATOM     15  C   UNL A   1      38.314  32.745  32.803  1.00  0.00     0.074 A 
ATOM     16  C   UNL A   1      38.679  31.185  30.914  1.00  0.00     0.049 A 
ATOM     17  N   UNL A   1      39.347  32.460  33.552  1.00  0.00    -0.248 NA
ATOM     18  C   UNL A   1      37.435  33.785  33.360  1.00  0.00     0.031 C 
ATOM     19  C   UNL A   1      38.397  30.545  29.624  1.00  0.00     0.029 A 
ATOM     20  N   UNL A   1      39.820  30.561  31.346  1.00  0.00    -0.354 N 
ATOM     21  C   UNL A   1      39.262  33.301  34.654  1.00  0.00     0.074 A 
ATOM     22  C   UNL A   1      38.082  34.119  34.470  1.00  0.00     0.031 C 
ATOM     23  C   UNL A   1      39.316  29.599  29.389  1.00  0.00     0.029 A 
ATOM     24  C   UNL A   1      40.301  29.627  30.460  1.00  0.00     0.049 A 
ATOM     25  H   UNL A   1      40.252  30.763  32.207  1.00  0.00     0.167 HD
ATOM     26  C   UNL A   1      40.100  33.381  35.716  1.00  0.00     0.031 A 
ATOM     27  C   UNL A   1      41.433  28.900  30.479  1.00  0.00     0.031 A 
ATOM     28  C   UNL A   1      41.277  32.565  35.875  1.00  0.00     0.049 A 
ATOM     29  C   UNL A   1      42.372  29.060  31.638  1.00  0.00     0.074 A 
ATOM     30  C   UNL A   1      42.163  32.540  36.939  1.00  0.00     0.029 A 
ATOM     31  N   UNL A   1      41.749  31.653  34.941  1.00  0.00    -0.354 N 
ATOM     32  N   UNL A   1      42.237  29.810  32.707  1.00  0.00    -0.248 NA
ATOM     33  C   UNL A   1      43.613  28.277  31.600  1.00  0.00     0.031 C 
ATOM     34  C   UNL A   1      43.215  31.682  36.610  1.00  0.00     0.029 A 
ATOM     35  C   UNL A   1      42.940  31.098  35.383  1.00  0.00     0.049 A 
ATOM     36  H   UNL A   1      41.303  31.433  34.092  1.00  0.00     0.167 HD
ATOM     37  C   UNL A   1      43.367  29.570  33.478  1.00  0.00     0.074 A 
ATOM     38  C   UNL A   1      44.158  28.587  32.767  1.00  0.00     0.031 C 
ATOM     39  C   UNL A   1      43.718  30.118  34.667  1.00  0.00     0.031 A 
BRANCH  26  40
ATOM     40  C   UNL A   1      39.811  34.417  36.774  1.00  0.00    -0.014 A 
ATOM     41  C   UNL A   1      38.980  34.140  37.873  1.00  0.00     0.010 A 
ATOM     42  C   UNL A   1      40.459  35.666  36.708  1.00  0.00     0.010 A 
ATOM     43  C   UNL A   1      38.780  35.100  38.870  1.00  0.00     0.020 A 
ATOM     44  C   UNL A   1      40.289  36.616  37.718  1.00  0.00     0.020 A 
ATOM     45  C   UNL A   1      39.441  36.330  38.787  1.00  0.00     0.054 A 
BRANCH  45  46
ATOM     46  S   UNL A   1      39.196  37.537  40.119  1.00  0.00     0.124 S 
ATOM     47  O   UNL A   1      38.176  38.413  39.549  1.00  0.00    -0.237 OA
ATOM     48  O   UNL A   1      38.752  36.698  41.229  1.00  0.00    -0.237 OA
ATOM     49  O   UNL A   1      40.514  38.145  40.287  1.00  0.00    -0.744 OA
ENDBRANCH  45  46
ENDBRANCH  26  40
BRANCH  27  50
ATOM     50  C   UNL A   1      41.761  28.002  29.337  1.00  0.00    -0.014 A 
ATOM     51  C   UNL A   1      41.362  26.656  29.339  1.00  0.00     0.010 A 
ATOM     52  C   UNL A   1      42.485  28.498  28.234  1.00  0.00     0.010 A 
ATOM     53  C   UNL A   1      41.710  25.813  28.281  1.00  0.00     0.020 A 
ATOM     54  C   UNL A   1      42.798  27.670  27.155  1.00  0.00     0.020 A 
ATOM     55  C   UNL A   1      42.424  26.326  27.195  1.00  0.00     0.054 A 
BRANCH  55  56
ATOM     56  S   UNL A   1      42.843  25.218  25.823  1.00  0.00     0.124 S 
ATOM     57  O   UNL A   1      44.245  24.915  26.096  1.00  0.00    -0.237 OA
ATOM     58  O   UNL A   1      41.907  24.113  26.018  1.00  0.00    -0.237 OA
ATOM     59  O   UNL A   1      42.598  26.032  24.635  1.00  0.00    -0.744 OA
ENDBRANCH  55  56
ENDBRANCH  27  50
BRANCH  39  60
ATOM     60  C   UNL A   1      45.000  29.643  35.300  1.00  0.00    -0.014 A 
ATOM     61  C   UNL A   1      46.216  30.316  35.086  1.00  0.00     0.010 A 
ATOM     62  C   UNL A   1      44.970  28.546  36.181  1.00  0.00     0.010 A 
ATOM     63  C   UNL A   1      47.381  29.889  35.728  1.00  0.00     0.020 A 
ATOM     64  C   UNL A   1      46.124  28.141  36.855  1.00  0.00     0.020 A 
ATOM     65  C   UNL A   1      47.325  28.811  36.618  1.00  0.00     0.054 A 
BRANCH  65  66
ATOM     66  S   UNL A   1      48.836  28.332  37.497  1.00  0.00     0.124 S 
ATOM     67  O   UNL A   1      48.740  29.120  38.723  1.00  0.00    -0.237 OA
ATOM     68  O   UNL A   1      48.662  26.891  37.660  1.00  0.00    -0.237 OA
ATOM     69  O   UNL A   1      49.908  28.726  36.587  1.00  0.00    -0.744 OA
ENDBRANCH  65  66
ENDBRANCH  39  60
ENDBRANCH  13  14
ENDBRANCH   6   8
ENDBRANCH   3   4
ENDBRANCH   2   3
ENDBRANCH   1   2
BRANCH   1  70
ATOM     70  C   UNL A   1      33.132  29.296  27.072  1.00  0.00     0.002 C 
BRANCH  70  71
ATOM     71  C   UNL A   1      32.852  27.788  27.028  1.00  0.00     0.021 C 
BRANCH  71  72
ATOM     72  C   UNL A   1      31.784  27.425  26.001  1.00  0.00     0.116 C 
BRANCH  72  73
ATOM     73  N   UNL A   1      30.823  26.509  26.604  1.00  0.00    -0.351 N 
ATOM     74  C   UNL A   1      30.714  25.141  26.473  1.00  0.00     0.278 C 
ATOM     75  H   UNL A   1      30.152  26.930  27.190  1.00  0.00     0.163 HD
ATOM     76  O   UNL A   1      29.667  24.614  26.850  1.00  0.00    -0.268 OA
BRANCH  74  77
ATOM     77  C   UNL A   1      31.984  24.375  26.136  1.00  0.00     0.274 C 
ATOM     78  C   UNL A   1      31.387  22.542  26.148  1.00  0.00     0.076 C 
ATOM     79  N   UNL A   1      32.906  24.719  24.745  1.00  0.00    -0.320 N 
ATOM     80  C   UNL A   1      32.797  21.135  25.371  1.00  0.00     0.016 C 
ATOM     81  C   UNL A   1      34.455  23.737  24.623  1.00  0.00     0.187 C 
ATOM     82  H   UNL A   1      33.196  25.691  24.642  1.00  0.00     0.349 HD
ATOM     83  C   UNL A   1      34.525  21.877  24.968  1.00  0.00     0.048 C 
ATOM     84  C   UNL A   1      35.654  24.291  25.480  1.00  0.00     0.065 C 
ATOM     85  C   UNL A   1      35.878  21.183  24.769  1.00  0.00     0.010 C 
ATOM     86  C   UNL A   1      36.970  23.506  25.195  1.00  0.00     0.006 C 
ATOM     87  C   UNL A   1      36.965  22.006  25.544  1.00  0.00     0.001 C 
BRANCH  79  88
ATOM     88  C   UNL A   1      31.919  24.069  23.797  1.00  0.00     0.295 C 
BRANCH  88  89
ATOM     89  C   UNL A   1      31.550  25.223  22.842  1.00  0.00     0.173 C 
ATOM     90  C   UNL A   1      32.264  26.970  22.335  1.00  0.00     0.038 C 
ATOM     91  O   UNL A   1      29.760  25.419  23.492  1.00  0.00    -0.372 OA
ATOM     92  C   UNL A   1      31.079  28.439  22.533  1.00  0.00     0.005 C 
ATOM     93  C   UNL A   1      28.792  26.798  23.800  1.00  0.00     0.161 C 
ATOM     94  C   UNL A   1      29.333  28.270  23.151  1.00  0.00     0.029 C 
ENDBRANCH  88  89
ENDBRANCH  79  88
ENDBRANCH  74  77
ENDBRANCH  72  73
ENDBRANCH  71  72
ENDBRANCH  70  71
ENDBRANCH   1  70
TORSDOF 18
ENDMDL
MODEL 2
REMARK VINA RESULT:     -11.4      0.634      8.089
REMARK SMILES O=C(NCCCCCCNC(=O)[C@H]1CC[C@H]2CCCC[C@@H]2[N@H+]1C[C@@H]1CCCCO1)c1ccc(-c2c3nc(c(-c4ccc(S(=O)(=O)[O-])cc4)c4ccc([nH]4)c(-c4ccc(S(=O)(=O)[O-])cc4)c4nc(c(-c5ccc(S(=O)(=O)[O-])cc5)c5ccc2[nH]5)C=C4)C=C3)cc1
REMARK SMILES IDX 6 1 5 2 4 3 3 4 1 5 2 6 30 8 31 9 89 10 32 11 88 12 33 13
REMARK SMILES IDX 34 14 35 15 82 16 36 17 87 18 81 19 83 20 37 21 86 22 80 23
REMARK SMILES IDX 79 24 38 26 68 27 49 28 67 29 50 30 53 31 66 32 84 33 51 34
REMARK SMILES IDX 52 35 65 37 85 38 54 39 39 40 40 41 48 42 41 43 47 44 42 45
REMARK SMILES IDX 43 46 44 47 45 48 46 49 69 50 70 51 78 52 71 53 77 54 72 55
REMARK SMILES IDX 73 56 74 57 75 58 76 59 55 60 56 61 64 62 57 63 63 64 58 65
REMARK SMILES IDX 59 66 60 67 61 68 62 69 7 70 8 71 9 72 10 73 11 74 12 76
REMARK SMILES IDX 13 77 14 78 22 79 15 80 21 81 16 83 20 84 17 85 19 86 18 87
REMARK SMILES IDX 23 88 24 89 25 90 29 91 26 92 28 93 27 94
REMARK H PARENT 3 7 83 25 53 36 10 75 22 82
REMARK Flexibility Score: inf
ROOT
ATOM      1  C   UNL A   1      31.978  30.353  26.208  1.00  0.00     0.002 C 
ENDROOT
BRANCH   1   2
ATOM      2  C   UNL A   1      31.755  31.787  26.682  1.00  0.00     0.021 C 
BRANCH   2   3
ATOM      3  C   UNL A   1      32.938  32.349  27.451  1.00  0.00     0.116 C 
BRANCH   3   4
ATOM      4  N   UNL A   1      32.757  33.763  27.742  1.00  0.00    -0.352 N 
ATOM      5  O   UNL A   1      32.945  35.626  29.007  1.00  0.00    -0.269 OA
ATOM      6  C   UNL A   1      33.369  34.513  28.714  1.00  0.00     0.251 C 
ATOM      7  H   UNL A   1      32.115  34.241  27.169  1.00  0.00     0.163 HD
BRANCH   6   8
ATOM      8  C   UNL A   1      34.538  33.942  29.405  1.00  0.00     0.039 A 
ATOM      9  C   UNL A   1      35.826  34.297  28.994  1.00  0.00     0.014 A 
ATOM     10  C   UNL A   1      34.349  33.027  30.442  1.00  0.00     0.014 A 
ATOM     11  C   UNL A   1      36.923  33.639  29.525  1.00  0.00     0.010 A 
ATOM     12  C   UNL A   1      35.462  32.452  31.056  1.00  0.00     0.010 A 
ATOM     13  C   UNL A   1      36.756  32.747  30.594  1.00  0.00    -0.014 A 
BRANCH  13  14
ATOM     14  C   UNL A   1      37.955  32.240  31.300  1.00  0.00     0.031 A 
ATOM     15  C   UNL A   1      38.744  31.078  30.772  1.00  0.00     0.074 A 
ATOM     16  C   UNL A   1      38.312  32.846  32.451  1.00  0.00     0.049 A 
ATOM     17  N   UNL A   1      39.792  30.498  31.298  1.00  0.00    -0.248 NA
ATOM     18  C   UNL A   1      38.305  30.485  29.500  1.00  0.00     0.031 C 
ATOM     19  C   UNL A   1      37.612  33.986  33.055  1.00  0.00     0.029 A 
ATOM     20  N   UNL A   1      39.345  32.601  33.317  1.00  0.00    -0.354 N 
ATOM     21  C   UNL A   1      40.122  29.457  30.442  1.00  0.00     0.074 A 
ATOM     22  C   UNL A   1      39.154  29.474  29.365  1.00  0.00     0.031 C 
ATOM     23  C   UNL A   1      38.255  34.360  34.170  1.00  0.00     0.029 A 
ATOM     24  C   UNL A   1      39.353  33.436  34.409  1.00  0.00     0.049 A 
ATOM     25  H   UNL A   1      40.016  31.895  33.171  1.00  0.00     0.167 HD
ATOM     26  C   UNL A   1      41.139  28.567  30.553  1.00  0.00     0.031 A 
ATOM     27  C   UNL A   1      40.128  33.435  35.509  1.00  0.00     0.031 A 
ATOM     28  C   UNL A   1      42.085  28.560  31.639  1.00  0.00     0.049 A 
ATOM     29  C   UNL A   1      41.203  32.396  35.632  1.00  0.00     0.074 A 
ATOM     30  C   UNL A   1      43.178  27.728  31.816  1.00  0.00     0.029 A 
ATOM     31  N   UNL A   1      42.041  29.400  32.743  1.00  0.00    -0.354 N 
ATOM     32  N   UNL A   1      41.546  31.464  34.775  1.00  0.00    -0.248 NA
ATOM     33  C   UNL A   1      41.999  32.408  36.865  1.00  0.00     0.031 C 
ATOM     34  C   UNL A   1      43.739  28.005  33.065  1.00  0.00     0.029 A 
ATOM     35  C   UNL A   1      43.057  29.073  33.627  1.00  0.00     0.049 A 
ATOM     36  H   UNL A   1      41.385  30.122  32.877  1.00  0.00     0.167 HD
ATOM     37  C   UNL A   1      42.613  30.792  35.357  1.00  0.00     0.074 A 
ATOM     38  C   UNL A   1      42.876  31.444  36.624  1.00  0.00     0.031 C 
ATOM     39  C   UNL A   1      43.310  29.730  34.885  1.00  0.00     0.031 A 
BRANCH  26  40
ATOM     40  C   UNL A   1      41.262  27.492  29.502  1.00  0.00    -0.014 A 
ATOM     41  C   UNL A   1      42.455  27.292  28.785  1.00  0.00     0.010 A 
ATOM     42  C   UNL A   1      40.185  26.609  29.293  1.00  0.00     0.010 A 
ATOM     43  C   UNL A   1      42.558  26.247  27.861  1.00  0.00     0.020 A 
ATOM     44  C   UNL A   1      40.295  25.544  28.396  1.00  0.00     0.020 A 
ATOM     45  C   UNL A   1      41.479  25.377  27.676  1.00  0.00     0.054 A 
BRANCH  45  46
ATOM     46  S   UNL A   1      41.661  24.006  26.504  1.00  0.00     0.124 S 
ATOM     47  O   UNL A   1      42.607  23.137  27.200  1.00  0.00    -0.237 OA
ATOM     48  O   UNL A   1      40.298  23.493  26.401  1.00  0.00    -0.237 OA
ATOM     49  O   UNL A   1      42.178  24.645  25.296  1.00  0.00    -0.744 OA
ENDBRANCH  45  46
ENDBRANCH  26  40
BRANCH  27  50
ATOM     50  C   UNL A   1      39.873  34.416  36.600  1.00  0.00    -0.014 A 
ATOM     51  C   UNL A   1      40.527  35.660  36.620  1.00  0.00     0.010 A 
ATOM     52  C   UNL A   1      38.969  34.104  37.635  1.00  0.00     0.010 A 
ATOM     53  C   UNL A   1      40.310  36.556  37.670  1.00  0.00     0.020 A 
ATOM     54  C   UNL A   1      38.718  35.014  38.663  1.00  0.00     0.020 A 
ATOM     55  C   UNL A   1      39.405  36.227  38.683  1.00  0.00     0.054 A 
BRANCH  55  56
ATOM     56  S   UNL A   1      39.125  37.418  40.021  1.00  0.00     0.124 S 
ATOM     57  O   UNL A   1      38.673  36.552  41.107  1.00  0.00    -0.237 OA
ATOM     58  O   UNL A   1      40.448  38.012  40.194  1.00  0.00    -0.237 OA
ATOM     59  O   UNL A   1      38.111  38.317  39.475  1.00  0.00    -0.744 OA
ENDBRANCH  55  56
ENDBRANCH  27  50
BRANCH  39  60
ATOM     60  C   UNL A   1      44.453  29.221  35.724  1.00  0.00    -0.014 A 
ATOM     61  C   UNL A   1      44.273  28.183  36.656  1.00  0.00     0.010 A 
ATOM     62  C   UNL A   1      45.744  29.743  35.521  1.00  0.00     0.010 A 
ATOM     63  C   UNL A   1      45.360  27.690  37.382  1.00  0.00     0.020 A 
ATOM     64  C   UNL A   1      46.839  29.227  36.217  1.00  0.00     0.020 A 
ATOM     65  C   UNL A   1      46.638  28.208  37.149  1.00  0.00     0.054 A 
BRANCH  65  66
ATOM     66  S   UNL A   1      48.041  27.493  38.048  1.00  0.00     0.124 S 
ATOM     67  O   UNL A   1      47.386  26.509  38.905  1.00  0.00    -0.237 OA
ATOM     68  O   UNL A   1      48.860  26.945  36.970  1.00  0.00    -0.237 OA
ATOM     69  O   UNL A   1      48.625  28.635  38.747  1.00  0.00    -0.744 OA
ENDBRANCH  65  66
ENDBRANCH  39  60
ENDBRANCH  13  14
ENDBRANCH   6   8
ENDBRANCH   3   4
ENDBRANCH   2   3
ENDBRANCH   1   2
BRANCH   1  70
ATOM     70  C   UNL A   1      32.969  29.562  27.073  1.00  0.00     0.002 C 
BRANCH  70  71
ATOM     71  C   UNL A   1      32.707  28.049  27.102  1.00  0.00     0.021 C 
BRANCH  71  72
ATOM     72  C   UNL A   1      31.709  27.612  26.035  1.00  0.00     0.116 C 
BRANCH  72  73
ATOM     73  N   UNL A   1      30.732  26.705  26.627  1.00  0.00    -0.351 N 
ATOM     74  C   UNL A   1      30.600  25.340  26.478  1.00  0.00     0.278 C 
ATOM     75  H   UNL A   1      30.070  27.129  27.221  1.00  0.00     0.163 HD
ATOM     76  O   UNL A   1      29.544  24.827  26.850  1.00  0.00    -0.268 OA
BRANCH  74  77
ATOM     77  C   UNL A   1      31.856  24.557  26.129  1.00  0.00     0.274 C 
ATOM     78  C   UNL A   1      31.238  22.732  26.166  1.00  0.00     0.076 C 
ATOM     79  N   UNL A   1      32.760  24.879  24.721  1.00  0.00    -0.320 N 
ATOM     80  C   UNL A   1      32.620  21.301  25.379  1.00  0.00     0.016 C 
ATOM     81  C   UNL A   1      34.296  23.878  24.585  1.00  0.00     0.187 C 
ATOM     82  H   UNL A   1      33.060  25.847  24.606  1.00  0.00     0.349 HD
ATOM     83  C   UNL A   1      34.351  22.020  24.944  1.00  0.00     0.048 C 
ATOM     84  C   UNL A   1      35.514  24.426  25.419  1.00  0.00     0.065 C 
ATOM     85  C   UNL A   1      35.692  21.309  24.731  1.00  0.00     0.010 C 
ATOM     86  C   UNL A   1      36.816  23.623  25.121  1.00  0.00     0.006 C 
ATOM     87  C   UNL A   1      36.800  22.127  25.482  1.00  0.00     0.001 C 
BRANCH  79  88
ATOM     88  C   UNL A   1      31.752  24.233  23.794  1.00  0.00     0.295 C 
BRANCH  88  89
ATOM     89  C   UNL A   1      31.393  25.378  22.825  1.00  0.00     0.173 C 
ATOM     90  C   UNL A   1      32.105  27.127  22.321  1.00  0.00     0.038 C 
ATOM     91  O   UNL A   1      29.590  25.565  23.440  1.00  0.00    -0.372 OA
ATOM     92  C   UNL A   1      30.907  28.589  22.487  1.00  0.00     0.005 C 
ATOM     93  C   UNL A   1      28.607  26.939  23.721  1.00  0.00     0.161 C 
ATOM     94  C   UNL A   1      29.151  28.411  23.073  1.00  0.00     0.029 C 
ENDBRANCH  88  89
ENDBRANCH  79  88
ENDBRANCH  74  77
ENDBRANCH  72  73
ENDBRANCH  71  72
ENDBRANCH  70  71
ENDBRANCH   1  70
TORSDOF 18
ENDMDL
MODEL 3
REMARK VINA RESULT:     -11.4      2.022      8.502
REMARK SMILES O=C(NCCCCCCNC(=O)[C@H]1CC[C@H]2CCCC[C@@H]2[N@H+]1C[C@@H]1CCCCO1)c1ccc(-c2c3nc(c(-c4ccc(S(=O)(=O)[O-])cc4)c4ccc([nH]4)c(-c4ccc(S(=O)(=O)[O-])cc4)c4nc(c(-c5ccc(S(=O)(=O)[O-])cc5)c5ccc2[nH]5)C=C4)C=C3)cc1
REMARK SMILES IDX 6 1 5 2 4 3 3 4 1 5 2 6 30 8 31 9 89 10 32 11 88 12 33 13
REMARK SMILES IDX 34 14 35 15 82 16 36 17 87 18 81 19 83 20 37 21 86 22 80 23
REMARK SMILES IDX 79 24 38 26 68 27 49 28 67 29 50 30 53 31 66 32 84 33 51 34
REMARK SMILES IDX 52 35 65 37 85 38 54 39 39 40 40 41 48 42 41 43 47 44 42 45
REMARK SMILES IDX 43 46 44 47 45 48 46 49 69 50 70 51 78 52 71 53 77 54 72 55
REMARK SMILES IDX 73 56 74 57 75 58 76 59 55 60 56 61 64 62 57 63 63 64 58 65
REMARK SMILES IDX 59 66 60 67 61 68 62 69 7 70 8 71 9 72 10 73 11 74 12 76
REMARK SMILES IDX 13 77 14 78 22 79 15 80 21 81 16 83 20 84 17 85 19 86 18 87
REMARK SMILES IDX 23 88 24 89 25 90 29 91 26 92 28 93 27 94
REMARK H PARENT 3 7 83 25 53 36 10 75 22 82
REMARK Flexibility Score: inf
ROOT
ATOM      1  C   UNL A   1      31.931  28.854  25.960  1.00  0.00     0.002 C 
ENDROOT
BRANCH   1   2
ATOM      2  C   UNL A   1      33.357  28.621  25.469  1.00  0.00     0.021 C 
BRANCH   2   3
ATOM      3  C   UNL A   1      34.402  29.314  26.327  1.00  0.00     0.116 C 
BRANCH   3   4
ATOM      4  N   UNL A   1      33.946  30.625  26.761  1.00  0.00    -0.352 N 
ATOM      5  O   UNL A   1      33.765  32.342  28.219  1.00  0.00    -0.269 OA
ATOM      6  C   UNL A   1      34.400  31.372  27.819  1.00  0.00     0.251 C 
ATOM      7  H   UNL A   1      33.221  31.026  26.230  1.00  0.00     0.163 HD
BRANCH   6   8
ATOM      8  C   UNL A   1      35.661  30.972  28.468  1.00  0.00     0.039 A 
ATOM      9  C   UNL A   1      36.823  31.713  28.238  1.00  0.00     0.014 A 
ATOM     10  C   UNL A   1      35.689  29.837  29.280  1.00  0.00     0.014 A 
ATOM     11  C   UNL A   1      38.040  31.248  28.707  1.00  0.00     0.010 A 
ATOM     12  C   UNL A   1      36.899  29.436  29.848  1.00  0.00     0.010 A 
ATOM     13  C   UNL A   1      38.084  30.133  29.557  1.00  0.00    -0.014 A 
BRANCH  13  14
ATOM     14  C   UNL A   1      39.356  29.797  30.236  1.00  0.00     0.031 A 
ATOM     15  C   UNL A   1      40.252  28.704  29.730  1.00  0.00     0.074 A 
ATOM     16  C   UNL A   1      39.683  30.495  31.343  1.00  0.00     0.049 A 
ATOM     17  N   UNL A   1      41.375  28.271  30.238  1.00  0.00    -0.248 NA
ATOM     18  C   UNL A   1      39.837  28.004  28.504  1.00  0.00     0.031 C 
ATOM     19  C   UNL A   1      38.882  31.579  31.923  1.00  0.00     0.029 A 
ATOM     20  N   UNL A   1      40.767  30.409  32.176  1.00  0.00    -0.354 N 
ATOM     21  C   UNL A   1      41.790  27.230  29.417  1.00  0.00     0.074 A 
ATOM     22  C   UNL A   1      40.789  27.087  28.381  1.00  0.00     0.031 C 
ATOM     23  C   UNL A   1      39.517  32.077  32.992  1.00  0.00     0.029 A 
ATOM     24  C   UNL A   1      40.721  31.292  33.228  1.00  0.00     0.049 A 
ATOM     25  H   UNL A   1      41.507  29.775  32.035  1.00  0.00     0.167 HD
ATOM     26  C   UNL A   1      42.903  26.465  29.527  1.00  0.00     0.031 A 
ATOM     27  C   UNL A   1      41.529  31.432  34.295  1.00  0.00     0.031 A 
ATOM     28  C   UNL A   1      43.882  26.616  30.573  1.00  0.00     0.049 A 
ATOM     29  C   UNL A   1      42.718  30.525  34.420  1.00  0.00     0.074 A 
ATOM     30  C   UNL A   1      45.067  25.920  30.743  1.00  0.00     0.029 A 
ATOM     31  N   UNL A   1      43.783  27.500  31.639  1.00  0.00    -0.354 N 
ATOM     32  N   UNL A   1      43.132  29.595  33.593  1.00  0.00    -0.248 NA
ATOM     33  C   UNL A   1      43.551  30.686  35.618  1.00  0.00     0.031 C 
ATOM     34  C   UNL A   1      45.637  26.319  31.954  1.00  0.00     0.029 A 
ATOM     35  C   UNL A   1      44.860  27.331  32.495  1.00  0.00     0.049 A 
ATOM     36  H   UNL A   1      43.056  28.152  31.766  1.00  0.00     0.167 HD
ATOM     37  C   UNL A   1      44.288  29.075  34.161  1.00  0.00     0.074 A 
ATOM     38  C   UNL A   1      44.521  29.814  35.385  1.00  0.00     0.031 C 
ATOM     39  C   UNL A   1      45.083  28.075  33.710  1.00  0.00     0.031 A 
BRANCH  26  40
ATOM     40  C   UNL A   1      43.109  25.360  28.522  1.00  0.00    -0.014 A 
ATOM     41  C   UNL A   1      43.933  25.528  27.396  1.00  0.00     0.010 A 
ATOM     42  C   UNL A   1      42.532  24.098  28.761  1.00  0.00     0.010 A 
ATOM     43  C   UNL A   1      44.153  24.464  26.514  1.00  0.00     0.020 A 
ATOM     44  C   UNL A   1      42.776  23.023  27.903  1.00  0.00     0.020 A 
ATOM     45  C   UNL A   1      43.577  23.217  26.777  1.00  0.00     0.054 A 
BRANCH  45  46
ATOM     46  S   UNL A   1      43.919  21.847  25.639  1.00  0.00     0.124 S 
ATOM     47  O   UNL A   1      45.367  21.705  25.765  1.00  0.00    -0.237 OA
ATOM     48  O   UNL A   1      43.132  20.757  26.210  1.00  0.00    -0.237 OA
ATOM     49  O   UNL A   1      43.453  22.342  24.346  1.00  0.00    -0.744 OA
ENDBRANCH  45  46
ENDBRANCH  26  40
BRANCH  27  50
ATOM     50  C   UNL A   1      41.205  32.432  35.349  1.00  0.00    -0.014 A 
ATOM     51  C   UNL A   1      41.742  33.729  35.303  1.00  0.00     0.010 A 
ATOM     52  C   UNL A   1      40.351  32.084  36.415  1.00  0.00     0.010 A 
ATOM     53  C   UNL A   1      41.463  34.646  36.320  1.00  0.00     0.020 A 
ATOM     54  C   UNL A   1      40.036  33.010  37.410  1.00  0.00     0.020 A 
ATOM     55  C   UNL A   1      40.610  34.281  37.366  1.00  0.00     0.054 A 
BRANCH  55  56
ATOM     56  S   UNL A   1      40.245  35.497  38.659  1.00  0.00     0.124 S 
ATOM     57  O   UNL A   1      41.535  35.621  39.331  1.00  0.00    -0.237 OA
ATOM     58  O   UNL A   1      39.820  36.660  37.884  1.00  0.00    -0.237 OA
ATOM     59  O   UNL A   1      39.189  34.860  39.443  1.00  0.00    -0.744 OA
ENDBRANCH  55  56
ENDBRANCH  27  50
BRANCH  39  60
ATOM     60  C   UNL A   1      46.305  27.737  34.524  1.00  0.00    -0.014 A 
ATOM     61  C   UNL A   1      46.272  26.741  35.516  1.00  0.00     0.010 A 
ATOM     62  C   UNL A   1      47.524  28.379  34.237  1.00  0.00     0.010 A 
ATOM     63  C   UNL A   1      47.433  26.407  36.219  1.00  0.00     0.020 A 
ATOM     64  C   UNL A   1      48.693  28.021  34.910  1.00  0.00     0.020 A 
ATOM     65  C   UNL A   1      48.638  27.042  35.903  1.00  0.00     0.054 A 
BRANCH  65  66
ATOM     66  S   UNL A   1      50.143  26.531  36.776  1.00  0.00     0.124 S 
ATOM     67  O   UNL A   1      50.441  25.247  36.147  1.00  0.00    -0.237 OA
ATOM     68  O   UNL A   1      51.071  27.615  36.466  1.00  0.00    -0.237 OA
ATOM     69  O   UNL A   1      49.725  26.456  38.174  1.00  0.00    -0.744 OA
ENDBRANCH  65  66
ENDBRANCH  39  60
ENDBRANCH  13  14
ENDBRANCH   6   8
ENDBRANCH   3   4
ENDBRANCH   2   3
ENDBRANCH   1   2
BRANCH   1  70
ATOM     70  C   UNL A   1      31.550  28.007  27.182  1.00  0.00     0.002 C 
BRANCH  70  71
ATOM     71  C   UNL A   1      30.775  26.727  26.840  1.00  0.00     0.021 C 
BRANCH  71  72
ATOM     72  C   UNL A   1      31.699  25.556  26.517  1.00  0.00     0.116 C 
BRANCH  72  73
ATOM     73  N   UNL A   1      30.958  24.306  26.636  1.00  0.00    -0.351 N 
ATOM     74  C   UNL A   1      31.259  23.057  26.136  1.00  0.00     0.278 C 
ATOM     75  H   UNL A   1      30.119  24.362  27.150  1.00  0.00     0.163 HD
ATOM     76  O   UNL A   1      30.360  22.217  26.124  1.00  0.00    -0.268 OA
BRANCH  74  77
ATOM     77  C   UNL A   1      32.728  22.742  25.900  1.00  0.00     0.274 C 
ATOM     78  C   UNL A   1      32.701  20.850  25.533  1.00  0.00     0.076 C 
ATOM     79  N   UNL A   1      33.661  23.585  24.749  1.00  0.00    -0.320 N 
ATOM     80  C   UNL A   1      34.542  20.053  24.793  1.00  0.00     0.016 C 
ATOM     81  C   UNL A   1      35.433  23.100  24.736  1.00  0.00     0.187 C 
ATOM     82  H   UNL A   1      33.662  24.600  24.846  1.00  0.00     0.349 HD
ATOM     83  C   UNL A   1      36.009  21.297  24.800  1.00  0.00     0.048 C 
ATOM     84  C   UNL A   1      36.310  23.779  25.854  1.00  0.00     0.065 C 
ATOM     85  C   UNL A   1      37.519  21.045  24.723  1.00  0.00     0.010 C 
ATOM     86  C   UNL A   1      37.822  23.448  25.674  1.00  0.00     0.006 C 
ATOM     87  C   UNL A   1      38.219  21.965  25.783  1.00  0.00     0.001 C 
BRANCH  79  88
ATOM     88  C   UNL A   1      33.024  22.890  23.563  1.00  0.00     0.295 C 
BRANCH  88  89
ATOM     89  C   UNL A   1      32.688  24.062  22.619  1.00  0.00     0.173 C 
ATOM     90  C   UNL A   1      33.404  25.827  22.186  1.00  0.00     0.038 C 
ATOM     91  O   UNL A   1      30.867  24.223  23.188  1.00  0.00    -0.372 OA
ATOM     92  C   UNL A   1      32.195  27.279  22.362  1.00  0.00     0.005 C 
ATOM     93  C   UNL A   1      29.870  25.584  23.482  1.00  0.00     0.161 C 
ATOM     94  C   UNL A   1      30.424  27.077  22.893  1.00  0.00     0.029 C 
ENDBRANCH  88  89
ENDBRANCH  79  88
ENDBRANCH  74  77
ENDBRANCH  72  73
ENDBRANCH  71  72
ENDBRANCH  70  71
ENDBRANCH   1  70
TORSDOF 18
ENDMDL
