MODEL 1
REMARK VINA RESULT:     -13.2      0.000      0.000
REMARK SMILES Cc1cc([N+](=O)[O-])ccc1NC(=O)[C@@H]1[C@@H](C(=O)NCCCCCCNC(=O)c2ccc(-c3c4nc(c(-c5ccc(S(=O)(=O)[O-])cc5)c5ccc([nH]5)c(-c5ccc(S(=O)(=O)[O-])cc5)c5nc(c(-c6ccc(S(=O)(=O)[O-])cc6)c6ccc3[nH]6)C=C5)C=C4)cc2)[C@H]2C=C[C@@H]1C2
REMARK SMILES IDX 21 1 20 2 19 3 18 4 16 5 17 6 15 8 14 9 91 10 88 11 90 12
REMARK SMILES IDX 92 13 89 14 12 15 11 16 13 18 10 19 1 20 2 21 3 22 4 23 9 24
REMARK SMILES IDX 8 25 5 26 6 27 7 28 22 29 23 30 24 31 25 32 26 33 27 35
REMARK SMILES IDX 28 36 29 37 87 38 30 39 86 40 31 41 32 42 33 43 80 44 34 45
REMARK SMILES IDX 85 46 79 47 81 48 35 49 84 50 78 51 77 52 36 54 66 55 47 56
REMARK SMILES IDX 65 57 48 58 51 59 64 60 82 61 49 62 50 63 63 65 83 66 52 67
REMARK SMILES IDX 37 68 38 69 46 70 39 71 45 72 40 73 41 74 42 75 43 76 44 77
REMARK SMILES IDX 67 78 68 79 76 80 69 81 75 82 70 83 71 84 72 85 73 86 74 87
REMARK SMILES IDX 53 88 54 89 62 90 55 91 61 92 56 93 57 94 58 95 59 96 60 97
REMARK H PARENT 18 7 11 17 25 34 81 53 51 64
REMARK Flexibility Score: inf
ROOT
ATOM      1  C   UNL A   1      31.039  30.283  24.998  1.00  0.00     0.002 C 
ENDROOT
BRANCH   1   2
ATOM      2  C   UNL A   1      30.351  29.392  23.957  1.00  0.00     0.021 C 
BRANCH   2   3
ATOM      3  C   UNL A   1      31.248  28.671  22.952  1.00  0.00     0.116 C 
BRANCH   3   4
ATOM      4  N   UNL A   1      30.803  27.335  22.623  1.00  0.00    -0.356 N 
ATOM      5  C   UNL A   1      30.944  26.177  23.322  1.00  0.00     0.224 C 
ATOM      6  O   UNL A   1      30.403  25.169  22.860  1.00  0.00    -0.275 OA
ATOM      7  H   UNL A   1      30.327  27.251  21.766  1.00  0.00     0.163 HD
BRANCH   5   8
ATOM      8  C   UNL A   1      31.820  26.116  24.574  1.00  0.00     0.098 C 
ATOM      9  C   UNL A   1      32.493  24.691  24.727  1.00  0.00     0.099 C 
ATOM     10  C   UNL A   1      32.172  24.325  26.201  1.00  0.00     0.025 C 
ATOM     11  C   UNL A   1      31.090  26.260  25.935  1.00  0.00     0.025 C 
ATOM     12  C   UNL A   1      30.694  24.016  26.262  1.00  0.00    -0.027 C 
ATOM     13  C   UNL A   1      32.153  25.694  26.880  1.00  0.00     0.017 C 
ATOM     14  C   UNL A   1      30.044  25.176  26.089  1.00  0.00    -0.027 C 
BRANCH   9  15
ATOM     15  C   UNL A   1      33.983  24.645  24.447  1.00  0.00     0.228 C 
ATOM     16  N   UNL A   1      34.655  23.462  24.262  1.00  0.00    -0.326 N 
ATOM     17  H   UNL A   1      35.619  23.587  24.111  1.00  0.00     0.169 HD
ATOM     18  O   UNL A   1      34.665  25.675  24.426  1.00  0.00    -0.274 OA
BRANCH  16  19
ATOM     19  C   UNL A   1      34.265  22.105  24.242  1.00  0.00     0.044 A 
ATOM     20  C   UNL A   1      36.547  21.411  25.237  1.00  0.00     0.047 C 
ATOM     21  C   UNL A   1      35.142  21.128  24.772  1.00  0.00    -0.021 A 
ATOM     22  C   UNL A   1      34.710  19.786  24.869  1.00  0.00     0.091 A 
ATOM     23  C   UNL A   1      33.435  19.413  24.438  1.00  0.00     0.269 A 
ATOM     24  C   UNL A   1      33.035  21.677  23.724  1.00  0.00     0.033 A 
ATOM     25  C   UNL A   1      32.603  20.352  23.837  1.00  0.00     0.088 A 
BRANCH  23  26
ATOM     26  N   UNL A   1      32.969  18.034  24.612  1.00  0.00     0.062 N 
ATOM     27  O   UNL A   1      33.745  17.120  24.297  1.00  0.00    -0.258 OA
ATOM     28  O   UNL A   1      31.832  17.863  25.075  1.00  0.00    -0.258 OA
ENDBRANCH  23  26
ENDBRANCH  16  19
ENDBRANCH   9  15
ENDBRANCH   5   8
ENDBRANCH   3   4
ENDBRANCH   2   3
ENDBRANCH   1   2
BRANCH   1  29
ATOM     29  C   UNL A   1      31.899  29.601  26.071  1.00  0.00     0.002 C 
BRANCH  29  30
ATOM     30  C   UNL A   1      33.414  29.655  25.885  1.00  0.00     0.021 C 
BRANCH  30  31
ATOM     31  C   UNL A   1      34.221  29.655  27.177  1.00  0.00     0.116 C 
BRANCH  31  32
ATOM     32  N   UNL A   1      34.806  30.935  27.533  1.00  0.00    -0.352 N 
ATOM     33  C   UNL A   1      36.062  31.152  28.076  1.00  0.00     0.251 C 
ATOM     34  H   UNL A   1      34.252  31.733  27.371  1.00  0.00     0.163 HD
ATOM     35  O   UNL A   1      36.403  32.232  28.526  1.00  0.00    -0.269 OA
BRANCH  33  36
ATOM     36  C   UNL A   1      37.028  30.030  28.002  1.00  0.00     0.039 A 
ATOM     37  C   UNL A   1      37.218  29.266  29.158  1.00  0.00     0.014 A 
ATOM     38  C   UNL A   1      37.889  29.906  26.913  1.00  0.00     0.014 A 
ATOM     39  C   UNL A   1      38.370  28.491  29.285  1.00  0.00     0.010 A 
ATOM     40  C   UNL A   1      39.073  29.206  27.076  1.00  0.00     0.010 A 
ATOM     41  C   UNL A   1      39.337  28.531  28.276  1.00  0.00    -0.014 A 
BRANCH  41  42
ATOM     42  C   UNL A   1      40.680  27.978  28.438  1.00  0.00     0.031 A 
ATOM     43  C   UNL A   1      40.978  26.582  28.035  1.00  0.00     0.074 A 
ATOM     44  C   UNL A   1      41.682  28.715  28.970  1.00  0.00     0.049 A 
ATOM     45  N   UNL A   1      41.849  25.832  28.631  1.00  0.00    -0.248 NA
ATOM     46  C   UNL A   1      40.284  25.906  26.945  1.00  0.00     0.031 C 
ATOM     47  C   UNL A   1      43.104  28.372  28.961  1.00  0.00     0.029 A 
ATOM     48  N   UNL A   1      41.608  29.815  29.824  1.00  0.00    -0.354 N 
ATOM     49  C   UNL A   1      42.030  24.713  27.850  1.00  0.00     0.074 A 
ATOM     50  C   UNL A   1      40.975  24.765  26.861  1.00  0.00     0.031 C 
ATOM     51  C   UNL A   1      43.704  29.008  29.976  1.00  0.00     0.029 A 
ATOM     52  C   UNL A   1      42.670  29.691  30.735  1.00  0.00     0.049 A 
ATOM     53  H   UNL A   1      40.940  30.537  29.795  1.00  0.00     0.167 HD
ATOM     54  C   UNL A   1      43.134  23.928  28.006  1.00  0.00     0.031 A 
ATOM     55  C   UNL A   1      42.548  29.689  32.092  1.00  0.00     0.031 A 
ATOM     56  C   UNL A   1      44.037  24.430  29.035  1.00  0.00     0.049 A 
ATOM     57  C   UNL A   1      43.188  28.491  32.754  1.00  0.00     0.074 A 
ATOM     58  C   UNL A   1      45.211  25.163  28.967  1.00  0.00     0.029 A 
ATOM     59  N   UNL A   1      43.660  24.409  30.371  1.00  0.00    -0.354 N 
ATOM     60  N   UNL A   1      43.560  27.422  32.110  1.00  0.00    -0.248 NA
ATOM     61  C   UNL A   1      43.391  28.368  34.195  1.00  0.00     0.031 C 
ATOM     62  C   UNL A   1      45.537  25.596  30.273  1.00  0.00     0.029 A 
ATOM     63  C   UNL A   1      44.562  25.124  31.134  1.00  0.00     0.049 A 
ATOM     64  H   UNL A   1      42.864  23.949  30.723  1.00  0.00     0.167 HD
ATOM     65  C   UNL A   1      44.003  26.476  33.000  1.00  0.00     0.074 A 
ATOM     66  C   UNL A   1      43.898  27.125  34.293  1.00  0.00     0.031 C 
ATOM     67  C   UNL A   1      44.393  25.238  32.577  1.00  0.00     0.031 A 
BRANCH  54  68
ATOM     68  C   UNL A   1      43.549  22.876  27.002  1.00  0.00    -0.014 A 
ATOM     69  C   UNL A   1      42.730  21.743  26.802  1.00  0.00     0.010 A 
ATOM     70  C   UNL A   1      44.740  22.923  26.255  1.00  0.00     0.010 A 
ATOM     71  C   UNL A   1      43.133  20.663  26.007  1.00  0.00     0.020 A 
ATOM     72  C   UNL A   1      45.174  21.833  25.484  1.00  0.00     0.020 A 
ATOM     73  C   UNL A   1      44.374  20.699  25.380  1.00  0.00     0.054 A 
BRANCH  73  74
ATOM     74  S   UNL A   1      44.929  19.242  24.458  1.00  0.00     0.124 S 
ATOM     75  O   UNL A   1      46.373  19.261  24.679  1.00  0.00    -0.237 OA
ATOM     76  O   UNL A   1      44.206  18.159  25.115  1.00  0.00    -0.237 OA
ATOM     77  O   UNL A   1      44.515  19.524  23.084  1.00  0.00    -0.744 OA
ENDBRANCH  73  74
ENDBRANCH  54  68
BRANCH  55  78
ATOM     78  C   UNL A   1      41.343  30.386  32.609  1.00  0.00    -0.014 A 
ATOM     79  C   UNL A   1      40.200  29.603  32.877  1.00  0.00     0.010 A 
ATOM     80  C   UNL A   1      41.466  31.651  33.207  1.00  0.00     0.010 A 
ATOM     81  C   UNL A   1      39.282  30.005  33.848  1.00  0.00     0.020 A 
ATOM     82  C   UNL A   1      40.544  32.055  34.181  1.00  0.00     0.020 A 
ATOM     83  C   UNL A   1      39.497  31.201  34.536  1.00  0.00     0.054 A 
BRANCH  83  84
ATOM     84  S   UNL A   1      38.502  31.515  36.023  1.00  0.00     0.124 S 
ATOM     85  O   UNL A   1      38.335  30.174  36.576  1.00  0.00    -0.237 OA
ATOM     86  O   UNL A   1      39.375  32.407  36.787  1.00  0.00    -0.237 OA
ATOM     87  O   UNL A   1      37.292  32.133  35.492  1.00  0.00    -0.744 OA
ENDBRANCH  83  84
ENDBRANCH  55  78
BRANCH  67  88
ATOM     88  C   UNL A   1      44.738  24.035  33.430  1.00  0.00    -0.014 A 
ATOM     89  C   UNL A   1      43.883  22.949  33.671  1.00  0.00     0.010 A 
ATOM     90  C   UNL A   1      46.052  23.932  33.955  1.00  0.00     0.010 A 
ATOM     91  C   UNL A   1      44.299  21.845  34.434  1.00  0.00     0.020 A 
ATOM     92  C   UNL A   1      46.490  22.820  34.682  1.00  0.00     0.020 A 
ATOM     93  C   UNL A   1      45.598  21.788  34.938  1.00  0.00     0.054 A 
BRANCH  93  94
ATOM     94  S   UNL A   1      46.144  20.329  35.861  1.00  0.00     0.124 S 
ATOM     95  O   UNL A   1      45.825  20.704  37.235  1.00  0.00    -0.237 OA
ATOM     96  O   UNL A   1      45.321  19.260  35.298  1.00  0.00    -0.237 OA
ATOM     97  O   UNL A   1      47.567  20.237  35.548  1.00  0.00    -0.744 OA
ENDBRANCH  93  94
ENDBRANCH  67  88
ENDBRANCH  41  42
ENDBRANCH  33  36
ENDBRANCH  31  32
ENDBRANCH  30  31
ENDBRANCH  29  30
ENDBRANCH   1  29
TORSDOF 19
ENDMDL
MODEL 2
REMARK VINA RESULT:     -13.1      1.157      1.659
REMARK SMILES Cc1cc([N+](=O)[O-])ccc1NC(=O)[C@@H]1[C@@H](C(=O)NCCCCCCNC(=O)c2ccc(-c3c4nc(c(-c5ccc(S(=O)(=O)[O-])cc5)c5ccc([nH]5)c(-c5ccc(S(=O)(=O)[O-])cc5)c5nc(c(-c6ccc(S(=O)(=O)[O-])cc6)c6ccc3[nH]6)C=C5)C=C4)cc2)[C@H]2C=C[C@@H]1C2
REMARK SMILES IDX 21 1 20 2 19 3 18 4 16 5 17 6 15 8 14 9 91 10 88 11 90 12
REMARK SMILES IDX 92 13 89 14 12 15 11 16 13 18 10 19 1 20 2 21 3 22 4 23 9 24
REMARK SMILES IDX 8 25 5 26 6 27 7 28 22 29 23 30 24 31 25 32 26 33 27 35
REMARK SMILES IDX 28 36 29 37 87 38 30 39 86 40 31 41 32 42 33 43 80 44 34 45
REMARK SMILES IDX 85 46 79 47 81 48 35 49 84 50 78 51 77 52 36 54 66 55 47 56
REMARK SMILES IDX 65 57 48 58 51 59 64 60 82 61 49 62 50 63 63 65 83 66 52 67
REMARK SMILES IDX 37 68 38 69 46 70 39 71 45 72 40 73 41 74 42 75 43 76 44 77
REMARK SMILES IDX 67 78 68 79 76 80 69 81 75 82 70 83 71 84 72 85 73 86 74 87
REMARK SMILES IDX 53 88 54 89 62 90 55 91 61 92 56 93 57 94 58 95 59 96 60 97
REMARK H PARENT 18 7 11 17 25 34 81 53 51 64
REMARK Flexibility Score: inf
ROOT
ATOM      1  C   UNL A   1      31.143  29.208  24.998  1.00  0.00     0.002 C 
ENDROOT
BRANCH   1   2
ATOM      2  C   UNL A   1      30.644  29.475  23.572  1.00  0.00     0.021 C 
BRANCH   2   3
ATOM      3  C   UNL A   1      30.143  28.275  22.771  1.00  0.00     0.116 C 
BRANCH   3   4
ATOM      4  N   UNL A   1      31.191  27.546  22.093  1.00  0.00    -0.356 N 
ATOM      5  C   UNL A   1      31.850  26.418  22.473  1.00  0.00     0.224 C 
ATOM      6  O   UNL A   1      32.660  25.942  21.674  1.00  0.00    -0.275 OA
ATOM      7  H   UNL A   1      31.471  27.922  21.227  1.00  0.00     0.163 HD
BRANCH   5   8
ATOM      8  C   UNL A   1      31.658  25.830  23.871  1.00  0.00     0.098 C 
ATOM      9  C   UNL A   1      32.918  24.975  24.305  1.00  0.00     0.099 C 
ATOM     10  C   UNL A   1      32.273  23.651  24.794  1.00  0.00     0.025 C 
ATOM     11  C   UNL A   1      30.513  24.797  24.034  1.00  0.00     0.025 C 
ATOM     12  C   UNL A   1      31.774  22.928  23.564  1.00  0.00    -0.027 C 
ATOM     13  C   UNL A   1      30.931  24.127  25.346  1.00  0.00     0.017 C 
ATOM     14  C   UNL A   1      30.725  23.624  23.101  1.00  0.00    -0.027 C 
BRANCH   9  15
ATOM     15  C   UNL A   1      33.791  25.605  25.373  1.00  0.00     0.228 C 
ATOM     16  N   UNL A   1      34.868  24.948  25.917  1.00  0.00    -0.326 N 
ATOM     17  H   UNL A   1      35.326  25.471  26.612  1.00  0.00     0.169 HD
ATOM     18  O   UNL A   1      33.535  26.720  25.838  1.00  0.00    -0.274 OA
BRANCH  16  19
ATOM     19  C   UNL A   1      35.462  23.686  25.696  1.00  0.00     0.044 A 
ATOM     20  C   UNL A   1      34.005  22.647  27.561  1.00  0.00     0.047 C 
ATOM     21  C   UNL A   1      35.002  22.569  26.433  1.00  0.00    -0.021 A 
ATOM     22  C   UNL A   1      35.502  21.282  26.131  1.00  0.00     0.091 A 
ATOM     23  C   UNL A   1      36.452  21.105  25.122  1.00  0.00     0.269 A 
ATOM     24  C   UNL A   1      36.490  23.484  24.764  1.00  0.00     0.033 A 
ATOM     25  C   UNL A   1      36.971  22.209  24.455  1.00  0.00     0.088 A 
BRANCH  23  26
ATOM     26  N   UNL A   1      36.910  19.758  24.765  1.00  0.00     0.062 N 
ATOM     27  O   UNL A   1      36.052  18.875  24.630  1.00  0.00    -0.258 OA
ATOM     28  O   UNL A   1      38.127  19.586  24.606  1.00  0.00    -0.258 OA
ENDBRANCH  23  26
ENDBRANCH  16  19
ENDBRANCH   9  15
ENDBRANCH   5   8
ENDBRANCH   3   4
ENDBRANCH   2   3
ENDBRANCH   1   2
BRANCH   1  29
ATOM     29  C   UNL A   1      32.362  29.998  25.492  1.00  0.00     0.002 C 
BRANCH  29  30
ATOM     30  C   UNL A   1      32.801  29.768  26.938  1.00  0.00     0.021 C 
BRANCH  30  31
ATOM     31  C   UNL A   1      34.307  29.761  27.159  1.00  0.00     0.116 C 
BRANCH  31  32
ATOM     32  N   UNL A   1      34.849  30.987  27.715  1.00  0.00    -0.352 N 
ATOM     33  C   UNL A   1      36.064  31.139  28.365  1.00  0.00     0.251 C 
ATOM     34  H   UNL A   1      34.296  31.796  27.620  1.00  0.00     0.163 HD
ATOM     35  O   UNL A   1      36.359  32.153  28.972  1.00  0.00    -0.269 OA
BRANCH  33  36
ATOM     36  C   UNL A   1      37.049  30.041  28.211  1.00  0.00     0.039 A 
ATOM     37  C   UNL A   1      37.238  29.189  29.304  1.00  0.00     0.014 A 
ATOM     38  C   UNL A   1      37.923  30.020  27.126  1.00  0.00     0.014 A 
ATOM     39  C   UNL A   1      38.401  28.424  29.382  1.00  0.00     0.010 A 
ATOM     40  C   UNL A   1      39.116  29.327  27.246  1.00  0.00     0.010 A 
ATOM     41  C   UNL A   1      39.378  28.560  28.391  1.00  0.00    -0.014 A 
BRANCH  41  42
ATOM     42  C   UNL A   1      40.728  28.016  28.523  1.00  0.00     0.031 A 
ATOM     43  C   UNL A   1      41.027  26.622  28.116  1.00  0.00     0.074 A 
ATOM     44  C   UNL A   1      41.737  28.761  29.031  1.00  0.00     0.049 A 
ATOM     45  N   UNL A   1      41.916  25.878  28.694  1.00  0.00    -0.248 NA
ATOM     46  C   UNL A   1      40.312  25.939  27.043  1.00  0.00     0.031 C 
ATOM     47  C   UNL A   1      43.160  28.428  28.990  1.00  0.00     0.029 A 
ATOM     48  N   UNL A   1      41.675  29.862  29.885  1.00  0.00    -0.354 N 
ATOM     49  C   UNL A   1      42.086  24.759  27.911  1.00  0.00     0.074 A 
ATOM     50  C   UNL A   1      41.009  24.803  26.946  1.00  0.00     0.031 C 
ATOM     51  C   UNL A   1      43.780  29.070  29.991  1.00  0.00     0.029 A 
ATOM     52  C   UNL A   1      42.758  29.748  30.771  1.00  0.00     0.049 A 
ATOM     53  H   UNL A   1      41.001  30.580  29.869  1.00  0.00     0.167 HD
ATOM     54  C   UNL A   1      43.198  23.982  28.044  1.00  0.00     0.031 A 
ATOM     55  C   UNL A   1      42.666  29.747  32.131  1.00  0.00     0.031 A 
ATOM     56  C   UNL A   1      44.121  24.492  29.051  1.00  0.00     0.049 A 
ATOM     57  C   UNL A   1      43.330  28.555  32.781  1.00  0.00     0.074 A 
ATOM     58  C   UNL A   1      45.288  25.232  28.955  1.00  0.00     0.029 A 
ATOM     59  N   UNL A   1      43.775  24.471  30.394  1.00  0.00    -0.354 N 
ATOM     60  N   UNL A   1      43.694  27.487  32.130  1.00  0.00    -0.248 NA
ATOM     61  C   UNL A   1      43.566  28.436  34.217  1.00  0.00     0.031 C 
ATOM     62  C   UNL A   1      45.641  25.671  30.252  1.00  0.00     0.029 A 
ATOM     63  C   UNL A   1      44.689  25.194  31.136  1.00  0.00     0.049 A 
ATOM     64  H   UNL A   1      42.989  24.007  30.766  1.00  0.00     0.167 HD
ATOM     65  C   UNL A   1      44.163  26.545  33.012  1.00  0.00     0.074 A 
ATOM     66  C   UNL A   1      44.083  27.197  34.305  1.00  0.00     0.031 C 
ATOM     67  C   UNL A   1      44.552  25.309  32.582  1.00  0.00     0.031 A 
BRANCH  54  68
ATOM     68  C   UNL A   1      43.597  22.930  27.032  1.00  0.00    -0.014 A 
ATOM     69  C   UNL A   1      42.694  21.895  26.711  1.00  0.00     0.010 A 
ATOM     70  C   UNL A   1      44.850  22.884  26.394  1.00  0.00     0.010 A 
ATOM     71  C   UNL A   1      43.060  20.809  25.905  1.00  0.00     0.020 A 
ATOM     72  C   UNL A   1      45.244  21.784  25.614  1.00  0.00     0.020 A 
ATOM     73  C   UNL A   1      44.349  20.742  25.390  1.00  0.00     0.054 A 
BRANCH  73  74
ATOM     74  S   UNL A   1      44.840  19.271  24.454  1.00  0.00     0.124 S 
ATOM     75  O   UNL A   1      44.378  19.588  23.105  1.00  0.00    -0.237 OA
ATOM     76  O   UNL A   1      46.288  19.252  24.635  1.00  0.00    -0.237 OA
ATOM     77  O   UNL A   1      44.116  18.185  25.111  1.00  0.00    -0.744 OA
ENDBRANCH  73  74
ENDBRANCH  54  68
BRANCH  55  78
ATOM     78  C   UNL A   1      41.469  30.437  32.674  1.00  0.00    -0.014 A 
ATOM     79  C   UNL A   1      40.305  29.666  32.873  1.00  0.00     0.010 A 
ATOM     80  C   UNL A   1      41.611  31.658  33.354  1.00  0.00     0.010 A 
ATOM     81  C   UNL A   1      39.380  30.025  33.854  1.00  0.00     0.020 A 
ATOM     82  C   UNL A   1      40.682  32.020  34.338  1.00  0.00     0.020 A 
ATOM     83  C   UNL A   1      39.610  31.168  34.621  1.00  0.00     0.054 A 
BRANCH  83  84
ATOM     84  S   UNL A   1      38.598  31.409  36.111  1.00  0.00     0.124 S 
ATOM     85  O   UNL A   1      39.428  32.303  36.911  1.00  0.00    -0.237 OA
ATOM     86  O   UNL A   1      37.383  32.005  35.556  1.00  0.00    -0.237 OA
ATOM     87  O   UNL A   1      38.444  30.055  36.633  1.00  0.00    -0.744 OA
ENDBRANCH  83  84
ENDBRANCH  55  78
BRANCH  67  88
ATOM     88  C   UNL A   1      44.924  24.111  33.430  1.00  0.00    -0.014 A 
ATOM     89  C   UNL A   1      44.123  22.973  33.607  1.00  0.00     0.010 A 
ATOM     90  C   UNL A   1      46.215  24.071  34.017  1.00  0.00     0.010 A 
ATOM     91  C   UNL A   1      44.564  21.878  34.370  1.00  0.00     0.020 A 
ATOM     92  C   UNL A   1      46.680  22.971  34.745  1.00  0.00     0.020 A 
ATOM     93  C   UNL A   1      45.839  21.885  34.937  1.00  0.00     0.054 A 
BRANCH  93  94
ATOM     94  S   UNL A   1      46.422  20.441  35.860  1.00  0.00     0.124 S 
ATOM     95  O   UNL A   1      46.740  21.021  37.161  1.00  0.00    -0.237 OA
ATOM     96  O   UNL A   1      45.263  19.549  35.839  1.00  0.00    -0.237 OA
ATOM     97  O   UNL A   1      47.567  19.975  35.081  1.00  0.00    -0.744 OA
ENDBRANCH  93  94
ENDBRANCH  67  88
ENDBRANCH  41  42
ENDBRANCH  33  36
ENDBRANCH  31  32
ENDBRANCH  30  31
ENDBRANCH  29  30
ENDBRANCH   1  29
TORSDOF 19
ENDMDL
MODEL 3
REMARK VINA RESULT:     -12.9      4.574     10.758
REMARK SMILES Cc1cc([N+](=O)[O-])ccc1NC(=O)[C@@H]1[C@@H](C(=O)NCCCCCCNC(=O)c2ccc(-c3c4nc(c(-c5ccc(S(=O)(=O)[O-])cc5)c5ccc([nH]5)c(-c5ccc(S(=O)(=O)[O-])cc5)c5nc(c(-c6ccc(S(=O)(=O)[O-])cc6)c6ccc3[nH]6)C=C5)C=C4)cc2)[C@H]2C=C[C@@H]1C2
REMARK SMILES IDX 21 1 20 2 19 3 18 4 16 5 17 6 15 8 14 9 91 10 88 11 90 12
REMARK SMILES IDX 92 13 89 14 12 15 11 16 13 18 10 19 1 20 2 21 3 22 4 23 9 24
REMARK SMILES IDX 8 25 5 26 6 27 7 28 22 29 23 30 24 31 25 32 26 33 27 35
REMARK SMILES IDX 28 36 29 37 87 38 30 39 86 40 31 41 32 42 33 43 80 44 34 45
REMARK SMILES IDX 85 46 79 47 81 48 35 49 84 50 78 51 77 52 36 54 66 55 47 56
REMARK SMILES IDX 65 57 48 58 51 59 64 60 82 61 49 62 50 63 63 65 83 66 52 67
REMARK SMILES IDX 37 68 38 69 46 70 39 71 45 72 40 73 41 74 42 75 43 76 44 77
REMARK SMILES IDX 67 78 68 79 76 80 69 81 75 82 70 83 71 84 72 85 73 86 74 87
REMARK SMILES IDX 53 88 54 89 62 90 55 91 61 92 56 93 57 94 58 95 59 96 60 97
REMARK H PARENT 18 7 11 17 25 34 81 53 51 64
REMARK Flexibility Score: inf
ROOT
ATOM      1  C   UNL A   1      35.613  24.265  24.685  1.00  0.00     0.002 C 
ENDROOT
BRANCH   1   2
ATOM      2  C   UNL A   1      34.467  24.435  25.691  1.00  0.00     0.021 C 
BRANCH   2   3
ATOM      3  C   UNL A   1      33.386  25.459  25.351  1.00  0.00     0.116 C 
BRANCH   3   4
ATOM      4  N   UNL A   1      33.236  26.502  26.341  1.00  0.00    -0.356 N 
ATOM      5  C   UNL A   1      32.418  27.589  26.339  1.00  0.00     0.224 C 
ATOM      6  O   UNL A   1      32.421  28.298  27.349  1.00  0.00    -0.275 OA
ATOM      7  H   UNL A   1      33.811  26.412  27.135  1.00  0.00     0.163 HD
BRANCH   5   8
ATOM      8  C   UNL A   1      31.610  27.962  25.096  1.00  0.00     0.098 C 
ATOM      9  C   UNL A   1      31.501  26.736  24.101  1.00  0.00     0.099 C 
ATOM     10  C   UNL A   1      31.915  27.366  22.745  1.00  0.00     0.025 C 
ATOM     11  C   UNL A   1      32.221  29.052  24.177  1.00  0.00     0.025 C 
ATOM     12  C   UNL A   1      33.403  27.618  22.818  1.00  0.00    -0.027 C 
ATOM     13  C   UNL A   1      31.426  28.806  22.892  1.00  0.00     0.017 C 
ATOM     14  C   UNL A   1      33.588  28.622  23.687  1.00  0.00    -0.027 C 
BRANCH   9  15
ATOM     15  C   UNL A   1      30.134  26.083  24.025  1.00  0.00     0.228 C 
ATOM     16  N   UNL A   1      29.974  24.719  24.033  1.00  0.00    -0.326 N 
ATOM     17  H   UNL A   1      29.033  24.442  23.957  1.00  0.00     0.169 HD
ATOM     18  O   UNL A   1      29.106  26.757  23.898  1.00  0.00    -0.274 OA
BRANCH  16  19
ATOM     19  C   UNL A   1      30.865  23.627  24.129  1.00  0.00     0.044 A 
ATOM     20  C   UNL A   1      30.374  23.419  26.658  1.00  0.00     0.047 C 
ATOM     21  C   UNL A   1      31.005  22.959  25.368  1.00  0.00    -0.021 A 
ATOM     22  C   UNL A   1      31.798  21.792  25.443  1.00  0.00     0.091 A 
ATOM     23  C   UNL A   1      32.450  21.298  24.310  1.00  0.00     0.269 A 
ATOM     24  C   UNL A   1      31.617  23.165  23.040  1.00  0.00     0.033 A 
ATOM     25  C   UNL A   1      32.386  22.000  23.111  1.00  0.00     0.088 A 
BRANCH  23  26
ATOM     26  N   UNL A   1      33.208  20.045  24.380  1.00  0.00     0.062 N 
ATOM     27  O   UNL A   1      34.198  20.012  25.126  1.00  0.00    -0.258 OA
ATOM     28  O   UNL A   1      32.808  19.089  23.700  1.00  0.00    -0.258 OA
ENDBRANCH  23  26
ENDBRANCH  16  19
ENDBRANCH   9  15
ENDBRANCH   5   8
ENDBRANCH   3   4
ENDBRANCH   2   3
ENDBRANCH   1   2
BRANCH   1  29
ATOM     29  C   UNL A   1      36.034  22.837  24.311  1.00  0.00     0.002 C 
BRANCH  29  30
ATOM     30  C   UNL A   1      37.377  22.345  24.849  1.00  0.00     0.021 C 
BRANCH  30  31
ATOM     31  C   UNL A   1      37.948  23.165  25.998  1.00  0.00     0.116 C 
BRANCH  31  32
ATOM     32  N   UNL A   1      39.333  22.878  26.324  1.00  0.00    -0.352 N 
ATOM     33  C   UNL A   1      40.283  23.778  26.781  1.00  0.00     0.251 C 
ATOM     34  H   UNL A   1      39.629  21.946  26.210  1.00  0.00     0.163 HD
ATOM     35  O   UNL A   1      41.468  23.502  26.845  1.00  0.00    -0.269 OA
BRANCH  33  36
ATOM     36  C   UNL A   1      39.786  25.079  27.287  1.00  0.00     0.039 A 
ATOM     37  C   UNL A   1      40.195  26.233  26.611  1.00  0.00     0.014 A 
ATOM     38  C   UNL A   1      39.152  25.162  28.526  1.00  0.00     0.014 A 
ATOM     39  C   UNL A   1      40.114  27.468  27.252  1.00  0.00     0.010 A 
ATOM     40  C   UNL A   1      39.153  26.376  29.194  1.00  0.00     0.010 A 
ATOM     41  C   UNL A   1      39.671  27.524  28.577  1.00  0.00    -0.014 A 
BRANCH  41  42
ATOM     42  C   UNL A   1      39.806  28.715  29.413  1.00  0.00     0.031 A 
ATOM     43  C   UNL A   1      38.774  29.779  29.389  1.00  0.00     0.074 A 
ATOM     44  C   UNL A   1      40.879  28.887  30.219  1.00  0.00     0.049 A 
ATOM     45  N   UNL A   1      39.032  31.036  29.568  1.00  0.00    -0.248 NA
ATOM     46  C   UNL A   1      37.366  29.512  29.120  1.00  0.00     0.031 C 
ATOM     47  C   UNL A   1      41.016  29.895  31.269  1.00  0.00     0.029 A 
ATOM     48  N   UNL A   1      42.157  28.337  30.113  1.00  0.00    -0.354 N 
ATOM     49  C   UNL A   1      37.827  31.684  29.719  1.00  0.00     0.074 A 
ATOM     50  C   UNL A   1      36.823  30.712  29.348  1.00  0.00     0.031 C 
ATOM     51  C   UNL A   1      42.321  30.115  31.484  1.00  0.00     0.029 A 
ATOM     52  C   UNL A   1      43.061  29.338  30.504  1.00  0.00     0.049 A 
ATOM     53  H   UNL A   1      42.381  27.424  29.820  1.00  0.00     0.167 HD
ATOM     54  C   UNL A   1      37.772  32.923  30.287  1.00  0.00     0.031 A 
ATOM     55  C   UNL A   1      44.107  29.790  29.757  1.00  0.00     0.031 A 
ATOM     56  C   UNL A   1      39.084  33.409  30.698  1.00  0.00     0.049 A 
ATOM     57  C   UNL A   1      44.111  31.290  29.569  1.00  0.00     0.074 A 
ATOM     58  C   UNL A   1      39.719  33.448  31.928  1.00  0.00     0.029 A 
ATOM     59  N   UNL A   1      40.041  33.734  29.747  1.00  0.00    -0.354 N 
ATOM     60  N   UNL A   1      43.088  32.053  29.828  1.00  0.00    -0.248 NA
ATOM     61  C   UNL A   1      45.233  32.038  29.008  1.00  0.00     0.031 C 
ATOM     62  C   UNL A   1      41.075  33.787  31.714  1.00  0.00     0.029 A 
ATOM     63  C   UNL A   1      41.262  33.957  30.354  1.00  0.00     0.049 A 
ATOM     64  H   UNL A   1      39.874  33.796  28.778  1.00  0.00     0.167 HD
ATOM     65  C   UNL A   1      43.368  33.344  29.453  1.00  0.00     0.074 A 
ATOM     66  C   UNL A   1      44.733  33.286  28.966  1.00  0.00     0.031 C 
ATOM     67  C   UNL A   1      42.429  34.329  29.566  1.00  0.00     0.031 A 
BRANCH  54  68
ATOM     68  C   UNL A   1      36.483  33.560  30.757  1.00  0.00    -0.014 A 
ATOM     69  C   UNL A   1      35.471  33.859  29.819  1.00  0.00     0.010 A 
ATOM     70  C   UNL A   1      36.222  33.920  32.091  1.00  0.00     0.010 A 
ATOM     71  C   UNL A   1      34.326  34.587  30.165  1.00  0.00     0.020 A 
ATOM     72  C   UNL A   1      35.097  34.682  32.446  1.00  0.00     0.020 A 
ATOM     73  C   UNL A   1      34.163  35.028  31.473  1.00  0.00     0.054 A 
BRANCH  73  74
ATOM     74  S   UNL A   1      32.738  36.073  31.872  1.00  0.00     0.124 S 
ATOM     75  O   UNL A   1      33.306  37.032  32.817  1.00  0.00    -0.237 OA
ATOM     76  O   UNL A   1      32.371  36.615  30.568  1.00  0.00    -0.237 OA
ATOM     77  O   UNL A   1      31.776  35.138  32.451  1.00  0.00    -0.744 OA
ENDBRANCH  73  74
ENDBRANCH  54  68
BRANCH  55  78
ATOM     78  C   UNL A   1      44.623  28.821  28.758  1.00  0.00    -0.014 A 
ATOM     79  C   UNL A   1      43.961  28.750  27.515  1.00  0.00     0.010 A 
ATOM     80  C   UNL A   1      45.935  28.329  28.869  1.00  0.00     0.010 A 
ATOM     81  C   UNL A   1      44.651  28.350  26.370  1.00  0.00     0.020 A 
ATOM     82  C   UNL A   1      46.627  27.926  27.720  1.00  0.00     0.020 A 
ATOM     83  C   UNL A   1      45.999  28.000  26.474  1.00  0.00     0.054 A 
BRANCH  83  84
ATOM     84  S   UNL A   1      46.955  27.837  24.938  1.00  0.00     0.124 S 
ATOM     85  O   UNL A   1      46.354  26.659  24.320  1.00  0.00    -0.237 OA
ATOM     86  O   UNL A   1      46.675  29.109  24.273  1.00  0.00    -0.237 OA
ATOM     87  O   UNL A   1      48.325  27.671  25.412  1.00  0.00    -0.744 OA
ENDBRANCH  83  84
ENDBRANCH  55  78
BRANCH  67  88
ATOM     88  C   UNL A   1      42.513  35.749  29.045  1.00  0.00    -0.014 A 
ATOM     89  C   UNL A   1      43.352  36.747  29.563  1.00  0.00     0.010 A 
ATOM     90  C   UNL A   1      41.769  36.089  27.886  1.00  0.00     0.010 A 
ATOM     91  C   UNL A   1      43.409  38.028  28.988  1.00  0.00     0.020 A 
ATOM     92  C   UNL A   1      41.847  37.348  27.281  1.00  0.00     0.020 A 
ATOM     93  C   UNL A   1      42.654  38.321  27.852  1.00  0.00     0.054 A 
BRANCH  93  94
ATOM     94  S   UNL A   1      42.787  39.954  27.080  1.00  0.00     0.124 S 
ATOM     95  O   UNL A   1      44.057  39.848  26.366  1.00  0.00    -0.237 OA
ATOM     96  O   UNL A   1      41.598  40.013  26.232  1.00  0.00    -0.237 OA
ATOM     97  O   UNL A   1      42.778  40.873  28.215  1.00  0.00    -0.744 OA
ENDBRANCH  93  94
ENDBRANCH  67  88
ENDBRANCH  41  42
ENDBRANCH  33  36
ENDBRANCH  31  32
ENDBRANCH  30  31
ENDBRANCH  29  30
ENDBRANCH   1  29
TORSDOF 19
ENDMDL
