MODEL 1
REMARK VINA RESULT:     -11.1      0.000      0.000
REMARK SMILES O=C(NCCCCCCNC(=O)[C@H]1[C@H]2CC[C@H](CC2)[C@@H]1C(=O)Nc1ccc(Cc2ccncc2)cc1)c1ccc(-c2c3nc(c(-c4ccc(S(=O)(=O)[O-])cc4)c4ccc([nH]4)c(-c4ccc(S(=O)(=O)[O-])cc4)c4nc(c(-c5ccc(S(=O)(=O)[O-])cc5)c5ccc2[nH]5)C=C4)C=C3)cc1
REMARK SMILES IDX 7 1 6 2 5 3 4 4 3 5 1 6 2 7 37 9 38 10 96 11 39 12 95 13
REMARK SMILES IDX 40 14 41 15 42 16 89 17 43 18 94 19 88 20 90 21 44 22 93 23
REMARK SMILES IDX 87 24 86 25 45 27 75 28 56 29 74 30 57 31 60 32 73 33 91 34
REMARK SMILES IDX 58 35 59 36 72 38 92 39 61 40 46 41 47 42 55 43 48 44 54 45
REMARK SMILES IDX 49 46 50 47 51 48 52 49 53 50 76 51 77 52 85 53 78 54 84 55
REMARK SMILES IDX 79 56 80 57 81 58 82 59 83 60 62 61 63 62 71 63 64 64 70 65
REMARK SMILES IDX 65 66 66 67 67 68 68 69 69 70 8 71 9 72 10 73 11 74 12 76
REMARK SMILES IDX 13 77 14 78 20 79 15 80 19 81 17 82 16 83 18 84 21 85 22 86
REMARK SMILES IDX 23 87 24 89 25 90 36 91 26 92 35 93 27 94 28 95 29 96 30 97
REMARK SMILES IDX 34 98 31 99 33 100 32 101
REMARK H PARENT 3 8 90 26 60 37 10 75 23 88
REMARK Flexibility Score: inf
ROOT
ATOM      1  C   UNL A   1      38.840  23.363  26.569  1.00  0.00     0.002 C 
ENDROOT
BRANCH   1   2
ATOM      2  C   UNL A   1      40.101  22.526  26.809  1.00  0.00     0.002 C 
BRANCH   2   3
ATOM      3  C   UNL A   1      40.102  21.161  26.119  1.00  0.00     0.021 C 
BRANCH   3   4
ATOM      4  C   UNL A   1      40.850  20.076  26.882  1.00  0.00     0.116 C 
BRANCH   4   5
ATOM      5  N   UNL A   1      41.850  19.423  26.054  1.00  0.00    -0.352 N 
ATOM      6  O   UNL A   1      43.554  19.326  24.580  1.00  0.00    -0.269 OA
ATOM      7  C   UNL A   1      42.929  19.977  25.412  1.00  0.00     0.251 C 
ATOM      8  H   UNL A   1      41.737  18.452  25.936  1.00  0.00     0.163 HD
BRANCH   7   9
ATOM      9  C   UNL A   1      43.322  21.367  25.723  1.00  0.00     0.039 A 
ATOM     10  C   UNL A   1      43.801  21.700  26.993  1.00  0.00     0.014 A 
ATOM     11  C   UNL A   1      43.220  22.343  24.729  1.00  0.00     0.014 A 
ATOM     12  C   UNL A   1      44.065  23.028  27.306  1.00  0.00     0.010 A 
ATOM     13  C   UNL A   1      43.564  23.664  25.021  1.00  0.00     0.010 A 
ATOM     14  C   UNL A   1      43.970  24.021  26.318  1.00  0.00    -0.014 A 
BRANCH  14  15
ATOM     15  C   UNL A   1      44.383  25.410  26.632  1.00  0.00     0.031 A 
ATOM     16  C   UNL A   1      45.771  25.898  26.328  1.00  0.00     0.074 A 
ATOM     17  C   UNL A   1      43.488  26.229  27.219  1.00  0.00     0.049 A 
ATOM     18  N   UNL A   1      46.298  27.071  26.566  1.00  0.00    -0.248 NA
ATOM     19  C   UNL A   1      46.686  24.945  25.682  1.00  0.00     0.031 C 
ATOM     20  C   UNL A   1      42.115  25.858  27.576  1.00  0.00     0.029 A 
ATOM     21  N   UNL A   1      43.595  27.535  27.621  1.00  0.00    -0.354 N 
ATOM     22  C   UNL A   1      47.613  26.994  26.124  1.00  0.00     0.074 A 
ATOM     23  C   UNL A   1      47.809  25.650  25.622  1.00  0.00     0.031 C 
ATOM     24  C   UNL A   1      41.503  26.916  28.125  1.00  0.00     0.029 A 
ATOM     25  C   UNL A   1      42.455  28.017  28.219  1.00  0.00     0.049 A 
ATOM     26  H   UNL A   1      44.408  28.074  27.495  1.00  0.00     0.167 HD
ATOM     27  C   UNL A   1      48.568  27.957  26.137  1.00  0.00     0.031 A 
ATOM     28  C   UNL A   1      42.206  29.200  28.812  1.00  0.00     0.031 A 
ATOM     29  C   UNL A   1      48.365  29.286  26.654  1.00  0.00     0.049 A 
ATOM     30  C   UNL A   1      43.286  30.240  28.842  1.00  0.00     0.074 A 
ATOM     31  C   UNL A   1      49.253  30.347  26.673  1.00  0.00     0.029 A 
ATOM     32  N   UNL A   1      47.197  29.733  27.257  1.00  0.00    -0.354 N 
ATOM     33  N   UNL A   1      44.506  30.169  28.365  1.00  0.00    -0.248 NA
ATOM     34  C   UNL A   1      42.958  31.520  29.480  1.00  0.00     0.031 C 
ATOM     35  C   UNL A   1      48.645  31.414  27.342  1.00  0.00     0.029 A 
ATOM     36  C   UNL A   1      47.354  31.043  27.682  1.00  0.00     0.049 A 
ATOM     37  H   UNL A   1      46.378  29.199  27.367  1.00  0.00     0.167 HD
ATOM     38  C   UNL A   1      45.089  31.401  28.634  1.00  0.00     0.074 A 
ATOM     39  C   UNL A   1      44.081  32.203  29.300  1.00  0.00     0.031 C 
ATOM     40  C   UNL A   1      46.344  31.827  28.352  1.00  0.00     0.031 A 
BRANCH  27  41
ATOM     41  C   UNL A   1      49.935  27.588  25.617  1.00  0.00    -0.014 A 
ATOM     42  C   UNL A   1      50.280  27.769  24.265  1.00  0.00     0.010 A 
ATOM     43  C   UNL A   1      50.898  27.069  26.502  1.00  0.00     0.010 A 
ATOM     44  C   UNL A   1      51.540  27.384  23.799  1.00  0.00     0.020 A 
ATOM     45  C   UNL A   1      52.169  26.710  26.045  1.00  0.00     0.020 A 
ATOM     46  C   UNL A   1      52.473  26.846  24.690  1.00  0.00     0.054 A 
BRANCH  46  47
ATOM     47  S   UNL A   1      54.094  26.337  24.054  1.00  0.00     0.124 S 
ATOM     48  O   UNL A   1      54.961  27.398  24.559  1.00  0.00    -0.237 OA
ATOM     49  O   UNL A   1      54.285  25.027  24.671  1.00  0.00    -0.237 OA
ATOM     50  O   UNL A   1      53.910  26.318  22.605  1.00  0.00    -0.744 OA
ENDBRANCH  46  47
ENDBRANCH  27  41
BRANCH  28  51
ATOM     51  C   UNL A   1      40.878  29.427  29.440  1.00  0.00    -0.014 A 
ATOM     52  C   UNL A   1      40.713  29.331  30.831  1.00  0.00     0.010 A 
ATOM     53  C   UNL A   1      39.785  29.819  28.643  1.00  0.00     0.010 A 
ATOM     54  C   UNL A   1      39.478  29.629  31.416  1.00  0.00     0.020 A 
ATOM     55  C   UNL A   1      38.558  30.145  29.228  1.00  0.00     0.020 A 
ATOM     56  C   UNL A   1      38.411  30.042  30.611  1.00  0.00     0.054 A 
BRANCH  56  57
ATOM     57  S   UNL A   1      36.848  30.509  31.403  1.00  0.00     0.124 S 
ATOM     58  O   UNL A   1      35.914  29.554  30.818  1.00  0.00    -0.237 OA
ATOM     59  O   UNL A   1      37.143  30.320  32.821  1.00  0.00    -0.237 OA
ATOM     60  O   UNL A   1      36.660  31.900  30.996  1.00  0.00    -0.744 OA
ENDBRANCH  56  57
ENDBRANCH  28  51
BRANCH  40  61
ATOM     61  C   UNL A   1      46.699  33.237  28.741  1.00  0.00    -0.014 A 
ATOM     62  C   UNL A   1      46.450  34.317  27.876  1.00  0.00     0.010 A 
ATOM     63  C   UNL A   1      47.225  33.490  30.021  1.00  0.00     0.010 A 
ATOM     64  C   UNL A   1      46.737  35.624  28.278  1.00  0.00     0.020 A 
ATOM     65  C   UNL A   1      47.488  34.797  30.437  1.00  0.00     0.020 A 
ATOM     66  C   UNL A   1      47.250  35.855  29.558  1.00  0.00     0.054 A 
BRANCH  66  67
ATOM     67  S   UNL A   1      47.552  37.567  30.082  1.00  0.00     0.124 S 
ATOM     68  O   UNL A   1      46.290  37.913  30.728  1.00  0.00    -0.237 OA
ATOM     69  O   UNL A   1      48.699  37.430  30.975  1.00  0.00    -0.237 OA
ATOM     70  O   UNL A   1      47.824  38.269  28.830  1.00  0.00    -0.744 OA
ENDBRANCH  66  67
ENDBRANCH  40  61
ENDBRANCH  14  15
ENDBRANCH   7   9
ENDBRANCH   4   5
ENDBRANCH   3   4
ENDBRANCH   2   3
ENDBRANCH   1   2
BRANCH   1  71
ATOM     71  C   UNL A   1      37.743  22.661  25.759  1.00  0.00     0.021 C 
BRANCH  71  72
ATOM     72  C   UNL A   1      37.048  23.570  24.745  1.00  0.00     0.116 C 
BRANCH  72  73
ATOM     73  N   UNL A   1      36.088  24.430  25.415  1.00  0.00    -0.356 N 
ATOM     74  C   UNL A   1      34.728  24.379  25.399  1.00  0.00     0.224 C 
ATOM     75  H   UNL A   1      36.476  25.153  25.958  1.00  0.00     0.163 HD
ATOM     76  O   UNL A   1      34.102  25.377  25.759  1.00  0.00    -0.275 OA
BRANCH  74  77
ATOM     77  C   UNL A   1      34.037  23.072  25.052  1.00  0.00     0.094 C 
ATOM     78  C   UNL A   1      34.202  22.063  26.221  1.00  0.00     0.002 C 
ATOM     79  C   UNL A   1      32.535  23.292  24.685  1.00  0.00     0.094 C 
ATOM     80  C   UNL A   1      33.402  22.513  27.454  1.00  0.00     0.005 C 
ATOM     81  C   UNL A   1      33.625  20.715  25.754  1.00  0.00     0.005 C 
ATOM     82  C   UNL A   1      31.707  22.341  25.595  1.00  0.00     0.002 C 
ATOM     83  C   UNL A   1      31.944  22.752  27.063  1.00  0.00     0.005 C 
ATOM     84  C   UNL A   1      32.145  20.880  25.403  1.00  0.00     0.005 C 
BRANCH  79  85
ATOM     85  C   UNL A   1      32.387  23.131  23.152  1.00  0.00     0.228 C 
ATOM     86  O   UNL A   1      32.759  22.099  22.578  1.00  0.00    -0.274 OA
ATOM     87  N   UNL A   1      31.839  24.090  22.356  1.00  0.00    -0.326 N 
ATOM     88  H   UNL A   1      31.667  23.813  21.427  1.00  0.00     0.169 HD
BRANCH  87  89
ATOM     89  C   UNL A   1      31.485  25.402  22.655  1.00  0.00     0.041 A 
ATOM     90  C   UNL A   1      30.333  25.590  23.413  1.00  0.00     0.026 A 
ATOM     91  C   UNL A   1      32.267  26.493  22.276  1.00  0.00     0.026 A 
ATOM     92  C   UNL A   1      30.046  26.852  23.921  1.00  0.00     0.006 A 
ATOM     93  C   UNL A   1      31.947  27.769  22.745  1.00  0.00     0.006 A 
ATOM     94  C   UNL A   1      30.858  27.953  23.608  1.00  0.00    -0.043 A 
BRANCH  94  95
ATOM     95  C   UNL A   1      30.561  29.308  24.206  1.00  0.00     0.071 C 
BRANCH  95  96
ATOM     96  C   UNL A   1      29.582  30.125  23.400  1.00  0.00    -0.041 A 
ATOM     97  C   UNL A   1      29.072  31.330  23.894  1.00  0.00     0.024 A 
ATOM     98  C   UNL A   1      29.143  29.686  22.150  1.00  0.00     0.024 A 
ATOM     99  C   UNL A   1      28.144  32.025  23.137  1.00  0.00     0.111 A 
ATOM    100  C   UNL A   1      28.223  30.461  21.459  1.00  0.00     0.111 A 
ATOM    101  N   UNL A   1      27.713  31.621  21.925  1.00  0.00    -0.265 NA
ENDBRANCH  95  96
ENDBRANCH  94  95
ENDBRANCH  87  89
ENDBRANCH  79  85
ENDBRANCH  74  77
ENDBRANCH  72  73
ENDBRANCH  71  72
ENDBRANCH   1  71
TORSDOF 20
ENDMDL
MODEL 2
REMARK VINA RESULT:     -10.8      6.183     12.144
REMARK SMILES O=C(NCCCCCCNC(=O)[C@H]1[C@H]2CC[C@H](CC2)[C@@H]1C(=O)Nc1ccc(Cc2ccncc2)cc1)c1ccc(-c2c3nc(c(-c4ccc(S(=O)(=O)[O-])cc4)c4ccc([nH]4)c(-c4ccc(S(=O)(=O)[O-])cc4)c4nc(c(-c5ccc(S(=O)(=O)[O-])cc5)c5ccc2[nH]5)C=C4)C=C3)cc1
REMARK SMILES IDX 7 1 6 2 5 3 4 4 3 5 1 6 2 7 37 9 38 10 96 11 39 12 95 13
REMARK SMILES IDX 40 14 41 15 42 16 89 17 43 18 94 19 88 20 90 21 44 22 93 23
REMARK SMILES IDX 87 24 86 25 45 27 75 28 56 29 74 30 57 31 60 32 73 33 91 34
REMARK SMILES IDX 58 35 59 36 72 38 92 39 61 40 46 41 47 42 55 43 48 44 54 45
REMARK SMILES IDX 49 46 50 47 51 48 52 49 53 50 76 51 77 52 85 53 78 54 84 55
REMARK SMILES IDX 79 56 80 57 81 58 82 59 83 60 62 61 63 62 71 63 64 64 70 65
REMARK SMILES IDX 65 66 66 67 67 68 68 69 69 70 8 71 9 72 10 73 11 74 12 76
REMARK SMILES IDX 13 77 14 78 20 79 15 80 19 81 17 82 16 83 18 84 21 85 22 86
REMARK SMILES IDX 23 87 24 89 25 90 36 91 26 92 35 93 27 94 28 95 29 96 30 97
REMARK SMILES IDX 34 98 31 99 33 100 32 101
REMARK H PARENT 3 8 90 26 60 37 10 75 23 88
REMARK Flexibility Score: inf
ROOT
ATOM      1  C   UNL A   1      35.167  32.084  27.968  1.00  0.00     0.002 C 
ENDROOT
BRANCH   1   2
ATOM      2  C   UNL A   1      34.011  32.623  28.818  1.00  0.00     0.002 C 
BRANCH   2   3
ATOM      3  C   UNL A   1      33.335  33.875  28.257  1.00  0.00     0.021 C 
BRANCH   3   4
ATOM      4  C   UNL A   1      33.762  35.171  28.932  1.00  0.00     0.116 C 
BRANCH   4   5
ATOM      5  N   UNL A   1      32.908  35.499  30.061  1.00  0.00    -0.352 N 
ATOM      6  O   UNL A   1      32.118  35.312  32.165  1.00  0.00    -0.269 OA
ATOM      7  C   UNL A   1      33.040  35.128  31.376  1.00  0.00     0.251 C 
ATOM      8  H   UNL A   1      32.128  36.063  29.855  1.00  0.00     0.163 HD
BRANCH   7   9
ATOM      9  C   UNL A   1      34.296  34.494  31.828  1.00  0.00     0.039 A 
ATOM     10  C   UNL A   1      35.488  35.223  31.854  1.00  0.00     0.014 A 
ATOM     11  C   UNL A   1      34.276  33.159  32.238  1.00  0.00     0.014 A 
ATOM     12  C   UNL A   1      36.680  34.587  32.177  1.00  0.00     0.010 A 
ATOM     13  C   UNL A   1      35.463  32.544  32.641  1.00  0.00     0.010 A 
ATOM     14  C   UNL A   1      36.678  33.247  32.594  1.00  0.00    -0.014 A 
BRANCH  14  15
ATOM     15  C   UNL A   1      37.939  32.623  33.063  1.00  0.00     0.031 A 
ATOM     16  C   UNL A   1      38.468  32.880  34.445  1.00  0.00     0.074 A 
ATOM     17  C   UNL A   1      38.618  31.830  32.212  1.00  0.00     0.049 A 
ATOM     18  N   UNL A   1      39.568  32.436  34.997  1.00  0.00    -0.248 NA
ATOM     19  C   UNL A   1      37.667  33.753  35.316  1.00  0.00     0.031 C 
ATOM     20  C   UNL A   1      38.207  31.522  30.838  1.00  0.00     0.029 A 
ATOM     21  N   UNL A   1      39.792  31.141  32.369  1.00  0.00    -0.354 N 
ATOM     22  C   UNL A   1      39.606  32.992  36.270  1.00  0.00     0.074 A 
ATOM     23  C   UNL A   1      38.428  33.824  36.400  1.00  0.00     0.031 C 
ATOM     24  C   UNL A   1      39.102  30.692  30.287  1.00  0.00     0.029 A 
ATOM     25  C   UNL A   1      40.182  30.460  31.240  1.00  0.00     0.049 A 
ATOM     26  H   UNL A   1      40.306  31.134  33.208  1.00  0.00     0.167 HD
ATOM     27  C   UNL A   1      40.540  32.824  37.240  1.00  0.00     0.031 A 
ATOM     28  C   UNL A   1      41.299  29.756  30.980  1.00  0.00     0.031 A 
ATOM     29  C   UNL A   1      41.715  32.005  37.092  1.00  0.00     0.049 A 
ATOM     30  C   UNL A   1      42.332  29.607  32.056  1.00  0.00     0.074 A 
ATOM     31  C   UNL A   1      42.698  31.734  38.028  1.00  0.00     0.029 A 
ATOM     32  N   UNL A   1      42.077  31.337  35.930  1.00  0.00    -0.354 N 
ATOM     33  N   UNL A   1      42.323  30.093  33.275  1.00  0.00    -0.248 NA
ATOM     34  C   UNL A   1      43.522  28.812  31.730  1.00  0.00     0.031 C 
ATOM     35  C   UNL A   1      43.684  30.954  37.414  1.00  0.00     0.029 A 
ATOM     36  C   UNL A   1      43.285  30.683  36.115  1.00  0.00     0.049 A 
ATOM     37  H   UNL A   1      41.553  31.330  35.097  1.00  0.00     0.167 HD
ATOM     38  C   UNL A   1      43.499  29.651  33.867  1.00  0.00     0.074 A 
ATOM     39  C   UNL A   1      44.187  28.845  32.878  1.00  0.00     0.031 C 
ATOM     40  C   UNL A   1      43.963  29.891  35.117  1.00  0.00     0.031 A 
BRANCH  27  41
ATOM     41  C   UNL A   1      40.346  33.580  38.530  1.00  0.00    -0.014 A 
ATOM     42  C   UNL A   1      40.855  34.880  38.703  1.00  0.00     0.010 A 
ATOM     43  C   UNL A   1      39.624  32.986  39.582  1.00  0.00     0.010 A 
ATOM     44  C   UNL A   1      40.697  35.546  39.922  1.00  0.00     0.020 A 
ATOM     45  C   UNL A   1      39.438  33.660  40.792  1.00  0.00     0.020 A 
ATOM     46  C   UNL A   1      39.998  34.928  40.962  1.00  0.00     0.054 A 
BRANCH  46  47
ATOM     47  S   UNL A   1      39.823  35.807  42.540  1.00  0.00     0.124 S 
ATOM     48  O   UNL A   1      40.397  37.112  42.220  1.00  0.00    -0.237 OA
ATOM     49  O   UNL A   1      38.379  35.794  42.756  1.00  0.00    -0.237 OA
ATOM     50  O   UNL A   1      40.598  34.998  43.478  1.00  0.00    -0.744 OA
ENDBRANCH  46  47
ENDBRANCH  27  41
BRANCH  28  51
ATOM     51  C   UNL A   1      41.484  29.171  29.625  1.00  0.00    -0.014 A 
ATOM     52  C   UNL A   1      42.246  29.835  28.651  1.00  0.00     0.010 A 
ATOM     53  C   UNL A   1      40.956  27.898  29.335  1.00  0.00     0.010 A 
ATOM     54  C   UNL A   1      42.481  29.234  27.410  1.00  0.00     0.020 A 
ATOM     55  C   UNL A   1      41.213  27.283  28.107  1.00  0.00     0.020 A 
ATOM     56  C   UNL A   1      41.970  27.958  27.150  1.00  0.00     0.054 A 
BRANCH  56  57
ATOM     57  S   UNL A   1      42.365  27.164  25.568  1.00  0.00     0.124 S 
ATOM     58  O   UNL A   1      41.272  26.209  25.426  1.00  0.00    -0.237 OA
ATOM     59  O   UNL A   1      42.349  28.289  24.637  1.00  0.00    -0.237 OA
ATOM     60  O   UNL A   1      43.684  26.578  25.800  1.00  0.00    -0.744 OA
ENDBRANCH  56  57
ENDBRANCH  28  51
BRANCH  40  61
ATOM     61  C   UNL A   1      45.271  29.255  35.503  1.00  0.00    -0.014 A 
ATOM     62  C   UNL A   1      46.492  29.929  35.322  1.00  0.00     0.010 A 
ATOM     63  C   UNL A   1      45.271  27.991  36.121  1.00  0.00     0.010 A 
ATOM     64  C   UNL A   1      47.690  29.342  35.737  1.00  0.00     0.020 A 
ATOM     65  C   UNL A   1      46.463  27.413  36.562  1.00  0.00     0.020 A 
ATOM     66  C   UNL A   1      47.667  28.089  36.359  1.00  0.00     0.054 A 
BRANCH  66  67
ATOM     67  S   UNL A   1      49.229  27.378  36.949  1.00  0.00     0.124 S 
ATOM     68  O   UNL A   1      48.790  26.104  37.510  1.00  0.00    -0.237 OA
ATOM     69  O   UNL A   1      50.021  27.288  35.726  1.00  0.00    -0.237 OA
ATOM     70  O   UNL A   1      49.708  28.356  37.923  1.00  0.00    -0.744 OA
ENDBRANCH  66  67
ENDBRANCH  40  61
ENDBRANCH  14  15
ENDBRANCH   7   9
ENDBRANCH   4   5
ENDBRANCH   3   4
ENDBRANCH   2   3
ENDBRANCH   1   2
BRANCH   1  71
ATOM     71  C   UNL A   1      35.251  30.554  27.888  1.00  0.00     0.021 C 
BRANCH  71  72
ATOM     72  C   UNL A   1      34.126  29.917  27.073  1.00  0.00     0.116 C 
BRANCH  72  73
ATOM     73  N   UNL A   1      34.598  28.709  26.420  1.00  0.00    -0.356 N 
ATOM     74  C   UNL A   1      33.884  27.667  25.914  1.00  0.00     0.224 C 
ATOM     75  H   UNL A   1      35.576  28.632  26.331  1.00  0.00     0.163 HD
ATOM     76  O   UNL A   1      34.471  26.605  25.701  1.00  0.00    -0.275 OA
BRANCH  74  77
ATOM     77  C   UNL A   1      32.431  27.880  25.528  1.00  0.00     0.094 C 
ATOM     78  C   UNL A   1      32.338  28.934  24.391  1.00  0.00     0.002 C 
ATOM     79  C   UNL A   1      31.735  26.538  25.132  1.00  0.00     0.094 C 
ATOM     80  C   UNL A   1      32.924  28.384  23.081  1.00  0.00     0.005 C 
ATOM     81  C   UNL A   1      30.846  29.226  24.150  1.00  0.00     0.005 C 
ATOM     82  C   UNL A   1      31.109  26.756  23.726  1.00  0.00     0.002 C 
ATOM     83  C   UNL A   1      32.251  27.057  22.732  1.00  0.00     0.005 C 
ATOM     84  C   UNL A   1      30.127  27.939  23.739  1.00  0.00     0.005 C 
BRANCH  79  85
ATOM     85  C   UNL A   1      30.787  26.131  26.287  1.00  0.00     0.228 C 
ATOM     86  O   UNL A   1      30.155  26.982  26.927  1.00  0.00    -0.274 OA
ATOM     87  N   UNL A   1      30.584  24.837  26.657  1.00  0.00    -0.326 N 
ATOM     88  H   UNL A   1      29.852  24.696  27.301  1.00  0.00     0.169 HD
BRANCH  87  89
ATOM     89  C   UNL A   1      31.252  23.682  26.262  1.00  0.00     0.041 A 
ATOM     90  C   UNL A   1      31.097  23.281  24.938  1.00  0.00     0.026 A 
ATOM     91  C   UNL A   1      32.093  22.973  27.120  1.00  0.00     0.026 A 
ATOM     92  C   UNL A   1      31.901  22.266  24.431  1.00  0.00     0.006 A 
ATOM     93  C   UNL A   1      32.861  21.919  26.621  1.00  0.00     0.006 A 
ATOM     94  C   UNL A   1      32.804  21.584  25.261  1.00  0.00    -0.043 A 
BRANCH  94  95
ATOM     95  C   UNL A   1      33.704  20.516  24.686  1.00  0.00     0.071 C 
BRANCH  95  96
ATOM     96  C   UNL A   1      35.160  20.909  24.643  1.00  0.00    -0.041 A 
ATOM     97  C   UNL A   1      36.161  20.001  25.004  1.00  0.00     0.024 A 
ATOM     98  C   UNL A   1      35.542  22.196  24.263  1.00  0.00     0.024 A 
ATOM     99  C   UNL A   1      37.481  20.419  24.989  1.00  0.00     0.111 A 
ATOM    100  C   UNL A   1      36.893  22.515  24.263  1.00  0.00     0.111 A 
ATOM    101  N   UNL A   1      37.871  21.656  24.618  1.00  0.00    -0.265 NA
ENDBRANCH  95  96
ENDBRANCH  94  95
ENDBRANCH  87  89
ENDBRANCH  79  85
ENDBRANCH  74  77
ENDBRANCH  72  73
ENDBRANCH  71  72
ENDBRANCH   1  71
TORSDOF 20
ENDMDL
MODEL 3
REMARK VINA RESULT:     -10.8      2.269      8.146
REMARK SMILES O=C(NCCCCCCNC(=O)[C@H]1[C@H]2CC[C@H](CC2)[C@@H]1C(=O)Nc1ccc(Cc2ccncc2)cc1)c1ccc(-c2c3nc(c(-c4ccc(S(=O)(=O)[O-])cc4)c4ccc([nH]4)c(-c4ccc(S(=O)(=O)[O-])cc4)c4nc(c(-c5ccc(S(=O)(=O)[O-])cc5)c5ccc2[nH]5)C=C4)C=C3)cc1
REMARK SMILES IDX 7 1 6 2 5 3 4 4 3 5 1 6 2 7 37 9 38 10 96 11 39 12 95 13
REMARK SMILES IDX 40 14 41 15 42 16 89 17 43 18 94 19 88 20 90 21 44 22 93 23
REMARK SMILES IDX 87 24 86 25 45 27 75 28 56 29 74 30 57 31 60 32 73 33 91 34
REMARK SMILES IDX 58 35 59 36 72 38 92 39 61 40 46 41 47 42 55 43 48 44 54 45
REMARK SMILES IDX 49 46 50 47 51 48 52 49 53 50 76 51 77 52 85 53 78 54 84 55
REMARK SMILES IDX 79 56 80 57 81 58 82 59 83 60 62 61 63 62 71 63 64 64 70 65
REMARK SMILES IDX 65 66 66 67 67 68 68 69 69 70 8 71 9 72 10 73 11 74 12 76
REMARK SMILES IDX 13 77 14 78 20 79 15 80 19 81 17 82 16 83 18 84 21 85 22 86
REMARK SMILES IDX 23 87 24 89 25 90 36 91 26 92 35 93 27 94 28 95 29 96 30 97
REMARK SMILES IDX 34 98 31 99 33 100 32 101
REMARK H PARENT 3 8 90 26 60 37 10 75 23 88
REMARK Flexibility Score: inf
ROOT
ATOM      1  C   UNL A   1      34.023  27.542  26.142  1.00  0.00     0.002 C 
ENDROOT
BRANCH   1   2
ATOM      2  C   UNL A   1      33.404  28.464  27.198  1.00  0.00     0.002 C 
BRANCH   2   3
ATOM      3  C   UNL A   1      34.150  29.782  27.412  1.00  0.00     0.021 C 
BRANCH   3   4
ATOM      4  C   UNL A   1      35.532  29.624  28.031  1.00  0.00     0.116 C 
BRANCH   4   5
ATOM      5  N   UNL A   1      35.535  29.974  29.442  1.00  0.00    -0.352 N 
ATOM      6  O   UNL A   1      36.329  29.998  31.552  1.00  0.00    -0.269 OA
ATOM      7  C   UNL A   1      36.554  29.857  30.354  1.00  0.00     0.251 C 
ATOM      8  H   UNL A   1      34.693  30.345  29.791  1.00  0.00     0.163 HD
BRANCH   7   9
ATOM      9  C   UNL A   1      37.919  29.546  29.881  1.00  0.00     0.039 A 
ATOM     10  C   UNL A   1      38.290  29.820  28.561  1.00  0.00     0.014 A 
ATOM     11  C   UNL A   1      38.837  28.984  30.770  1.00  0.00     0.014 A 
ATOM     12  C   UNL A   1      39.539  29.424  28.099  1.00  0.00     0.010 A 
ATOM     13  C   UNL A   1      40.120  28.661  30.324  1.00  0.00     0.010 A 
ATOM     14  C   UNL A   1      40.475  28.860  28.980  1.00  0.00    -0.014 A 
BRANCH  14  15
ATOM     15  C   UNL A   1      41.848  28.567  28.502  1.00  0.00     0.031 A 
ATOM     16  C   UNL A   1      42.232  27.192  28.034  1.00  0.00     0.074 A 
ATOM     17  C   UNL A   1      42.757  29.560  28.513  1.00  0.00     0.049 A 
ATOM     18  N   UNL A   1      43.396  26.765  27.614  1.00  0.00    -0.248 NA
ATOM     19  C   UNL A   1      41.182  26.164  28.047  1.00  0.00     0.031 C 
ATOM     20  C   UNL A   1      42.500  30.932  28.961  1.00  0.00     0.029 A 
ATOM     21  N   UNL A   1      44.077  29.574  28.142  1.00  0.00    -0.354 N 
ATOM     22  C   UNL A   1      43.227  25.414  27.336  1.00  0.00     0.074 A 
ATOM     23  C   UNL A   1      41.852  25.088  27.655  1.00  0.00     0.031 C 
ATOM     24  C   UNL A   1      43.618  31.658  28.821  1.00  0.00     0.029 A 
ATOM     25  C   UNL A   1      44.686  30.791  28.336  1.00  0.00     0.049 A 
ATOM     26  H   UNL A   1      44.542  28.790  27.773  1.00  0.00     0.167 HD
ATOM     27  C   UNL A   1      44.136  24.528  26.858  1.00  0.00     0.031 A 
ATOM     28  C   UNL A   1      45.969  31.167  28.178  1.00  0.00     0.031 A 
ATOM     29  C   UNL A   1      45.505  24.862  26.558  1.00  0.00     0.049 A 
ATOM     30  C   UNL A   1      46.965  30.164  27.677  1.00  0.00     0.074 A 
ATOM     31  C   UNL A   1      46.492  24.049  26.030  1.00  0.00     0.029 A 
ATOM     32  N   UNL A   1      46.085  26.104  26.775  1.00  0.00    -0.354 N 
ATOM     33  N   UNL A   1      46.773  28.904  27.363  1.00  0.00    -0.248 NA
ATOM     34  C   UNL A   1      48.345  30.629  27.501  1.00  0.00     0.031 C 
ATOM     35  C   UNL A   1      47.684  24.781  25.985  1.00  0.00     0.029 A 
ATOM     36  C   UNL A   1      47.425  26.071  26.423  1.00  0.00     0.049 A 
ATOM     37  H   UNL A   1      45.614  26.893  27.128  1.00  0.00     0.167 HD
ATOM     38  C   UNL A   1      48.007  28.429  26.939  1.00  0.00     0.074 A 
ATOM     39  C   UNL A   1      48.933  29.540  27.021  1.00  0.00     0.031 C 
ATOM     40  C   UNL A   1      48.338  27.184  26.519  1.00  0.00     0.031 A 
BRANCH  27  41
ATOM     41  C   UNL A   1      43.686  23.100  26.676  1.00  0.00    -0.014 A 
ATOM     42  C   UNL A   1      43.176  22.348  27.749  1.00  0.00     0.010 A 
ATOM     43  C   UNL A   1      43.758  22.507  25.402  1.00  0.00     0.010 A 
ATOM     44  C   UNL A   1      42.802  21.014  27.564  1.00  0.00     0.020 A 
ATOM     45  C   UNL A   1      43.357  21.182  25.206  1.00  0.00     0.020 A 
ATOM     46  C   UNL A   1      42.905  20.436  26.296  1.00  0.00     0.054 A 
BRANCH  46  47
ATOM     47  S   UNL A   1      42.430  18.697  26.088  1.00  0.00     0.124 S 
ATOM     48  O   UNL A   1      43.357  18.256  25.049  1.00  0.00    -0.237 OA
ATOM     49  O   UNL A   1      42.667  18.139  27.417  1.00  0.00    -0.237 OA
ATOM     50  O   UNL A   1      41.028  18.764  25.684  1.00  0.00    -0.744 OA
ENDBRANCH  46  47
ENDBRANCH  27  41
BRANCH  28  51
ATOM     51  C   UNL A   1      46.362  32.557  28.530  1.00  0.00    -0.014 A 
ATOM     52  C   UNL A   1      46.249  33.596  27.592  1.00  0.00     0.010 A 
ATOM     53  C   UNL A   1      46.780  32.856  29.841  1.00  0.00     0.010 A 
ATOM     54  C   UNL A   1      46.543  34.913  27.962  1.00  0.00     0.020 A 
ATOM     55  C   UNL A   1      47.046  34.174  30.221  1.00  0.00     0.020 A 
ATOM     56  C   UNL A   1      46.931  35.194  29.277  1.00  0.00     0.054 A 
BRANCH  56  57
ATOM     57  S   UNL A   1      47.218  36.920  29.754  1.00  0.00     0.124 S 
ATOM     58  O   UNL A   1      48.670  37.022  29.665  1.00  0.00    -0.237 OA
ATOM     59  O   UNL A   1      46.467  37.657  28.740  1.00  0.00    -0.237 OA
ATOM     60  O   UNL A   1      46.665  36.998  31.104  1.00  0.00    -0.744 OA
ENDBRANCH  56  57
ENDBRANCH  28  51
BRANCH  40  61
ATOM     61  C   UNL A   1      49.763  26.956  26.089  1.00  0.00    -0.014 A 
ATOM     62  C   UNL A   1      50.746  26.549  27.008  1.00  0.00     0.010 A 
ATOM     63  C   UNL A   1      50.104  27.083  24.730  1.00  0.00     0.010 A 
ATOM     64  C   UNL A   1      52.050  26.291  26.577  1.00  0.00     0.020 A 
ATOM     65  C   UNL A   1      51.399  26.799  24.291  1.00  0.00     0.020 A 
ATOM     66  C   UNL A   1      52.367  26.413  25.220  1.00  0.00     0.054 A 
BRANCH  66  67
ATOM     67  S   UNL A   1      54.050  26.007  24.676  1.00  0.00     0.124 S 
ATOM     68  O   UNL A   1      54.863  26.841  25.555  1.00  0.00    -0.237 OA
ATOM     69  O   UNL A   1      54.127  24.570  24.924  1.00  0.00    -0.237 OA
ATOM     70  O   UNL A   1      54.060  26.391  23.267  1.00  0.00    -0.744 OA
ENDBRANCH  66  67
ENDBRANCH  40  61
ENDBRANCH  14  15
ENDBRANCH   7   9
ENDBRANCH   4   5
ENDBRANCH   3   4
ENDBRANCH   2   3
ENDBRANCH   1   2
BRANCH   1  71
ATOM     71  C   UNL A   1      33.372  26.157  26.032  1.00  0.00     0.021 C 
BRANCH  71  72
ATOM     72  C   UNL A   1      34.289  25.091  25.432  1.00  0.00     0.116 C 
BRANCH  72  73
ATOM     73  N   UNL A   1      33.897  24.804  24.063  1.00  0.00    -0.356 N 
ATOM     74  C   UNL A   1      34.326  23.813  23.234  1.00  0.00     0.224 C 
ATOM     75  H   UNL A   1      33.226  25.413  23.678  1.00  0.00     0.163 HD
ATOM     76  O   UNL A   1      34.122  23.934  22.025  1.00  0.00    -0.275 OA
BRANCH  74  77
ATOM     77  C   UNL A   1      34.932  22.555  23.831  1.00  0.00     0.094 C 
ATOM     78  C   UNL A   1      36.481  22.627  23.749  1.00  0.00     0.002 C 
ATOM     79  C   UNL A   1      34.440  22.313  25.293  1.00  0.00     0.094 C 
ATOM     80  C   UNL A   1      37.033  23.707  24.692  1.00  0.00     0.005 C 
ATOM     81  C   UNL A   1      37.034  21.269  24.217  1.00  0.00     0.005 C 
ATOM     82  C   UNL A   1      35.712  22.151  26.172  1.00  0.00     0.002 C 
ATOM     83  C   UNL A   1      36.512  23.469  26.109  1.00  0.00     0.005 C 
ATOM     84  C   UNL A   1      36.592  21.000  25.657  1.00  0.00     0.005 C 
BRANCH  79  85
ATOM     85  C   UNL A   1      33.426  21.143  25.272  1.00  0.00     0.228 C 
ATOM     86  O   UNL A   1      33.802  19.968  25.375  1.00  0.00    -0.274 OA
ATOM     87  N   UNL A   1      32.083  21.329  25.150  1.00  0.00    -0.326 N 
ATOM     88  H   UNL A   1      31.535  20.524  25.297  1.00  0.00     0.169 HD
BRANCH  87  89
ATOM     89  C   UNL A   1      31.366  22.484  24.852  1.00  0.00     0.041 A 
ATOM     90  C   UNL A   1      31.000  23.296  25.922  1.00  0.00     0.026 A 
ATOM     91  C   UNL A   1      31.068  22.862  23.543  1.00  0.00     0.026 A 
ATOM     92  C   UNL A   1      30.474  24.559  25.673  1.00  0.00     0.006 A 
ATOM     93  C   UNL A   1      30.491  24.111  23.299  1.00  0.00     0.006 A 
ATOM     94  C   UNL A   1      30.229  24.989  24.360  1.00  0.00    -0.043 A 
BRANCH  94  95
ATOM     95  C   UNL A   1      29.702  26.381  24.104  1.00  0.00     0.071 C 
BRANCH  95  96
ATOM     96  C   UNL A   1      30.780  27.390  23.794  1.00  0.00    -0.041 A 
ATOM     97  C   UNL A   1      30.820  28.624  24.452  1.00  0.00     0.024 A 
ATOM     98  C   UNL A   1      31.750  27.125  22.826  1.00  0.00     0.024 A 
ATOM     99  C   UNL A   1      31.804  29.535  24.106  1.00  0.00     0.111 A 
ATOM    100  C   UNL A   1      32.705  28.096  22.562  1.00  0.00     0.111 A 
ATOM    101  N   UNL A   1      32.754  29.295  23.179  1.00  0.00    -0.265 NA
ENDBRANCH  95  96
ENDBRANCH  94  95
ENDBRANCH  87  89
ENDBRANCH  79  85
ENDBRANCH  74  77
ENDBRANCH  72  73
ENDBRANCH  71  72
ENDBRANCH   1  71
TORSDOF 20
ENDMDL
