MODEL 1
REMARK VINA RESULT:      -9.0      0.000      0.000
REMARK SMILES COC(=O)[C@H]1CC[C@]2(C)[C@H](CC[C@]3(C)[C@H]2CC=C2[C@H]4CC(C)(C)CC[C@]4(C(=O)NCCCCCCNC(=O)c4ccc(-c5c6nc(c(-c7ccc(S(=O)(=O)[O-])cc7)c7ccc([nH]7)c(-c7ccc(S(=O)(=O)[O-])cc7)c7nc(c(-c8ccc(S(=O)(=O)[O-])cc8)c8ccc5[nH]8)C=C7)C=C6)cc4)CC[C@@]23C)C1(C)C
REMARK SMILES IDX 33 1 32 2 31 3 30 4 29 5 27 6 28 7 26 9 5 10 6 11 103 12
REMARK SMILES IDX 7 13 10 14 104 15 105 16 8 17 11 18 15 19 9 20 12 21 16 22
REMARK SMILES IDX 13 23 17 24 101 25 14 26 18 27 100 28 102 29 19 30 99 31
REMARK SMILES IDX 20 32 21 33 25 34 24 35 22 36 23 37 3 38 4 39 2 40 1 41
REMARK SMILES IDX 34 42 35 43 36 44 37 45 38 47 39 48 40 49 98 50 41 51 97 52
REMARK SMILES IDX 42 53 43 54 44 55 91 56 45 57 96 58 90 59 92 60 46 61 95 62
REMARK SMILES IDX 89 63 88 64 47 66 77 67 58 68 76 69 59 70 62 71 75 72 93 73
REMARK SMILES IDX 60 74 61 75 74 77 94 78 63 79 48 80 49 81 57 82 50 83 56 84
REMARK SMILES IDX 51 85 52 86 53 87 54 88 55 89 78 90 79 91 87 92 80 93 86 94
REMARK SMILES IDX 81 95 82 96 83 97 84 98 85 99 64 100 65 101 73 102 66 103
REMARK SMILES IDX 72 104 67 105 68 106 69 107 70 108 71 109
REMARK H PARENT 29 8 36 46 92 65 62 76
REMARK Flexibility Score: inf
ROOT
ATOM      1  C   UNL A   1      43.694  23.034  26.043  1.00  0.00     0.002 C 
ENDROOT
BRANCH   1   2
ATOM      2  C   UNL A   1      45.008  23.084  25.105  1.00  0.00     0.002 C 
BRANCH   2   3
ATOM      3  C   UNL A   1      45.710  24.479  24.872  1.00  0.00     0.021 C 
BRANCH   3   4
ATOM      4  C   UNL A   1      45.257  26.029  25.145  1.00  0.00     0.116 C 
BRANCH   4   5
ATOM      5  N   UNL A   1      45.544  27.532  24.877  1.00  0.00    -0.356 N 
ATOM      6  C   UNL A   1      46.149  28.658  25.650  1.00  0.00     0.226 C 
ATOM      7  O   UNL A   1      46.410  29.665  24.969  1.00  0.00    -0.274 OA
ATOM      8  H   UNL A   1      45.257  27.811  23.977  1.00  0.00     0.163 HD
BRANCH   6   9
ATOM      9  C   UNL A   1      46.526  28.768  27.356  1.00  0.00     0.056 C 
ATOM     10  C   UNL A   1      54.065  29.823  26.681  1.00  0.00     0.105 C 
ATOM     11  C   UNL A   1      54.094  28.545  25.808  1.00  0.00     0.016 C 
ATOM     12  C   UNL A   1      52.731  30.170  27.435  1.00  0.00    -0.019 C 
ATOM     13  C   UNL A   1      53.271  27.346  26.264  1.00  0.00     0.008 C 
ATOM     14  C   UNL A   1      52.085  28.752  27.899  1.00  0.00     0.002 C 
ATOM     15  C   UNL A   1      51.957  31.171  26.507  1.00  0.00     0.012 C 
ATOM     16  C   UNL A   1      52.924  31.087  28.677  1.00  0.00     0.012 C 
ATOM     17  C   UNL A   1      51.854  27.753  26.723  1.00  0.00    -0.026 C 
ATOM     18  C   UNL A   1      50.881  28.865  28.816  1.00  0.00     0.005 C 
ATOM     19  C   UNL A   1      50.991  26.405  26.987  1.00  0.00     0.006 C 
ATOM     20  C   UNL A   1      51.210  28.552  25.606  1.00  0.00     0.012 C 
ATOM     21  C   UNL A   1      50.326  27.518  29.298  1.00  0.00     0.008 C 
ATOM     22  C   UNL A   1      50.154  26.028  25.667  1.00  0.00     0.032 C 
ATOM     23  C   UNL A   1      50.029  26.355  28.298  1.00  0.00    -0.020 C 
ATOM     24  C   UNL A   1      48.889  26.920  25.595  1.00  0.00    -0.027 C 
ATOM     25  C   UNL A   1      48.503  26.279  27.789  1.00  0.00    -0.006 C 
ATOM     26  C   UNL A   1      50.390  25.065  29.105  1.00  0.00     0.012 C 
ATOM     27  C   UNL A   1      48.497  27.446  26.778  1.00  0.00    -0.064 C 
ATOM     28  C   UNL A   1      47.224  26.415  28.635  1.00  0.00     0.013 C 
ATOM     29  C   UNL A   1      48.201  24.782  27.232  1.00  0.00     0.017 C 
ATOM     30  C   UNL A   1      47.991  28.909  27.352  1.00  0.00     0.031 C 
ATOM     31  C   UNL A   1      46.221  27.544  28.339  1.00  0.00     0.018 C 
ATOM     32  C   UNL A   1      48.143  30.437  26.879  1.00  0.00     0.015 C 
ATOM     33  C   UNL A   1      47.671  31.648  27.718  1.00  0.00    -0.035 C 
ATOM     34  C   UNL A   1      45.873  29.912  28.273  1.00  0.00     0.018 C 
ATOM     35  C   UNL A   1      46.272  31.376  28.260  1.00  0.00     0.007 C 
ATOM     36  C   UNL A   1      47.525  32.920  26.818  1.00  0.00     0.011 C 
ATOM     37  C   UNL A   1      48.723  31.971  28.783  1.00  0.00     0.011 C 
BRANCH  10  38
ATOM     38  C   UNL A   1      55.218  29.825  27.647  1.00  0.00     0.309 C 
ATOM     39  O   UNL A   1      55.445  28.941  28.472  1.00  0.00    -0.252 OA
BRANCH  38  40
ATOM     40  O   UNL A   1      55.846  31.024  27.556  1.00  0.00    -0.469 OA
ATOM     41  C   UNL A   1      55.984  31.552  26.241  1.00  0.00     0.282 C 
ENDBRANCH  38  40
ENDBRANCH  10  38
ENDBRANCH   6   9
ENDBRANCH   4   5
ENDBRANCH   3   4
ENDBRANCH   2   3
ENDBRANCH   1   2
BRANCH   1  42
ATOM     42  C   UNL A   1      42.235  22.714  25.558  1.00  0.00     0.021 C 
BRANCH  42  43
ATOM     43  C   UNL A   1      41.066  22.314  26.517  1.00  0.00     0.116 C 
BRANCH  43  44
ATOM     44  N   UNL A   1      39.697  22.476  26.064  1.00  0.00    -0.352 N 
ATOM     45  C   UNL A   1      38.891  23.602  26.149  1.00  0.00     0.251 C 
ATOM     46  H   UNL A   1      39.287  21.686  25.642  1.00  0.00     0.163 HD
ATOM     47  O   UNL A   1      37.818  23.632  25.551  1.00  0.00    -0.269 OA
BRANCH  45  48
ATOM     48  C   UNL A   1      39.274  24.775  26.979  1.00  0.00     0.039 A 
ATOM     49  C   UNL A   1      40.114  25.748  26.427  1.00  0.00     0.014 A 
ATOM     50  C   UNL A   1      38.932  24.864  28.328  1.00  0.00     0.014 A 
ATOM     51  C   UNL A   1      40.555  26.835  27.203  1.00  0.00     0.010 A 
ATOM     52  C   UNL A   1      39.357  25.972  29.091  1.00  0.00     0.010 A 
ATOM     53  C   UNL A   1      40.162  26.988  28.545  1.00  0.00    -0.014 A 
BRANCH  53  54
ATOM     54  C   UNL A   1      40.611  28.188  29.339  1.00  0.00     0.031 A 
ATOM     55  C   UNL A   1      39.711  29.391  29.540  1.00  0.00     0.074 A 
ATOM     56  C   UNL A   1      41.841  28.214  29.906  1.00  0.00     0.049 A 
ATOM     57  N   UNL A   1      39.915  30.466  30.267  1.00  0.00    -0.248 NA
ATOM     58  C   UNL A   1      38.433  29.405  28.814  1.00  0.00     0.031 C 
ATOM     59  C   UNL A   1      42.861  27.174  29.760  1.00  0.00     0.029 A 
ATOM     60  N   UNL A   1      42.441  29.139  30.736  1.00  0.00    -0.354 N 
ATOM     61  C   UNL A   1      38.799  31.278  30.081  1.00  0.00     0.074 A 
ATOM     62  C   UNL A   1      37.958  30.606  29.115  1.00  0.00     0.031 C 
ATOM     63  C   UNL A   1      43.926  27.483  30.519  1.00  0.00     0.029 A 
ATOM     64  C   UNL A   1      43.691  28.763  31.183  1.00  0.00     0.049 A 
ATOM     65  H   UNL A   1      42.015  29.990  30.988  1.00  0.00     0.167 HD
ATOM     66  C   UNL A   1      38.474  32.454  30.675  1.00  0.00     0.031 A 
ATOM     67  C   UNL A   1      44.552  29.359  32.037  1.00  0.00     0.031 A 
ATOM     68  C   UNL A   1      39.288  33.127  31.654  1.00  0.00     0.049 A 
ATOM     69  C   UNL A   1      44.172  30.665  32.690  1.00  0.00     0.074 A 
ATOM     70  C   UNL A   1      39.005  34.287  32.358  1.00  0.00     0.029 A 
ATOM     71  N   UNL A   1      40.544  32.711  32.065  1.00  0.00    -0.354 N 
ATOM     72  N   UNL A   1      43.065  31.357  32.567  1.00  0.00    -0.248 NA
ATOM     73  C   UNL A   1      45.155  31.264  33.608  1.00  0.00     0.031 C 
ATOM     74  C   UNL A   1      40.115  34.606  33.147  1.00  0.00     0.029 A 
ATOM     75  C   UNL A   1      41.061  33.606  32.989  1.00  0.00     0.049 A 
ATOM     76  H   UNL A   1      41.002  31.900  31.749  1.00  0.00     0.167 HD
ATOM     77  C   UNL A   1      43.208  32.455  33.412  1.00  0.00     0.074 A 
ATOM     78  C   UNL A   1      44.497  32.325  34.055  1.00  0.00     0.031 C 
ATOM     79  C   UNL A   1      42.346  33.478  33.631  1.00  0.00     0.031 A 
BRANCH  66  80
ATOM     80  C   UNL A   1      37.161  33.097  30.289  1.00  0.00    -0.014 A 
ATOM     81  C   UNL A   1      37.028  33.809  29.082  1.00  0.00     0.010 A 
ATOM     82  C   UNL A   1      36.034  32.948  31.118  1.00  0.00     0.010 A 
ATOM     83  C   UNL A   1      35.812  34.405  28.738  1.00  0.00     0.020 A 
ATOM     84  C   UNL A   1      34.804  33.513  30.760  1.00  0.00     0.020 A 
ATOM     85  C   UNL A   1      34.708  34.256  29.582  1.00  0.00     0.054 A 
BRANCH  85  86
ATOM     86  S   UNL A   1      33.139  35.029  29.101  1.00  0.00     0.124 S 
ATOM     87  O   UNL A   1      33.587  36.311  28.565  1.00  0.00    -0.237 OA
ATOM     88  O   UNL A   1      32.608  34.087  28.117  1.00  0.00    -0.237 OA
ATOM     89  O   UNL A   1      32.389  35.105  30.353  1.00  0.00    -0.744 OA
ENDBRANCH  85  86
ENDBRANCH  66  80
BRANCH  67  90
ATOM     90  C   UNL A   1      45.866  28.721  32.351  1.00  0.00    -0.014 A 
ATOM     91  C   UNL A   1      45.985  27.783  33.395  1.00  0.00     0.010 A 
ATOM     92  C   UNL A   1      47.016  29.061  31.614  1.00  0.00     0.010 A 
ATOM     93  C   UNL A   1      47.226  27.216  33.707  1.00  0.00     0.020 A 
ATOM     94  C   UNL A   1      48.251  28.471  31.900  1.00  0.00     0.020 A 
ATOM     95  C   UNL A   1      48.352  27.560  32.953  1.00  0.00     0.054 A 
BRANCH  95  96
ATOM     96  S   UNL A   1      49.941  26.773  33.339  1.00  0.00     0.124 S 
ATOM     97  O   UNL A   1      49.852  25.522  32.593  1.00  0.00    -0.237 OA
ATOM     98  O   UNL A   1      50.905  27.747  32.832  1.00  0.00    -0.237 OA
ATOM     99  O   UNL A   1      49.910  26.638  34.794  1.00  0.00    -0.744 OA
ENDBRANCH  95  96
ENDBRANCH  67  90
BRANCH  79 100
ATOM    100  C   UNL A   1      42.743  34.535  34.632  1.00  0.00    -0.014 A 
ATOM    101  C   UNL A   1      42.533  34.354  36.010  1.00  0.00     0.010 A 
ATOM    102  C   UNL A   1      43.399  35.699  34.190  1.00  0.00     0.010 A 
ATOM    103  C   UNL A   1      42.941  35.331  36.923  1.00  0.00     0.020 A 
ATOM    104  C   UNL A   1      43.837  36.663  35.102  1.00  0.00     0.020 A 
ATOM    105  C   UNL A   1      43.594  36.479  36.463  1.00  0.00     0.054 A 
BRANCH 105 106
ATOM    106  S   UNL A   1      44.157  37.707  37.674  1.00  0.00     0.124 S 
ATOM    107  O   UNL A   1      45.262  37.009  38.325  1.00  0.00    -0.237 OA
ATOM    108  O   UNL A   1      44.537  38.836  36.829  1.00  0.00    -0.237 OA
ATOM    109  O   UNL A   1      42.982  37.933  38.513  1.00  0.00    -0.744 OA
ENDBRANCH 105 106
ENDBRANCH  79 100
ENDBRANCH  53  54
ENDBRANCH  45  48
ENDBRANCH  43  44
ENDBRANCH  42  43
ENDBRANCH   1  42
TORSDOF 18
ENDMDL
MODEL 2
REMARK VINA RESULT:      -9.0      4.410     10.661
REMARK SMILES COC(=O)[C@H]1CC[C@]2(C)[C@H](CC[C@]3(C)[C@H]2CC=C2[C@H]4CC(C)(C)CC[C@]4(C(=O)NCCCCCCNC(=O)c4ccc(-c5c6nc(c(-c7ccc(S(=O)(=O)[O-])cc7)c7ccc([nH]7)c(-c7ccc(S(=O)(=O)[O-])cc7)c7nc(c(-c8ccc(S(=O)(=O)[O-])cc8)c8ccc5[nH]8)C=C7)C=C6)cc4)CC[C@@]23C)C1(C)C
REMARK SMILES IDX 33 1 32 2 31 3 30 4 29 5 27 6 28 7 26 9 5 10 6 11 103 12
REMARK SMILES IDX 7 13 10 14 104 15 105 16 8 17 11 18 15 19 9 20 12 21 16 22
REMARK SMILES IDX 13 23 17 24 101 25 14 26 18 27 100 28 102 29 19 30 99 31
REMARK SMILES IDX 20 32 21 33 25 34 24 35 22 36 23 37 3 38 4 39 2 40 1 41
REMARK SMILES IDX 34 42 35 43 36 44 37 45 38 47 39 48 40 49 98 50 41 51 97 52
REMARK SMILES IDX 42 53 43 54 44 55 91 56 45 57 96 58 90 59 92 60 46 61 95 62
REMARK SMILES IDX 89 63 88 64 47 66 77 67 58 68 76 69 59 70 62 71 75 72 93 73
REMARK SMILES IDX 60 74 61 75 74 77 94 78 63 79 48 80 49 81 57 82 50 83 56 84
REMARK SMILES IDX 51 85 52 86 53 87 54 88 55 89 78 90 79 91 87 92 80 93 86 94
REMARK SMILES IDX 81 95 82 96 83 97 84 98 85 99 64 100 65 101 73 102 66 103
REMARK SMILES IDX 72 104 67 105 68 106 69 107 70 108 71 109
REMARK H PARENT 29 8 36 46 92 65 62 76
REMARK Flexibility Score: inf
ROOT
ATOM      1  C   UNL A   1      39.259  25.178  27.242  1.00  0.00     0.002 C 
ENDROOT
BRANCH   1   2
ATOM      2  C   UNL A   1      40.408  26.265  26.910  1.00  0.00     0.002 C 
BRANCH   2   3
ATOM      3  C   UNL A   1      40.249  27.724  27.493  1.00  0.00     0.021 C 
BRANCH   3   4
ATOM      4  C   UNL A   1      38.956  28.643  27.897  1.00  0.00     0.116 C 
BRANCH   4   5
ATOM      5  N   UNL A   1      38.403  30.075  28.132  1.00  0.00    -0.356 N 
ATOM      6  C   UNL A   1      37.937  30.859  29.315  1.00  0.00     0.226 C 
ATOM      7  O   UNL A   1      37.793  32.075  29.100  1.00  0.00    -0.274 OA
ATOM      8  H   UNL A   1      38.345  30.593  27.297  1.00  0.00     0.163 HD
BRANCH   6   9
ATOM      9  C   UNL A   1      37.556  30.318  30.936  1.00  0.00     0.056 C 
ATOM     10  C   UNL A   1      42.944  34.277  34.638  1.00  0.00     0.105 C 
ATOM     11  C   UNL A   1      43.973  33.645  33.670  1.00  0.00     0.016 C 
ATOM     12  C   UNL A   1      41.474  33.723  34.615  1.00  0.00    -0.019 C 
ATOM     13  C   UNL A   1      43.841  32.160  33.351  1.00  0.00     0.008 C 
ATOM     14  C   UNL A   1      41.592  32.123  34.350  1.00  0.00     0.002 C 
ATOM     15  C   UNL A   1      40.671  34.667  33.652  1.00  0.00     0.012 C 
ATOM     16  C   UNL A   1      40.679  33.978  35.928  1.00  0.00     0.012 C 
ATOM     17  C   UNL A   1      42.380  31.758  33.054  1.00  0.00    -0.026 C 
ATOM     18  C   UNL A   1      40.290  31.354  34.481  1.00  0.00     0.005 C 
ATOM     19  C   UNL A   1      42.366  30.225  32.524  1.00  0.00     0.006 C 
ATOM     20  C   UNL A   1      41.853  32.671  31.964  1.00  0.00     0.012 C 
ATOM     21  C   UNL A   1      40.432  29.837  34.294  1.00  0.00     0.008 C 
ATOM     22  C   UNL A   1      42.405  30.204  30.917  1.00  0.00     0.032 C 
ATOM     23  C   UNL A   1      41.196  29.234  33.073  1.00  0.00    -0.020 C 
ATOM     24  C   UNL A   1      40.984  30.490  30.369  1.00  0.00    -0.027 C 
ATOM     25  C   UNL A   1      40.260  28.837  31.824  1.00  0.00    -0.006 C 
ATOM     26  C   UNL A   1      41.886  27.957  33.654  1.00  0.00     0.012 C 
ATOM     27  C   UNL A   1      39.979  30.237  31.239  1.00  0.00    -0.064 C 
ATOM     28  C   UNL A   1      38.914  28.090  31.861  1.00  0.00     0.013 C 
ATOM     29  C   UNL A   1      41.045  27.762  30.891  1.00  0.00     0.017 C 
ATOM     30  C   UNL A   1      38.593  30.978  31.746  1.00  0.00     0.031 C 
ATOM     31  C   UNL A   1      37.642  28.768  31.320  1.00  0.00     0.018 C 
ATOM     32  C   UNL A   1      38.044  32.487  31.763  1.00  0.00     0.015 C 
ATOM     33  C   UNL A   1      36.727  32.916  32.452  1.00  0.00    -0.035 C 
ATOM     34  C   UNL A   1      36.111  30.589  31.579  1.00  0.00     0.018 C 
ATOM     35  C   UNL A   1      35.620  31.931  32.090  1.00  0.00     0.007 C 
ATOM     36  C   UNL A   1      36.243  34.301  31.906  1.00  0.00     0.011 C 
ATOM     37  C   UNL A   1      36.970  33.088  33.954  1.00  0.00     0.011 C 
BRANCH  10  38
ATOM     38  C   UNL A   1      43.475  34.271  36.046  1.00  0.00     0.309 C 
ATOM     39  O   UNL A   1      43.873  33.270  36.642  1.00  0.00    -0.252 OA
BRANCH  38  40
ATOM     40  O   UNL A   1      43.285  35.504  36.577  1.00  0.00    -0.469 OA
ATOM     41  C   UNL A   1      43.921  36.577  35.892  1.00  0.00     0.282 C 
ENDBRANCH  38  40
ENDBRANCH  10  38
ENDBRANCH   6   9
ENDBRANCH   4   5
ENDBRANCH   3   4
ENDBRANCH   2   3
ENDBRANCH   1   2
BRANCH   1  42
ATOM     42  C   UNL A   1      38.754  24.054  26.268  1.00  0.00     0.021 C 
BRANCH  42  43
ATOM     43  C   UNL A   1      38.984  22.526  26.508  1.00  0.00     0.116 C 
BRANCH  43  44
ATOM     44  N   UNL A   1      40.021  21.843  25.756  1.00  0.00    -0.352 N 
ATOM     45  C   UNL A   1      41.386  21.818  26.004  1.00  0.00     0.251 C 
ATOM     46  H   UNL A   1      39.717  21.332  24.971  1.00  0.00     0.163 HD
ATOM     47  O   UNL A   1      42.105  21.041  25.381  1.00  0.00    -0.269 OA
BRANCH  45  48
ATOM     48  C   UNL A   1      42.018  22.737  26.987  1.00  0.00     0.039 A 
ATOM     49  C   UNL A   1      42.979  23.649  26.539  1.00  0.00     0.014 A 
ATOM     50  C   UNL A   1      41.780  22.625  28.357  1.00  0.00     0.014 A 
ATOM     51  C   UNL A   1      43.649  24.487  27.449  1.00  0.00     0.010 A 
ATOM     52  C   UNL A   1      42.438  23.486  29.259  1.00  0.00     0.010 A 
ATOM     53  C   UNL A   1      43.372  24.445  28.827  1.00  0.00    -0.014 A 
BRANCH  53  54
ATOM     54  C   UNL A   1      44.072  25.386  29.775  1.00  0.00     0.031 A 
ATOM     55  C   UNL A   1      44.612  24.915  31.110  1.00  0.00     0.074 A 
ATOM     56  C   UNL A   1      44.243  26.689  29.444  1.00  0.00     0.049 A 
ATOM     57  N   UNL A   1      45.312  25.579  32.001  1.00  0.00    -0.248 NA
ATOM     58  C   UNL A   1      44.305  23.535  31.512  1.00  0.00     0.031 C 
ATOM     59  C   UNL A   1      43.731  27.328  28.231  1.00  0.00     0.029 A 
ATOM     60  N   UNL A   1      44.914  27.710  30.087  1.00  0.00    -0.354 N 
ATOM     61  C   UNL A   1      45.523  24.701  33.062  1.00  0.00     0.074 A 
ATOM     62  C   UNL A   1      44.812  23.484  32.736  1.00  0.00     0.031 C 
ATOM     63  C   UNL A   1      44.155  28.602  28.185  1.00  0.00     0.029 A 
ATOM     64  C   UNL A   1      44.940  28.895  29.381  1.00  0.00     0.049 A 
ATOM     65  H   UNL A   1      45.337  27.601  30.969  1.00  0.00     0.167 HD
ATOM     66  C   UNL A   1      46.262  24.864  34.188  1.00  0.00     0.031 A 
ATOM     67  C   UNL A   1      45.533  30.080  29.645  1.00  0.00     0.031 A 
ATOM     68  C   UNL A   1      46.993  26.060  34.520  1.00  0.00     0.049 A 
ATOM     69  C   UNL A   1      46.353  30.241  30.900  1.00  0.00     0.074 A 
ATOM     70  C   UNL A   1      47.824  26.288  35.605  1.00  0.00     0.029 A 
ATOM     71  N   UNL A   1      46.981  27.231  33.779  1.00  0.00    -0.354 N 
ATOM     72  N   UNL A   1      46.614  29.359  31.834  1.00  0.00    -0.248 NA
ATOM     73  C   UNL A   1      46.971  31.557  31.131  1.00  0.00     0.031 C 
ATOM     74  C   UNL A   1      48.263  27.615  35.554  1.00  0.00     0.029 A 
ATOM     75  C   UNL A   1      47.763  28.193  34.398  1.00  0.00     0.049 A 
ATOM     76  H   UNL A   1      46.489  27.360  32.936  1.00  0.00     0.167 HD
ATOM     77  C   UNL A   1      47.446  30.004  32.746  1.00  0.00     0.074 A 
ATOM     78  C   UNL A   1      47.664  31.342  32.241  1.00  0.00     0.031 C 
ATOM     79  C   UNL A   1      47.980  29.527  33.897  1.00  0.00     0.031 A 
BRANCH  66  80
ATOM     80  C   UNL A   1      46.330  23.706  35.157  1.00  0.00    -0.014 A 
ATOM     81  C   UNL A   1      45.466  23.634  36.266  1.00  0.00     0.010 A 
ATOM     82  C   UNL A   1      47.235  22.652  34.932  1.00  0.00     0.010 A 
ATOM     83  C   UNL A   1      45.542  22.562  37.159  1.00  0.00     0.020 A 
ATOM     84  C   UNL A   1      47.291  21.559  35.804  1.00  0.00     0.020 A 
ATOM     85  C   UNL A   1      46.458  21.532  36.925  1.00  0.00     0.054 A 
BRANCH  85  86
ATOM     86  S   UNL A   1      46.523  20.147  38.094  1.00  0.00     0.124 S 
ATOM     87  O   UNL A   1      45.587  19.200  37.492  1.00  0.00    -0.237 OA
ATOM     88  O   UNL A   1      47.930  19.756  38.045  1.00  0.00    -0.237 OA
ATOM     89  O   UNL A   1      46.086  20.736  39.357  1.00  0.00    -0.744 OA
ENDBRANCH  85  86
ENDBRANCH  66  80
BRANCH  67  90
ATOM     90  C   UNL A   1      45.396  31.220  28.689  1.00  0.00    -0.014 A 
ATOM     91  C   UNL A   1      44.382  32.184  28.853  1.00  0.00     0.010 A 
ATOM     92  C   UNL A   1      46.272  31.340  27.595  1.00  0.00     0.010 A 
ATOM     93  C   UNL A   1      44.237  33.230  27.933  1.00  0.00     0.020 A 
ATOM     94  C   UNL A   1      46.152  32.402  26.693  1.00  0.00     0.020 A 
ATOM     95  C   UNL A   1      45.127  33.335  26.861  1.00  0.00     0.054 A 
BRANCH  95  96
ATOM     96  S   UNL A   1      44.954  34.729  25.711  1.00  0.00     0.124 S 
ATOM     97  O   UNL A   1      45.338  34.125  24.440  1.00  0.00    -0.237 OA
ATOM     98  O   UNL A   1      43.541  35.075  25.848  1.00  0.00    -0.237 OA
ATOM     99  O   UNL A   1      45.885  35.724  26.239  1.00  0.00    -0.744 OA
ENDBRANCH  95  96
ENDBRANCH  67  90
BRANCH  79 100
ATOM    100  C   UNL A   1      48.882  30.440  34.689  1.00  0.00    -0.014 A 
ATOM    101  C   UNL A   1      50.263  30.509  34.433  1.00  0.00     0.010 A 
ATOM    102  C   UNL A   1      48.327  31.294  35.661  1.00  0.00     0.010 A 
ATOM    103  C   UNL A   1      51.075  31.389  35.155  1.00  0.00     0.020 A 
ATOM    104  C   UNL A   1      49.130  32.197  36.363  1.00  0.00     0.020 A 
ATOM    105  C   UNL A   1      50.502  32.230  36.114  1.00  0.00     0.054 A 
BRANCH 105 106
ATOM    106  S   UNL A   1      51.572  33.397  37.002  1.00  0.00     0.124 S 
ATOM    107  O   UNL A   1      51.902  34.362  35.957  1.00  0.00    -0.237 OA
ATOM    108  O   UNL A   1      50.695  33.890  38.061  1.00  0.00    -0.237 OA
ATOM    109  O   UNL A   1      52.685  32.569  37.459  1.00  0.00    -0.744 OA
ENDBRANCH 105 106
ENDBRANCH  79 100
ENDBRANCH  53  54
ENDBRANCH  45  48
ENDBRANCH  43  44
ENDBRANCH  42  43
ENDBRANCH   1  42
TORSDOF 18
ENDMDL
MODEL 3
REMARK VINA RESULT:      -8.8      4.820      9.665
REMARK SMILES COC(=O)[C@H]1CC[C@]2(C)[C@H](CC[C@]3(C)[C@H]2CC=C2[C@H]4CC(C)(C)CC[C@]4(C(=O)NCCCCCCNC(=O)c4ccc(-c5c6nc(c(-c7ccc(S(=O)(=O)[O-])cc7)c7ccc([nH]7)c(-c7ccc(S(=O)(=O)[O-])cc7)c7nc(c(-c8ccc(S(=O)(=O)[O-])cc8)c8ccc5[nH]8)C=C7)C=C6)cc4)CC[C@@]23C)C1(C)C
REMARK SMILES IDX 33 1 32 2 31 3 30 4 29 5 27 6 28 7 26 9 5 10 6 11 103 12
REMARK SMILES IDX 7 13 10 14 104 15 105 16 8 17 11 18 15 19 9 20 12 21 16 22
REMARK SMILES IDX 13 23 17 24 101 25 14 26 18 27 100 28 102 29 19 30 99 31
REMARK SMILES IDX 20 32 21 33 25 34 24 35 22 36 23 37 3 38 4 39 2 40 1 41
REMARK SMILES IDX 34 42 35 43 36 44 37 45 38 47 39 48 40 49 98 50 41 51 97 52
REMARK SMILES IDX 42 53 43 54 44 55 91 56 45 57 96 58 90 59 92 60 46 61 95 62
REMARK SMILES IDX 89 63 88 64 47 66 77 67 58 68 76 69 59 70 62 71 75 72 93 73
REMARK SMILES IDX 60 74 61 75 74 77 94 78 63 79 48 80 49 81 57 82 50 83 56 84
REMARK SMILES IDX 51 85 52 86 53 87 54 88 55 89 78 90 79 91 87 92 80 93 86 94
REMARK SMILES IDX 81 95 82 96 83 97 84 98 85 99 64 100 65 101 73 102 66 103
REMARK SMILES IDX 72 104 67 105 68 106 69 107 70 108 71 109
REMARK H PARENT 29 8 36 46 92 65 62 76
REMARK Flexibility Score: inf
ROOT
ATOM      1  C   UNL A   1      39.011  24.117  26.431  1.00  0.00     0.002 C 
ENDROOT
BRANCH   1   2
ATOM      2  C   UNL A   1      39.751  24.901  27.634  1.00  0.00     0.002 C 
BRANCH   2   3
ATOM      3  C   UNL A   1      39.283  26.371  27.970  1.00  0.00     0.021 C 
BRANCH   3   4
ATOM      4  C   UNL A   1      38.853  27.129  29.357  1.00  0.00     0.116 C 
BRANCH   4   5
ATOM      5  N   UNL A   1      38.794  27.063  30.908  1.00  0.00    -0.356 N 
ATOM      6  C   UNL A   1      39.554  27.686  32.033  1.00  0.00     0.226 C 
ATOM      7  O   UNL A   1      39.023  27.547  33.149  1.00  0.00    -0.274 OA
ATOM      8  H   UNL A   1      38.082  26.463  31.227  1.00  0.00     0.163 HD
BRANCH   6   9
ATOM      9  C   UNL A   1      41.070  28.560  32.009  1.00  0.00     0.056 C 
ATOM     10  C   UNL A   1      38.903  34.503  36.297  1.00  0.00     0.105 C 
ATOM     11  C   UNL A   1      37.717  34.684  35.320  1.00  0.00     0.016 C 
ATOM     12  C   UNL A   1      40.029  33.479  35.908  1.00  0.00    -0.019 C 
ATOM     13  C   UNL A   1      37.990  34.554  33.827  1.00  0.00     0.008 C 
ATOM     14  C   UNL A   1      40.203  33.583  34.294  1.00  0.00     0.002 C 
ATOM     15  C   UNL A   1      39.653  32.131  36.617  1.00  0.00     0.012 C 
ATOM     16  C   UNL A   1      41.397  33.747  36.598  1.00  0.00     0.012 C 
ATOM     17  C   UNL A   1      38.881  33.335  33.503  1.00  0.00    -0.026 C 
ATOM     18  C   UNL A   1      41.379  32.812  33.725  1.00  0.00     0.005 C 
ATOM     19  C   UNL A   1      38.944  33.156  31.892  1.00  0.00     0.006 C 
ATOM     20  C   UNL A   1      38.239  32.107  34.121  1.00  0.00     0.012 C 
ATOM     21  C   UNL A   1      41.568  32.974  32.211  1.00  0.00     0.008 C 
ATOM     22  C   UNL A   1      37.819  32.109  31.417  1.00  0.00     0.032 C 
ATOM     23  C   UNL A   1      40.378  32.788  31.216  1.00  0.00    -0.020 C 
ATOM     24  C   UNL A   1      38.323  30.668  31.676  1.00  0.00    -0.027 C 
ATOM     25  C   UNL A   1      40.259  31.314  30.578  1.00  0.00    -0.006 C 
ATOM     26  C   UNL A   1      40.659  33.839  30.093  1.00  0.00     0.012 C 
ATOM     27  C   UNL A   1      39.667  30.546  31.779  1.00  0.00    -0.064 C 
ATOM     28  C   UNL A   1      41.395  30.445  30.009  1.00  0.00     0.013 C 
ATOM     29  C   UNL A   1      39.382  31.394  29.212  1.00  0.00     0.017 C 
ATOM     30  C   UNL A   1      40.748  29.781  32.765  1.00  0.00     0.031 C 
ATOM     31  C   UNL A   1      41.698  29.069  30.629  1.00  0.00     0.018 C 
ATOM     32  C   UNL A   1      40.719  29.207  34.264  1.00  0.00     0.015 C 
ATOM     33  C   UNL A   1      41.964  28.653  34.998  1.00  0.00    -0.035 C 
ATOM     34  C   UNL A   1      42.412  27.900  32.592  1.00  0.00     0.018 C 
ATOM     35  C   UNL A   1      42.729  27.720  34.065  1.00  0.00     0.007 C 
ATOM     36  C   UNL A   1      41.539  27.764  36.213  1.00  0.00     0.011 C 
ATOM     37  C   UNL A   1      42.784  29.817  35.560  1.00  0.00     0.011 C 
BRANCH  10  38
ATOM     38  C   UNL A   1      39.513  35.836  36.635  1.00  0.00     0.309 C 
ATOM     39  O   UNL A   1      40.103  36.561  35.834  1.00  0.00    -0.252 OA
BRANCH  38  40
ATOM     40  O   UNL A   1      39.441  36.009  37.978  1.00  0.00    -0.469 OA
ATOM     41  C   UNL A   1      40.644  36.428  38.613  1.00  0.00     0.282 C 
ENDBRANCH  38  40
ENDBRANCH  10  38
ENDBRANCH   6   9
ENDBRANCH   4   5
ENDBRANCH   3   4
ENDBRANCH   2   3
ENDBRANCH   1   2
BRANCH   1  42
ATOM     42  C   UNL A   1      39.085  22.572  26.163  1.00  0.00     0.021 C 
BRANCH  42  43
ATOM     43  C   UNL A   1      40.055  21.602  26.913  1.00  0.00     0.116 C 
BRANCH  43  44
ATOM     44  N   UNL A   1      41.206  21.071  26.206  1.00  0.00    -0.352 N 
ATOM     45  C   UNL A   1      42.551  21.288  26.471  1.00  0.00     0.251 C 
ATOM     46  H   UNL A   1      41.009  20.482  25.443  1.00  0.00     0.163 HD
ATOM     47  O   UNL A   1      43.403  20.616  25.893  1.00  0.00    -0.269 OA
BRANCH  45  48
ATOM     48  C   UNL A   1      43.001  22.343  27.417  1.00  0.00     0.039 A 
ATOM     49  C   UNL A   1      44.226  22.979  27.188  1.00  0.00     0.014 A 
ATOM     50  C   UNL A   1      42.306  22.621  28.594  1.00  0.00     0.014 A 
ATOM     51  C   UNL A   1      44.718  23.932  28.097  1.00  0.00     0.010 A 
ATOM     52  C   UNL A   1      42.794  23.597  29.487  1.00  0.00     0.010 A 
ATOM     53  C   UNL A   1      43.998  24.284  29.254  1.00  0.00    -0.014 A 
BRANCH  53  54
ATOM     54  C   UNL A   1      44.527  25.343  30.188  1.00  0.00     0.031 A 
ATOM     55  C   UNL A   1      44.669  26.789  29.753  1.00  0.00     0.074 A 
ATOM     56  C   UNL A   1      44.882  25.024  31.455  1.00  0.00     0.049 A 
ATOM     57  N   UNL A   1      45.026  27.835  30.461  1.00  0.00    -0.248 NA
ATOM     58  C   UNL A   1      44.404  27.096  28.340  1.00  0.00     0.031 C 
ATOM     59  C   UNL A   1      44.874  23.674  32.021  1.00  0.00     0.029 A 
ATOM     60  N   UNL A   1      45.301  25.812  32.509  1.00  0.00    -0.354 N 
ATOM     61  C   UNL A   1      45.032  28.915  29.581  1.00  0.00     0.074 A 
ATOM     62  C   UNL A   1      44.717  28.383  28.274  1.00  0.00     0.031 C 
ATOM     63  C   UNL A   1      45.203  23.733  33.322  1.00  0.00     0.029 A 
ATOM     64  C   UNL A   1      45.487  25.119  33.687  1.00  0.00     0.049 A 
ATOM     65  H   UNL A   1      45.452  26.781  32.427  1.00  0.00     0.167 HD
ATOM     66  C   UNL A   1      45.243  30.233  29.829  1.00  0.00     0.031 A 
ATOM     67  C   UNL A   1      45.831  25.537  34.925  1.00  0.00     0.031 A 
ATOM     68  C   UNL A   1      45.538  30.784  31.126  1.00  0.00     0.049 A 
ATOM     69  C   UNL A   1      46.058  27.005  35.181  1.00  0.00     0.074 A 
ATOM     70  C   UNL A   1      45.698  32.114  31.480  1.00  0.00     0.029 A 
ATOM     71  N   UNL A   1      45.723  30.042  32.282  1.00  0.00    -0.354 N 
ATOM     72  N   UNL A   1      45.959  28.013  34.348  1.00  0.00    -0.248 NA
ATOM     73  C   UNL A   1      46.432  27.395  36.550  1.00  0.00     0.031 C 
ATOM     74  C   UNL A   1      46.041  32.172  32.835  1.00  0.00     0.029 A 
ATOM     75  C   UNL A   1      46.025  30.883  33.342  1.00  0.00     0.049 A 
ATOM     76  H   UNL A   1      45.650  29.063  32.342  1.00  0.00     0.167 HD
ATOM     77  C   UNL A   1      46.230  29.155  35.098  1.00  0.00     0.074 A 
ATOM     78  C   UNL A   1      46.477  28.717  36.455  1.00  0.00     0.031 C 
ATOM     79  C   UNL A   1      46.271  30.448  34.694  1.00  0.00     0.031 A 
BRANCH  66  80
ATOM     80  C   UNL A   1      45.153  31.189  28.661  1.00  0.00    -0.014 A 
ATOM     81  C   UNL A   1      43.964  31.890  28.386  1.00  0.00     0.010 A 
ATOM     82  C   UNL A   1      46.283  31.427  27.857  1.00  0.00     0.010 A 
ATOM     83  C   UNL A   1      43.889  32.765  27.300  1.00  0.00     0.020 A 
ATOM     84  C   UNL A   1      46.224  32.330  26.790  1.00  0.00     0.020 A 
ATOM     85  C   UNL A   1      45.020  32.978  26.505  1.00  0.00     0.054 A 
BRANCH  85  86
ATOM     86  S   UNL A   1      44.896  34.132  25.111  1.00  0.00     0.124 S 
ATOM     87  O   UNL A   1      43.902  35.086  25.598  1.00  0.00    -0.237 OA
ATOM     88  O   UNL A   1      46.260  34.646  25.002  1.00  0.00    -0.237 OA
ATOM     89  O   UNL A   1      44.460  33.291  24.000  1.00  0.00    -0.744 OA
ENDBRANCH  85  86
ENDBRANCH  66  80
BRANCH  67  90
ATOM     90  C   UNL A   1      45.965  24.553  36.042  1.00  0.00    -0.014 A 
ATOM     91  C   UNL A   1      47.009  23.607  36.053  1.00  0.00     0.010 A 
ATOM     92  C   UNL A   1      45.035  24.545  37.099  1.00  0.00     0.010 A 
ATOM     93  C   UNL A   1      47.108  22.665  37.084  1.00  0.00     0.020 A 
ATOM     94  C   UNL A   1      45.150  23.628  38.148  1.00  0.00     0.020 A 
ATOM     95  C   UNL A   1      46.180  22.686  38.129  1.00  0.00     0.054 A 
BRANCH  95  96
ATOM     96  S   UNL A   1      46.358  21.490  39.483  1.00  0.00     0.124 S 
ATOM     97  O   UNL A   1      47.719  21.749  39.942  1.00  0.00    -0.237 OA
ATOM     98  O   UNL A   1      45.292  21.892  40.398  1.00  0.00    -0.237 OA
ATOM     99  O   UNL A   1      46.153  20.200  38.828  1.00  0.00    -0.744 OA
ENDBRANCH  95  96
ENDBRANCH  67  90
BRANCH  79 100
ATOM    100  C   UNL A   1      46.565  31.503  35.732  1.00  0.00    -0.014 A 
ATOM    101  C   UNL A   1      45.542  32.062  36.518  1.00  0.00     0.010 A 
ATOM    102  C   UNL A   1      47.896  31.892  35.970  1.00  0.00     0.010 A 
ATOM    103  C   UNL A   1      45.841  33.013  37.499  1.00  0.00     0.020 A 
ATOM    104  C   UNL A   1      48.203  32.818  36.971  1.00  0.00     0.020 A 
ATOM    105  C   UNL A   1      47.171  33.382  37.721  1.00  0.00     0.054 A 
BRANCH 105 106
ATOM    106  S   UNL A   1      47.536  34.582  39.034  1.00  0.00     0.124 S 
ATOM    107  O   UNL A   1      47.887  35.774  38.268  1.00  0.00    -0.237 OA
ATOM    108  O   UNL A   1      46.271  34.651  39.762  1.00  0.00    -0.237 OA
ATOM    109  O   UNL A   1      48.638  33.967  39.770  1.00  0.00    -0.744 OA
ENDBRANCH 105 106
ENDBRANCH  79 100
ENDBRANCH  53  54
ENDBRANCH  45  48
ENDBRANCH  43  44
ENDBRANCH  42  43
ENDBRANCH   1  42
TORSDOF 18
ENDMDL
