MODEL 1
REMARK VINA RESULT:     -12.5      0.000      0.000
REMARK SMILES Cc1ccccc1C(=O)Nc1cc(NC(=O)c2ccccc2C)cc(C(=O)NCCCCCCNC(=O)c2ccc(-c3c4nc(c(-c5ccc(S(=O)(=O)[O-])cc5)c5ccc([nH]5)c(-c5ccc(S(=O)(=O)[O-])cc5)c5nc(c(-c6ccc(S(=O)(=O)[O-])cc6)c6ccc3[nH]6)C=C5)C=C4)cc2)c1
REMARK SMILES IDX 32 1 31 2 30 3 29 4 28 5 26 6 27 7 25 9 11 10 12 11 98 12
REMARK SMILES IDX 13 13 24 14 10 15 8 16 9 17 7 19 1 20 2 21 3 22 4 23 6 24
REMARK SMILES IDX 5 25 14 26 15 27 16 29 17 30 18 31 22 32 19 33 21 34 23 35
REMARK SMILES IDX 20 36 33 37 34 38 35 39 36 40 37 42 38 43 39 44 97 45 40 46
REMARK SMILES IDX 96 47 41 48 42 49 43 50 90 51 44 52 95 53 89 54 91 55 45 56
REMARK SMILES IDX 94 57 88 58 87 59 46 61 76 62 57 63 75 64 58 65 61 66 74 67
REMARK SMILES IDX 92 68 59 69 60 70 73 72 93 73 62 74 47 75 48 76 56 77 49 78
REMARK SMILES IDX 55 79 50 80 51 81 52 82 53 83 54 84 77 85 78 86 86 87 79 88
REMARK SMILES IDX 85 89 80 90 81 91 82 92 83 93 84 94 63 95 64 96 72 97 65 98
REMARK SMILES IDX 71 99 66 100 67 101 68 102 69 103 70 104
REMARK H PARENT 28 8 10 18 14 28 35 41 91 60 61 71
REMARK Flexibility Score: inf
ROOT
ATOM      1  C   UNL A   1      31.444  30.297  26.879  1.00  0.00     0.002 C 
ENDROOT
BRANCH   1   2
ATOM      2  C   UNL A   1      32.004  28.834  27.204  1.00  0.00     0.002 C 
BRANCH   2   3
ATOM      3  C   UNL A   1      33.208  28.084  26.591  1.00  0.00     0.021 C 
BRANCH   3   4
ATOM      4  C   UNL A   1      33.064  26.606  26.488  1.00  0.00     0.116 C 
BRANCH   4   5
ATOM      5  N   UNL A   1      31.715  26.221  26.824  1.00  0.00    -0.352 N 
ATOM      6  C   UNL A   1      30.837  25.390  26.200  1.00  0.00     0.251 C 
ATOM      7  O   UNL A   1      29.669  25.388  26.590  1.00  0.00    -0.269 OA
ATOM      8  H   UNL A   1      31.369  26.631  27.649  1.00  0.00     0.163 HD
BRANCH   6   9
ATOM      9  C   UNL A   1      31.244  24.472  25.101  1.00  0.00     0.043 A 
ATOM     10  C   UNL A   1      31.677  22.191  24.486  1.00  0.00     0.044 A 
ATOM     11  C   UNL A   1      32.191  22.595  23.255  1.00  0.00     0.052 A 
ATOM     12  C   UNL A   1      31.049  23.108  25.326  1.00  0.00     0.040 A 
ATOM     13  C   UNL A   1      32.302  23.948  22.970  1.00  0.00     0.044 A 
ATOM     14  C   UNL A   1      31.956  24.862  23.962  1.00  0.00     0.040 A 
BRANCH  10  15
ATOM     15  N   UNL A   1      31.941  20.932  25.033  1.00  0.00    -0.322 N 
ATOM     16  C   UNL A   1      33.134  20.437  25.528  1.00  0.00     0.255 C 
ATOM     17  O   UNL A   1      33.165  19.272  25.930  1.00  0.00    -0.269 OA
ATOM     18  H   UNL A   1      31.177  20.314  25.072  1.00  0.00     0.170 HD
BRANCH  16  19
ATOM     19  C   UNL A   1      34.389  21.252  25.622  1.00  0.00     0.043 A 
ATOM     20  C   UNL A   1      33.773  22.718  27.671  1.00  0.00     0.045 C 
ATOM     21  C   UNL A   1      34.641  22.322  26.510  1.00  0.00    -0.038 A 
ATOM     22  C   UNL A   1      35.833  23.059  26.364  1.00  0.00     0.004 A 
ATOM     23  C   UNL A   1      36.819  22.666  25.464  1.00  0.00     0.000 A 
ATOM     24  C   UNL A   1      35.417  20.841  24.754  1.00  0.00     0.014 A 
ATOM     25  C   UNL A   1      36.630  21.528  24.690  1.00  0.00     0.001 A 
ENDBRANCH  16  19
ENDBRANCH  10  15
BRANCH  13  26
ATOM     26  N   UNL A   1      32.831  24.478  21.785  1.00  0.00    -0.322 N 
ATOM     27  C   UNL A   1      32.687  25.713  21.202  1.00  0.00     0.255 C 
ATOM     28  H   UNL A   1      33.408  23.857  21.283  1.00  0.00     0.170 HD
ATOM     29  O   UNL A   1      33.046  25.883  20.036  1.00  0.00    -0.269 OA
BRANCH  27  30
ATOM     30  C   UNL A   1      32.124  26.859  21.951  1.00  0.00     0.043 A 
ATOM     31  C   UNL A   1      30.725  26.878  22.054  1.00  0.00     0.014 A 
ATOM     32  C   UNL A   1      32.894  27.889  22.529  1.00  0.00    -0.038 A 
ATOM     33  C   UNL A   1      30.086  27.868  22.795  1.00  0.00     0.001 A 
ATOM     34  C   UNL A   1      32.232  28.855  23.306  1.00  0.00     0.004 A 
ATOM     35  C   UNL A   1      34.386  28.019  22.381  1.00  0.00     0.045 C 
ATOM     36  C   UNL A   1      30.842  28.841  23.440  1.00  0.00     0.000 A 
ENDBRANCH  27  30
ENDBRANCH  13  26
ENDBRANCH   6   9
ENDBRANCH   4   5
ENDBRANCH   3   4
ENDBRANCH   2   3
ENDBRANCH   1   2
BRANCH   1  37
ATOM     37  C   UNL A   1      32.179  31.731  26.492  1.00  0.00     0.021 C 
BRANCH  37  38
ATOM     38  C   UNL A   1      32.860  32.637  27.634  1.00  0.00     0.116 C 
BRANCH  38  39
ATOM     39  N   UNL A   1      33.647  32.141  28.914  1.00  0.00    -0.352 N 
ATOM     40  C   UNL A   1      35.082  31.893  29.171  1.00  0.00     0.251 C 
ATOM     41  H   UNL A   1      33.069  31.963  29.690  1.00  0.00     0.163 HD
ATOM     42  O   UNL A   1      35.654  32.824  29.766  1.00  0.00    -0.269 OA
BRANCH  40  43
ATOM     43  C   UNL A   1      36.028  30.596  28.927  1.00  0.00     0.039 A 
ATOM     44  C   UNL A   1      36.363  29.725  30.006  1.00  0.00     0.014 A 
ATOM     45  C   UNL A   1      36.726  30.257  27.769  1.00  0.00     0.014 A 
ATOM     46  C   UNL A   1      37.660  29.056  30.071  1.00  0.00     0.010 A 
ATOM     47  C   UNL A   1      38.042  29.675  27.842  1.00  0.00     0.010 A 
ATOM     48  C   UNL A   1      38.613  29.267  29.053  1.00  0.00    -0.014 A 
BRANCH  48  49
ATOM     49  C   UNL A   1      40.129  29.366  29.272  1.00  0.00     0.031 A 
ATOM     50  C   UNL A   1      41.052  28.538  28.496  1.00  0.00     0.074 A 
ATOM     51  C   UNL A   1      40.846  30.220  30.075  1.00  0.00     0.049 A 
ATOM     52  N   UNL A   1      41.936  27.740  29.003  1.00  0.00    -0.248 NA
ATOM     53  C   UNL A   1      41.116  28.688  27.051  1.00  0.00     0.031 C 
ATOM     54  C   UNL A   1      42.292  30.441  30.288  1.00  0.00     0.029 A 
ATOM     55  N   UNL A   1      40.366  31.172  30.946  1.00  0.00    -0.354 N 
ATOM     56  C   UNL A   1      42.856  27.532  27.997  1.00  0.00     0.074 A 
ATOM     57  C   UNL A   1      42.208  27.971  26.773  1.00  0.00     0.031 C 
ATOM     58  C   UNL A   1      42.491  31.140  31.433  1.00  0.00     0.029 A 
ATOM     59  C   UNL A   1      41.196  31.364  32.046  1.00  0.00     0.049 A 
ATOM     60  H   UNL A   1      39.525  31.664  30.804  1.00  0.00     0.167 HD
ATOM     61  C   UNL A   1      44.182  27.323  28.254  1.00  0.00     0.031 A 
ATOM     62  C   UNL A   1      40.756  31.049  33.312  1.00  0.00     0.031 A 
ATOM     63  C   UNL A   1      44.542  27.635  29.642  1.00  0.00     0.049 A 
ATOM     64  C   UNL A   1      41.488  29.847  33.832  1.00  0.00     0.074 A 
ATOM     65  C   UNL A   1      45.280  28.678  30.187  1.00  0.00     0.029 A 
ATOM     66  N   UNL A   1      43.899  27.021  30.710  1.00  0.00    -0.354 N 
ATOM     67  N   UNL A   1      42.317  29.169  33.102  1.00  0.00    -0.248 NA
ATOM     68  C   UNL A   1      41.322  29.270  35.160  1.00  0.00     0.031 C 
ATOM     69  C   UNL A   1      45.041  28.714  31.583  1.00  0.00     0.029 A 
ATOM     70  C   UNL A   1      44.181  27.677  31.897  1.00  0.00     0.049 A 
ATOM     71  H   UNL A   1      43.322  26.228  30.633  1.00  0.00     0.167 HD
ATOM     72  C   UNL A   1      42.774  28.087  33.782  1.00  0.00     0.074 A 
ATOM     73  C   UNL A   1      42.143  28.206  35.085  1.00  0.00     0.031 C 
ATOM     74  C   UNL A   1      43.621  27.213  33.167  1.00  0.00     0.031 A 
BRANCH  61  75
ATOM     75  C   UNL A   1      45.207  27.181  27.143  1.00  0.00    -0.014 A 
ATOM     76  C   UNL A   1      46.080  28.239  26.823  1.00  0.00     0.010 A 
ATOM     77  C   UNL A   1      45.385  25.988  26.410  1.00  0.00     0.010 A 
ATOM     78  C   UNL A   1      47.010  28.148  25.776  1.00  0.00     0.020 A 
ATOM     79  C   UNL A   1      46.278  25.896  25.332  1.00  0.00     0.020 A 
ATOM     80  C   UNL A   1      47.090  26.982  25.023  1.00  0.00     0.054 A 
BRANCH  80  81
ATOM     81  S   UNL A   1      48.301  26.885  23.679  1.00  0.00     0.124 S 
ATOM     82  O   UNL A   1      47.793  27.864  22.721  1.00  0.00    -0.237 OA
ATOM     83  O   UNL A   1      49.544  27.251  24.353  1.00  0.00    -0.237 OA
ATOM     84  O   UNL A   1      48.223  25.493  23.238  1.00  0.00    -0.744 OA
ENDBRANCH  80  81
ENDBRANCH  61  75
BRANCH  62  85
ATOM     85  C   UNL A   1      39.274  31.292  33.614  1.00  0.00    -0.014 A 
ATOM     86  C   UNL A   1      38.712  30.468  34.594  1.00  0.00     0.010 A 
ATOM     87  C   UNL A   1      38.958  32.636  33.751  1.00  0.00     0.010 A 
ATOM     88  C   UNL A   1      38.558  30.975  35.889  1.00  0.00     0.020 A 
ATOM     89  C   UNL A   1      38.962  33.082  35.081  1.00  0.00     0.020 A 
ATOM     90  C   UNL A   1      38.989  32.254  36.168  1.00  0.00     0.054 A 
BRANCH  90  91
ATOM     91  S   UNL A   1      39.901  32.811  37.857  1.00  0.00     0.124 S 
ATOM     92  O   UNL A   1      40.176  34.191  37.638  1.00  0.00    -0.237 OA
ATOM     93  O   UNL A   1      38.925  32.574  38.915  1.00  0.00    -0.237 OA
ATOM     94  O   UNL A   1      41.148  32.091  37.987  1.00  0.00    -0.744 OA
ENDBRANCH  90  91
ENDBRANCH  62  85
BRANCH  74  95
ATOM     95  C   UNL A   1      44.099  25.902  33.721  1.00  0.00    -0.014 A 
ATOM     96  C   UNL A   1      43.270  24.925  34.284  1.00  0.00     0.010 A 
ATOM     97  C   UNL A   1      45.477  25.591  33.611  1.00  0.00     0.010 A 
ATOM     98  C   UNL A   1      43.797  23.731  34.786  1.00  0.00     0.020 A 
ATOM     99  C   UNL A   1      46.006  24.382  34.056  1.00  0.00     0.020 A 
ATOM    100  C   UNL A   1      45.163  23.470  34.671  1.00  0.00     0.054 A 
BRANCH 100 101
ATOM    101  S   UNL A   1      45.814  21.912  35.305  1.00  0.00     0.124 S 
ATOM    102  O   UNL A   1      44.857  20.947  34.769  1.00  0.00    -0.237 OA
ATOM    103  O   UNL A   1      47.151  21.861  34.716  1.00  0.00    -0.237 OA
ATOM    104  O   UNL A   1      45.785  22.085  36.755  1.00  0.00    -0.744 OA
ENDBRANCH 100 101
ENDBRANCH  74  95
ENDBRANCH  48  49
ENDBRANCH  40  43
ENDBRANCH  38  39
ENDBRANCH  37  38
ENDBRANCH   1  37
TORSDOF 20
ENDMDL
MODEL 2
REMARK VINA RESULT:     -12.3      3.931      7.414
REMARK SMILES Cc1ccccc1C(=O)Nc1cc(NC(=O)c2ccccc2C)cc(C(=O)NCCCCCCNC(=O)c2ccc(-c3c4nc(c(-c5ccc(S(=O)(=O)[O-])cc5)c5ccc([nH]5)c(-c5ccc(S(=O)(=O)[O-])cc5)c5nc(c(-c6ccc(S(=O)(=O)[O-])cc6)c6ccc3[nH]6)C=C5)C=C4)cc2)c1
REMARK SMILES IDX 32 1 31 2 30 3 29 4 28 5 26 6 27 7 25 9 11 10 12 11 98 12
REMARK SMILES IDX 13 13 24 14 10 15 8 16 9 17 7 19 1 20 2 21 3 22 4 23 6 24
REMARK SMILES IDX 5 25 14 26 15 27 16 29 17 30 18 31 22 32 19 33 21 34 23 35
REMARK SMILES IDX 20 36 33 37 34 38 35 39 36 40 37 42 38 43 39 44 97 45 40 46
REMARK SMILES IDX 96 47 41 48 42 49 43 50 90 51 44 52 95 53 89 54 91 55 45 56
REMARK SMILES IDX 94 57 88 58 87 59 46 61 76 62 57 63 75 64 58 65 61 66 74 67
REMARK SMILES IDX 92 68 59 69 60 70 73 72 93 73 62 74 47 75 48 76 56 77 49 78
REMARK SMILES IDX 55 79 50 80 51 81 52 82 53 83 54 84 77 85 78 86 86 87 79 88
REMARK SMILES IDX 85 89 80 90 81 91 82 92 83 93 84 94 63 95 64 96 72 97 65 98
REMARK SMILES IDX 71 99 66 100 67 101 68 102 69 103 70 104
REMARK H PARENT 28 8 10 18 14 28 35 41 91 60 61 71
REMARK Flexibility Score: inf
ROOT
ATOM      1  C   UNL A   1      40.657  21.222  26.130  1.00  0.00     0.002 C 
ENDROOT
BRANCH   1   2
ATOM      2  C   UNL A   1      39.270  22.017  26.178  1.00  0.00     0.002 C 
BRANCH   2   3
ATOM      3  C   UNL A   1      38.955  23.409  26.773  1.00  0.00     0.021 C 
BRANCH   3   4
ATOM      4  C   UNL A   1      37.839  24.151  26.126  1.00  0.00     0.116 C 
BRANCH   4   5
ATOM      5  N   UNL A   1      37.056  23.249  25.315  1.00  0.00    -0.352 N 
ATOM      6  C   UNL A   1      35.711  23.102  25.180  1.00  0.00     0.251 C 
ATOM      7  O   UNL A   1      35.298  22.117  24.567  1.00  0.00    -0.269 OA
ATOM      8  H   UNL A   1      37.590  22.632  24.763  1.00  0.00     0.163 HD
BRANCH   6   9
ATOM      9  C   UNL A   1      34.738  24.097  25.709  1.00  0.00     0.043 A 
ATOM     10  C   UNL A   1      32.594  24.412  26.743  1.00  0.00     0.044 A 
ATOM     11  C   UNL A   1      32.681  25.792  26.561  1.00  0.00     0.052 A 
ATOM     12  C   UNL A   1      33.689  23.593  26.479  1.00  0.00     0.040 A 
ATOM     13  C   UNL A   1      33.768  26.325  25.884  1.00  0.00     0.044 A 
ATOM     14  C   UNL A   1      34.707  25.448  25.347  1.00  0.00     0.040 A 
BRANCH  10  15
ATOM     15  N   UNL A   1      31.380  23.762  26.986  1.00  0.00    -0.322 N 
ATOM     16  C   UNL A   1      30.775  22.757  26.253  1.00  0.00     0.255 C 
ATOM     17  O   UNL A   1      29.671  22.348  26.618  1.00  0.00    -0.269 OA
ATOM     18  H   UNL A   1      30.889  24.059  27.785  1.00  0.00     0.170 HD
BRANCH  16  19
ATOM     19  C   UNL A   1      31.403  22.124  25.048  1.00  0.00     0.043 A 
ATOM     20  C   UNL A   1      31.140  24.086  23.371  1.00  0.00     0.045 C 
ATOM     21  C   UNL A   1      31.486  22.673  23.748  1.00  0.00    -0.038 A 
ATOM     22  C   UNL A   1      31.997  21.873  22.706  1.00  0.00     0.004 A 
ATOM     23  C   UNL A   1      32.547  20.620  22.960  1.00  0.00     0.000 A 
ATOM     24  C   UNL A   1      32.007  20.877  25.293  1.00  0.00     0.014 A 
ATOM     25  C   UNL A   1      32.592  20.140  24.262  1.00  0.00     0.001 A 
ENDBRANCH  16  19
ENDBRANCH  10  15
BRANCH  13  26
ATOM     26  N   UNL A   1      33.953  27.688  25.610  1.00  0.00    -0.322 N 
ATOM     27  C   UNL A   1      33.382  28.507  24.668  1.00  0.00     0.255 C 
ATOM     28  H   UNL A   1      34.606  28.136  26.196  1.00  0.00     0.170 HD
ATOM     29  O   UNL A   1      33.870  29.616  24.447  1.00  0.00    -0.269 OA
BRANCH  27  30
ATOM     30  C   UNL A   1      32.173  28.096  23.918  1.00  0.00     0.043 A 
ATOM     31  C   UNL A   1      30.952  28.454  24.508  1.00  0.00     0.014 A 
ATOM     32  C   UNL A   1      32.195  27.385  22.701  1.00  0.00    -0.038 A 
ATOM     33  C   UNL A   1      29.751  28.183  23.860  1.00  0.00     0.001 A 
ATOM     34  C   UNL A   1      30.973  27.158  22.045  1.00  0.00     0.004 A 
ATOM     35  C   UNL A   1      33.444  26.860  22.046  1.00  0.00     0.045 C 
ATOM     36  C   UNL A   1      29.763  27.557  22.618  1.00  0.00     0.000 A 
ENDBRANCH  27  30
ENDBRANCH  13  26
ENDBRANCH   6   9
ENDBRANCH   4   5
ENDBRANCH   3   4
ENDBRANCH   2   3
ENDBRANCH   1   2
BRANCH   1  37
ATOM     37  C   UNL A   1      41.061  19.634  26.381  1.00  0.00     0.021 C 
BRANCH  37  38
ATOM     38  C   UNL A   1      42.592  19.151  26.268  1.00  0.00     0.116 C 
BRANCH  38  39
ATOM     39  N   UNL A   1      43.628  19.499  25.124  1.00  0.00    -0.352 N 
ATOM     40  C   UNL A   1      44.757  20.451  25.053  1.00  0.00     0.251 C 
ATOM     41  H   UNL A   1      43.496  18.979  24.299  1.00  0.00     0.163 HD
ATOM     42  O   UNL A   1      45.869  19.928  25.246  1.00  0.00    -0.269 OA
BRANCH  40  43
ATOM     43  C   UNL A   1      44.837  22.025  24.663  1.00  0.00     0.039 A 
ATOM     44  C   UNL A   1      45.999  22.562  24.032  1.00  0.00     0.014 A 
ATOM     45  C   UNL A   1      43.933  23.033  24.997  1.00  0.00     0.014 A 
ATOM     46  C   UNL A   1      46.450  23.926  24.298  1.00  0.00     0.010 A 
ATOM     47  C   UNL A   1      44.393  24.354  25.342  1.00  0.00     0.010 A 
ATOM     48  C   UNL A   1      45.731  24.742  25.197  1.00  0.00    -0.014 A 
BRANCH  48  49
ATOM     49  C   UNL A   1      46.360  25.748  26.170  1.00  0.00     0.031 A 
ATOM     50  C   UNL A   1      47.631  25.453  26.832  1.00  0.00     0.074 A 
ATOM     51  C   UNL A   1      45.955  27.019  26.501  1.00  0.00     0.049 A 
ATOM     52  N   UNL A   1      47.817  25.461  28.113  1.00  0.00    -0.248 NA
ATOM     53  C   UNL A   1      48.834  25.267  26.037  1.00  0.00     0.031 C 
ATOM     54  C   UNL A   1      46.533  28.079  27.355  1.00  0.00     0.029 A 
ATOM     55  N   UNL A   1      44.829  27.689  26.081  1.00  0.00    -0.354 N 
ATOM     56  C   UNL A   1      49.179  25.595  28.279  1.00  0.00     0.074 A 
ATOM     57  C   UNL A   1      49.768  25.275  26.991  1.00  0.00     0.031 C 
ATOM     58  C   UNL A   1      45.589  29.009  27.641  1.00  0.00     0.029 A 
ATOM     59  C   UNL A   1      44.344  28.579  27.035  1.00  0.00     0.049 A 
ATOM     60  H   UNL A   1      44.412  27.553  25.199  1.00  0.00     0.167 HD
ATOM     61  C   UNL A   1      49.722  26.260  29.343  1.00  0.00     0.031 A 
ATOM     62  C   UNL A   1      43.110  28.376  27.610  1.00  0.00     0.031 A 
ATOM     63  C   UNL A   1      48.725  27.039  30.088  1.00  0.00     0.049 A 
ATOM     64  C   UNL A   1      43.265  27.984  29.050  1.00  0.00     0.074 A 
ATOM     65  C   UNL A   1      48.516  28.409  30.184  1.00  0.00     0.029 A 
ATOM     66  N   UNL A   1      47.589  26.439  30.618  1.00  0.00    -0.354 N 
ATOM     67  N   UNL A   1      44.424  27.763  29.588  1.00  0.00    -0.248 NA
ATOM     68  C   UNL A   1      42.169  27.751  29.982  1.00  0.00     0.031 C 
ATOM     69  C   UNL A   1      47.229  28.627  30.736  1.00  0.00     0.029 A 
ATOM     70  C   UNL A   1      46.663  27.394  31.004  1.00  0.00     0.049 A 
ATOM     71  H   UNL A   1      47.461  25.467  30.709  1.00  0.00     0.167 HD
ATOM     72  C   UNL A   1      44.279  27.344  30.871  1.00  0.00     0.074 A 
ATOM     73  C   UNL A   1      42.843  27.378  31.086  1.00  0.00     0.031 C 
ATOM     74  C   UNL A   1      45.383  27.007  31.598  1.00  0.00     0.031 A 
BRANCH  61  75
ATOM     75  C   UNL A   1      51.218  26.481  29.480  1.00  0.00    -0.014 A 
ATOM     76  C   UNL A   1      51.909  26.062  30.634  1.00  0.00     0.010 A 
ATOM     77  C   UNL A   1      52.004  27.058  28.461  1.00  0.00     0.010 A 
ATOM     78  C   UNL A   1      53.283  26.289  30.803  1.00  0.00     0.020 A 
ATOM     79  C   UNL A   1      53.370  27.332  28.633  1.00  0.00     0.020 A 
ATOM     80  C   UNL A   1      54.003  26.942  29.807  1.00  0.00     0.054 A 
BRANCH  80  81
ATOM     81  S   UNL A   1      55.778  27.219  30.044  1.00  0.00     0.124 S 
ATOM     82  O   UNL A   1      55.964  28.566  29.509  1.00  0.00    -0.237 OA
ATOM     83  O   UNL A   1      55.922  27.094  31.492  1.00  0.00    -0.237 OA
ATOM     84  O   UNL A   1      56.405  26.154  29.265  1.00  0.00    -0.744 OA
ENDBRANCH  80  81
ENDBRANCH  61  75
BRANCH  62  85
ATOM     85  C   UNL A   1      42.016  27.779  26.718  1.00  0.00    -0.014 A 
ATOM     86  C   UNL A   1      41.348  26.669  27.241  1.00  0.00     0.010 A 
ATOM     87  C   UNL A   1      41.181  28.738  26.163  1.00  0.00     0.010 A 
ATOM     88  C   UNL A   1      40.089  26.856  27.824  1.00  0.00     0.020 A 
ATOM     89  C   UNL A   1      40.004  28.951  26.897  1.00  0.00     0.020 A 
ATOM     90  C   UNL A   1      39.561  28.127  27.893  1.00  0.00     0.054 A 
BRANCH  90  91
ATOM     91  S   UNL A   1      38.540  28.858  29.448  1.00  0.00     0.124 S 
ATOM     92  O   UNL A   1      38.575  27.792  30.390  1.00  0.00    -0.237 OA
ATOM     93  O   UNL A   1      39.287  30.036  29.876  1.00  0.00    -0.237 OA
ATOM     94  O   UNL A   1      37.171  29.101  29.051  1.00  0.00    -0.744 OA
ENDBRANCH  90  91
ENDBRANCH  62  85
BRANCH  74  95
ATOM     95  C   UNL A   1      45.389  26.390  32.966  1.00  0.00    -0.014 A 
ATOM     96  C   UNL A   1      45.779  27.051  34.137  1.00  0.00     0.010 A 
ATOM     97  C   UNL A   1      44.904  25.066  33.107  1.00  0.00     0.010 A 
ATOM     98  C   UNL A   1      45.763  26.400  35.375  1.00  0.00     0.020 A 
ATOM     99  C   UNL A   1      44.830  24.426  34.341  1.00  0.00     0.020 A 
ATOM    100  C   UNL A   1      45.292  25.090  35.467  1.00  0.00     0.054 A 
BRANCH 100 101
ATOM    101  S   UNL A   1      45.259  24.281  37.079  1.00  0.00     0.124 S 
ATOM    102  O   UNL A   1      45.180  22.871  36.704  1.00  0.00    -0.237 OA
ATOM    103  O   UNL A   1      46.528  24.701  37.672  1.00  0.00    -0.237 OA
ATOM    104  O   UNL A   1      44.066  24.827  37.720  1.00  0.00    -0.744 OA
ENDBRANCH 100 101
ENDBRANCH  74  95
ENDBRANCH  48  49
ENDBRANCH  40  43
ENDBRANCH  38  39
ENDBRANCH  37  38
ENDBRANCH   1  37
TORSDOF 20
ENDMDL
MODEL 3
REMARK VINA RESULT:     -12.3      3.127      4.162
REMARK SMILES Cc1ccccc1C(=O)Nc1cc(NC(=O)c2ccccc2C)cc(C(=O)NCCCCCCNC(=O)c2ccc(-c3c4nc(c(-c5ccc(S(=O)(=O)[O-])cc5)c5ccc([nH]5)c(-c5ccc(S(=O)(=O)[O-])cc5)c5nc(c(-c6ccc(S(=O)(=O)[O-])cc6)c6ccc3[nH]6)C=C5)C=C4)cc2)c1
REMARK SMILES IDX 32 1 31 2 30 3 29 4 28 5 26 6 27 7 25 9 11 10 12 11 98 12
REMARK SMILES IDX 13 13 24 14 10 15 8 16 9 17 7 19 1 20 2 21 3 22 4 23 6 24
REMARK SMILES IDX 5 25 14 26 15 27 16 29 17 30 18 31 22 32 19 33 21 34 23 35
REMARK SMILES IDX 20 36 33 37 34 38 35 39 36 40 37 42 38 43 39 44 97 45 40 46
REMARK SMILES IDX 96 47 41 48 42 49 43 50 90 51 44 52 95 53 89 54 91 55 45 56
REMARK SMILES IDX 94 57 88 58 87 59 46 61 76 62 57 63 75 64 58 65 61 66 74 67
REMARK SMILES IDX 92 68 59 69 60 70 73 72 93 73 62 74 47 75 48 76 56 77 49 78
REMARK SMILES IDX 55 79 50 80 51 81 52 82 53 83 54 84 77 85 78 86 86 87 79 88
REMARK SMILES IDX 85 89 80 90 81 91 82 92 83 93 84 94 63 95 64 96 72 97 65 98
REMARK SMILES IDX 71 99 66 100 67 101 68 102 69 103 70 104
REMARK H PARENT 28 8 10 18 14 28 35 41 91 60 61 71
REMARK Flexibility Score: inf
ROOT
ATOM      1  C   UNL A   1      34.951  32.148  27.994  1.00  0.00     0.002 C 
ENDROOT
BRANCH   1   2
ATOM      2  C   UNL A   1      34.901  30.583  27.667  1.00  0.00     0.002 C 
BRANCH   2   3
ATOM      3  C   UNL A   1      34.394  29.858  26.398  1.00  0.00     0.021 C 
BRANCH   3   4
ATOM      4  C   UNL A   1      34.024  28.428  26.575  1.00  0.00     0.116 C 
BRANCH   4   5
ATOM      5  N   UNL A   1      32.807  28.329  27.345  1.00  0.00    -0.352 N 
ATOM      6  C   UNL A   1      31.729  27.511  27.216  1.00  0.00     0.251 C 
ATOM      7  O   UNL A   1      30.728  27.767  27.887  1.00  0.00    -0.269 OA
ATOM      8  H   UNL A   1      32.747  28.966  28.093  1.00  0.00     0.163 HD
BRANCH   6   9
ATOM      9  C   UNL A   1      31.731  26.313  26.331  1.00  0.00     0.043 A 
ATOM     10  C   UNL A   1      31.917  23.921  26.239  1.00  0.00     0.044 A 
ATOM     11  C   UNL A   1      31.980  23.955  24.847  1.00  0.00     0.052 A 
ATOM     12  C   UNL A   1      31.618  25.073  26.962  1.00  0.00     0.040 A 
ATOM     13  C   UNL A   1      31.993  25.177  24.192  1.00  0.00     0.044 A 
ATOM     14  C   UNL A   1      32.011  26.338  24.961  1.00  0.00     0.040 A 
BRANCH  10  15
ATOM     15  N   UNL A   1      32.347  22.818  26.983  1.00  0.00    -0.322 N 
ATOM     16  C   UNL A   1      33.537  22.120  26.885  1.00  0.00     0.255 C 
ATOM     17  O   UNL A   1      33.704  21.139  27.614  1.00  0.00    -0.269 OA
ATOM     18  H   UNL A   1      31.720  22.495  27.669  1.00  0.00     0.170 HD
BRANCH  16  19
ATOM     19  C   UNL A   1      34.645  22.507  25.954  1.00  0.00     0.043 A 
ATOM     20  C   UNL A   1      33.933  21.128  23.875  1.00  0.00     0.045 C 
ATOM     21  C   UNL A   1      34.875  22.003  24.654  1.00  0.00    -0.038 A 
ATOM     22  C   UNL A   1      36.048  22.389  23.973  1.00  0.00     0.004 A 
ATOM     23  C   UNL A   1      36.901  23.356  24.496  1.00  0.00     0.000 A 
ATOM     24  C   UNL A   1      35.492  23.518  26.443  1.00  0.00     0.014 A 
ATOM     25  C   UNL A   1      36.598  23.955  25.712  1.00  0.00     0.001 A 
ENDBRANCH  16  19
ENDBRANCH  10  15
BRANCH  13  26
ATOM     26  N   UNL A   1      32.086  25.343  22.803  1.00  0.00    -0.322 N 
ATOM     27  C   UNL A   1      31.577  26.309  21.970  1.00  0.00     0.255 C 
ATOM     28  H   UNL A   1      32.610  24.646  22.344  1.00  0.00     0.170 HD
ATOM     29  O   UNL A   1      31.578  26.126  20.752  1.00  0.00    -0.269 OA
BRANCH  27  30
ATOM     30  C   UNL A   1      31.039  27.582  22.502  1.00  0.00     0.043 A 
ATOM     31  C   UNL A   1      29.644  27.627  22.650  1.00  0.00     0.014 A 
ATOM     32  C   UNL A   1      31.827  28.700  22.840  1.00  0.00    -0.038 A 
ATOM     33  C   UNL A   1      29.031  28.745  23.207  1.00  0.00     0.001 A 
ATOM     34  C   UNL A   1      31.192  29.802  23.438  1.00  0.00     0.004 A 
ATOM     35  C   UNL A   1      33.312  28.791  22.615  1.00  0.00     0.045 C 
ATOM     36  C   UNL A   1      29.808  29.822  23.623  1.00  0.00     0.000 A 
ENDBRANCH  27  30
ENDBRANCH  13  26
ENDBRANCH   6   9
ENDBRANCH   4   5
ENDBRANCH   3   4
ENDBRANCH   2   3
ENDBRANCH   1   2
BRANCH   1  37
ATOM     37  C   UNL A   1      34.443  33.052  29.287  1.00  0.00     0.021 C 
BRANCH  37  38
ATOM     38  C   UNL A   1      35.337  33.146  30.621  1.00  0.00     0.116 C 
BRANCH  38  39
ATOM     39  N   UNL A   1      36.299  32.040  31.215  1.00  0.00    -0.352 N 
ATOM     40  C   UNL A   1      37.540  31.415  30.707  1.00  0.00     0.251 C 
ATOM     41  H   UNL A   1      36.018  31.701  32.095  1.00  0.00     0.163 HD
ATOM     42  O   UNL A   1      38.580  31.900  31.186  1.00  0.00    -0.269 OA
BRANCH  40  43
ATOM     43  C   UNL A   1      37.803  30.146  29.728  1.00  0.00     0.039 A 
ATOM     44  C   UNL A   1      37.853  28.820  30.251  1.00  0.00     0.014 A 
ATOM     45  C   UNL A   1      38.149  30.170  28.378  1.00  0.00     0.014 A 
ATOM     46  C   UNL A   1      38.735  27.807  29.678  1.00  0.00     0.010 A 
ATOM     47  C   UNL A   1      39.087  29.219  27.838  1.00  0.00     0.010 A 
ATOM     48  C   UNL A   1      39.563  28.132  28.583  1.00  0.00    -0.014 A 
BRANCH  48  49
ATOM     49  C   UNL A   1      40.988  27.605  28.369  1.00  0.00     0.031 A 
ATOM     50  C   UNL A   1      41.226  26.195  28.061  1.00  0.00     0.074 A 
ATOM     51  C   UNL A   1      42.180  28.290  28.329  1.00  0.00     0.049 A 
ATOM     52  N   UNL A   1      42.001  25.410  28.739  1.00  0.00    -0.248 NA
ATOM     53  C   UNL A   1      40.687  25.622  26.838  1.00  0.00     0.031 C 
ATOM     54  C   UNL A   1      43.575  27.885  28.052  1.00  0.00     0.029 A 
ATOM     55  N   UNL A   1      42.397  29.632  28.541  1.00  0.00    -0.354 N 
ATOM     56  C   UNL A   1      42.296  24.369  27.885  1.00  0.00     0.074 A 
ATOM     57  C   UNL A   1      41.318  24.445  26.815  1.00  0.00     0.031 C 
ATOM     58  C   UNL A   1      44.430  28.846  28.481  1.00  0.00     0.029 A 
ATOM     59  C   UNL A   1      43.644  29.895  29.101  1.00  0.00     0.049 A 
ATOM     60  H   UNL A   1      41.740  30.331  28.319  1.00  0.00     0.167 HD
ATOM     61  C   UNL A   1      43.495  23.713  27.924  1.00  0.00     0.031 A 
ATOM     62  C   UNL A   1      43.737  30.435  30.364  1.00  0.00     0.031 A 
ATOM     63  C   UNL A   1      44.495  24.416  28.737  1.00  0.00     0.049 A 
ATOM     64  C   UNL A   1      44.281  29.419  31.325  1.00  0.00     0.074 A 
ATOM     65  C   UNL A   1      45.640  25.116  28.381  1.00  0.00     0.029 A 
ATOM     66  N   UNL A   1      44.250  24.733  30.067  1.00  0.00    -0.354 N 
ATOM     67  N   UNL A   1      44.498  28.187  30.984  1.00  0.00    -0.248 NA
ATOM     68  C   UNL A   1      44.570  29.663  32.732  1.00  0.00     0.031 C 
ATOM     69  C   UNL A   1      46.056  25.889  29.493  1.00  0.00     0.029 A 
ATOM     70  C   UNL A   1      45.184  25.641  30.537  1.00  0.00     0.049 A 
ATOM     71  H   UNL A   1      43.513  24.361  30.604  1.00  0.00     0.167 HD
ATOM     72  C   UNL A   1      44.907  27.463  32.056  1.00  0.00     0.074 A 
ATOM     73  C   UNL A   1      44.966  28.439  33.130  1.00  0.00     0.031 C 
ATOM     74  C   UNL A   1      45.138  26.126  31.917  1.00  0.00     0.031 A 
BRANCH  61  75
ATOM     75  C   UNL A   1      43.853  22.625  26.927  1.00  0.00    -0.014 A 
ATOM     76  C   UNL A   1      42.953  21.579  26.642  1.00  0.00     0.010 A 
ATOM     77  C   UNL A   1      45.061  22.619  26.198  1.00  0.00     0.010 A 
ATOM     78  C   UNL A   1      43.274  20.540  25.756  1.00  0.00     0.020 A 
ATOM     79  C   UNL A   1      45.416  21.565  25.342  1.00  0.00     0.020 A 
ATOM     80  C   UNL A   1      44.514  20.529  25.124  1.00  0.00     0.054 A 
BRANCH  80  81
ATOM     81  S   UNL A   1      44.905  19.181  23.979  1.00  0.00     0.124 S 
ATOM     82  O   UNL A   1      44.127  18.069  24.520  1.00  0.00    -0.237 OA
ATOM     83  O   UNL A   1      44.438  19.712  22.701  1.00  0.00    -0.237 OA
ATOM     84  O   UNL A   1      46.355  19.033  24.097  1.00  0.00    -0.744 OA
ENDBRANCH  80  81
ENDBRANCH  61  75
BRANCH  62  85
ATOM     85  C   UNL A   1      42.658  31.444  30.771  1.00  0.00    -0.014 A 
ATOM     86  C   UNL A   1      42.778  31.970  32.061  1.00  0.00     0.010 A 
ATOM     87  C   UNL A   1      42.398  32.391  29.792  1.00  0.00     0.010 A 
ATOM     88  C   UNL A   1      43.338  33.244  32.217  1.00  0.00     0.020 A 
ATOM     89  C   UNL A   1      43.112  33.587  29.962  1.00  0.00     0.020 A 
ATOM     90  C   UNL A   1      43.780  33.926  31.104  1.00  0.00     0.054 A 
BRANCH  90  91
ATOM     91  S   UNL A   1      45.442  35.034  31.028  1.00  0.00     0.124 S 
ATOM     92  O   UNL A   1      46.469  34.066  30.836  1.00  0.00    -0.237 OA
ATOM     93  O   UNL A   1      45.259  35.921  29.885  1.00  0.00    -0.237 OA
ATOM     94  O   UNL A   1      45.638  35.692  32.300  1.00  0.00    -0.744 OA
ENDBRANCH  90  91
ENDBRANCH  62  85
BRANCH  74  95
ATOM     95  C   UNL A   1      45.449  25.160  33.023  1.00  0.00    -0.014 A 
ATOM     96  C   UNL A   1      46.716  24.979  33.590  1.00  0.00     0.010 A 
ATOM     97  C   UNL A   1      44.380  24.421  33.588  1.00  0.00     0.010 A 
ATOM     98  C   UNL A   1      46.923  24.050  34.615  1.00  0.00     0.020 A 
ATOM     99  C   UNL A   1      44.564  23.535  34.646  1.00  0.00     0.020 A 
ATOM    100  C   UNL A   1      45.845  23.331  35.133  1.00  0.00     0.054 A 
BRANCH 100 101
ATOM    101  S   UNL A   1      46.135  22.156  36.470  1.00  0.00     0.124 S 
ATOM    102  O   UNL A   1      47.590  22.028  36.445  1.00  0.00    -0.237 OA
ATOM    103  O   UNL A   1      45.588  22.854  37.632  1.00  0.00    -0.237 OA
ATOM    104  O   UNL A   1      45.394  20.967  36.058  1.00  0.00    -0.744 OA
ENDBRANCH 100 101
ENDBRANCH  74  95
ENDBRANCH  48  49
ENDBRANCH  40  43
ENDBRANCH  38  39
ENDBRANCH  37  38
ENDBRANCH   1  37
TORSDOF 20
ENDMDL
