MODEL 1
REMARK VINA RESULT:     -10.7      0.000      0.000
REMARK SMILES C[NH2+][C@]1(C(=O)NCCCCCCNC(=O)c2ccc(-c3c4nc(c(-c5ccc(S(=O)(=O)[O-])cc5)c5ccc([nH]5)c(-c5ccc(S(=O)(=O)[O-])cc5)c5nc(c(-c6ccc(S(=O)(=O)[O-])cc6)c6ccc3[nH]6)C=C5)C=C4)cc2)CC[C@@H](OCCCc2ccccc2)C1
REMARK SMILES IDX 8 1 7 2 6 3 4 4 5 5 3 7 76 8 89 9 77 10 78 11 2 12 1 13
REMARK SMILES IDX 79 16 80 17 81 18 82 19 83 20 84 21 88 22 85 23 87 24 86 25
REMARK SMILES IDX 9 26 10 27 11 28 12 29 13 30 14 31 15 33 16 34 17 35 75 36
REMARK SMILES IDX 18 37 74 38 19 39 20 40 21 41 68 42 22 43 73 44 67 45 69 46
REMARK SMILES IDX 23 47 72 48 66 49 65 50 24 52 54 53 35 54 53 55 36 56 39 57
REMARK SMILES IDX 52 58 70 59 37 60 38 61 51 63 71 64 40 65 25 66 26 67 34 68
REMARK SMILES IDX 27 69 33 70 28 71 29 72 30 73 31 74 32 75 55 76 56 77 64 78
REMARK SMILES IDX 57 79 63 80 58 81 59 82 60 83 61 84 62 85 41 86 42 87 50 88
REMARK SMILES IDX 43 89 49 90 44 91 45 92 46 93 47 94 48 95
REMARK H PARENT 6 6 2 14 2 15 13 32 69 51 39 62
REMARK Flexibility Score: inf
ROOT
ATOM      1  C   UNL A   1      36.558  22.500  25.995  1.00  0.00     0.021 C 
ENDROOT
BRANCH   1   2
ATOM      2  C   UNL A   1      36.357  23.971  25.633  1.00  0.00     0.116 C 
BRANCH   2   3
ATOM      3  N   UNL A   1      35.523  24.080  24.269  1.00  0.00    -0.351 N 
ATOM      4  C   UNL A   1      34.000  24.886  23.337  1.00  0.00     0.281 C 
ATOM      5  O   UNL A   1      33.777  24.837  22.074  1.00  0.00    -0.268 OA
ATOM      6  H   UNL A   1      35.968  23.487  23.619  1.00  0.00     0.163 HD
BRANCH   4   7
ATOM      7  C   UNL A   1      32.505  25.823  23.951  1.00  0.00     0.177 C 
ATOM      8  C   UNL A   1      31.059  25.613  23.362  1.00  0.00     0.082 C 
ATOM      9  C   UNL A   1      32.300  25.990  25.492  1.00  0.00     0.111 C 
ATOM     10  C   UNL A   1      30.064  25.847  24.502  1.00  0.00     0.039 C 
ATOM     11  C   UNL A   1      30.827  25.733  25.817  1.00  0.00     0.125 C 
BRANCH   7  12
ATOM     12  N   UNL A   1      32.698  27.256  23.381  1.00  0.00    -0.336 N 
ATOM     13  C   UNL A   1      32.914  28.361  24.299  1.00  0.00     0.331 C 
ATOM     14  H   UNL A   1      33.505  27.222  22.759  1.00  0.00     0.346 HD
ATOM     15  H   UNL A   1      31.798  27.469  22.953  1.00  0.00     0.346 HD
ENDBRANCH   7  12
BRANCH  11  16
ATOM     16  O   UNL A   1      30.373  24.596  26.538  1.00  0.00    -0.378 OA
BRANCH  16  17
ATOM     17  C   UNL A   1      31.219  23.503  26.822  1.00  0.00     0.161 C 
BRANCH  17  18
ATOM     18  C   UNL A   1      31.241  22.486  25.692  1.00  0.00     0.033 C 
BRANCH  18  19
ATOM     19  C   UNL A   1      32.498  21.632  25.566  1.00  0.00     0.038 C 
BRANCH  19  20
ATOM     20  C   UNL A   1      32.397  20.269  24.872  1.00  0.00    -0.048 A 
ATOM     21  C   UNL A   1      32.162  20.088  23.049  1.00  0.00     0.004 A 
ATOM     22  C   UNL A   1      32.960  18.794  25.831  1.00  0.00     0.004 A 
ATOM     23  C   UNL A   1      32.525  18.502  22.222  1.00  0.00     0.000 A 
ATOM     24  C   UNL A   1      33.326  17.218  24.981  1.00  0.00     0.000 A 
ATOM     25  C   UNL A   1      33.133  17.065  23.163  1.00  0.00     0.000 A 
ENDBRANCH  19  20
ENDBRANCH  18  19
ENDBRANCH  17  18
ENDBRANCH  16  17
ENDBRANCH  11  16
ENDBRANCH   4   7
ENDBRANCH   2   3
ENDBRANCH   1   2
BRANCH   1  26
ATOM     26  C   UNL A   1      37.862  21.941  25.425  1.00  0.00     0.002 C 
BRANCH  26  27
ATOM     27  C   UNL A   1      37.712  20.562  24.773  1.00  0.00     0.002 C 
BRANCH  27  28
ATOM     28  C   UNL A   1      38.622  19.490  25.377  1.00  0.00     0.021 C 
BRANCH  28  29
ATOM     29  C   UNL A   1      39.884  20.062  26.002  1.00  0.00     0.116 C 
BRANCH  29  30
ATOM     30  N   UNL A   1      40.900  19.036  26.139  1.00  0.00    -0.352 N 
ATOM     31  C   UNL A   1      42.256  19.210  26.134  1.00  0.00     0.251 C 
ATOM     32  H   UNL A   1      40.578  18.112  26.246  1.00  0.00     0.163 HD
ATOM     33  O   UNL A   1      43.016  18.268  25.948  1.00  0.00    -0.269 OA
BRANCH  31  34
ATOM     34  C   UNL A   1      42.763  20.573  26.357  1.00  0.00     0.039 A 
ATOM     35  C   UNL A   1      43.184  21.328  25.266  1.00  0.00     0.014 A 
ATOM     36  C   UNL A   1      42.745  21.111  27.650  1.00  0.00     0.014 A 
ATOM     37  C   UNL A   1      43.582  22.645  25.473  1.00  0.00     0.010 A 
ATOM     38  C   UNL A   1      43.052  22.450  27.837  1.00  0.00     0.010 A 
ATOM     39  C   UNL A   1      43.502  23.218  26.755  1.00  0.00    -0.014 A 
BRANCH  39  40
ATOM     40  C   UNL A   1      43.933  24.615  26.988  1.00  0.00     0.031 A 
ATOM     41  C   UNL A   1      45.381  24.983  26.817  1.00  0.00     0.074 A 
ATOM     42  C   UNL A   1      43.028  25.533  27.376  1.00  0.00     0.049 A 
ATOM     43  N   UNL A   1      45.957  26.145  26.978  1.00  0.00    -0.248 NA
ATOM     44  C   UNL A   1      46.308  23.902  26.439  1.00  0.00     0.031 C 
ATOM     45  C   UNL A   1      41.603  25.275  27.607  1.00  0.00     0.029 A 
ATOM     46  N   UNL A   1      43.170  26.871  27.637  1.00  0.00    -0.354 N 
ATOM     47  C   UNL A   1      47.308  25.932  26.732  1.00  0.00     0.074 A 
ATOM     48  C   UNL A   1      47.478  24.520  26.476  1.00  0.00     0.031 C 
ATOM     49  C   UNL A   1      40.996  26.427  27.933  1.00  0.00     0.029 A 
ATOM     50  C   UNL A   1      41.993  27.492  27.981  1.00  0.00     0.049 A 
ATOM     51  H   UNL A   1      44.032  27.342  27.583  1.00  0.00     0.167 HD
ATOM     52  C   UNL A   1      48.313  26.837  26.696  1.00  0.00     0.031 A 
ATOM     53  C   UNL A   1      41.747  28.777  28.302  1.00  0.00     0.031 A 
ATOM     54  C   UNL A   1      48.131  28.241  26.948  1.00  0.00     0.049 A 
ATOM     55  C   UNL A   1      42.888  29.758  28.286  1.00  0.00     0.074 A 
ATOM     56  C   UNL A   1      49.072  29.253  26.893  1.00  0.00     0.029 A 
ATOM     57  N   UNL A   1      46.927  28.829  27.309  1.00  0.00    -0.354 N 
ATOM     58  N   UNL A   1      44.148  29.551  27.984  1.00  0.00    -0.248 NA
ATOM     59  C   UNL A   1      42.570  31.147  28.640  1.00  0.00     0.031 C 
ATOM     60  C   UNL A   1      48.452  30.443  27.287  1.00  0.00     0.029 A 
ATOM     61  C   UNL A   1      47.107  30.187  27.510  1.00  0.00     0.049 A 
ATOM     62  H   UNL A   1      46.072  28.352  27.405  1.00  0.00     0.167 HD
ATOM     63  C   UNL A   1      44.769  30.792  28.082  1.00  0.00     0.074 A 
ATOM     64  C   UNL A   1      43.740  31.743  28.453  1.00  0.00     0.031 C 
ATOM     65  C   UNL A   1      46.071  31.116  27.882  1.00  0.00     0.031 A 
BRANCH  52  66
ATOM     66  C   UNL A   1      49.698  26.332  26.383  1.00  0.00    -0.014 A 
ATOM     67  C   UNL A   1      50.492  25.714  27.368  1.00  0.00     0.010 A 
ATOM     68  C   UNL A   1      50.199  26.439  25.073  1.00  0.00     0.010 A 
ATOM     69  C   UNL A   1      51.773  25.250  27.059  1.00  0.00     0.020 A 
ATOM     70  C   UNL A   1      51.466  25.945  24.751  1.00  0.00     0.020 A 
ATOM     71  C   UNL A   1      52.251  25.367  25.751  1.00  0.00     0.054 A 
BRANCH  71  72
ATOM     72  S   UNL A   1      53.903  24.723  25.372  1.00  0.00     0.124 S 
ATOM     73  O   UNL A   1      54.318  25.588  24.270  1.00  0.00    -0.237 OA
ATOM     74  O   UNL A   1      54.618  24.921  26.630  1.00  0.00    -0.237 OA
ATOM     75  O   UNL A   1      53.659  23.328  25.009  1.00  0.00    -0.744 OA
ENDBRANCH  71  72
ENDBRANCH  52  66
BRANCH  53  76
ATOM     76  C   UNL A   1      40.365  29.206  28.654  1.00  0.00    -0.014 A 
ATOM     77  C   UNL A   1      39.385  29.359  27.658  1.00  0.00     0.010 A 
ATOM     78  C   UNL A   1      40.019  29.455  29.995  1.00  0.00     0.010 A 
ATOM     79  C   UNL A   1      38.093  29.776  27.992  1.00  0.00     0.020 A 
ATOM     80  C   UNL A   1      38.721  29.839  30.338  1.00  0.00     0.020 A 
ATOM     81  C   UNL A   1      37.768  30.009  29.332  1.00  0.00     0.054 A 
BRANCH  81  82
ATOM     82  S   UNL A   1      36.074  30.506  29.746  1.00  0.00     0.124 S 
ATOM     83  O   UNL A   1      35.307  29.914  28.654  1.00  0.00    -0.237 OA
ATOM     84  O   UNL A   1      35.881  29.898  31.060  1.00  0.00    -0.237 OA
ATOM     85  O   UNL A   1      36.137  31.966  29.746  1.00  0.00    -0.744 OA
ENDBRANCH  81  82
ENDBRANCH  53  76
BRANCH  65  86
ATOM     86  C   UNL A   1      46.452  32.566  28.019  1.00  0.00    -0.014 A 
ATOM     87  C   UNL A   1      46.380  33.450  26.929  1.00  0.00     0.010 A 
ATOM     88  C   UNL A   1      46.833  33.062  29.280  1.00  0.00     0.010 A 
ATOM     89  C   UNL A   1      46.715  34.797  27.089  1.00  0.00     0.020 A 
ATOM     90  C   UNL A   1      47.133  34.415  29.452  1.00  0.00     0.020 A 
ATOM     91  C   UNL A   1      47.087  35.271  28.352  1.00  0.00     0.054 A 
BRANCH  91  92
ATOM     92  S   UNL A   1      47.472  37.032  28.541  1.00  0.00     0.124 S 
ATOM     93  O   UNL A   1      46.879  37.335  29.840  1.00  0.00    -0.237 OA
ATOM     94  O   UNL A   1      48.932  37.045  28.498  1.00  0.00    -0.237 OA
ATOM     95  O   UNL A   1      46.816  37.658  27.395  1.00  0.00    -0.744 OA
ENDBRANCH  91  92
ENDBRANCH  65  86
ENDBRANCH  39  40
ENDBRANCH  31  34
ENDBRANCH  29  30
ENDBRANCH  28  29
ENDBRANCH  27  28
ENDBRANCH  26  27
ENDBRANCH   1  26
TORSDOF 22
ENDMDL
MODEL 2
REMARK VINA RESULT:     -10.0      1.725      3.778
REMARK SMILES C[NH2+][C@]1(C(=O)NCCCCCCNC(=O)c2ccc(-c3c4nc(c(-c5ccc(S(=O)(=O)[O-])cc5)c5ccc([nH]5)c(-c5ccc(S(=O)(=O)[O-])cc5)c5nc(c(-c6ccc(S(=O)(=O)[O-])cc6)c6ccc3[nH]6)C=C5)C=C4)cc2)CC[C@@H](OCCCc2ccccc2)C1
REMARK SMILES IDX 8 1 7 2 6 3 4 4 5 5 3 7 76 8 89 9 77 10 78 11 2 12 1 13
REMARK SMILES IDX 79 16 80 17 81 18 82 19 83 20 84 21 88 22 85 23 87 24 86 25
REMARK SMILES IDX 9 26 10 27 11 28 12 29 13 30 14 31 15 33 16 34 17 35 75 36
REMARK SMILES IDX 18 37 74 38 19 39 20 40 21 41 68 42 22 43 73 44 67 45 69 46
REMARK SMILES IDX 23 47 72 48 66 49 65 50 24 52 54 53 35 54 53 55 36 56 39 57
REMARK SMILES IDX 52 58 70 59 37 60 38 61 51 63 71 64 40 65 25 66 26 67 34 68
REMARK SMILES IDX 27 69 33 70 28 71 29 72 30 73 31 74 32 75 55 76 56 77 64 78
REMARK SMILES IDX 57 79 63 80 58 81 59 82 60 83 61 84 62 85 41 86 42 87 50 88
REMARK SMILES IDX 43 89 49 90 44 91 45 92 46 93 47 94 48 95
REMARK H PARENT 6 6 2 14 2 15 13 32 69 51 39 62
REMARK Flexibility Score: inf
ROOT
ATOM      1  C   UNL A   1      39.038  22.438  26.493  1.00  0.00     0.021 C 
ENDROOT
BRANCH   1   2
ATOM      2  C   UNL A   1      38.334  23.753  26.158  1.00  0.00     0.116 C 
BRANCH   2   3
ATOM      3  N   UNL A   1      36.799  23.671  26.613  1.00  0.00    -0.351 N 
ATOM      4  C   UNL A   1      35.001  23.009  26.206  1.00  0.00     0.281 C 
ATOM      5  O   UNL A   1      33.997  23.014  27.005  1.00  0.00    -0.268 OA
ATOM      6  H   UNL A   1      36.731  24.167  27.461  1.00  0.00     0.163 HD
BRANCH   4   7
ATOM      7  C   UNL A   1      34.245  22.300  24.651  1.00  0.00     0.177 C 
ATOM      8  C   UNL A   1      32.691  22.152  24.443  1.00  0.00     0.082 C 
ATOM      9  C   UNL A   1      34.803  22.759  23.264  1.00  0.00     0.111 C 
ATOM     10  C   UNL A   1      32.412  22.332  22.948  1.00  0.00     0.039 C 
ATOM     11  C   UNL A   1      33.621  23.023  22.329  1.00  0.00     0.125 C 
BRANCH   7  12
ATOM     12  N   UNL A   1      34.534  20.777  24.753  1.00  0.00    -0.336 N 
ATOM     13  C   UNL A   1      33.476  19.881  25.190  1.00  0.00     0.331 C 
ATOM     14  H   UNL A   1      34.825  20.466  23.827  1.00  0.00     0.346 HD
ATOM     15  H   UNL A   1      35.228  20.712  25.498  1.00  0.00     0.346 HD
ENDBRANCH   7  12
BRANCH  11  16
ATOM     16  O   UNL A   1      33.256  24.320  21.879  1.00  0.00    -0.378 OA
BRANCH  16  17
ATOM     17  C   UNL A   1      32.185  25.038  22.453  1.00  0.00     0.161 C 
BRANCH  17  18
ATOM     18  C   UNL A   1      31.953  26.372  21.763  1.00  0.00     0.033 C 
BRANCH  18  19
ATOM     19  C   UNL A   1      31.579  27.549  22.658  1.00  0.00     0.038 C 
BRANCH  19  20
ATOM     20  C   UNL A   1      32.180  27.623  24.067  1.00  0.00    -0.048 A 
ATOM     21  C   UNL A   1      33.797  28.440  24.425  1.00  0.00     0.004 A 
ATOM     22  C   UNL A   1      31.047  27.271  25.482  1.00  0.00     0.004 A 
ATOM     23  C   UNL A   1      34.232  28.924  26.129  1.00  0.00     0.000 A 
ATOM     24  C   UNL A   1      31.499  27.773  27.180  1.00  0.00     0.000 A 
ATOM     25  C   UNL A   1      33.089  28.625  27.516  1.00  0.00     0.000 A 
ENDBRANCH  19  20
ENDBRANCH  18  19
ENDBRANCH  17  18
ENDBRANCH  16  17
ENDBRANCH  11  16
ENDBRANCH   4   7
ENDBRANCH   2   3
ENDBRANCH   1   2
BRANCH   1  26
ATOM     26  C   UNL A   1      40.490  22.656  26.918  1.00  0.00     0.002 C 
BRANCH  26  27
ATOM     27  C   UNL A   1      40.973  21.682  27.998  1.00  0.00     0.002 C 
BRANCH  27  28
ATOM     28  C   UNL A   1      41.266  20.274  27.476  1.00  0.00     0.021 C 
BRANCH  28  29
ATOM     29  C   UNL A   1      41.195  20.174  25.960  1.00  0.00     0.116 C 
BRANCH  29  30
ATOM     30  N   UNL A   1      42.360  19.488  25.435  1.00  0.00    -0.352 N 
ATOM     31  C   UNL A   1      43.539  20.050  25.035  1.00  0.00     0.251 C 
ATOM     32  H   UNL A   1      42.293  18.509  25.357  1.00  0.00     0.163 HD
ATOM     33  O   UNL A   1      44.330  19.434  24.332  1.00  0.00    -0.269 OA
BRANCH  31  34
ATOM     34  C   UNL A   1      43.817  21.425  25.479  1.00  0.00     0.039 A 
ATOM     35  C   UNL A   1      44.457  21.629  26.698  1.00  0.00     0.014 A 
ATOM     36  C   UNL A   1      43.498  22.498  24.637  1.00  0.00     0.014 A 
ATOM     37  C   UNL A   1      44.793  22.927  27.071  1.00  0.00     0.010 A 
ATOM     38  C   UNL A   1      43.918  23.776  24.969  1.00  0.00     0.010 A 
ATOM     39  C   UNL A   1      44.541  24.004  26.203  1.00  0.00    -0.014 A 
BRANCH  39  40
ATOM     40  C   UNL A   1      44.884  25.389  26.596  1.00  0.00     0.031 A 
ATOM     41  C   UNL A   1      46.285  25.894  26.384  1.00  0.00     0.074 A 
ATOM     42  C   UNL A   1      43.946  26.171  27.163  1.00  0.00     0.049 A 
ATOM     43  N   UNL A   1      46.786  27.069  26.665  1.00  0.00    -0.248 NA
ATOM     44  C   UNL A   1      47.258  24.952  25.803  1.00  0.00     0.031 C 
ATOM     45  C   UNL A   1      42.566  25.769  27.448  1.00  0.00     0.029 A 
ATOM     46  N   UNL A   1      44.009  27.470  27.594  1.00  0.00    -0.354 N 
ATOM     47  C   UNL A   1      48.126  27.002  26.306  1.00  0.00     0.074 A 
ATOM     48  C   UNL A   1      48.379  25.654  25.850  1.00  0.00     0.031 C 
ATOM     49  C   UNL A   1      41.902  26.815  27.965  1.00  0.00     0.029 A 
ATOM     50  C   UNL A   1      42.819  27.943  28.094  1.00  0.00     0.049 A 
ATOM     51  H   UNL A   1      44.829  28.014  27.549  1.00  0.00     0.167 HD
ATOM     52  C   UNL A   1      49.057  27.983  26.329  1.00  0.00     0.031 A 
ATOM     53  C   UNL A   1      42.505  29.150  28.602  1.00  0.00     0.031 A 
ATOM     54  C   UNL A   1      48.792  29.322  26.781  1.00  0.00     0.049 A 
ATOM     55  C   UNL A   1      43.567  30.215  28.646  1.00  0.00     0.074 A 
ATOM     56  C   UNL A   1      49.650  30.406  26.805  1.00  0.00     0.029 A 
ATOM     57  N   UNL A   1      47.579  29.757  27.295  1.00  0.00    -0.354 N 
ATOM     58  N   UNL A   1      44.812  30.154  28.239  1.00  0.00    -0.248 NA
ATOM     59  C   UNL A   1      43.176  31.515  29.206  1.00  0.00     0.031 C 
ATOM     60  C   UNL A   1      48.977  31.479  27.396  1.00  0.00     0.029 A 
ATOM     61  C   UNL A   1      47.674  31.087  27.667  1.00  0.00     0.049 A 
ATOM     62  H   UNL A   1      46.770  29.203  27.381  1.00  0.00     0.167 HD
ATOM     63  C   UNL A   1      45.347  31.417  28.466  1.00  0.00     0.074 A 
ATOM     64  C   UNL A   1      44.282  32.224  29.027  1.00  0.00     0.031 C 
ATOM     65  C   UNL A   1      46.603  31.871  28.228  1.00  0.00     0.031 A 
BRANCH  52  66
ATOM     66  C   UNL A   1      50.448  27.638  25.862  1.00  0.00    -0.014 A 
ATOM     67  C   UNL A   1      50.832  27.810  24.519  1.00  0.00     0.010 A 
ATOM     68  C   UNL A   1      51.399  27.175  26.789  1.00  0.00     0.010 A 
ATOM     69  C   UNL A   1      52.127  27.487  24.105  1.00  0.00     0.020 A 
ATOM     70  C   UNL A   1      52.705  26.883  26.386  1.00  0.00     0.020 A 
ATOM     71  C   UNL A   1      53.056  27.028  25.042  1.00  0.00     0.054 A 
BRANCH  71  72
ATOM     72  S   UNL A   1      54.739  26.651  24.481  1.00  0.00     0.124 S 
ATOM     73  O   UNL A   1      54.589  26.702  23.028  1.00  0.00    -0.237 OA
ATOM     74  O   UNL A   1      55.521  27.734  25.070  1.00  0.00    -0.237 OA
ATOM     75  O   UNL A   1      55.001  25.323  25.032  1.00  0.00    -0.744 OA
ENDBRANCH  71  72
ENDBRANCH  52  66
BRANCH  53  76
ATOM     76  C   UNL A   1      41.126  29.414  29.097  1.00  0.00    -0.014 A 
ATOM     77  C   UNL A   1      40.066  29.620  28.196  1.00  0.00     0.010 A 
ATOM     78  C   UNL A   1      40.863  29.452  30.479  1.00  0.00     0.010 A 
ATOM     79  C   UNL A   1      38.776  29.882  28.666  1.00  0.00     0.020 A 
ATOM     80  C   UNL A   1      39.569  29.679  30.954  1.00  0.00     0.020 A 
ATOM     81  C   UNL A   1      38.535  29.906  30.043  1.00  0.00     0.054 A 
BRANCH  81  82
ATOM     82  S   UNL A   1      36.845  30.204  30.629  1.00  0.00     0.124 S 
ATOM     83  O   UNL A   1      36.910  31.599  31.053  1.00  0.00    -0.237 OA
ATOM     84  O   UNL A   1      36.048  29.940  29.434  1.00  0.00    -0.237 OA
ATOM     85  O   UNL A   1      36.680  29.230  31.706  1.00  0.00    -0.744 OA
ENDBRANCH  81  82
ENDBRANCH  53  76
BRANCH  65  86
ATOM     86  C   UNL A   1      46.887  33.317  28.537  1.00  0.00    -0.014 A 
ATOM     87  C   UNL A   1      46.659  34.329  27.588  1.00  0.00     0.010 A 
ATOM     88  C   UNL A   1      47.335  33.672  29.823  1.00  0.00     0.010 A 
ATOM     89  C   UNL A   1      46.906  35.666  27.908  1.00  0.00     0.020 A 
ATOM     90  C   UNL A   1      47.549  35.011  30.159  1.00  0.00     0.020 A 
ATOM     91  C   UNL A   1      47.347  35.998  29.194  1.00  0.00     0.054 A 
BRANCH  91  92
ATOM     92  S   UNL A   1      47.617  37.745  29.597  1.00  0.00     0.124 S 
ATOM     93  O   UNL A   1      47.147  38.412  28.386  1.00  0.00    -0.237 OA
ATOM     94  O   UNL A   1      46.782  37.931  30.781  1.00  0.00    -0.237 OA
ATOM     95  O   UNL A   1      49.055  37.829  29.836  1.00  0.00    -0.744 OA
ENDBRANCH  91  92
ENDBRANCH  65  86
ENDBRANCH  39  40
ENDBRANCH  31  34
ENDBRANCH  29  30
ENDBRANCH  28  29
ENDBRANCH  27  28
ENDBRANCH  26  27
ENDBRANCH   1  26
TORSDOF 22
ENDMDL
MODEL 3
REMARK VINA RESULT:      -9.9      0.865      8.136
REMARK SMILES C[NH2+][C@]1(C(=O)NCCCCCCNC(=O)c2ccc(-c3c4nc(c(-c5ccc(S(=O)(=O)[O-])cc5)c5ccc([nH]5)c(-c5ccc(S(=O)(=O)[O-])cc5)c5nc(c(-c6ccc(S(=O)(=O)[O-])cc6)c6ccc3[nH]6)C=C5)C=C4)cc2)CC[C@@H](OCCCc2ccccc2)C1
REMARK SMILES IDX 8 1 7 2 6 3 4 4 5 5 3 7 76 8 89 9 77 10 78 11 2 12 1 13
REMARK SMILES IDX 79 16 80 17 81 18 82 19 83 20 84 21 88 22 85 23 87 24 86 25
REMARK SMILES IDX 9 26 10 27 11 28 12 29 13 30 14 31 15 33 16 34 17 35 75 36
REMARK SMILES IDX 18 37 74 38 19 39 20 40 21 41 68 42 22 43 73 44 67 45 69 46
REMARK SMILES IDX 23 47 72 48 66 49 65 50 24 52 54 53 35 54 53 55 36 56 39 57
REMARK SMILES IDX 52 58 70 59 37 60 38 61 51 63 71 64 40 65 25 66 26 67 34 68
REMARK SMILES IDX 27 69 33 70 28 71 29 72 30 73 31 74 32 75 55 76 56 77 64 78
REMARK SMILES IDX 57 79 63 80 58 81 59 82 60 83 61 84 62 85 41 86 42 87 50 88
REMARK SMILES IDX 43 89 49 90 44 91 45 92 46 93 47 94 48 95
REMARK H PARENT 6 6 2 14 2 15 13 32 69 51 39 62
REMARK Flexibility Score: inf
ROOT
ATOM      1  C   UNL A   1      35.837  22.155  24.845  1.00  0.00     0.021 C 
ENDROOT
BRANCH   1   2
ATOM      2  C   UNL A   1      35.744  23.668  25.037  1.00  0.00     0.116 C 
BRANCH   2   3
ATOM      3  N   UNL A   1      35.057  24.332  23.751  1.00  0.00    -0.351 N 
ATOM      4  C   UNL A   1      33.675  25.544  23.070  1.00  0.00     0.281 C 
ATOM      5  O   UNL A   1      33.578  25.975  21.866  1.00  0.00    -0.268 OA
ATOM      6  H   UNL A   1      35.535  23.982  22.964  1.00  0.00     0.163 HD
BRANCH   4   7
ATOM      7  C   UNL A   1      32.174  26.313  23.872  1.00  0.00     0.177 C 
ATOM      8  C   UNL A   1      30.706  26.069  23.357  1.00  0.00     0.082 C 
ATOM      9  C   UNL A   1      32.067  26.309  25.433  1.00  0.00     0.111 C 
ATOM     10  C   UNL A   1      29.780  26.119  24.576  1.00  0.00     0.039 C 
ATOM     11  C   UNL A   1      30.638  25.924  25.821  1.00  0.00     0.125 C 
BRANCH   7  12
ATOM     12  N   UNL A   1      32.242  27.805  23.445  1.00  0.00    -0.336 N 
ATOM     13  C   UNL A   1      33.228  28.676  24.063  1.00  0.00     0.331 C 
ATOM     14  H   UNL A   1      32.418  27.820  22.442  1.00  0.00     0.346 HD
ATOM     15  H   UNL A   1      31.351  28.187  23.761  1.00  0.00     0.346 HD
ENDBRANCH   7  12
BRANCH  11  16
ATOM     16  O   UNL A   1      30.304  24.691  26.445  1.00  0.00    -0.378 OA
BRANCH  16  17
ATOM     17  C   UNL A   1      31.241  23.648  26.593  1.00  0.00     0.161 C 
BRANCH  17  18
ATOM     18  C   UNL A   1      31.105  22.595  25.506  1.00  0.00     0.033 C 
BRANCH  18  19
ATOM     19  C   UNL A   1      32.391  21.917  25.045  1.00  0.00     0.038 C 
BRANCH  19  20
ATOM     20  C   UNL A   1      32.323  20.468  24.547  1.00  0.00    -0.048 A 
ATOM     21  C   UNL A   1      32.140  20.031  22.763  1.00  0.00     0.004 A 
ATOM     22  C   UNL A   1      32.875  19.151  25.717  1.00  0.00     0.004 A 
ATOM     23  C   UNL A   1      32.542  18.350  22.175  1.00  0.00     0.000 A 
ATOM     24  C   UNL A   1      33.280  17.477  25.106  1.00  0.00     0.000 A 
ATOM     25  C   UNL A   1      33.139  17.068  23.323  1.00  0.00     0.000 A 
ENDBRANCH  19  20
ENDBRANCH  18  19
ENDBRANCH  17  18
ENDBRANCH  16  17
ENDBRANCH  11  16
ENDBRANCH   4   7
ENDBRANCH   2   3
ENDBRANCH   1   2
BRANCH   1  26
ATOM     26  C   UNL A   1      37.119  21.746  24.119  1.00  0.00     0.002 C 
BRANCH  26  27
ATOM     27  C   UNL A   1      37.501  20.275  24.317  1.00  0.00     0.002 C 
BRANCH  27  28
ATOM     28  C   UNL A   1      38.078  19.966  25.700  1.00  0.00     0.021 C 
BRANCH  28  29
ATOM     29  C   UNL A   1      39.457  20.568  25.919  1.00  0.00     0.116 C 
BRANCH  29  30
ATOM     30  N   UNL A   1      40.439  19.528  26.163  1.00  0.00    -0.352 N 
ATOM     31  C   UNL A   1      41.788  19.684  26.313  1.00  0.00     0.251 C 
ATOM     32  H   UNL A   1      40.095  18.608  26.226  1.00  0.00     0.163 HD
ATOM     33  O   UNL A   1      42.552  18.734  26.207  1.00  0.00    -0.269 OA
BRANCH  31  34
ATOM     34  C   UNL A   1      42.283  21.039  26.601  1.00  0.00     0.039 A 
ATOM     35  C   UNL A   1      42.507  21.415  27.923  1.00  0.00     0.014 A 
ATOM     36  C   UNL A   1      42.588  21.901  25.539  1.00  0.00     0.014 A 
ATOM     37  C   UNL A   1      43.056  22.667  28.182  1.00  0.00     0.010 A 
ATOM     38  C   UNL A   1      43.220  23.107  25.797  1.00  0.00     0.010 A 
ATOM     39  C   UNL A   1      43.430  23.512  27.122  1.00  0.00    -0.014 A 
BRANCH  39  40
ATOM     40  C   UNL A   1      44.005  24.850  27.387  1.00  0.00     0.031 A 
ATOM     41  C   UNL A   1      43.111  25.959  27.869  1.00  0.00     0.074 A 
ATOM     42  C   UNL A   1      45.316  25.065  27.169  1.00  0.00     0.049 A 
ATOM     43  N   UNL A   1      43.418  27.198  28.152  1.00  0.00    -0.248 NA
ATOM     44  C   UNL A   1      41.680  25.645  28.033  1.00  0.00     0.031 C 
ATOM     45  C   UNL A   1      46.267  24.069  26.667  1.00  0.00     0.029 A 
ATOM     46  N   UNL A   1      46.077  26.190  27.348  1.00  0.00    -0.354 N 
ATOM     47  C   UNL A   1      42.224  27.808  28.515  1.00  0.00     0.074 A 
ATOM     48  C   UNL A   1      41.177  26.826  28.354  1.00  0.00     0.031 C 
ATOM     49  C   UNL A   1      47.492  24.616  26.621  1.00  0.00     0.029 A 
ATOM     50  C   UNL A   1      47.406  26.011  27.042  1.00  0.00     0.049 A 
ATOM     51  H   UNL A   1      45.708  27.045  27.666  1.00  0.00     0.167 HD
ATOM     52  C   UNL A   1      42.022  29.067  28.968  1.00  0.00     0.031 A 
ATOM     53  C   UNL A   1      48.436  26.876  27.093  1.00  0.00     0.031 A 
ATOM     54  C   UNL A   1      43.074  30.034  29.129  1.00  0.00     0.049 A 
ATOM     55  C   UNL A   1      48.180  28.279  27.570  1.00  0.00     0.074 A 
ATOM     56  C   UNL A   1      42.988  31.323  29.623  1.00  0.00     0.029 A 
ATOM     57  N   UNL A   1      44.403  29.819  28.794  1.00  0.00    -0.354 N 
ATOM     58  N   UNL A   1      47.055  28.820  27.974  1.00  0.00    -0.248 NA
ATOM     59  C   UNL A   1      49.335  29.185  27.611  1.00  0.00     0.031 C 
ATOM     60  C   UNL A   1      44.252  31.911  29.523  1.00  0.00     0.029 A 
ATOM     61  C   UNL A   1      45.143  30.963  29.041  1.00  0.00     0.049 A 
ATOM     62  H   UNL A   1      44.767  28.978  28.434  1.00  0.00     0.167 HD
ATOM     63  C   UNL A   1      47.372  30.121  28.346  1.00  0.00     0.074 A 
ATOM     64  C   UNL A   1      48.798  30.277  28.136  1.00  0.00     0.031 C 
ATOM     65  C   UNL A   1      46.561  31.099  28.822  1.00  0.00     0.031 A 
BRANCH  52  66
ATOM     66  C   UNL A   1      40.611  29.469  29.310  1.00  0.00    -0.014 A 
ATOM     67  C   UNL A   1      39.746  30.002  28.337  1.00  0.00     0.010 A 
ATOM     68  C   UNL A   1      40.128  29.272  30.617  1.00  0.00     0.010 A 
ATOM     69  C   UNL A   1      38.439  30.367  28.672  1.00  0.00     0.020 A 
ATOM     70  C   UNL A   1      38.811  29.604  30.949  1.00  0.00     0.020 A 
ATOM     71  C   UNL A   1      37.980  30.164  29.977  1.00  0.00     0.054 A 
BRANCH  71  72
ATOM     72  S   UNL A   1      36.269  30.614  30.372  1.00  0.00     0.124 S 
ATOM     73  O   UNL A   1      35.941  29.656  31.425  1.00  0.00    -0.237 OA
ATOM     74  O   UNL A   1      36.397  32.003  30.804  1.00  0.00    -0.237 OA
ATOM     75  O   UNL A   1      35.557  30.418  29.111  1.00  0.00    -0.744 OA
ENDBRANCH  71  72
ENDBRANCH  52  66
BRANCH  53  76
ATOM     76  C   UNL A   1      49.800  26.434  26.691  1.00  0.00    -0.014 A 
ATOM     77  C   UNL A   1      50.723  25.986  27.653  1.00  0.00     0.010 A 
ATOM     78  C   UNL A   1      50.182  26.451  25.337  1.00  0.00     0.010 A 
ATOM     79  C   UNL A   1      52.007  25.586  27.273  1.00  0.00     0.020 A 
ATOM     80  C   UNL A   1      51.452  26.020  24.947  1.00  0.00     0.020 A 
ATOM     81  C   UNL A   1      52.362  25.602  25.920  1.00  0.00     0.054 A 
BRANCH  81  82
ATOM     82  S   UNL A   1      54.019  25.036  25.446  1.00  0.00     0.124 S 
ATOM     83  O   UNL A   1      53.722  23.823  24.691  1.00  0.00    -0.237 OA
ATOM     84  O   UNL A   1      54.522  26.163  24.664  1.00  0.00    -0.237 OA
ATOM     85  O   UNL A   1      54.689  24.828  26.727  1.00  0.00    -0.744 OA
ENDBRANCH  81  82
ENDBRANCH  53  76
BRANCH  65  86
ATOM     86  C   UNL A   1      47.198  32.413  29.186  1.00  0.00    -0.014 A 
ATOM     87  C   UNL A   1      47.288  33.467  28.260  1.00  0.00     0.010 A 
ATOM     88  C   UNL A   1      47.662  32.613  30.500  1.00  0.00     0.010 A 
ATOM     89  C   UNL A   1      47.861  34.686  28.631  1.00  0.00     0.020 A 
ATOM     90  C   UNL A   1      48.203  33.842  30.885  1.00  0.00     0.020 A 
ATOM     91  C   UNL A   1      48.313  34.866  29.943  1.00  0.00     0.054 A 
BRANCH  91  92
ATOM     92  S   UNL A   1      49.011  36.472  30.410  1.00  0.00     0.124 S 
ATOM     93  O   UNL A   1      47.981  37.005  31.297  1.00  0.00    -0.237 OA
ATOM     94  O   UNL A   1      50.266  36.098  31.056  1.00  0.00    -0.237 OA
ATOM     95  O   UNL A   1      49.158  37.172  29.135  1.00  0.00    -0.744 OA
ENDBRANCH  91  92
ENDBRANCH  65  86
ENDBRANCH  39  40
ENDBRANCH  31  34
ENDBRANCH  29  30
ENDBRANCH  28  29
ENDBRANCH  27  28
ENDBRANCH  26  27
ENDBRANCH   1  26
TORSDOF 22
ENDMDL
