MODEL 1
REMARK VINA RESULT:     -10.2      0.000      0.000
REMARK SMILES CCC[NH2+][C@]1(C(=O)NCCCCCCNC(=O)c2ccc(-c3c4nc(c(-c5ccc(S(=O)(=O)[O-])cc5)c5ccc([nH]5)c(-c5ccc(S(=O)(=O)[O-])cc5)c5nc(c(-c6ccc(S(=O)(=O)[O-])cc6)c6ccc3[nH]6)C=C5)C=C4)cc2)CCC[C@@H]([N@@H+](C)[C@@H](C)C2CC2)C1
REMARK SMILES IDX 11 1 10 2 9 3 8 4 6 5 7 6 5 8 78 9 89 10 79 11 81 12 80 13
REMARK SMILES IDX 4 14 3 17 2 18 1 19 82 20 83 21 84 23 85 24 86 25 87 26
REMARK SMILES IDX 88 27 12 28 13 29 14 30 15 31 16 32 17 34 18 35 19 36 77 37
REMARK SMILES IDX 20 38 76 39 21 40 22 41 23 42 70 43 24 44 75 45 69 46 71 47
REMARK SMILES IDX 25 48 74 49 68 50 67 51 26 53 56 54 37 55 55 56 38 57 41 58
REMARK SMILES IDX 54 59 72 60 39 61 40 62 53 64 73 65 42 66 27 67 28 68 36 69
REMARK SMILES IDX 29 70 35 71 30 72 31 73 32 74 33 75 34 76 57 77 58 78 66 79
REMARK SMILES IDX 59 80 65 81 60 82 61 83 62 84 63 85 64 86 43 87 44 88 52 89
REMARK SMILES IDX 45 90 51 91 46 92 47 93 48 94 49 95 50 96
REMARK H PARENT 8 7 4 15 4 16 82 22 15 33 71 52 41 63
REMARK Flexibility Score: inf
ROOT
ATOM      1  C   UNL A   1      35.522  32.152  27.666  1.00  0.00     0.002 C 
ENDROOT
BRANCH   1   2
ATOM      2  C   UNL A   1      34.222  31.552  28.210  1.00  0.00     0.021 C 
BRANCH   2   3
ATOM      3  C   UNL A   1      33.292  31.002  27.130  1.00  0.00     0.116 C 
BRANCH   3   4
ATOM      4  N   UNL A   1      32.530  29.885  27.650  1.00  0.00    -0.351 N 
ATOM      5  C   UNL A   1      31.908  28.834  27.046  1.00  0.00     0.281 C 
ATOM      6  O   UNL A   1      31.232  28.119  27.797  1.00  0.00    -0.268 OA
ATOM      7  H   UNL A   1      32.447  29.885  28.631  1.00  0.00     0.163 HD
BRANCH   5   8
ATOM      8  C   UNL A   1      32.086  28.486  25.517  1.00  0.00     0.181 C 
ATOM      9  C   UNL A   1      33.606  28.496  25.220  1.00  0.00     0.079 C 
ATOM     10  C   UNL A   1      31.503  27.079  25.214  1.00  0.00     0.144 C 
ATOM     11  C   UNL A   1      33.945  27.948  23.843  1.00  0.00     0.013 C 
ATOM     12  C   UNL A   1      32.152  26.189  24.133  1.00  0.00     0.190 C 
ATOM     13  C   UNL A   1      33.627  26.461  23.828  1.00  0.00     0.065 C 
BRANCH   8  14
ATOM     14  N   UNL A   1      31.379  29.493  24.669  1.00  0.00    -0.333 N 
ATOM     15  H   UNL A   1      30.781  30.054  25.275  1.00  0.00     0.347 HD
ATOM     16  H   UNL A   1      32.107  30.037  24.205  1.00  0.00     0.347 HD
BRANCH  14  17
ATOM     17  C   UNL A   1      30.546  28.922  23.605  1.00  0.00     0.261 C 
BRANCH  17  18
ATOM     18  C   UNL A   1      29.390  29.858  23.238  1.00  0.00     0.058 C 
ATOM     19  C   UNL A   1      28.118  29.127  22.827  1.00  0.00     0.010 C 
ENDBRANCH  17  18
ENDBRANCH  14  17
ENDBRANCH   8  14
BRANCH  12  20
ATOM     20  N   UNL A   1      31.717  24.765  24.264  1.00  0.00    -0.332 N 
ATOM     21  C   UNL A   1      30.539  24.537  23.401  1.00  0.00     0.333 C 
ATOM     22  H   UNL A   1      31.559  24.740  25.270  1.00  0.00     0.348 HD
BRANCH  20  23
ATOM     23  C   UNL A   1      32.645  23.605  24.147  1.00  0.00     0.184 C 
ATOM     24  C   UNL A   1      33.877  23.562  25.062  1.00  0.00     0.075 C 
BRANCH  23  25
ATOM     25  C   UNL A   1      32.110  22.194  23.988  1.00  0.00     0.047 C 
ATOM     26  C   UNL A   1      32.941  20.941  24.056  1.00  0.00     0.010 C 
ATOM     27  C   UNL A   1      31.914  21.239  25.130  1.00  0.00     0.010 C 
ENDBRANCH  23  25
ENDBRANCH  20  23
ENDBRANCH  12  20
ENDBRANCH   5   8
ENDBRANCH   3   4
ENDBRANCH   2   3
ENDBRANCH   1   2
BRANCH   1  28
ATOM     28  C   UNL A   1      35.804  33.591  28.111  1.00  0.00     0.002 C 
BRANCH  28  29
ATOM     29  C   UNL A   1      35.715  33.832  29.620  1.00  0.00     0.021 C 
BRANCH  29  30
ATOM     30  C   UNL A   1      36.793  33.130  30.441  1.00  0.00     0.116 C 
BRANCH  30  31
ATOM     31  N   UNL A   1      36.270  31.965  31.136  1.00  0.00    -0.352 N 
ATOM     32  C   UNL A   1      36.745  30.679  31.157  1.00  0.00     0.251 C 
ATOM     33  H   UNL A   1      35.457  32.122  31.669  1.00  0.00     0.163 HD
ATOM     34  O   UNL A   1      36.043  29.772  31.606  1.00  0.00    -0.269 OA
BRANCH  32  35
ATOM     35  C   UNL A   1      38.092  30.381  30.631  1.00  0.00     0.039 A 
ATOM     36  C   UNL A   1      39.151  30.203  31.525  1.00  0.00     0.014 A 
ATOM     37  C   UNL A   1      38.314  30.290  29.253  1.00  0.00     0.014 A 
ATOM     38  C   UNL A   1      40.418  29.875  31.039  1.00  0.00     0.010 A 
ATOM     39  C   UNL A   1      39.558  29.889  28.775  1.00  0.00     0.010 A 
ATOM     40  C   UNL A   1      40.625  29.684  29.662  1.00  0.00    -0.014 A 
BRANCH  40  41
ATOM     41  C   UNL A   1      41.949  29.266  29.133  1.00  0.00     0.031 A 
ATOM     42  C   UNL A   1      43.067  30.267  29.010  1.00  0.00     0.074 A 
ATOM     43  C   UNL A   1      42.125  27.999  28.705  1.00  0.00     0.049 A 
ATOM     44  N   UNL A   1      44.270  30.102  28.524  1.00  0.00    -0.248 NA
ATOM     45  C   UNL A   1      42.789  31.636  29.473  1.00  0.00     0.031 C 
ATOM     46  C   UNL A   1      41.108  26.945  28.734  1.00  0.00     0.029 A 
ATOM     47  N   UNL A   1      43.222  27.384  28.156  1.00  0.00    -0.354 N 
ATOM     48  C   UNL A   1      44.885  31.346  28.606  1.00  0.00     0.074 A 
ATOM     49  C   UNL A   1      43.906  32.266  29.142  1.00  0.00     0.031 C 
ATOM     50  C   UNL A   1      41.637  25.810  28.251  1.00  0.00     0.029 A 
ATOM     51  C   UNL A   1      43.014  26.062  27.838  1.00  0.00     0.049 A 
ATOM     52  H   UNL A   1      44.078  27.845  28.003  1.00  0.00     0.167 HD
ATOM     53  C   UNL A   1      46.156  31.688  28.285  1.00  0.00     0.031 A 
ATOM     54  C   UNL A   1      43.833  25.156  27.269  1.00  0.00     0.031 A 
ATOM     55  C   UNL A   1      47.128  30.766  27.758  1.00  0.00     0.049 A 
ATOM     56  C   UNL A   1      45.235  25.564  26.905  1.00  0.00     0.074 A 
ATOM     57  C   UNL A   1      48.457  31.003  27.451  1.00  0.00     0.029 A 
ATOM     58  N   UNL A   1      46.879  29.436  27.456  1.00  0.00    -0.354 N 
ATOM     59  N   UNL A   1      45.819  26.729  27.054  1.00  0.00    -0.248 NA
ATOM     60  C   UNL A   1      46.093  24.531  26.308  1.00  0.00     0.031 C 
ATOM     61  C   UNL A   1      48.995  29.831  26.909  1.00  0.00     0.029 A 
ATOM     62  C   UNL A   1      48.020  28.845  26.941  1.00  0.00     0.049 A 
ATOM     63  H   UNL A   1      46.016  28.980  27.589  1.00  0.00     0.167 HD
ATOM     64  C   UNL A   1      47.121  26.561  26.596  1.00  0.00     0.074 A 
ATOM     65  C   UNL A   1      47.242  25.178  26.180  1.00  0.00     0.031 C 
ATOM     66  C   UNL A   1      48.127  27.469  26.530  1.00  0.00     0.031 A 
BRANCH  53  67
ATOM     67  C   UNL A   1      46.565  33.125  28.484  1.00  0.00    -0.014 A 
ATOM     68  C   UNL A   1      47.136  33.558  29.695  1.00  0.00     0.010 A 
ATOM     69  C   UNL A   1      46.416  34.047  27.432  1.00  0.00     0.010 A 
ATOM     70  C   UNL A   1      47.509  34.893  29.865  1.00  0.00     0.020 A 
ATOM     71  C   UNL A   1      46.818  35.378  27.587  1.00  0.00     0.020 A 
ATOM     72  C   UNL A   1      47.347  35.796  28.809  1.00  0.00     0.054 A 
BRANCH  72  73
ATOM     73  S   UNL A   1      47.862  37.518  29.051  1.00  0.00     0.124 S 
ATOM     74  O   UNL A   1      46.853  38.245  28.285  1.00  0.00    -0.237 OA
ATOM     75  O   UNL A   1      47.783  37.674  30.501  1.00  0.00    -0.237 OA
ATOM     76  O   UNL A   1      49.212  37.558  28.494  1.00  0.00    -0.744 OA
ENDBRANCH  72  73
ENDBRANCH  53  67
BRANCH  54  77
ATOM     77  C   UNL A   1      43.350  23.769  27.023  1.00  0.00    -0.014 A 
ATOM     78  C   UNL A   1      43.078  23.328  25.716  1.00  0.00     0.010 A 
ATOM     79  C   UNL A   1      43.171  22.877  28.095  1.00  0.00     0.010 A 
ATOM     80  C   UNL A   1      42.618  22.028  25.487  1.00  0.00     0.020 A 
ATOM     81  C   UNL A   1      42.740  21.567  27.868  1.00  0.00     0.020 A 
ATOM     82  C   UNL A   1      42.455  21.154  26.566  1.00  0.00     0.054 A 
BRANCH  82  83
ATOM     83  S   UNL A   1      41.904  19.456  26.241  1.00  0.00     0.124 S 
ATOM     84  O   UNL A   1      42.321  18.764  27.456  1.00  0.00    -0.237 OA
ATOM     85  O   UNL A   1      40.463  19.622  26.068  1.00  0.00    -0.237 OA
ATOM     86  O   UNL A   1      42.631  19.087  25.027  1.00  0.00    -0.744 OA
ENDBRANCH  82  83
ENDBRANCH  54  77
BRANCH  66  87
ATOM     87  C   UNL A   1      49.461  26.990  26.022  1.00  0.00    -0.014 A 
ATOM     88  C   UNL A   1      49.842  27.170  24.680  1.00  0.00     0.010 A 
ATOM     89  C   UNL A   1      50.373  26.403  26.919  1.00  0.00     0.010 A 
ATOM     90  C   UNL A   1      51.097  26.741  24.238  1.00  0.00     0.020 A 
ATOM     91  C   UNL A   1      51.639  26.001  26.488  1.00  0.00     0.020 A 
ATOM     92  C   UNL A   1      51.987  26.160  25.146  1.00  0.00     0.054 A 
BRANCH  92  93
ATOM     93  S   UNL A   1      53.626  25.654  24.557  1.00  0.00     0.124 S 
ATOM     94  O   UNL A   1      53.633  24.227  24.864  1.00  0.00    -0.237 OA
ATOM     95  O   UNL A   1      53.575  25.991  23.136  1.00  0.00    -0.237 OA
ATOM     96  O   UNL A   1      54.547  26.467  25.350  1.00  0.00    -0.744 OA
ENDBRANCH  92  93
ENDBRANCH  66  87
ENDBRANCH  40  41
ENDBRANCH  32  35
ENDBRANCH  30  31
ENDBRANCH  29  30
ENDBRANCH  28  29
ENDBRANCH   1  28
TORSDOF 22
ENDMDL
MODEL 2
REMARK VINA RESULT:      -9.6      5.202      9.956
REMARK SMILES CCC[NH2+][C@]1(C(=O)NCCCCCCNC(=O)c2ccc(-c3c4nc(c(-c5ccc(S(=O)(=O)[O-])cc5)c5ccc([nH]5)c(-c5ccc(S(=O)(=O)[O-])cc5)c5nc(c(-c6ccc(S(=O)(=O)[O-])cc6)c6ccc3[nH]6)C=C5)C=C4)cc2)CCC[C@@H]([N@@H+](C)[C@@H](C)C2CC2)C1
REMARK SMILES IDX 11 1 10 2 9 3 8 4 6 5 7 6 5 8 78 9 89 10 79 11 81 12 80 13
REMARK SMILES IDX 4 14 3 17 2 18 1 19 82 20 83 21 84 23 85 24 86 25 87 26
REMARK SMILES IDX 88 27 12 28 13 29 14 30 15 31 16 32 17 34 18 35 19 36 77 37
REMARK SMILES IDX 20 38 76 39 21 40 22 41 23 42 70 43 24 44 75 45 69 46 71 47
REMARK SMILES IDX 25 48 74 49 68 50 67 51 26 53 56 54 37 55 55 56 38 57 41 58
REMARK SMILES IDX 54 59 72 60 39 61 40 62 53 64 73 65 42 66 27 67 28 68 36 69
REMARK SMILES IDX 29 70 35 71 30 72 31 73 32 74 33 75 34 76 57 77 58 78 66 79
REMARK SMILES IDX 59 80 65 81 60 82 61 83 62 84 63 85 64 86 43 87 44 88 52 89
REMARK SMILES IDX 45 90 51 91 46 92 47 93 48 94 49 95 50 96
REMARK H PARENT 8 7 4 15 4 16 82 22 15 33 71 52 41 63
REMARK Flexibility Score: inf
ROOT
ATOM      1  C   UNL A   1      30.713  26.872  26.657  1.00  0.00     0.002 C 
ENDROOT
BRANCH   1   2
ATOM      2  C   UNL A   1      30.703  25.941  25.440  1.00  0.00     0.021 C 
BRANCH   2   3
ATOM      3  C   UNL A   1      30.599  24.458  25.795  1.00  0.00     0.116 C 
BRANCH   3   4
ATOM      4  N   UNL A   1      31.661  24.089  26.708  1.00  0.00    -0.351 N 
ATOM      5  C   UNL A   1      32.822  23.396  26.538  1.00  0.00     0.281 C 
ATOM      6  O   UNL A   1      33.448  23.153  27.578  1.00  0.00    -0.268 OA
ATOM      7  H   UNL A   1      31.516  24.401  27.631  1.00  0.00     0.163 HD
BRANCH   5   8
ATOM      8  C   UNL A   1      33.388  22.992  25.122  1.00  0.00     0.181 C 
ATOM      9  C   UNL A   1      32.311  22.119  24.431  1.00  0.00     0.079 C 
ATOM     10  C   UNL A   1      33.659  24.261  24.269  1.00  0.00     0.144 C 
ATOM     11  C   UNL A   1      32.615  21.850  22.966  1.00  0.00     0.013 C 
ATOM     12  C   UNL A   1      33.469  24.219  22.737  1.00  0.00     0.190 C 
ATOM     13  C   UNL A   1      32.500  23.162  22.204  1.00  0.00     0.065 C 
BRANCH   8  14
ATOM     14  N   UNL A   1      34.664  22.229  25.270  1.00  0.00    -0.333 N 
ATOM     15  H   UNL A   1      34.592  21.649  26.106  1.00  0.00     0.347 HD
ATOM     16  H   UNL A   1      34.775  21.687  24.413  1.00  0.00     0.347 HD
BRANCH  14  17
ATOM     17  C   UNL A   1      35.866  23.062  25.392  1.00  0.00     0.261 C 
BRANCH  17  18
ATOM     18  C   UNL A   1      36.994  22.549  24.491  1.00  0.00     0.058 C 
ATOM     19  C   UNL A   1      36.737  22.769  23.005  1.00  0.00     0.010 C 
ENDBRANCH  17  18
ENDBRANCH  14  17
ENDBRANCH   8  14
BRANCH  12  20
ATOM     20  N   UNL A   1      33.390  25.595  22.160  1.00  0.00    -0.332 N 
ATOM     21  C   UNL A   1      32.732  25.530  20.839  1.00  0.00     0.333 C 
ATOM     22  H   UNL A   1      34.382  25.827  22.166  1.00  0.00     0.348 HD
BRANCH  20  23
ATOM     23  C   UNL A   1      32.873  26.775  22.909  1.00  0.00     0.184 C 
ATOM     24  C   UNL A   1      33.876  27.648  23.676  1.00  0.00     0.075 C 
BRANCH  23  25
ATOM     25  C   UNL A   1      31.810  27.675  22.307  1.00  0.00     0.047 C 
ATOM     26  C   UNL A   1      30.360  27.688  22.708  1.00  0.00     0.010 C 
ATOM     27  C   UNL A   1      31.246  28.883  22.996  1.00  0.00     0.010 C 
ENDBRANCH  23  25
ENDBRANCH  20  23
ENDBRANCH  12  20
ENDBRANCH   5   8
ENDBRANCH   3   4
ENDBRANCH   2   3
ENDBRANCH   1   2
BRANCH   1  28
ATOM     28  C   UNL A   1      32.084  27.461  27.006  1.00  0.00     0.002 C 
BRANCH  28  29
ATOM     29  C   UNL A   1      32.386  28.822  26.374  1.00  0.00     0.021 C 
BRANCH  29  30
ATOM     30  C   UNL A   1      33.666  29.485  26.875  1.00  0.00     0.116 C 
BRANCH  30  31
ATOM     31  N   UNL A   1      33.487  30.913  27.089  1.00  0.00    -0.352 N 
ATOM     32  C   UNL A   1      34.191  31.765  27.900  1.00  0.00     0.251 C 
ATOM     33  H   UNL A   1      32.756  31.327  26.577  1.00  0.00     0.163 HD
ATOM     34  O   UNL A   1      33.751  32.890  28.137  1.00  0.00    -0.269 OA
BRANCH  32  35
ATOM     35  C   UNL A   1      35.468  31.328  28.500  1.00  0.00     0.039 A 
ATOM     36  C   UNL A   1      36.630  32.059  28.240  1.00  0.00     0.014 A 
ATOM     37  C   UNL A   1      35.522  30.188  29.308  1.00  0.00     0.014 A 
ATOM     38  C   UNL A   1      37.833  31.681  28.840  1.00  0.00     0.010 A 
ATOM     39  C   UNL A   1      36.704  29.857  29.963  1.00  0.00     0.010 A 
ATOM     40  C   UNL A   1      37.873  30.596  29.732  1.00  0.00    -0.014 A 
BRANCH  40  41
ATOM     41  C   UNL A   1      39.128  30.221  30.434  1.00  0.00     0.031 A 
ATOM     42  C   UNL A   1      39.975  29.088  29.920  1.00  0.00     0.074 A 
ATOM     43  C   UNL A   1      39.473  30.863  31.569  1.00  0.00     0.049 A 
ATOM     44  N   UNL A   1      41.072  28.584  30.425  1.00  0.00    -0.248 NA
ATOM     45  C   UNL A   1      39.519  28.419  28.690  1.00  0.00     0.031 C 
ATOM     46  C   UNL A   1      38.715  31.952  32.192  1.00  0.00     0.029 A 
ATOM     47  N   UNL A   1      40.547  30.687  32.406  1.00  0.00    -0.354 N 
ATOM     48  C   UNL A   1      41.426  27.532  29.588  1.00  0.00     0.074 A 
ATOM     49  C   UNL A   1      40.401  27.438  28.571  1.00  0.00     0.031 C 
ATOM     50  C   UNL A   1      39.362  32.363  33.293  1.00  0.00     0.029 A 
ATOM     51  C   UNL A   1      40.554  31.542  33.483  1.00  0.00     0.049 A 
ATOM     52  H   UNL A   1      41.246  30.012  32.250  1.00  0.00     0.167 HD
ATOM     53  C   UNL A   1      42.516  26.729  29.648  1.00  0.00     0.031 A 
ATOM     54  C   UNL A   1      41.416  31.651  34.513  1.00  0.00     0.031 A 
ATOM     55  C   UNL A   1      43.536  26.831  30.658  1.00  0.00     0.049 A 
ATOM     56  C   UNL A   1      42.610  30.736  34.566  1.00  0.00     0.074 A 
ATOM     57  C   UNL A   1      44.705  26.100  30.775  1.00  0.00     0.029 A 
ATOM     58  N   UNL A   1      43.508  27.714  31.727  1.00  0.00    -0.354 N 
ATOM     59  N   UNL A   1      42.963  29.792  33.727  1.00  0.00    -0.248 NA
ATOM     60  C   UNL A   1      43.529  30.911  35.699  1.00  0.00     0.031 C 
ATOM     61  C   UNL A   1      45.356  26.501  31.946  1.00  0.00     0.029 A 
ATOM     62  C   UNL A   1      44.626  27.529  32.523  1.00  0.00     0.049 A 
ATOM     63  H   UNL A   1      42.798  28.375  31.895  1.00  0.00     0.167 HD
ATOM     64  C   UNL A   1      44.160  29.280  34.215  1.00  0.00     0.074 A 
ATOM     65  C   UNL A   1      44.478  30.030  35.413  1.00  0.00     0.031 C 
ATOM     66  C   UNL A   1      44.929  28.281  33.714  1.00  0.00     0.031 A 
BRANCH  53  67
ATOM     67  C   UNL A   1      42.655  25.660  28.594  1.00  0.00    -0.014 A 
ATOM     68  C   UNL A   1      43.376  25.896  27.409  1.00  0.00     0.010 A 
ATOM     69  C   UNL A   1      42.093  24.389  28.809  1.00  0.00     0.010 A 
ATOM     70  C   UNL A   1      43.496  24.896  26.442  1.00  0.00     0.020 A 
ATOM     71  C   UNL A   1      42.238  23.374  27.857  1.00  0.00     0.020 A 
ATOM     72  C   UNL A   1      42.924  23.640  26.671  1.00  0.00     0.054 A 
BRANCH  72  73
ATOM     73  S   UNL A   1      43.116  22.354  25.407  1.00  0.00     0.124 S 
ATOM     74  O   UNL A   1      44.295  21.635  25.885  1.00  0.00    -0.237 OA
ATOM     75  O   UNL A   1      41.855  21.623  25.501  1.00  0.00    -0.237 OA
ATOM     76  O   UNL A   1      43.308  23.108  24.171  1.00  0.00    -0.744 OA
ENDBRANCH  72  73
ENDBRANCH  53  67
BRANCH  54  77
ATOM     77  C   UNL A   1      41.187  32.674  35.570  1.00  0.00    -0.014 A 
ATOM     78  C   UNL A   1      41.713  33.971  35.437  1.00  0.00     0.010 A 
ATOM     79  C   UNL A   1      40.429  32.359  36.712  1.00  0.00     0.010 A 
ATOM     80  C   UNL A   1      41.503  34.927  36.434  1.00  0.00     0.020 A 
ATOM     81  C   UNL A   1      40.191  33.321  37.698  1.00  0.00     0.020 A 
ATOM     82  C   UNL A   1      40.740  34.597  37.557  1.00  0.00     0.054 A 
BRANCH  82  83
ATOM     83  S   UNL A   1      40.438  35.869  38.815  1.00  0.00     0.124 S 
ATOM     84  O   UNL A   1      39.867  36.952  38.022  1.00  0.00    -0.237 OA
ATOM     85  O   UNL A   1      39.515  35.196  39.727  1.00  0.00    -0.237 OA
ATOM     86  O   UNL A   1      41.767  36.127  39.366  1.00  0.00    -0.744 OA
ENDBRANCH  82  83
ENDBRANCH  54  77
BRANCH  66  87
ATOM     87  C   UNL A   1      46.211  27.962  34.437  1.00  0.00    -0.014 A 
ATOM     88  C   UNL A   1      46.256  26.994  35.456  1.00  0.00     0.010 A 
ATOM     89  C   UNL A   1      47.402  28.603  34.048  1.00  0.00     0.010 A 
ATOM     90  C   UNL A   1      47.463  26.696  36.095  1.00  0.00     0.020 A 
ATOM     91  C   UNL A   1      48.616  28.286  34.664  1.00  0.00     0.020 A 
ATOM     92  C   UNL A   1      48.635  27.344  35.693  1.00  0.00     0.054 A 
BRANCH  92  93
ATOM     93  S   UNL A   1      50.196  26.906  36.507  1.00  0.00     0.124 S 
ATOM     94  O   UNL A   1      50.333  25.494  36.163  1.00  0.00    -0.237 OA
ATOM     95  O   UNL A   1      51.154  27.806  35.868  1.00  0.00    -0.237 OA
ATOM     96  O   UNL A   1      49.940  27.181  37.920  1.00  0.00    -0.744 OA
ENDBRANCH  92  93
ENDBRANCH  66  87
ENDBRANCH  40  41
ENDBRANCH  32  35
ENDBRANCH  30  31
ENDBRANCH  29  30
ENDBRANCH  28  29
ENDBRANCH   1  28
TORSDOF 22
ENDMDL
MODEL 3
REMARK VINA RESULT:      -9.5      6.057     11.862
REMARK SMILES CCC[NH2+][C@]1(C(=O)NCCCCCCNC(=O)c2ccc(-c3c4nc(c(-c5ccc(S(=O)(=O)[O-])cc5)c5ccc([nH]5)c(-c5ccc(S(=O)(=O)[O-])cc5)c5nc(c(-c6ccc(S(=O)(=O)[O-])cc6)c6ccc3[nH]6)C=C5)C=C4)cc2)CCC[C@@H]([N@@H+](C)[C@@H](C)C2CC2)C1
REMARK SMILES IDX 11 1 10 2 9 3 8 4 6 5 7 6 5 8 78 9 89 10 79 11 81 12 80 13
REMARK SMILES IDX 4 14 3 17 2 18 1 19 82 20 83 21 84 23 85 24 86 25 87 26
REMARK SMILES IDX 88 27 12 28 13 29 14 30 15 31 16 32 17 34 18 35 19 36 77 37
REMARK SMILES IDX 20 38 76 39 21 40 22 41 23 42 70 43 24 44 75 45 69 46 71 47
REMARK SMILES IDX 25 48 74 49 68 50 67 51 26 53 56 54 37 55 55 56 38 57 41 58
REMARK SMILES IDX 54 59 72 60 39 61 40 62 53 64 73 65 42 66 27 67 28 68 36 69
REMARK SMILES IDX 29 70 35 71 30 72 31 73 32 74 33 75 34 76 57 77 58 78 66 79
REMARK SMILES IDX 59 80 65 81 60 82 61 83 62 84 63 85 64 86 43 87 44 88 52 89
REMARK SMILES IDX 45 90 51 91 46 92 47 93 48 94 49 95 50 96
REMARK H PARENT 8 7 4 15 4 16 82 22 15 33 71 52 41 63
REMARK Flexibility Score: inf
ROOT
ATOM      1  C   UNL A   1      38.481  24.401  26.862  1.00  0.00     0.002 C 
ENDROOT
BRANCH   1   2
ATOM      2  C   UNL A   1      38.825  23.023  26.290  1.00  0.00     0.021 C 
BRANCH   2   3
ATOM      3  C   UNL A   1      37.620  22.259  25.743  1.00  0.00     0.116 C 
BRANCH   3   4
ATOM      4  N   UNL A   1      37.445  22.546  24.334  1.00  0.00    -0.351 N 
ATOM      5  C   UNL A   1      36.360  22.911  23.596  1.00  0.00     0.281 C 
ATOM      6  O   UNL A   1      36.544  22.956  22.373  1.00  0.00    -0.268 OA
ATOM      7  H   UNL A   1      38.273  22.463  23.808  1.00  0.00     0.163 HD
BRANCH   5   8
ATOM      8  C   UNL A   1      34.979  23.329  24.237  1.00  0.00     0.181 C 
ATOM      9  C   UNL A   1      35.297  24.158  25.507  1.00  0.00     0.079 C 
ATOM     10  C   UNL A   1      34.162  24.193  23.239  1.00  0.00     0.144 C 
ATOM     11  C   UNL A   1      34.069  24.829  26.100  1.00  0.00     0.013 C 
ATOM     12  C   UNL A   1      33.238  25.314  23.762  1.00  0.00     0.190 C 
ATOM     13  C   UNL A   1      33.593  25.900  25.131  1.00  0.00     0.065 C 
BRANCH   8  14
ATOM     14  N   UNL A   1      34.181  22.116  24.590  1.00  0.00    -0.333 N 
ATOM     15  H   UNL A   1      34.778  21.298  24.469  1.00  0.00     0.347 HD
ATOM     16  H   UNL A   1      33.870  22.248  25.553  1.00  0.00     0.347 HD
BRANCH  14  17
ATOM     17  C   UNL A   1      32.969  21.924  23.785  1.00  0.00     0.261 C 
BRANCH  17  18
ATOM     18  C   UNL A   1      31.785  21.491  24.655  1.00  0.00     0.058 C 
ATOM     19  C   UNL A   1      31.238  22.604  25.540  1.00  0.00     0.010 C 
ENDBRANCH  17  18
ENDBRANCH  14  17
ENDBRANCH   8  14
BRANCH  12  20
ATOM     20  N   UNL A   1      32.862  26.264  22.672  1.00  0.00    -0.332 N 
ATOM     21  C   UNL A   1      32.019  25.561  21.684  1.00  0.00     0.333 C 
ATOM     22  H   UNL A   1      33.796  26.534  22.367  1.00  0.00     0.348 HD
BRANCH  20  23
ATOM     23  C   UNL A   1      32.300  27.622  22.919  1.00  0.00     0.184 C 
ATOM     24  C   UNL A   1      33.238  28.832  22.804  1.00  0.00     0.075 C 
BRANCH  23  25
ATOM     25  C   UNL A   1      30.938  28.012  22.374  1.00  0.00     0.047 C 
ATOM     26  C   UNL A   1      29.650  27.966  23.151  1.00  0.00     0.010 C 
ATOM     27  C   UNL A   1      30.235  29.294  22.714  1.00  0.00     0.010 C 
ENDBRANCH  23  25
ENDBRANCH  20  23
ENDBRANCH  12  20
ENDBRANCH   5   8
ENDBRANCH   3   4
ENDBRANCH   2   3
ENDBRANCH   1   2
BRANCH   1  28
ATOM     28  C   UNL A   1      39.688  25.302  27.142  1.00  0.00     0.002 C 
BRANCH  28  29
ATOM     29  C   UNL A   1      40.776  25.283  26.066  1.00  0.00     0.021 C 
BRANCH  29  30
ATOM     30  C   UNL A   1      41.984  24.411  26.398  1.00  0.00     0.116 C 
BRANCH  30  31
ATOM     31  N   UNL A   1      43.210  24.944  25.825  1.00  0.00    -0.352 N 
ATOM     32  C   UNL A   1      43.890  26.092  26.141  1.00  0.00     0.251 C 
ATOM     33  H   UNL A   1      43.609  24.403  25.107  1.00  0.00     0.163 HD
ATOM     34  O   UNL A   1      44.776  26.506  25.393  1.00  0.00    -0.269 OA
BRANCH  32  35
ATOM     35  C   UNL A   1      43.550  26.838  27.370  1.00  0.00     0.039 A 
ATOM     36  C   UNL A   1      43.581  28.234  27.352  1.00  0.00     0.014 A 
ATOM     37  C   UNL A   1      43.212  26.158  28.544  1.00  0.00     0.014 A 
ATOM     38  C   UNL A   1      43.215  28.948  28.495  1.00  0.00     0.010 A 
ATOM     39  C   UNL A   1      42.777  26.871  29.658  1.00  0.00     0.010 A 
ATOM     40  C   UNL A   1      42.780  28.273  29.647  1.00  0.00    -0.014 A 
BRANCH  40  41
ATOM     41  C   UNL A   1      42.320  29.016  30.848  1.00  0.00     0.031 A 
ATOM     42  C   UNL A   1      41.054  29.829  30.799  1.00  0.00     0.074 A 
ATOM     43  C   UNL A   1      43.076  29.009  31.966  1.00  0.00     0.049 A 
ATOM     44  N   UNL A   1      40.522  30.583  31.727  1.00  0.00    -0.248 NA
ATOM     45  C   UNL A   1      40.298  29.809  29.536  1.00  0.00     0.031 C 
ATOM     46  C   UNL A   1      44.345  28.293  32.126  1.00  0.00     0.029 A 
ATOM     47  N   UNL A   1      42.891  29.629  33.175  1.00  0.00    -0.354 N 
ATOM     48  C   UNL A   1      39.384  31.140  31.155  1.00  0.00     0.074 A 
ATOM     49  C   UNL A   1      39.328  30.675  29.787  1.00  0.00     0.031 C 
ATOM     50  C   UNL A   1      44.807  28.492  33.370  1.00  0.00     0.029 A 
ATOM     51  C   UNL A   1      43.896  29.384  34.082  1.00  0.00     0.049 A 
ATOM     52  H   UNL A   1      42.113  30.197  33.376  1.00  0.00     0.167 HD
ATOM     53  C   UNL A   1      38.457  31.947  31.725  1.00  0.00     0.031 A 
ATOM     54  C   UNL A   1      44.072  29.831  35.341  1.00  0.00     0.031 A 
ATOM     55  C   UNL A   1      38.513  32.401  33.089  1.00  0.00     0.049 A 
ATOM     56  C   UNL A   1      43.037  30.741  35.945  1.00  0.00     0.074 A 
ATOM     57  C   UNL A   1      37.596  33.178  33.775  1.00  0.00     0.029 A 
ATOM     58  N   UNL A   1      39.544  32.125  33.975  1.00  0.00    -0.354 N 
ATOM     59  N   UNL A   1      41.931  31.201  35.410  1.00  0.00    -0.248 NA
ATOM     60  C   UNL A   1      43.268  31.182  37.328  1.00  0.00     0.031 C 
ATOM     61  C   UNL A   1      38.100  33.419  35.057  1.00  0.00     0.029 A 
ATOM     62  C   UNL A   1      39.300  32.738  35.192  1.00  0.00     0.049 A 
ATOM     63  H   UNL A   1      40.334  31.575  33.767  1.00  0.00     0.167 HD
ATOM     64  C   UNL A   1      41.320  31.961  36.401  1.00  0.00     0.074 A 
ATOM     65  C   UNL A   1      42.171  31.886  37.571  1.00  0.00     0.031 C 
ATOM     66  C   UNL A   1      40.156  32.656  36.348  1.00  0.00     0.031 A 
BRANCH  53  67
ATOM     67  C   UNL A   1      37.304  32.401  30.866  1.00  0.00    -0.014 A 
ATOM     68  C   UNL A   1      36.066  31.734  30.897  1.00  0.00     0.010 A 
ATOM     69  C   UNL A   1      37.447  33.537  30.047  1.00  0.00     0.010 A 
ATOM     70  C   UNL A   1      35.007  32.167  30.095  1.00  0.00     0.020 A 
ATOM     71  C   UNL A   1      36.379  33.992  29.266  1.00  0.00     0.020 A 
ATOM     72  C   UNL A   1      35.171  33.294  29.283  1.00  0.00     0.054 A 
BRANCH  72  73
ATOM     73  S   UNL A   1      33.771  33.845  28.270  1.00  0.00     0.124 S 
ATOM     74  O   UNL A   1      33.255  32.580  27.755  1.00  0.00    -0.237 OA
ATOM     75  O   UNL A   1      32.919  34.522  29.244  1.00  0.00    -0.237 OA
ATOM     76  O   UNL A   1      34.388  34.716  27.272  1.00  0.00    -0.744 OA
ENDBRANCH  72  73
ENDBRANCH  53  67
BRANCH  54  77
ATOM     77  C   UNL A   1      45.272  29.412  36.118  1.00  0.00    -0.014 A 
ATOM     78  C   UNL A   1      45.246  28.246  36.902  1.00  0.00     0.010 A 
ATOM     79  C   UNL A   1      46.453  30.174  36.068  1.00  0.00     0.010 A 
ATOM     80  C   UNL A   1      46.370  27.859  37.637  1.00  0.00     0.020 A 
ATOM     81  C   UNL A   1      47.590  29.775  36.776  1.00  0.00     0.020 A 
ATOM     82  C   UNL A   1      47.537  28.625  37.566  1.00  0.00     0.054 A 
BRANCH  82  83
ATOM     83  S   UNL A   1      49.000  28.077  38.488  1.00  0.00     0.124 S 
ATOM     84  O   UNL A   1      48.809  26.631  38.530  1.00  0.00    -0.237 OA
ATOM     85  O   UNL A   1      50.097  28.547  37.645  1.00  0.00    -0.237 OA
ATOM     86  O   UNL A   1      48.873  28.765  39.771  1.00  0.00    -0.744 OA
ENDBRANCH  82  83
ENDBRANCH  54  77
BRANCH  66  87
ATOM     87  C   UNL A   1      39.712  33.363  37.601  1.00  0.00    -0.014 A 
ATOM     88  C   UNL A   1      38.830  32.755  38.512  1.00  0.00     0.010 A 
ATOM     89  C   UNL A   1      40.233  34.636  37.899  1.00  0.00     0.010 A 
ATOM     90  C   UNL A   1      38.453  33.421  39.682  1.00  0.00     0.020 A 
ATOM     91  C   UNL A   1      39.882  35.292  39.081  1.00  0.00     0.020 A 
ATOM     92  C   UNL A   1      38.983  34.684  39.959  1.00  0.00     0.054 A 
BRANCH  92  93
ATOM     93  S   UNL A   1      38.513  35.507  41.505  1.00  0.00     0.124 S 
ATOM     94  O   UNL A   1      39.584  35.095  42.407  1.00  0.00    -0.237 OA
ATOM     95  O   UNL A   1      38.515  36.920  41.131  1.00  0.00    -0.237 OA
ATOM     96  O   UNL A   1      37.195  34.952  41.809  1.00  0.00    -0.744 OA
ENDBRANCH  92  93
ENDBRANCH  66  87
ENDBRANCH  40  41
ENDBRANCH  32  35
ENDBRANCH  30  31
ENDBRANCH  29  30
ENDBRANCH  28  29
ENDBRANCH   1  28
TORSDOF 22
ENDMDL
