MODEL 1
REMARK VINA RESULT:      -9.0      0.000      0.000
REMARK SMILES [NH3+][C@@H](CCC1=c2ccccc2=NC1)C(=O)NCCCCCCNC(=O)c1ccc(-c2c3nc(c(-c4ccc(S(=O)(=O)[O-])cc4)c4ccc([nH]4)c(-c4ccc(S(=O)(=O)[O-])cc4)c4nc(c(-c5ccc(S(=O)(=O)[O-])cc5)c5ccc2[nH]5)C=C4)C=C3)cc1
REMARK SMILES IDX 19 1 18 2 17 3 16 4 14 5 15 6 2 8 1 9 3 13 4 14 5 15 6 16
REMARK SMILES IDX 13 17 7 18 11 19 12 20 8 21 10 22 9 23 20 24 21 25 22 26
REMARK SMILES IDX 23 27 24 28 25 30 26 31 27 32 85 33 28 34 84 35 29 36 30 37
REMARK SMILES IDX 31 38 78 39 32 40 83 41 77 42 79 43 33 44 82 45 76 46 75 47
REMARK SMILES IDX 34 49 64 50 45 51 63 52 46 53 49 54 62 55 80 56 47 57 48 58
REMARK SMILES IDX 61 60 81 61 50 62 35 63 36 64 44 65 37 66 43 67 38 68 39 69
REMARK SMILES IDX 40 70 41 71 42 72 65 73 66 74 74 75 67 76 73 77 68 78 69 79
REMARK SMILES IDX 70 80 71 81 72 82 51 83 52 84 60 85 53 86 59 87 54 88 55 89
REMARK SMILES IDX 56 90 57 91 58 92
REMARK H PARENT 16 7 1 10 1 11 1 12 23 29 79 48 49 59
REMARK Flexibility Score: inf
ROOT
ATOM      1  C   UNL A   1      43.337  23.389  28.864  1.00  0.00     0.002 C 
ENDROOT
BRANCH   1   2
ATOM      2  C   UNL A   1      44.544  23.764  30.061  1.00  0.00     0.021 C 
BRANCH   2   3
ATOM      3  C   UNL A   1      44.067  24.271  31.418  1.00  0.00     0.116 C 
BRANCH   3   4
ATOM      4  N   UNL A   1      44.636  23.517  32.513  1.00  0.00    -0.351 N 
ATOM      5  C   UNL A   1      44.322  23.525  33.836  1.00  0.00     0.278 C 
ATOM      6  O   UNL A   1      44.913  22.729  34.570  1.00  0.00    -0.268 OA
ATOM      7  H   UNL A   1      45.362  22.903  32.261  1.00  0.00     0.163 HD
BRANCH   5   8
ATOM      8  C   UNL A   1      43.260  24.481  34.405  1.00  0.00     0.271 C 
BRANCH   8   9
ATOM      9  N   UNL A   1      42.576  23.944  35.599  1.00  0.00    -0.347 N 
ATOM     10  H   UNL A   1      43.065  24.254  36.439  1.00  0.00     0.345 HD
ATOM     11  H   UNL A   1      42.577  22.925  35.563  1.00  0.00     0.345 HD
ATOM     12  H   UNL A   1      41.614  24.282  35.621  1.00  0.00     0.345 HD
ENDBRANCH   8   9
BRANCH   8  13
ATOM     13  C   UNL A   1      43.707  25.950  34.518  1.00  0.00     0.080 C 
BRANCH  13  14
ATOM     14  C   UNL A   1      43.642  26.918  33.317  1.00  0.00     0.040 C 
BRANCH  14  15
ATOM     15  C   UNL A   1      43.116  28.307  33.543  1.00  0.00    -0.039 C 
ATOM     16  C   UNL A   1      41.901  28.752  33.236  1.00  0.00     0.001 A 
ATOM     17  C   UNL A   1      43.979  29.417  34.180  1.00  0.00     0.174 C 
ATOM     18  C   UNL A   1      40.289  28.283  32.481  1.00  0.00     0.010 A 
ATOM     19  C   UNL A   1      42.030  30.505  34.000  1.00  0.00     0.065 A 
ATOM     20  N   UNL A   1      43.221  30.719  34.452  1.00  0.00    -0.280 NA
ATOM     21  C   UNL A   1      39.006  29.235  32.601  1.00  0.00     0.001 A 
ATOM     22  C   UNL A   1      40.380  31.529  34.048  1.00  0.00     0.028 A 
ATOM     23  C   UNL A   1      39.076  30.966  33.340  1.00  0.00     0.002 A 
ENDBRANCH  14  15
ENDBRANCH  13  14
ENDBRANCH   8  13
ENDBRANCH   5   8
ENDBRANCH   3   4
ENDBRANCH   2   3
ENDBRANCH   1   2
BRANCH   1  24
ATOM     24  C   UNL A   1      41.834  21.821  28.569  1.00  0.00     0.002 C 
BRANCH  24  25
ATOM     25  C   UNL A   1      40.944  21.126  27.283  1.00  0.00     0.021 C 
BRANCH  25  26
ATOM     26  C   UNL A   1      40.551  21.796  25.967  1.00  0.00     0.116 C 
BRANCH  26  27
ATOM     27  N   UNL A   1      39.152  22.108  25.727  1.00  0.00    -0.352 N 
ATOM     28  C   UNL A   1      38.546  23.312  26.048  1.00  0.00     0.251 C 
ATOM     29  H   UNL A   1      38.595  21.413  25.306  1.00  0.00     0.163 HD
ATOM     30  O   UNL A   1      37.367  23.537  25.807  1.00  0.00    -0.269 OA
BRANCH  28  31
ATOM     31  C   UNL A   1      39.381  24.299  26.772  1.00  0.00     0.039 A 
ATOM     32  C   UNL A   1      39.212  24.453  28.149  1.00  0.00     0.014 A 
ATOM     33  C   UNL A   1      40.101  25.239  26.031  1.00  0.00     0.014 A 
ATOM     34  C   UNL A   1      39.576  25.657  28.742  1.00  0.00     0.010 A 
ATOM     35  C   UNL A   1      40.570  26.393  26.662  1.00  0.00     0.010 A 
ATOM     36  C   UNL A   1      40.261  26.644  28.010  1.00  0.00    -0.014 A 
BRANCH  36  37
ATOM     37  C   UNL A   1      40.672  27.916  28.667  1.00  0.00     0.031 A 
ATOM     38  C   UNL A   1      39.699  29.054  28.864  1.00  0.00     0.074 A 
ATOM     39  C   UNL A   1      41.945  28.040  29.094  1.00  0.00     0.049 A 
ATOM     40  N   UNL A   1      39.920  30.244  29.364  1.00  0.00    -0.248 NA
ATOM     41  C   UNL A   1      38.304  28.839  28.442  1.00  0.00     0.031 C 
ATOM     42  C   UNL A   1      42.972  27.001  28.979  1.00  0.00     0.029 A 
ATOM     43  N   UNL A   1      42.593  29.075  29.721  1.00  0.00    -0.354 N 
ATOM     44  C   UNL A   1      38.710  30.927  29.292  1.00  0.00     0.074 A 
ATOM     45  C   UNL A   1      37.760  30.028  28.672  1.00  0.00     0.031 C 
ATOM     46  C   UNL A   1      44.096  27.426  29.566  1.00  0.00     0.029 A 
ATOM     47  C   UNL A   1      43.912  28.802  30.008  1.00  0.00     0.049 A 
ATOM     48  H   UNL A   1      42.159  29.929  29.943  1.00  0.00     0.167 HD
ATOM     49  C   UNL A   1      38.418  32.181  29.715  1.00  0.00     0.031 A 
ATOM     50  C   UNL A   1      44.882  29.572  30.540  1.00  0.00     0.031 A 
ATOM     51  C   UNL A   1      39.375  33.055  30.353  1.00  0.00     0.049 A 
ATOM     52  C   UNL A   1      44.546  30.975  30.952  1.00  0.00     0.074 A 
ATOM     53  C   UNL A   1      39.166  34.330  30.852  1.00  0.00     0.029 A 
ATOM     54  N   UNL A   1      40.710  32.753  30.583  1.00  0.00    -0.354 N 
ATOM     55  N   UNL A   1      43.388  31.589  30.903  1.00  0.00    -0.248 NA
ATOM     56  C   UNL A   1      45.639  31.789  31.497  1.00  0.00     0.031 C 
ATOM     57  C   UNL A   1      40.389  34.832  31.297  1.00  0.00     0.029 A 
ATOM     58  C   UNL A   1      41.344  33.835  31.177  1.00  0.00     0.049 A 
ATOM     59  H   UNL A   1      41.143  31.899  30.359  1.00  0.00     0.167 HD
ATOM     60  C   UNL A   1      43.609  32.856  31.429  1.00  0.00     0.074 A 
ATOM     61  C   UNL A   1      45.004  32.908  31.817  1.00  0.00     0.031 C 
ATOM     62  C   UNL A   1      42.733  33.882  31.567  1.00  0.00     0.031 A 
BRANCH  49  63
ATOM     63  C   UNL A   1      37.014  32.713  29.526  1.00  0.00    -0.014 A 
ATOM     64  C   UNL A   1      36.639  33.271  28.287  1.00  0.00     0.010 A 
ATOM     65  C   UNL A   1      36.122  32.813  30.608  1.00  0.00     0.010 A 
ATOM     66  C   UNL A   1      35.431  33.961  28.147  1.00  0.00     0.020 A 
ATOM     67  C   UNL A   1      34.894  33.470  30.464  1.00  0.00     0.020 A 
ATOM     68  C   UNL A   1      34.571  34.067  29.243  1.00  0.00     0.054 A 
BRANCH  68  69
ATOM     69  S   UNL A   1      33.040  35.024  29.063  1.00  0.00     0.124 S 
ATOM     70  O   UNL A   1      32.326  34.277  28.032  1.00  0.00    -0.237 OA
ATOM     71  O   UNL A   1      32.465  34.958  30.404  1.00  0.00    -0.237 OA
ATOM     72  O   UNL A   1      33.509  36.350  28.661  1.00  0.00    -0.744 OA
ENDBRANCH  68  69
ENDBRANCH  49  63
BRANCH  50  73
ATOM     73  C   UNL A   1      46.243  28.994  30.728  1.00  0.00    -0.014 A 
ATOM     74  C   UNL A   1      47.095  28.792  29.624  1.00  0.00     0.010 A 
ATOM     75  C   UNL A   1      46.649  28.535  31.992  1.00  0.00     0.010 A 
ATOM     76  C   UNL A   1      48.283  28.071  29.764  1.00  0.00     0.020 A 
ATOM     77  C   UNL A   1      47.859  27.852  32.146  1.00  0.00     0.020 A 
ATOM     78  C   UNL A   1      48.648  27.591  31.023  1.00  0.00     0.054 A 
BRANCH  78  79
ATOM     79  S   UNL A   1      50.149  26.582  31.164  1.00  0.00     0.124 S 
ATOM     80  O   UNL A   1      50.597  26.903  32.518  1.00  0.00    -0.237 OA
ATOM     81  O   UNL A   1      49.638  25.228  30.975  1.00  0.00    -0.237 OA
ATOM     82  O   UNL A   1      51.001  27.083  30.089  1.00  0.00    -0.744 OA
ENDBRANCH  78  79
ENDBRANCH  50  73
BRANCH  62  83
ATOM     83  C   UNL A   1      43.239  35.172  32.167  1.00  0.00    -0.014 A 
ATOM     84  C   UNL A   1      42.979  35.463  33.520  1.00  0.00     0.010 A 
ATOM     85  C   UNL A   1      43.848  36.153  31.365  1.00  0.00     0.010 A 
ATOM     86  C   UNL A   1      43.269  36.724  34.046  1.00  0.00     0.020 A 
ATOM     87  C   UNL A   1      44.181  37.402  31.898  1.00  0.00     0.020 A 
ATOM     88  C   UNL A   1      43.860  37.689  33.227  1.00  0.00     0.054 A 
BRANCH  88  89
ATOM     89  S   UNL A   1      44.178  39.337  33.914  1.00  0.00     0.124 S 
ATOM     90  O   UNL A   1      44.631  39.023  35.266  1.00  0.00    -0.237 OA
ATOM     91  O   UNL A   1      45.201  39.864  33.013  1.00  0.00    -0.237 OA
ATOM     92  O   UNL A   1      42.880  40.002  33.829  1.00  0.00    -0.744 OA
ENDBRANCH  88  89
ENDBRANCH  62  83
ENDBRANCH  36  37
ENDBRANCH  28  31
ENDBRANCH  26  27
ENDBRANCH  25  26
ENDBRANCH  24  25
ENDBRANCH   1  24
TORSDOF 20
ENDMDL
MODEL 2
REMARK VINA RESULT:      -8.6      4.912     10.339
REMARK SMILES [NH3+][C@@H](CCC1=c2ccccc2=NC1)C(=O)NCCCCCCNC(=O)c1ccc(-c2c3nc(c(-c4ccc(S(=O)(=O)[O-])cc4)c4ccc([nH]4)c(-c4ccc(S(=O)(=O)[O-])cc4)c4nc(c(-c5ccc(S(=O)(=O)[O-])cc5)c5ccc2[nH]5)C=C4)C=C3)cc1
REMARK SMILES IDX 19 1 18 2 17 3 16 4 14 5 15 6 2 8 1 9 3 13 4 14 5 15 6 16
REMARK SMILES IDX 13 17 7 18 11 19 12 20 8 21 10 22 9 23 20 24 21 25 22 26
REMARK SMILES IDX 23 27 24 28 25 30 26 31 27 32 85 33 28 34 84 35 29 36 30 37
REMARK SMILES IDX 31 38 78 39 32 40 83 41 77 42 79 43 33 44 82 45 76 46 75 47
REMARK SMILES IDX 34 49 64 50 45 51 63 52 46 53 49 54 62 55 80 56 47 57 48 58
REMARK SMILES IDX 61 60 81 61 50 62 35 63 36 64 44 65 37 66 43 67 38 68 39 69
REMARK SMILES IDX 40 70 41 71 42 72 65 73 66 74 74 75 67 76 73 77 68 78 69 79
REMARK SMILES IDX 70 80 71 81 72 82 51 83 52 84 60 85 53 86 59 87 54 88 55 89
REMARK SMILES IDX 56 90 57 91 58 92
REMARK H PARENT 16 7 1 10 1 11 1 12 23 29 79 48 49 59
REMARK Flexibility Score: inf
ROOT
ATOM      1  C   UNL A   1      33.370  26.719  25.984  1.00  0.00     0.002 C 
ENDROOT
BRANCH   1   2
ATOM      2  C   UNL A   1      34.243  25.257  25.624  1.00  0.00     0.021 C 
BRANCH   2   3
ATOM      3  C   UNL A   1      33.636  23.935  26.081  1.00  0.00     0.116 C 
BRANCH   3   4
ATOM      4  N   UNL A   1      34.507  22.813  25.813  1.00  0.00    -0.351 N 
ATOM      5  C   UNL A   1      34.237  21.617  25.223  1.00  0.00     0.278 C 
ATOM      6  O   UNL A   1      35.179  20.841  25.044  1.00  0.00    -0.268 OA
ATOM      7  H   UNL A   1      35.440  22.932  26.102  1.00  0.00     0.163 HD
BRANCH   5   8
ATOM      8  C   UNL A   1      32.813  21.242  24.780  1.00  0.00     0.271 C 
BRANCH   8   9
ATOM      9  N   UNL A   1      31.806  21.424  25.845  1.00  0.00    -0.347 N 
ATOM     10  H   UNL A   1      30.996  21.915  25.467  1.00  0.00     0.345 HD
ATOM     11  H   UNL A   1      32.210  21.971  26.605  1.00  0.00     0.345 HD
ATOM     12  H   UNL A   1      31.517  20.512  26.200  1.00  0.00     0.345 HD
ENDBRANCH   8   9
BRANCH   8  13
ATOM     13  C   UNL A   1      32.402  21.784  23.399  1.00  0.00     0.080 C 
BRANCH  13  14
ATOM     14  C   UNL A   1      31.444  22.986  23.245  1.00  0.00     0.040 C 
BRANCH  14  15
ATOM     15  C   UNL A   1      32.014  24.306  22.811  1.00  0.00    -0.039 C 
ATOM     16  C   UNL A   1      31.544  25.511  23.120  1.00  0.00     0.001 A 
ATOM     17  C   UNL A   1      33.262  24.402  21.908  1.00  0.00     0.174 C 
ATOM     18  C   UNL A   1      30.209  26.403  24.020  1.00  0.00     0.010 A 
ATOM     19  C   UNL A   1      32.925  26.576  22.325  1.00  0.00     0.065 A 
ATOM     20  N   UNL A   1      33.768  25.831  21.691  1.00  0.00    -0.280 NA
ATOM     21  C   UNL A   1      30.285  27.984  24.265  1.00  0.00     0.001 A 
ATOM     22  C   UNL A   1      32.852  28.478  22.713  1.00  0.00     0.028 A 
ATOM     23  C   UNL A   1      31.617  29.079  23.507  1.00  0.00     0.002 A 
ENDBRANCH  14  15
ENDBRANCH  13  14
ENDBRANCH   8  13
ENDBRANCH   5   8
ENDBRANCH   3   4
ENDBRANCH   2   3
ENDBRANCH   1   2
BRANCH   1  24
ATOM     24  C   UNL A   1      33.831  28.649  26.915  1.00  0.00     0.002 C 
BRANCH  24  25
ATOM     25  C   UNL A   1      33.397  30.294  26.733  1.00  0.00     0.021 C 
BRANCH  25  26
ATOM     26  C   UNL A   1      33.831  31.464  27.616  1.00  0.00     0.116 C 
BRANCH  26  27
ATOM     27  N   UNL A   1      33.107  32.721  27.526  1.00  0.00    -0.352 N 
ATOM     28  C   UNL A   1      33.398  33.854  28.269  1.00  0.00     0.251 C 
ATOM     29  H   UNL A   1      32.355  32.770  26.892  1.00  0.00     0.163 HD
ATOM     30  O   UNL A   1      32.772  34.898  28.145  1.00  0.00    -0.269 OA
BRANCH  28  31
ATOM     31  C   UNL A   1      34.467  33.719  29.287  1.00  0.00     0.039 A 
ATOM     32  C   UNL A   1      35.768  34.105  28.962  1.00  0.00     0.014 A 
ATOM     33  C   UNL A   1      34.212  32.955  30.427  1.00  0.00     0.014 A 
ATOM     34  C   UNL A   1      36.832  33.542  29.658  1.00  0.00     0.010 A 
ATOM     35  C   UNL A   1      35.285  32.492  31.194  1.00  0.00     0.010 A 
ATOM     36  C   UNL A   1      36.607  32.729  30.783  1.00  0.00    -0.014 A 
BRANCH  36  37
ATOM     37  C   UNL A   1      37.758  32.158  31.538  1.00  0.00     0.031 A 
ATOM     38  C   UNL A   1      38.081  32.604  32.943  1.00  0.00     0.074 A 
ATOM     39  C   UNL A   1      38.519  31.218  30.941  1.00  0.00     0.049 A 
ATOM     40  N   UNL A   1      39.082  32.246  33.708  1.00  0.00    -0.248 NA
ATOM     41  C   UNL A   1      37.176  33.581  33.573  1.00  0.00     0.031 C 
ATOM     42  C   UNL A   1      38.294  30.690  29.592  1.00  0.00     0.029 A 
ATOM     43  N   UNL A   1      39.621  30.529  31.383  1.00  0.00    -0.354 N 
ATOM     44  C   UNL A   1      38.947  32.968  34.890  1.00  0.00     0.074 A 
ATOM     45  C   UNL A   1      37.781  33.810  34.733  1.00  0.00     0.031 C 
ATOM     46  C   UNL A   1      39.186  29.725  29.342  1.00  0.00     0.029 A 
ATOM     47  C   UNL A   1      40.113  29.632  30.463  1.00  0.00     0.049 A 
ATOM     48  H   UNL A   1      40.022  30.664  32.272  1.00  0.00     0.167 HD
ATOM     49  C   UNL A   1      39.718  32.921  36.003  1.00  0.00     0.031 A 
ATOM     50  C   UNL A   1      41.202  28.837  30.492  1.00  0.00     0.031 A 
ATOM     51  C   UNL A   1      40.866  32.057  36.150  1.00  0.00     0.049 A 
ATOM     52  C   UNL A   1      42.068  28.844  31.716  1.00  0.00     0.074 A 
ATOM     53  C   UNL A   1      41.688  31.909  37.254  1.00  0.00     0.029 A 
ATOM     54  N   UNL A   1      41.353  31.196  35.175  1.00  0.00    -0.354 N 
ATOM     55  N   UNL A   1      41.903  29.511  32.833  1.00  0.00    -0.248 NA
ATOM     56  C   UNL A   1      43.261  27.989  31.692  1.00  0.00     0.031 C 
ATOM     57  C   UNL A   1      42.721  31.034  36.917  1.00  0.00     0.029 A 
ATOM     58  C   UNL A   1      42.488  30.550  35.640  1.00  0.00     0.049 A 
ATOM     59  H   UNL A   1      40.952  31.065  34.286  1.00  0.00     0.167 HD
ATOM     60  C   UNL A   1      42.962  29.142  33.654  1.00  0.00     0.074 A 
ATOM     61  C   UNL A   1      43.742  28.170  32.915  1.00  0.00     0.031 C 
ATOM     62  C   UNL A   1      43.261  29.578  34.902  1.00  0.00     0.031 A 
BRANCH  49  63
ATOM     63  C   UNL A   1      39.369  33.811  37.177  1.00  0.00    -0.014 A 
ATOM     64  C   UNL A   1      39.854  35.135  37.218  1.00  0.00     0.010 A 
ATOM     65  C   UNL A   1      38.707  33.300  38.307  1.00  0.00     0.010 A 
ATOM     66  C   UNL A   1      39.733  35.907  38.378  1.00  0.00     0.020 A 
ATOM     67  C   UNL A   1      38.549  34.083  39.458  1.00  0.00     0.020 A 
ATOM     68  C   UNL A   1      39.091  35.369  39.496  1.00  0.00     0.054 A 
BRANCH  68  69
ATOM     69  S   UNL A   1      39.004  36.361  41.014  1.00  0.00     0.124 S 
ATOM     70  O   UNL A   1      38.622  37.674  40.504  1.00  0.00    -0.237 OA
ATOM     71  O   UNL A   1      37.982  35.661  41.790  1.00  0.00    -0.237 OA
ATOM     72  O   UNL A   1      40.357  36.272  41.560  1.00  0.00    -0.744 OA
ENDBRANCH  68  69
ENDBRANCH  49  63
BRANCH  50  73
ATOM     73  C   UNL A   1      41.488  27.961  29.320  1.00  0.00    -0.014 A 
ATOM     74  C   UNL A   1      40.921  26.673  29.232  1.00  0.00     0.010 A 
ATOM     75  C   UNL A   1      42.418  28.362  28.347  1.00  0.00     0.010 A 
ATOM     76  C   UNL A   1      41.341  25.777  28.247  1.00  0.00     0.020 A 
ATOM     77  C   UNL A   1      42.808  27.483  27.331  1.00  0.00     0.020 A 
ATOM     78  C   UNL A   1      42.295  26.184  27.312  1.00  0.00     0.054 A 
BRANCH  78  79
ATOM     79  S   UNL A   1      42.889  24.975  26.097  1.00  0.00     0.124 S 
ATOM     80  O   UNL A   1      44.111  24.489  26.733  1.00  0.00    -0.237 OA
ATOM     81  O   UNL A   1      41.786  24.020  26.038  1.00  0.00    -0.237 OA
ATOM     82  O   UNL A   1      43.088  25.772  24.890  1.00  0.00    -0.744 OA
ENDBRANCH  78  79
ENDBRANCH  50  73
BRANCH  62  83
ATOM     83  C   UNL A   1      44.489  29.017  35.577  1.00  0.00    -0.014 A 
ATOM     84  C   UNL A   1      44.373  27.896  36.422  1.00  0.00     0.010 A 
ATOM     85  C   UNL A   1      45.729  29.673  35.485  1.00  0.00     0.010 A 
ATOM     86  C   UNL A   1      45.453  27.476  37.201  1.00  0.00     0.020 A 
ATOM     87  C   UNL A   1      46.826  29.230  36.230  1.00  0.00     0.020 A 
ATOM     88  C   UNL A   1      46.671  28.153  37.107  1.00  0.00     0.054 A 
BRANCH  88  89
ATOM     89  S   UNL A   1      48.045  27.626  38.166  1.00  0.00     0.124 S 
ATOM     90  O   UNL A   1      49.197  28.220  37.492  1.00  0.00    -0.237 OA
ATOM     91  O   UNL A   1      47.697  28.217  39.456  1.00  0.00    -0.237 OA
ATOM     92  O   UNL A   1      47.977  26.167  38.118  1.00  0.00    -0.744 OA
ENDBRANCH  88  89
ENDBRANCH  62  83
ENDBRANCH  36  37
ENDBRANCH  28  31
ENDBRANCH  26  27
ENDBRANCH  25  26
ENDBRANCH  24  25
ENDBRANCH   1  24
TORSDOF 20
ENDMDL
MODEL 3
REMARK VINA RESULT:      -8.4      0.625      8.252
REMARK SMILES [NH3+][C@@H](CCC1=c2ccccc2=NC1)C(=O)NCCCCCCNC(=O)c1ccc(-c2c3nc(c(-c4ccc(S(=O)(=O)[O-])cc4)c4ccc([nH]4)c(-c4ccc(S(=O)(=O)[O-])cc4)c4nc(c(-c5ccc(S(=O)(=O)[O-])cc5)c5ccc2[nH]5)C=C4)C=C3)cc1
REMARK SMILES IDX 19 1 18 2 17 3 16 4 14 5 15 6 2 8 1 9 3 13 4 14 5 15 6 16
REMARK SMILES IDX 13 17 7 18 11 19 12 20 8 21 10 22 9 23 20 24 21 25 22 26
REMARK SMILES IDX 23 27 24 28 25 30 26 31 27 32 85 33 28 34 84 35 29 36 30 37
REMARK SMILES IDX 31 38 78 39 32 40 83 41 77 42 79 43 33 44 82 45 76 46 75 47
REMARK SMILES IDX 34 49 64 50 45 51 63 52 46 53 49 54 62 55 80 56 47 57 48 58
REMARK SMILES IDX 61 60 81 61 50 62 35 63 36 64 44 65 37 66 43 67 38 68 39 69
REMARK SMILES IDX 40 70 41 71 42 72 65 73 66 74 74 75 67 76 73 77 68 78 69 79
REMARK SMILES IDX 70 80 71 81 72 82 51 83 52 84 60 85 53 86 59 87 54 88 55 89
REMARK SMILES IDX 56 90 57 91 58 92
REMARK H PARENT 16 7 1 10 1 11 1 12 23 29 79 48 49 59
REMARK Flexibility Score: inf
ROOT
ATOM      1  C   UNL A   1      43.386  23.323  28.685  1.00  0.00     0.002 C 
ENDROOT
BRANCH   1   2
ATOM      2  C   UNL A   1      44.577  23.757  29.877  1.00  0.00     0.021 C 
BRANCH   2   3
ATOM      3  C   UNL A   1      44.090  24.428  31.158  1.00  0.00     0.116 C 
BRANCH   3   4
ATOM      4  N   UNL A   1      44.219  23.564  32.310  1.00  0.00    -0.351 N 
ATOM      5  C   UNL A   1      43.877  23.781  33.608  1.00  0.00     0.278 C 
ATOM      6  O   UNL A   1      44.025  22.850  34.403  1.00  0.00    -0.268 OA
ATOM      7  H   UNL A   1      44.615  22.682  32.126  1.00  0.00     0.163 HD
BRANCH   5   8
ATOM      8  C   UNL A   1      43.314  25.133  34.077  1.00  0.00     0.271 C 
BRANCH   8   9
ATOM      9  N   UNL A   1      42.331  25.005  35.171  1.00  0.00    -0.347 N 
ATOM     10  H   UNL A   1      41.388  25.104  34.795  1.00  0.00     0.345 HD
ATOM     11  H   UNL A   1      42.498  25.732  35.865  1.00  0.00     0.345 HD
ATOM     12  H   UNL A   1      42.427  24.088  35.609  1.00  0.00     0.345 HD
ENDBRANCH   8   9
BRANCH   8  13
ATOM     13  C   UNL A   1      44.368  26.238  34.276  1.00  0.00     0.080 C 
BRANCH  13  14
ATOM     14  C   UNL A   1      44.542  27.392  33.265  1.00  0.00     0.040 C 
BRANCH  14  15
ATOM     15  C   UNL A   1      43.767  28.660  33.485  1.00  0.00    -0.039 C 
ATOM     16  C   UNL A   1      42.495  28.876  33.161  1.00  0.00     0.001 A 
ATOM     17  C   UNL A   1      44.403  29.908  34.133  1.00  0.00     0.174 C 
ATOM     18  C   UNL A   1      41.007  28.120  32.384  1.00  0.00     0.010 A 
ATOM     19  C   UNL A   1      42.290  30.621  33.927  1.00  0.00     0.065 A 
ATOM     20  N   UNL A   1      43.415  31.048  34.396  1.00  0.00    -0.280 NA
ATOM     21  C   UNL A   1      39.570  28.820  32.488  1.00  0.00     0.001 A 
ATOM     22  C   UNL A   1      40.480  31.324  33.953  1.00  0.00     0.028 A 
ATOM     23  C   UNL A   1      39.311  30.533  33.227  1.00  0.00     0.002 A 
ENDBRANCH  14  15
ENDBRANCH  13  14
ENDBRANCH   8  13
ENDBRANCH   5   8
ENDBRANCH   3   4
ENDBRANCH   2   3
ENDBRANCH   1   2
BRANCH   1  24
ATOM     24  C   UNL A   1      41.767  21.852  28.528  1.00  0.00     0.002 C 
BRANCH  24  25
ATOM     25  C   UNL A   1      40.776  21.165  27.314  1.00  0.00     0.021 C 
BRANCH  25  26
ATOM     26  C   UNL A   1      40.352  21.812  25.995  1.00  0.00     0.116 C 
BRANCH  26  27
ATOM     27  N   UNL A   1      38.957  22.167  25.802  1.00  0.00    -0.352 N 
ATOM     28  C   UNL A   1      38.405  23.399  26.119  1.00  0.00     0.251 C 
ATOM     29  H   UNL A   1      38.360  21.483  25.420  1.00  0.00     0.163 HD
ATOM     30  O   UNL A   1      37.226  23.660  25.919  1.00  0.00    -0.269 OA
BRANCH  28  31
ATOM     31  C   UNL A   1      39.302  24.371  26.786  1.00  0.00     0.039 A 
ATOM     32  C   UNL A   1      39.192  24.564  28.164  1.00  0.00     0.014 A 
ATOM     33  C   UNL A   1      40.025  25.267  25.995  1.00  0.00     0.014 A 
ATOM     34  C   UNL A   1      39.620  25.767  28.713  1.00  0.00     0.010 A 
ATOM     35  C   UNL A   1      40.559  26.418  26.579  1.00  0.00     0.010 A 
ATOM     36  C   UNL A   1      40.310  26.711  27.931  1.00  0.00    -0.014 A 
BRANCH  36  37
ATOM     37  C   UNL A   1      40.791  27.983  28.541  1.00  0.00     0.031 A 
ATOM     38  C   UNL A   1      42.238  28.177  28.926  1.00  0.00     0.074 A 
ATOM     39  C   UNL A   1      39.903  28.977  28.744  1.00  0.00     0.049 A 
ATOM     40  N   UNL A   1      42.798  29.201  29.520  1.00  0.00    -0.248 NA
ATOM     41  C   UNL A   1      43.178  27.085  28.618  1.00  0.00     0.031 C 
ATOM     42  C   UNL A   1      38.482  28.916  28.393  1.00  0.00     0.029 A 
ATOM     43  N   UNL A   1      40.056  30.233  29.277  1.00  0.00    -0.354 N 
ATOM     44  C   UNL A   1      44.140  28.870  29.681  1.00  0.00     0.074 A 
ATOM     45  C   UNL A   1      44.308  27.536  29.149  1.00  0.00     0.031 C 
ATOM     46  C   UNL A   1      37.909  30.094  28.664  1.00  0.00     0.029 A 
ATOM     47  C   UNL A   1      38.890  30.963  29.303  1.00  0.00     0.049 A 
ATOM     48  H   UNL A   1      40.916  30.578  29.610  1.00  0.00     0.167 HD
ATOM     49  C   UNL A   1      45.138  29.617  30.213  1.00  0.00     0.031 A 
ATOM     50  C   UNL A   1      38.618  32.184  29.806  1.00  0.00     0.031 A 
ATOM     51  C   UNL A   1      44.955  30.958  30.719  1.00  0.00     0.049 A 
ATOM     52  C   UNL A   1      39.730  32.969  30.437  1.00  0.00     0.074 A 
ATOM     53  C   UNL A   1      45.912  31.811  31.243  1.00  0.00     0.029 A 
ATOM     54  N   UNL A   1      43.747  31.641  30.765  1.00  0.00    -0.354 N 
ATOM     55  N   UNL A   1      40.997  32.649  30.551  1.00  0.00    -0.248 NA
ATOM     56  C   UNL A   1      39.383  34.279  31.001  1.00  0.00     0.031 C 
ATOM     57  C   UNL A   1      45.271  32.967  31.688  1.00  0.00     0.029 A 
ATOM     58  C   UNL A   1      43.930  32.886  31.348  1.00  0.00     0.049 A 
ATOM     59  H   UNL A   1      42.888  31.294  30.434  1.00  0.00     0.167 HD
ATOM     60  C   UNL A   1      41.603  33.728  31.183  1.00  0.00     0.074 A 
ATOM     61  C   UNL A   1      40.569  34.720  31.398  1.00  0.00     0.031 C 
ATOM     62  C   UNL A   1      42.898  33.875  31.557  1.00  0.00     0.031 A 
BRANCH  49  63
ATOM     63  C   UNL A   1      46.534  29.037  30.283  1.00  0.00    -0.014 A 
ATOM     64  C   UNL A   1      46.982  28.439  31.479  1.00  0.00     0.010 A 
ATOM     65  C   UNL A   1      47.453  29.224  29.236  1.00  0.00     0.010 A 
ATOM     66  C   UNL A   1      48.327  28.091  31.646  1.00  0.00     0.020 A 
ATOM     67  C   UNL A   1      48.792  28.841  29.384  1.00  0.00     0.020 A 
ATOM     68  C   UNL A   1      49.226  28.307  30.599  1.00  0.00     0.054 A 
BRANCH  68  69
ATOM     69  S   UNL A   1      50.979  27.912  30.857  1.00  0.00     0.124 S 
ATOM     70  O   UNL A   1      50.914  26.558  31.399  1.00  0.00    -0.237 OA
ATOM     71  O   UNL A   1      51.531  28.029  29.510  1.00  0.00    -0.237 OA
ATOM     72  O   UNL A   1      51.427  28.939  31.796  1.00  0.00    -0.744 OA
ENDBRANCH  68  69
ENDBRANCH  49  63
BRANCH  50  73
ATOM     73  C   UNL A   1      37.232  32.722  29.691  1.00  0.00    -0.014 A 
ATOM     74  C   UNL A   1      36.762  33.237  28.466  1.00  0.00     0.010 A 
ATOM     75  C   UNL A   1      36.416  32.826  30.829  1.00  0.00     0.010 A 
ATOM     76  C   UNL A   1      35.546  33.921  28.401  1.00  0.00     0.020 A 
ATOM     77  C   UNL A   1      35.177  33.470  30.760  1.00  0.00     0.020 A 
ATOM     78  C   UNL A   1      34.770  34.047  29.555  1.00  0.00     0.054 A 
BRANCH  78  79
ATOM     79  S   UNL A   1      33.237  35.013  29.466  1.00  0.00     0.124 S 
ATOM     80  O   UNL A   1      33.732  36.315  29.024  1.00  0.00    -0.237 OA
ATOM     81  O   UNL A   1      32.453  34.272  28.483  1.00  0.00    -0.237 OA
ATOM     82  O   UNL A   1      32.725  34.971  30.832  1.00  0.00    -0.744 OA
ENDBRANCH  78  79
ENDBRANCH  50  73
BRANCH  62  83
ATOM     83  C   UNL A   1      43.300  35.157  32.244  1.00  0.00    -0.014 A 
ATOM     84  C   UNL A   1      43.810  36.228  31.484  1.00  0.00     0.010 A 
ATOM     85  C   UNL A   1      43.301  35.257  33.646  1.00  0.00     0.010 A 
ATOM     86  C   UNL A   1      44.361  37.348  32.111  1.00  0.00     0.020 A 
ATOM     87  C   UNL A   1      43.811  36.395  34.278  1.00  0.00     0.020 A 
ATOM     88  C   UNL A   1      44.367  37.419  33.507  1.00  0.00     0.054 A 
BRANCH  88  89
ATOM     89  S   UNL A   1      45.135  38.855  34.302  1.00  0.00     0.124 S 
ATOM     90  O   UNL A   1      44.104  39.269  35.251  1.00  0.00    -0.237 OA
ATOM     91  O   UNL A   1      46.342  38.283  34.894  1.00  0.00    -0.237 OA
ATOM     92  O   UNL A   1      45.370  39.778  33.194  1.00  0.00    -0.744 OA
ENDBRANCH  88  89
ENDBRANCH  62  83
ENDBRANCH  36  37
ENDBRANCH  28  31
ENDBRANCH  26  27
ENDBRANCH  25  26
ENDBRANCH  24  25
ENDBRANCH   1  24
TORSDOF 20
ENDMDL
