MODEL 1
REMARK VINA RESULT:     -11.0      0.000      0.000
REMARK SMILES O=C(NCCCCCCNC(=O)c1cccnc1C(=O)Nc1ccc(Cl)cn1)c1ccc(-c2c3nc(c(-c4ccc(S(=O)(=O)[O-])cc4)c4ccc([nH]4)c(-c4ccc(S(=O)(=O)[O-])cc4)c4nc(c(-c5ccc(S(=O)(=O)[O-])cc5)c5ccc2[nH]5)C=C4)C=C3)cc1
REMARK SMILES IDX 6 1 5 2 4 3 3 4 1 5 2 6 29 8 30 9 88 10 31 11 87 12 32 13
REMARK SMILES IDX 33 14 34 15 81 16 35 17 86 18 80 19 82 20 36 21 85 22 79 23
REMARK SMILES IDX 78 24 37 26 67 27 48 28 66 29 49 30 52 31 65 32 83 33 50 34
REMARK SMILES IDX 51 35 64 37 84 38 53 39 38 40 39 41 47 42 40 43 46 44 41 45
REMARK SMILES IDX 42 46 43 47 44 48 45 49 68 50 69 51 77 52 70 53 76 54 71 55
REMARK SMILES IDX 72 56 73 57 74 58 75 59 54 60 55 61 63 62 56 63 62 64 57 65
REMARK SMILES IDX 58 66 59 67 60 68 61 69 7 70 8 71 9 72 10 73 11 74 12 76
REMARK SMILES IDX 13 77 14 78 18 79 15 80 17 81 16 82 19 83 20 84 21 85 22 87
REMARK SMILES IDX 23 88 28 89 24 90 27 91 25 92 26 93
REMARK H PARENT 3 7 82 25 52 36 10 75 21 86
REMARK Flexibility Score: inf
ROOT
ATOM      1  C   UNL A   1      33.172  28.858  24.746  1.00  0.00     0.002 C 
ENDROOT
BRANCH   1   2
ATOM      2  C   UNL A   1      33.022  27.930  25.943  1.00  0.00     0.021 C 
BRANCH   2   3
ATOM      3  C   UNL A   1      33.854  28.324  27.149  1.00  0.00     0.116 C 
BRANCH   3   4
ATOM      4  N   UNL A   1      33.672  29.709  27.555  1.00  0.00    -0.352 N 
ATOM      5  O   UNL A   1      34.304  31.647  28.553  1.00  0.00    -0.269 OA
ATOM      6  C   UNL A   1      34.606  30.530  28.155  1.00  0.00     0.251 C 
ATOM      7  H   UNL A   1      32.787  30.104  27.383  1.00  0.00     0.163 HD
BRANCH   6   8
ATOM      8  C   UNL A   1      35.976  30.001  28.338  1.00  0.00     0.039 A 
ATOM      9  C   UNL A   1      36.350  29.494  29.582  1.00  0.00     0.014 A 
ATOM     10  C   UNL A   1      36.910  30.114  27.305  1.00  0.00     0.014 A 
ATOM     11  C   UNL A   1      37.692  29.270  29.849  1.00  0.00     0.010 A 
ATOM     12  C   UNL A   1      38.246  29.772  27.546  1.00  0.00     0.010 A 
ATOM     13  C   UNL A   1      38.655  29.380  28.829  1.00  0.00    -0.014 A 
BRANCH  13  14
ATOM     14  C   UNL A   1      40.053  28.986  29.139  1.00  0.00     0.031 A 
ATOM     15  C   UNL A   1      40.607  27.640  28.757  1.00  0.00     0.074 A 
ATOM     16  C   UNL A   1      40.849  29.911  29.713  1.00  0.00     0.049 A 
ATOM     17  N   UNL A   1      41.831  27.193  28.897  1.00  0.00    -0.248 NA
ATOM     18  C   UNL A   1      39.682  26.670  28.152  1.00  0.00     0.031 C 
ATOM     19  C   UNL A   1      40.413  31.246  30.142  1.00  0.00     0.029 A 
ATOM     20  N   UNL A   1      42.190  29.897  29.996  1.00  0.00    -0.354 N 
ATOM     21  C   UNL A   1      41.822  25.889  28.412  1.00  0.00     0.074 A 
ATOM     22  C   UNL A   1      40.465  25.608  27.995  1.00  0.00     0.031 C 
ATOM     23  C   UNL A   1      41.477  31.945  30.557  1.00  0.00     0.029 A 
ATOM     24  C   UNL A   1      42.652  31.087  30.506  1.00  0.00     0.049 A 
ATOM     25  H   UNL A   1      42.765  29.113  29.847  1.00  0.00     0.167 HD
ATOM     26  C   UNL A   1      42.853  25.013  28.322  1.00  0.00     0.031 A 
ATOM     27  C   UNL A   1      43.882  31.450  30.911  1.00  0.00     0.031 A 
ATOM     28  C   UNL A   1      44.201  25.301  28.745  1.00  0.00     0.049 A 
ATOM     29  C   UNL A   1      44.998  30.456  30.807  1.00  0.00     0.074 A 
ATOM     30  C   UNL A   1      45.315  24.480  28.692  1.00  0.00     0.029 A 
ATOM     31  N   UNL A   1      44.621  26.503  29.297  1.00  0.00    -0.354 N 
ATOM     32  N   UNL A   1      44.965  29.232  30.336  1.00  0.00    -0.248 NA
ATOM     33  C   UNL A   1      46.314  30.889  31.290  1.00  0.00     0.031 C 
ATOM     34  C   UNL A   1      46.397  25.169  29.251  1.00  0.00     0.029 A 
ATOM     35  C   UNL A   1      45.972  26.440  29.601  1.00  0.00     0.049 A 
ATOM     36  H   UNL A   1      44.045  27.286  29.449  1.00  0.00     0.167 HD
ATOM     37  C   UNL A   1      46.260  28.747  30.468  1.00  0.00     0.074 A 
ATOM     38  C   UNL A   1      47.056  29.825  31.021  1.00  0.00     0.031 C 
ATOM     39  C   UNL A   1      46.743  27.515  30.170  1.00  0.00     0.031 A 
BRANCH  26  40
ATOM     40  C   UNL A   1      42.570  23.646  27.752  1.00  0.00    -0.014 A 
ATOM     41  C   UNL A   1      42.776  23.371  26.388  1.00  0.00     0.010 A 
ATOM     42  C   UNL A   1      42.169  22.600  28.606  1.00  0.00     0.010 A 
ATOM     43  C   UNL A   1      42.566  22.084  25.885  1.00  0.00     0.020 A 
ATOM     44  C   UNL A   1      41.981  21.306  28.109  1.00  0.00     0.020 A 
ATOM     45  C   UNL A   1      42.170  21.059  26.748  1.00  0.00     0.054 A 
BRANCH  45  46
ATOM     46  S   UNL A   1      41.948  19.389  26.072  1.00  0.00     0.124 S 
ATOM     47  O   UNL A   1      42.757  19.447  24.857  1.00  0.00    -0.237 OA
ATOM     48  O   UNL A   1      42.477  18.540  27.137  1.00  0.00    -0.237 OA
ATOM     49  O   UNL A   1      40.507  19.289  25.857  1.00  0.00    -0.744 OA
ENDBRANCH  45  46
ENDBRANCH  26  40
BRANCH  27  50
ATOM     50  C   UNL A   1      44.099  32.803  31.490  1.00  0.00    -0.014 A 
ATOM     51  C   UNL A   1      44.453  33.893  30.677  1.00  0.00     0.010 A 
ATOM     52  C   UNL A   1      43.927  33.007  32.873  1.00  0.00     0.010 A 
ATOM     53  C   UNL A   1      44.655  35.156  31.240  1.00  0.00     0.020 A 
ATOM     54  C   UNL A   1      44.092  34.274  33.433  1.00  0.00     0.020 A 
ATOM     55  C   UNL A   1      44.474  35.337  32.615  1.00  0.00     0.054 A 
BRANCH  55  56
ATOM     56  S   UNL A   1      44.701  36.991  33.324  1.00  0.00     0.124 S 
ATOM     57  O   UNL A   1      46.074  37.298  32.935  1.00  0.00    -0.237 OA
ATOM     58  O   UNL A   1      43.662  37.770  32.652  1.00  0.00    -0.237 OA
ATOM     59  O   UNL A   1      44.484  36.781  34.753  1.00  0.00    -0.744 OA
ENDBRANCH  55  56
ENDBRANCH  27  50
BRANCH  39  60
ATOM     60  C   UNL A   1      48.206  27.286  30.433  1.00  0.00    -0.014 A 
ATOM     61  C   UNL A   1      49.171  27.560  29.446  1.00  0.00     0.010 A 
ATOM     62  C   UNL A   1      48.621  26.788  31.681  1.00  0.00     0.010 A 
ATOM     63  C   UNL A   1      50.520  27.287  29.684  1.00  0.00     0.020 A 
ATOM     64  C   UNL A   1      49.973  26.543  31.932  1.00  0.00     0.020 A 
ATOM     65  C   UNL A   1      50.911  26.772  30.923  1.00  0.00     0.054 A 
BRANCH  65  66
ATOM     66  S   UNL A   1      52.668  26.428  31.211  1.00  0.00     0.124 S 
ATOM     67  O   UNL A   1      53.086  27.602  31.971  1.00  0.00    -0.237 OA
ATOM     68  O   UNL A   1      52.632  25.174  31.960  1.00  0.00    -0.237 OA
ATOM     69  O   UNL A   1      53.225  26.326  29.864  1.00  0.00    -0.744 OA
ENDBRANCH  65  66
ENDBRANCH  39  60
ENDBRANCH  13  14
ENDBRANCH   6   8
ENDBRANCH   3   4
ENDBRANCH   2   3
ENDBRANCH   1   2
BRANCH   1  70
ATOM     70  C   UNL A   1      33.760  28.223  23.484  1.00  0.00     0.002 C 
BRANCH  70  71
ATOM     71  C   UNL A   1      33.114  26.946  22.938  1.00  0.00     0.021 C 
BRANCH  71  72
ATOM     72  C   UNL A   1      33.803  25.606  23.191  1.00  0.00     0.116 C 
BRANCH  72  73
ATOM     73  N   UNL A   1      33.284  24.486  22.424  1.00  0.00    -0.352 N 
ATOM     74  C   UNL A   1      33.525  23.142  22.553  1.00  0.00     0.253 C 
ATOM     75  H   UNL A   1      32.664  24.730  21.699  1.00  0.00     0.163 HD
ATOM     76  O   UNL A   1      32.782  22.320  22.030  1.00  0.00    -0.269 OA
BRANCH  74  77
ATOM     77  C   UNL A   1      34.595  22.681  23.422  1.00  0.00     0.071 A 
ATOM     78  C   UNL A   1      35.869  23.165  23.068  1.00  0.00     0.018 A 
ATOM     79  C   UNL A   1      34.459  21.849  24.528  1.00  0.00     0.141 A 
ATOM     80  C   UNL A   1      36.984  22.780  23.791  1.00  0.00     0.021 A 
ATOM     81  N   UNL A   1      35.573  21.467  25.233  1.00  0.00    -0.250 NA
ATOM     82  C   UNL A   1      36.788  21.930  24.857  1.00  0.00     0.112 A 
BRANCH  79  83
ATOM     83  C   UNL A   1      33.192  21.273  25.155  1.00  0.00     0.276 C 
ATOM     84  O   UNL A   1      32.516  21.977  25.909  1.00  0.00    -0.267 OA
ATOM     85  N   UNL A   1      32.618  20.143  24.631  1.00  0.00    -0.305 N 
ATOM     86  H   UNL A   1      31.861  20.302  24.023  1.00  0.00     0.171 HD
BRANCH  85  87
ATOM     87  C   UNL A   1      32.944  18.806  24.829  1.00  0.00     0.132 A 
ATOM     88  C   UNL A   1      33.810  18.104  24.001  1.00  0.00     0.049 A 
ATOM     89  N   UNL A   1      32.326  18.241  25.885  1.00  0.00    -0.238 NA
ATOM     90  C   UNL A   1      33.925  16.722  24.178  1.00  0.00     0.026 A 
ATOM     91  C   UNL A   1      32.409  16.892  25.995  1.00  0.00     0.134 A 
ATOM     92  C   UNL A   1      33.171  16.097  25.160  1.00  0.00     0.059 A 
ATOM     93  Cl  UNL A   1      33.178  14.390  25.313  1.00  0.00    -0.083 Cl
ENDBRANCH  85  87
ENDBRANCH  79  83
ENDBRANCH  74  77
ENDBRANCH  72  73
ENDBRANCH  71  72
ENDBRANCH  70  71
ENDBRANCH   1  70
TORSDOF 18
ENDMDL
MODEL 2
REMARK VINA RESULT:     -10.9      3.890      9.889
REMARK SMILES O=C(NCCCCCCNC(=O)c1cccnc1C(=O)Nc1ccc(Cl)cn1)c1ccc(-c2c3nc(c(-c4ccc(S(=O)(=O)[O-])cc4)c4ccc([nH]4)c(-c4ccc(S(=O)(=O)[O-])cc4)c4nc(c(-c5ccc(S(=O)(=O)[O-])cc5)c5ccc2[nH]5)C=C4)C=C3)cc1
REMARK SMILES IDX 6 1 5 2 4 3 3 4 1 5 2 6 29 8 30 9 88 10 31 11 87 12 32 13
REMARK SMILES IDX 33 14 34 15 81 16 35 17 86 18 80 19 82 20 36 21 85 22 79 23
REMARK SMILES IDX 78 24 37 26 67 27 48 28 66 29 49 30 52 31 65 32 83 33 50 34
REMARK SMILES IDX 51 35 64 37 84 38 53 39 38 40 39 41 47 42 40 43 46 44 41 45
REMARK SMILES IDX 42 46 43 47 44 48 45 49 68 50 69 51 77 52 70 53 76 54 71 55
REMARK SMILES IDX 72 56 73 57 74 58 75 59 54 60 55 61 63 62 56 63 62 64 57 65
REMARK SMILES IDX 58 66 59 67 60 68 61 69 7 70 8 71 9 72 10 73 11 74 12 76
REMARK SMILES IDX 13 77 14 78 18 79 15 80 17 81 16 82 19 83 20 84 21 85 22 87
REMARK SMILES IDX 23 88 28 89 24 90 27 91 25 92 26 93
REMARK H PARENT 3 7 82 25 52 36 10 75 21 86
REMARK Flexibility Score: inf
ROOT
ATOM      1  C   UNL A   1      34.034  24.748  25.942  1.00  0.00     0.002 C 
ENDROOT
BRANCH   1   2
ATOM      2  C   UNL A   1      35.223  24.239  25.138  1.00  0.00     0.021 C 
BRANCH   2   3
ATOM      3  C   UNL A   1      36.562  24.392  25.834  1.00  0.00     0.116 C 
BRANCH   3   4
ATOM      4  N   UNL A   1      37.393  23.200  25.765  1.00  0.00    -0.352 N 
ATOM      5  O   UNL A   1      39.336  22.047  25.982  1.00  0.00    -0.269 OA
ATOM      6  C   UNL A   1      38.700  23.071  26.192  1.00  0.00     0.251 C 
ATOM      7  H   UNL A   1      36.980  22.398  25.371  1.00  0.00     0.163 HD
BRANCH   6   8
ATOM      8  C   UNL A   1      39.321  24.226  26.878  1.00  0.00     0.039 A 
ATOM      9  C   UNL A   1      39.054  24.439  28.231  1.00  0.00     0.014 A 
ATOM     10  C   UNL A   1      40.073  25.148  26.147  1.00  0.00     0.014 A 
ATOM     11  C   UNL A   1      39.385  25.657  28.804  1.00  0.00     0.010 A 
ATOM     12  C   UNL A   1      40.508  26.326  26.766  1.00  0.00     0.010 A 
ATOM     13  C   UNL A   1      40.138  26.606  28.090  1.00  0.00    -0.014 A 
BRANCH  13  14
ATOM     14  C   UNL A   1      40.586  27.828  28.806  1.00  0.00     0.031 A 
ATOM     15  C   UNL A   1      39.676  29.006  29.023  1.00  0.00     0.074 A 
ATOM     16  C   UNL A   1      41.828  27.823  29.332  1.00  0.00     0.049 A 
ATOM     17  N   UNL A   1      39.910  30.105  29.697  1.00  0.00    -0.248 NA
ATOM     18  C   UNL A   1      38.340  28.957  28.408  1.00  0.00     0.031 C 
ATOM     19  C   UNL A   1      42.805  26.740  29.169  1.00  0.00     0.029 A 
ATOM     20  N   UNL A   1      42.469  28.725  30.140  1.00  0.00    -0.354 N 
ATOM     21  C   UNL A   1      38.764  30.883  29.577  1.00  0.00     0.074 A 
ATOM     22  C   UNL A   1      37.841  30.140  28.745  1.00  0.00     0.031 C 
ATOM     23  C   UNL A   1      43.885  27.003  29.916  1.00  0.00     0.029 A 
ATOM     24  C   UNL A   1      43.716  28.307  30.541  1.00  0.00     0.049 A 
ATOM     25  H   UNL A   1      42.076  29.586  30.407  1.00  0.00     0.167 HD
ATOM     26  C   UNL A   1      38.508  32.101  30.115  1.00  0.00     0.031 A 
ATOM     27  C   UNL A   1      44.638  28.910  31.313  1.00  0.00     0.031 A 
ATOM     28  C   UNL A   1      39.437  32.835  30.937  1.00  0.00     0.049 A 
ATOM     29  C   UNL A   1      44.329  30.260  31.885  1.00  0.00     0.074 A 
ATOM     30  C   UNL A   1      39.268  34.076  31.530  1.00  0.00     0.029 A 
ATOM     31  N   UNL A   1      40.706  32.398  31.287  1.00  0.00    -0.354 N 
ATOM     32  N   UNL A   1      43.233  30.971  31.763  1.00  0.00    -0.248 NA
ATOM     33  C   UNL A   1      45.378  30.891  32.693  1.00  0.00     0.031 C 
ATOM     34  C   UNL A   1      40.451  34.407  32.201  1.00  0.00     0.029 A 
ATOM     35  C   UNL A   1      41.336  33.349  32.074  1.00  0.00     0.049 A 
ATOM     36  H   UNL A   1      41.101  31.538  31.016  1.00  0.00     0.167 HD
ATOM     37  C   UNL A   1      43.462  32.137  32.481  1.00  0.00     0.074 A 
ATOM     38  C   UNL A   1      44.782  32.014  33.068  1.00  0.00     0.031 C 
ATOM     39  C   UNL A   1      42.657  33.218  32.632  1.00  0.00     0.031 A 
BRANCH  26  40
ATOM     40  C   UNL A   1      37.170  32.734  29.824  1.00  0.00    -0.014 A 
ATOM     41  C   UNL A   1      36.095  32.604  30.723  1.00  0.00     0.010 A 
ATOM     42  C   UNL A   1      37.007  33.536  28.678  1.00  0.00     0.010 A 
ATOM     43  C   UNL A   1      34.879  33.244  30.470  1.00  0.00     0.020 A 
ATOM     44  C   UNL A   1      35.799  34.197  28.435  1.00  0.00     0.020 A 
ATOM     45  C   UNL A   1      34.738  34.038  29.328  1.00  0.00     0.054 A 
BRANCH  45  46
ATOM     46  S   UNL A   1      33.160  34.891  29.051  1.00  0.00     0.124 S 
ATOM     47  O   UNL A   1      33.606  36.188  28.547  1.00  0.00    -0.237 OA
ATOM     48  O   UNL A   1      32.499  34.032  28.073  1.00  0.00    -0.237 OA
ATOM     49  O   UNL A   1      32.541  34.917  30.374  1.00  0.00    -0.744 OA
ENDBRANCH  45  46
ENDBRANCH  26  40
BRANCH  27  50
ATOM     50  C   UNL A   1      45.951  28.252  31.544  1.00  0.00    -0.014 A 
ATOM     51  C   UNL A   1      46.113  27.286  32.552  1.00  0.00     0.010 A 
ATOM     52  C   UNL A   1      47.052  28.582  30.729  1.00  0.00     0.010 A 
ATOM     53  C   UNL A   1      47.356  26.681  32.756  1.00  0.00     0.020 A 
ATOM     54  C   UNL A   1      48.284  27.954  30.905  1.00  0.00     0.020 A 
ATOM     55  C   UNL A   1      48.433  27.020  31.931  1.00  0.00     0.054 A 
BRANCH  55  56
ATOM     56  S   UNL A   1      50.029  26.195  32.183  1.00  0.00     0.124 S 
ATOM     57  O   UNL A   1      50.958  27.152  31.590  1.00  0.00    -0.237 OA
ATOM     58  O   UNL A   1      50.094  26.067  33.638  1.00  0.00    -0.237 OA
ATOM     59  O   UNL A   1      49.878  24.934  31.461  1.00  0.00    -0.744 OA
ENDBRANCH  55  56
ENDBRANCH  27  50
BRANCH  39  60
ATOM     60  C   UNL A   1      43.194  34.342  33.475  1.00  0.00    -0.014 A 
ATOM     61  C   UNL A   1      42.899  34.422  34.848  1.00  0.00     0.010 A 
ATOM     62  C   UNL A   1      44.000  35.333  32.886  1.00  0.00     0.010 A 
ATOM     63  C   UNL A   1      43.356  35.503  35.607  1.00  0.00     0.020 A 
ATOM     64  C   UNL A   1      44.483  36.399  33.648  1.00  0.00     0.020 A 
ATOM     65  C   UNL A   1      44.138  36.489  34.998  1.00  0.00     0.054 A 
BRANCH  65  66
ATOM     66  S   UNL A   1      44.722  37.882  36.001  1.00  0.00     0.124 S 
ATOM     67  O   UNL A   1      44.463  39.018  35.122  1.00  0.00    -0.237 OA
ATOM     68  O   UNL A   1      43.875  37.801  37.189  1.00  0.00    -0.237 OA
ATOM     69  O   UNL A   1      46.133  37.577  36.228  1.00  0.00    -0.744 OA
ENDBRANCH  65  66
ENDBRANCH  39  60
ENDBRANCH  13  14
ENDBRANCH   6   8
ENDBRANCH   3   4
ENDBRANCH   2   3
ENDBRANCH   1   2
BRANCH   1  70
ATOM     70  C   UNL A   1      32.751  23.923  25.823  1.00  0.00     0.002 C 
BRANCH  70  71
ATOM     71  C   UNL A   1      32.297  23.474  24.431  1.00  0.00     0.021 C 
BRANCH  71  72
ATOM     72  C   UNL A   1      31.048  24.110  23.823  1.00  0.00     0.116 C 
BRANCH  72  73
ATOM     73  N   UNL A   1      31.193  24.585  22.458  1.00  0.00    -0.352 N 
ATOM     74  C   UNL A   1      31.760  25.739  21.981  1.00  0.00     0.253 C 
ATOM     75  H   UNL A   1      30.828  23.985  21.767  1.00  0.00     0.163 HD
ATOM     76  O   UNL A   1      32.070  25.843  20.800  1.00  0.00    -0.269 OA
BRANCH  74  77
ATOM     77  C   UNL A   1      32.117  26.803  22.905  1.00  0.00     0.071 A 
ATOM     78  C   UNL A   1      33.504  26.959  23.091  1.00  0.00     0.018 A 
ATOM     79  C   UNL A   1      31.235  27.643  23.575  1.00  0.00     0.141 A 
ATOM     80  C   UNL A   1      33.984  27.914  23.970  1.00  0.00     0.021 A 
ATOM     81  N   UNL A   1      31.722  28.583  24.451  1.00  0.00    -0.250 NA
ATOM     82  C   UNL A   1      33.059  28.695  24.627  1.00  0.00     0.112 A 
BRANCH  79  83
ATOM     83  C   UNL A   1      29.714  27.728  23.474  1.00  0.00     0.276 C 
ATOM     84  O   UNL A   1      29.052  26.688  23.442  1.00  0.00    -0.267 OA
ATOM     85  N   UNL A   1      29.070  28.902  23.770  1.00  0.00    -0.305 N 
ATOM     86  H   UNL A   1      28.692  28.954  24.677  1.00  0.00     0.171 HD
BRANCH  85  87
ATOM     87  C   UNL A   1      28.867  30.029  22.982  1.00  0.00     0.132 A 
ATOM     88  C   UNL A   1      28.889  31.322  23.487  1.00  0.00     0.049 A 
ATOM     89  N   UNL A   1      28.625  29.755  21.684  1.00  0.00    -0.238 NA
ATOM     90  C   UNL A   1      28.492  32.369  22.648  1.00  0.00     0.026 A 
ATOM     91  C   UNL A   1      28.186  30.781  20.913  1.00  0.00     0.134 A 
ATOM     92  C   UNL A   1      28.083  32.086  21.354  1.00  0.00     0.059 A 
ATOM     93  Cl  UNL A   1      27.457  33.323  20.346  1.00  0.00    -0.083 Cl
ENDBRANCH  85  87
ENDBRANCH  79  83
ENDBRANCH  74  77
ENDBRANCH  72  73
ENDBRANCH  71  72
ENDBRANCH  70  71
ENDBRANCH   1  70
TORSDOF 18
ENDMDL
MODEL 3
REMARK VINA RESULT:     -10.9      3.649      8.355
REMARK SMILES O=C(NCCCCCCNC(=O)c1cccnc1C(=O)Nc1ccc(Cl)cn1)c1ccc(-c2c3nc(c(-c4ccc(S(=O)(=O)[O-])cc4)c4ccc([nH]4)c(-c4ccc(S(=O)(=O)[O-])cc4)c4nc(c(-c5ccc(S(=O)(=O)[O-])cc5)c5ccc2[nH]5)C=C4)C=C3)cc1
REMARK SMILES IDX 6 1 5 2 4 3 3 4 1 5 2 6 29 8 30 9 88 10 31 11 87 12 32 13
REMARK SMILES IDX 33 14 34 15 81 16 35 17 86 18 80 19 82 20 36 21 85 22 79 23
REMARK SMILES IDX 78 24 37 26 67 27 48 28 66 29 49 30 52 31 65 32 83 33 50 34
REMARK SMILES IDX 51 35 64 37 84 38 53 39 38 40 39 41 47 42 40 43 46 44 41 45
REMARK SMILES IDX 42 46 43 47 44 48 45 49 68 50 69 51 77 52 70 53 76 54 71 55
REMARK SMILES IDX 72 56 73 57 74 58 75 59 54 60 55 61 63 62 56 63 62 64 57 65
REMARK SMILES IDX 58 66 59 67 60 68 61 69 7 70 8 71 9 72 10 73 11 74 12 76
REMARK SMILES IDX 13 77 14 78 18 79 15 80 17 81 16 82 19 83 20 84 21 85 22 87
REMARK SMILES IDX 23 88 28 89 24 90 27 91 25 92 26 93
REMARK H PARENT 3 7 82 25 52 36 10 75 21 86
REMARK Flexibility Score: inf
ROOT
ATOM      1  C   UNL A   1      37.221  21.173  24.386  1.00  0.00     0.002 C 
ENDROOT
BRANCH   1   2
ATOM      2  C   UNL A   1      38.061  20.061  24.999  1.00  0.00     0.021 C 
BRANCH   2   3
ATOM      3  C   UNL A   1      39.246  20.546  25.812  1.00  0.00     0.116 C 
BRANCH   3   4
ATOM      4  N   UNL A   1      40.264  19.527  26.020  1.00  0.00    -0.352 N 
ATOM      5  O   UNL A   1      42.373  18.800  26.439  1.00  0.00    -0.269 OA
ATOM      6  C   UNL A   1      41.576  19.727  26.402  1.00  0.00     0.251 C 
ATOM      7  H   UNL A   1      39.988  18.594  25.873  1.00  0.00     0.163 HD
BRANCH   6   8
ATOM      8  C   UNL A   1      41.998  21.108  26.728  1.00  0.00     0.039 A 
ATOM      9  C   UNL A   1      42.183  22.026  25.693  1.00  0.00     0.014 A 
ATOM     10  C   UNL A   1      42.313  21.448  28.045  1.00  0.00     0.014 A 
ATOM     11  C   UNL A   1      42.849  23.214  25.951  1.00  0.00     0.010 A 
ATOM     12  C   UNL A   1      42.877  22.700  28.317  1.00  0.00     0.010 A 
ATOM     13  C   UNL A   1      43.182  23.580  27.268  1.00  0.00    -0.014 A 
BRANCH  13  14
ATOM     14  C   UNL A   1      43.761  24.929  27.496  1.00  0.00     0.031 A 
ATOM     15  C   UNL A   1      45.197  25.246  27.176  1.00  0.00     0.074 A 
ATOM     16  C   UNL A   1      42.932  25.899  27.932  1.00  0.00     0.049 A 
ATOM     17  N   UNL A   1      45.814  26.399  27.252  1.00  0.00    -0.248 NA
ATOM     18  C   UNL A   1      46.054  24.140  26.722  1.00  0.00     0.031 C 
ATOM     19  C   UNL A   1      41.522  25.700  28.290  1.00  0.00     0.029 A 
ATOM     20  N   UNL A   1      43.129  27.243  28.108  1.00  0.00    -0.354 N 
ATOM     21  C   UNL A   1      47.130  26.158  26.872  1.00  0.00     0.074 A 
ATOM     22  C   UNL A   1      47.229  24.743  26.586  1.00  0.00     0.031 C 
ATOM     23  C   UNL A   1      40.965  26.887  28.565  1.00  0.00     0.029 A 
ATOM     24  C   UNL A   1      41.993  27.916  28.488  1.00  0.00     0.049 A 
ATOM     25  H   UNL A   1      43.999  27.683  27.975  1.00  0.00     0.167 HD
ATOM     26  C   UNL A   1      48.155  27.040  26.768  1.00  0.00     0.031 A 
ATOM     27  C   UNL A   1      41.793  29.217  28.764  1.00  0.00     0.031 A 
ATOM     28  C   UNL A   1      48.047  28.447  27.060  1.00  0.00     0.049 A 
ATOM     29  C   UNL A   1      42.949  30.164  28.649  1.00  0.00     0.074 A 
ATOM     30  C   UNL A   1      49.028  29.421  26.982  1.00  0.00     0.029 A 
ATOM     31  N   UNL A   1      46.889  29.084  27.482  1.00  0.00    -0.354 N 
ATOM     32  N   UNL A   1      44.181  29.912  28.278  1.00  0.00    -0.248 NA
ATOM     33  C   UNL A   1      42.689  31.566  28.992  1.00  0.00     0.031 C 
ATOM     34  C   UNL A   1      48.476  30.638  27.400  1.00  0.00     0.029 A 
ATOM     35  C   UNL A   1      47.135  30.434  27.683  1.00  0.00     0.049 A 
ATOM     36  H   UNL A   1      46.020  28.644  27.619  1.00  0.00     0.167 HD
ATOM     37  C   UNL A   1      44.847  31.129  28.344  1.00  0.00     0.074 A 
ATOM     38  C   UNL A   1      43.868  32.120  28.748  1.00  0.00     0.031 C 
ATOM     39  C   UNL A   1      46.154  31.400  28.105  1.00  0.00     0.031 A 
BRANCH  26  40
ATOM     40  C   UNL A   1      49.497  26.511  26.329  1.00  0.00    -0.014 A 
ATOM     41  C   UNL A   1      49.962  26.710  25.016  1.00  0.00     0.010 A 
ATOM     42  C   UNL A   1      50.341  25.880  27.263  1.00  0.00     0.010 A 
ATOM     43  C   UNL A   1      51.233  26.266  24.640  1.00  0.00     0.020 A 
ATOM     44  C   UNL A   1      51.623  25.456  26.895  1.00  0.00     0.020 A 
ATOM     45  C   UNL A   1      52.057  25.643  25.581  1.00  0.00     0.054 A 
BRANCH  45  46
ATOM     46  S   UNL A   1      53.718  25.119  25.073  1.00  0.00     0.124 S 
ATOM     47  O   UNL A   1      53.636  23.669  25.229  1.00  0.00    -0.237 OA
ATOM     48  O   UNL A   1      53.797  25.598  23.695  1.00  0.00    -0.237 OA
ATOM     49  O   UNL A   1      54.602  25.798  26.017  1.00  0.00    -0.744 OA
ENDBRANCH  45  46
ENDBRANCH  26  40
BRANCH  27  50
ATOM     50  C   UNL A   1      40.454  29.678  29.218  1.00  0.00    -0.014 A 
ATOM     51  C   UNL A   1      39.409  29.889  28.303  1.00  0.00     0.010 A 
ATOM     52  C   UNL A   1      40.216  29.889  30.591  1.00  0.00     0.010 A 
ATOM     53  C   UNL A   1      38.158  30.325  28.749  1.00  0.00     0.020 A 
ATOM     54  C   UNL A   1      38.958  30.289  31.043  1.00  0.00     0.020 A 
ATOM     55  C   UNL A   1      37.943  30.523  30.116  1.00  0.00     0.054 A 
BRANCH  55  56
ATOM     56  S   UNL A   1      36.302  31.051  30.682  1.00  0.00     0.124 S 
ATOM     57  O   UNL A   1      36.591  32.358  31.263  1.00  0.00    -0.237 OA
ATOM     58  O   UNL A   1      35.528  31.065  29.441  1.00  0.00    -0.237 OA
ATOM     59  O   UNL A   1      35.919  30.010  31.633  1.00  0.00    -0.744 OA
ENDBRANCH  55  56
ENDBRANCH  27  50
BRANCH  39  60
ATOM     60  C   UNL A   1      46.584  32.833  28.268  1.00  0.00    -0.014 A 
ATOM     61  C   UNL A   1      47.056  33.311  29.503  1.00  0.00     0.010 A 
ATOM     62  C   UNL A   1      46.510  33.711  27.172  1.00  0.00     0.010 A 
ATOM     63  C   UNL A   1      47.397  34.658  29.655  1.00  0.00     0.020 A 
ATOM     64  C   UNL A   1      46.878  35.051  27.313  1.00  0.00     0.020 A 
ATOM     65  C   UNL A   1      47.297  35.521  28.560  1.00  0.00     0.054 A 
BRANCH  65  66
ATOM     66  S   UNL A   1      47.745  37.264  28.778  1.00  0.00     0.124 S 
ATOM     67  O   UNL A   1      48.885  37.399  27.876  1.00  0.00    -0.237 OA
ATOM     68  O   UNL A   1      46.530  37.963  28.366  1.00  0.00    -0.237 OA
ATOM     69  O   UNL A   1      48.061  37.363  30.201  1.00  0.00    -0.744 OA
ENDBRANCH  65  66
ENDBRANCH  39  60
ENDBRANCH  13  14
ENDBRANCH   6   8
ENDBRANCH   3   4
ENDBRANCH   2   3
ENDBRANCH   1   2
BRANCH   1  70
ATOM     70  C   UNL A   1      36.433  22.032  25.377  1.00  0.00     0.002 C 
BRANCH  70  71
ATOM     71  C   UNL A   1      36.655  23.548  25.370  1.00  0.00     0.021 C 
BRANCH  71  72
ATOM     72  C   UNL A   1      35.460  24.468  25.616  1.00  0.00     0.116 C 
BRANCH  72  73
ATOM     73  N   UNL A   1      34.754  24.901  24.422  1.00  0.00    -0.352 N 
ATOM     74  C   UNL A   1      33.596  24.427  23.860  1.00  0.00     0.253 C 
ATOM     75  H   UNL A   1      35.173  25.652  23.940  1.00  0.00     0.163 HD
ATOM     76  O   UNL A   1      32.982  25.092  23.036  1.00  0.00    -0.269 OA
BRANCH  74  77
ATOM     77  C   UNL A   1      33.021  23.181  24.338  1.00  0.00     0.071 A 
ATOM     78  C   UNL A   1      33.404  22.050  23.593  1.00  0.00     0.018 A 
ATOM     79  C   UNL A   1      32.173  23.029  25.430  1.00  0.00     0.141 A 
ATOM     80  C   UNL A   1      32.904  20.801  23.918  1.00  0.00     0.021 A 
ATOM     81  N   UNL A   1      31.677  21.787  25.739  1.00  0.00    -0.250 NA
ATOM     82  C   UNL A   1      32.044  20.720  24.991  1.00  0.00     0.112 A 
BRANCH  79  83
ATOM     83  C   UNL A   1      31.690  24.074  26.432  1.00  0.00     0.276 C 
ATOM     84  O   UNL A   1      31.462  23.736  27.596  1.00  0.00    -0.267 OA
ATOM     85  N   UNL A   1      31.842  25.410  26.160  1.00  0.00    -0.305 N 
ATOM     86  H   UNL A   1      32.624  25.835  26.580  1.00  0.00     0.171 HD
BRANCH  85  87
ATOM     87  C   UNL A   1      31.058  26.254  25.383  1.00  0.00     0.132 A 
ATOM     88  C   UNL A   1      29.852  25.864  24.817  1.00  0.00     0.049 A 
ATOM     89  N   UNL A   1      31.583  27.483  25.207  1.00  0.00    -0.238 NA
ATOM     90  C   UNL A   1      29.236  26.727  23.905  1.00  0.00     0.026 A 
ATOM     91  C   UNL A   1      30.997  28.273  24.273  1.00  0.00     0.134 A 
ATOM     92  C   UNL A   1      29.847  27.930  23.588  1.00  0.00     0.059 A 
ATOM     93  Cl  UNL A   1      29.195  28.947  22.372  1.00  0.00    -0.083 Cl
ENDBRANCH  85  87
ENDBRANCH  79  83
ENDBRANCH  74  77
ENDBRANCH  72  73
ENDBRANCH  71  72
ENDBRANCH  70  71
ENDBRANCH   1  70
TORSDOF 18
ENDMDL
