MODEL 1
REMARK VINA RESULT:      -9.9      0.000      0.000
REMARK SMILES Cc1ncnc(OCCC(=O)NCCCCCCNC(=O)c2ccc(-c3c4nc(c(-c5ccc(S(=O)(=O)[O-])cc5)c5ccc([nH]5)c(-c5ccc(S(=O)(=O)[O-])cc5)c5nc(c(-c6ccc(S(=O)(=O)[O-])cc6)c6ccc3[nH]6)C=C5)C=C4)cc2)c1C
REMARK SMILES IDX 15 1 14 2 13 3 12 4 10 5 11 6 9 8 8 9 7 10 6 11 1 12 2 13
REMARK SMILES IDX 3 14 82 15 4 16 83 17 5 18 16 19 17 20 18 21 19 22 20 23
REMARK SMILES IDX 21 25 22 26 23 27 81 28 24 29 80 30 25 31 26 32 27 33 74 34
REMARK SMILES IDX 28 35 79 36 73 37 75 38 29 39 78 40 72 41 71 42 30 44 60 45
REMARK SMILES IDX 41 46 59 47 42 48 45 49 58 50 76 51 43 52 44 53 57 55 77 56
REMARK SMILES IDX 46 57 31 58 32 59 40 60 33 61 39 62 34 63 35 64 36 65 37 66
REMARK SMILES IDX 38 67 61 68 62 69 70 70 63 71 69 72 64 73 65 74 66 75 67 76
REMARK SMILES IDX 68 77 47 78 48 79 56 80 49 81 55 82 50 83 51 84 52 85 53 86
REMARK SMILES IDX 54 87
REMARK H PARENT 12 7 19 24 75 43 45 54
REMARK Flexibility Score: inf
ROOT
ATOM      1  C   UNL A   1      32.790  25.957  26.084  1.00  0.00     0.002 C 
ENDROOT
BRANCH   1   2
ATOM      2  C   UNL A   1      32.725  24.478  26.482  1.00  0.00     0.021 C 
BRANCH   2   3
ATOM      3  C   UNL A   1      33.956  23.691  26.048  1.00  0.00     0.116 C 
BRANCH   3   4
ATOM      4  N   UNL A   1      33.595  22.498  25.304  1.00  0.00    -0.356 N 
ATOM      5  C   UNL A   1      33.373  22.360  23.968  1.00  0.00     0.223 C 
ATOM      6  O   UNL A   1      33.141  21.232  23.532  1.00  0.00    -0.275 OA
ATOM      7  H   UNL A   1      33.498  21.678  25.838  1.00  0.00     0.163 HD
BRANCH   5   8
ATOM      8  C   UNL A   1      33.494  23.559  23.048  1.00  0.00     0.141 C 
BRANCH   8   9
ATOM      9  C   UNL A   1      32.177  24.284  22.767  1.00  0.00     0.241 C 
BRANCH   9  10
ATOM     10  O   UNL A   1      32.233  25.376  21.851  1.00  0.00    -0.477 OA
BRANCH  10  11
ATOM     11  C   UNL A   1      32.421  26.666  22.237  1.00  0.00     0.219 A 
ATOM     12  C   UNL A   1      31.374  29.521  24.417  1.00  0.00     0.067 C 
ATOM     13  C   UNL A   1      32.055  28.693  23.363  1.00  0.00     0.047 A 
ATOM     14  N   UNL A   1      33.290  29.123  23.030  1.00  0.00    -0.241 NA
ATOM     15  C   UNL A   1      31.513  27.504  22.870  1.00  0.00     0.032 A 
ATOM     16  C   UNL A   1      34.003  28.320  22.240  1.00  0.00     0.226 A 
ATOM     17  C   UNL A   1      30.042  27.250  22.903  1.00  0.00     0.052 C 
ATOM     18  N   UNL A   1      33.651  27.086  21.879  1.00  0.00    -0.202 NA
ENDBRANCH  10  11
ENDBRANCH   9  10
ENDBRANCH   8   9
ENDBRANCH   5   8
ENDBRANCH   3   4
ENDBRANCH   2   3
ENDBRANCH   1   2
BRANCH   1  19
ATOM     19  C   UNL A   1      31.645  26.815  26.628  1.00  0.00     0.002 C 
BRANCH  19  20
ATOM     20  C   UNL A   1      32.073  27.940  27.578  1.00  0.00     0.021 C 
BRANCH  20  21
ATOM     21  C   UNL A   1      33.466  28.509  27.314  1.00  0.00     0.116 C 
BRANCH  21  22
ATOM     22  N   UNL A   1      33.495  29.959  27.443  1.00  0.00    -0.352 N 
ATOM     23  C   UNL A   1      34.473  30.754  27.992  1.00  0.00     0.251 C 
ATOM     24  H   UNL A   1      32.708  30.434  27.089  1.00  0.00     0.163 HD
ATOM     25  O   UNL A   1      34.249  31.936  28.237  1.00  0.00    -0.269 OA
BRANCH  23  26
ATOM     26  C   UNL A   1      35.794  30.169  28.307  1.00  0.00     0.039 A 
ATOM     27  C   UNL A   1      36.786  30.154  27.324  1.00  0.00     0.014 A 
ATOM     28  C   UNL A   1      36.054  29.648  29.579  1.00  0.00     0.014 A 
ATOM     29  C   UNL A   1      38.062  29.680  27.639  1.00  0.00     0.010 A 
ATOM     30  C   UNL A   1      37.344  29.240  29.909  1.00  0.00     0.010 A 
ATOM     31  C   UNL A   1      38.361  29.252  28.944  1.00  0.00    -0.014 A 
BRANCH  31  32
ATOM     32  C   UNL A   1      39.733  28.815  29.313  1.00  0.00     0.031 A 
ATOM     33  C   UNL A   1      40.638  29.737  30.083  1.00  0.00     0.074 A 
ATOM     34  C   UNL A   1      40.180  27.607  28.918  1.00  0.00     0.049 A 
ATOM     35  N   UNL A   1      41.875  29.546  30.468  1.00  0.00    -0.248 NA
ATOM     36  C   UNL A   1      40.091  31.052  30.454  1.00  0.00     0.031 C 
ATOM     37  C   UNL A   1      39.410  26.630  28.144  1.00  0.00     0.029 A 
ATOM     38  N   UNL A   1      41.391  26.991  29.118  1.00  0.00    -0.354 N 
ATOM     39  C   UNL A   1      42.251  30.711  31.123  1.00  0.00     0.074 A 
ATOM     40  C   UNL A   1      41.135  31.627  31.035  1.00  0.00     0.031 C 
ATOM     41  C   UNL A   1      40.153  25.526  27.968  1.00  0.00     0.029 A 
ATOM     42  C   UNL A   1      41.464  25.727  28.579  1.00  0.00     0.049 A 
ATOM     43  H   UNL A   1      42.137  27.413  29.601  1.00  0.00     0.167 HD
ATOM     44  C   UNL A   1      43.413  30.989  31.762  1.00  0.00     0.031 A 
ATOM     45  C   UNL A   1      42.469  24.830  28.577  1.00  0.00     0.031 A 
ATOM     46  C   UNL A   1      44.524  30.079  31.851  1.00  0.00     0.049 A 
ATOM     47  C   UNL A   1      43.765  25.175  29.260  1.00  0.00     0.074 A 
ATOM     48  C   UNL A   1      45.731  30.258  32.505  1.00  0.00     0.029 A 
ATOM     49  N   UNL A   1      44.565  28.821  31.270  1.00  0.00    -0.354 N 
ATOM     50  N   UNL A   1      44.086  26.268  29.909  1.00  0.00    -0.248 NA
ATOM     51  C   UNL A   1      44.830  24.163  29.213  1.00  0.00     0.031 C 
ATOM     52  C   UNL A   1      46.520  29.125  32.279  1.00  0.00     0.029 A 
ATOM     53  C   UNL A   1      45.785  28.219  31.531  1.00  0.00     0.049 A 
ATOM     54  H   UNL A   1      43.836  28.415  30.749  1.00  0.00     0.167 HD
ATOM     55  C   UNL A   1      45.383  26.067  30.367  1.00  0.00     0.074 A 
ATOM     56  C   UNL A   1      45.782  24.745  29.931  1.00  0.00     0.031 C 
ATOM     57  C   UNL A   1      46.172  26.906  31.084  1.00  0.00     0.031 A 
BRANCH  44  58
ATOM     58  C   UNL A   1      43.537  32.337  32.421  1.00  0.00    -0.014 A 
ATOM     59  C   UNL A   1      43.945  33.464  31.683  1.00  0.00     0.010 A 
ATOM     60  C   UNL A   1      43.203  32.492  33.778  1.00  0.00     0.010 A 
ATOM     61  C   UNL A   1      44.056  34.712  32.301  1.00  0.00     0.020 A 
ATOM     62  C   UNL A   1      43.286  33.744  34.393  1.00  0.00     0.020 A 
ATOM     63  C   UNL A   1      43.728  34.844  33.653  1.00  0.00     0.054 A 
BRANCH  63  64
ATOM     64  S   UNL A   1      43.862  36.482  34.421  1.00  0.00     0.124 S 
ATOM     65  O   UNL A   1      44.933  37.094  33.640  1.00  0.00    -0.237 OA
ATOM     66  O   UNL A   1      42.531  37.044  34.209  1.00  0.00    -0.237 OA
ATOM     67  O   UNL A   1      44.197  36.187  35.813  1.00  0.00    -0.744 OA
ENDBRANCH  63  64
ENDBRANCH  44  58
BRANCH  45  68
ATOM     68  C   UNL A   1      42.275  23.504  27.928  1.00  0.00    -0.014 A 
ATOM     69  C   UNL A   1      42.887  23.225  26.693  1.00  0.00     0.010 A 
ATOM     70  C   UNL A   1      41.506  22.506  28.552  1.00  0.00     0.010 A 
ATOM     71  C   UNL A   1      42.733  21.970  26.095  1.00  0.00     0.020 A 
ATOM     72  C   UNL A   1      41.370  21.243  27.968  1.00  0.00     0.020 A 
ATOM     73  C   UNL A   1      41.980  20.985  26.739  1.00  0.00     0.054 A 
BRANCH  73  74
ATOM     74  S   UNL A   1      41.855  19.344  25.976  1.00  0.00     0.124 S 
ATOM     75  O   UNL A   1      40.427  19.245  25.696  1.00  0.00    -0.237 OA
ATOM     76  O   UNL A   1      42.724  19.474  24.808  1.00  0.00    -0.237 OA
ATOM     77  O   UNL A   1      42.354  18.445  27.015  1.00  0.00    -0.744 OA
ENDBRANCH  73  74
ENDBRANCH  45  68
BRANCH  57  78
ATOM     78  C   UNL A   1      47.546  26.419  31.459  1.00  0.00    -0.014 A 
ATOM     79  C   UNL A   1      47.767  25.734  32.667  1.00  0.00     0.010 A 
ATOM     80  C   UNL A   1      48.613  26.580  30.556  1.00  0.00     0.010 A 
ATOM     81  C   UNL A   1      49.034  25.233  32.973  1.00  0.00     0.020 A 
ATOM     82  C   UNL A   1      49.876  26.058  30.846  1.00  0.00     0.020 A 
ATOM     83  C   UNL A   1      50.080  25.393  32.058  1.00  0.00     0.054 A 
BRANCH  83  84
ATOM     84  S   UNL A   1      51.700  24.678  32.453  1.00  0.00     0.124 S 
ATOM     85  O   UNL A   1      51.473  23.256  32.209  1.00  0.00    -0.237 OA
ATOM     86  O   UNL A   1      52.584  25.347  31.501  1.00  0.00    -0.237 OA
ATOM     87  O   UNL A   1      51.910  25.043  33.852  1.00  0.00    -0.744 OA
ENDBRANCH  83  84
ENDBRANCH  57  78
ENDBRANCH  31  32
ENDBRANCH  23  26
ENDBRANCH  21  22
ENDBRANCH  20  21
ENDBRANCH  19  20
ENDBRANCH   1  19
TORSDOF 19
ENDMDL
MODEL 2
REMARK VINA RESULT:      -9.6      3.382      6.955
REMARK SMILES Cc1ncnc(OCCC(=O)NCCCCCCNC(=O)c2ccc(-c3c4nc(c(-c5ccc(S(=O)(=O)[O-])cc5)c5ccc([nH]5)c(-c5ccc(S(=O)(=O)[O-])cc5)c5nc(c(-c6ccc(S(=O)(=O)[O-])cc6)c6ccc3[nH]6)C=C5)C=C4)cc2)c1C
REMARK SMILES IDX 15 1 14 2 13 3 12 4 10 5 11 6 9 8 8 9 7 10 6 11 1 12 2 13
REMARK SMILES IDX 3 14 82 15 4 16 83 17 5 18 16 19 17 20 18 21 19 22 20 23
REMARK SMILES IDX 21 25 22 26 23 27 81 28 24 29 80 30 25 31 26 32 27 33 74 34
REMARK SMILES IDX 28 35 79 36 73 37 75 38 29 39 78 40 72 41 71 42 30 44 60 45
REMARK SMILES IDX 41 46 59 47 42 48 45 49 58 50 76 51 43 52 44 53 57 55 77 56
REMARK SMILES IDX 46 57 31 58 32 59 40 60 33 61 39 62 34 63 35 64 36 65 37 66
REMARK SMILES IDX 38 67 61 68 62 69 70 70 63 71 69 72 64 73 65 74 66 75 67 76
REMARK SMILES IDX 68 77 47 78 48 79 56 80 49 81 55 82 50 83 51 84 52 85 53 86
REMARK SMILES IDX 54 87
REMARK H PARENT 12 7 19 24 75 43 45 54
REMARK Flexibility Score: inf
ROOT
ATOM      1  C   UNL A   1      36.570  32.295  32.412  1.00  0.00     0.002 C 
ENDROOT
BRANCH   1   2
ATOM      2  C   UNL A   1      37.759  32.910  33.160  1.00  0.00     0.021 C 
BRANCH   2   3
ATOM      3  C   UNL A   1      38.576  31.880  33.930  1.00  0.00     0.116 C 
BRANCH   3   4
ATOM      4  N   UNL A   1      38.305  30.530  33.472  1.00  0.00    -0.356 N 
ATOM      5  C   UNL A   1      39.138  29.452  33.452  1.00  0.00     0.223 C 
ATOM      6  O   UNL A   1      38.678  28.371  33.080  1.00  0.00    -0.275 OA
ATOM      7  H   UNL A   1      37.397  30.371  33.130  1.00  0.00     0.163 HD
BRANCH   5   8
ATOM      8  C   UNL A   1      40.562  29.581  33.954  1.00  0.00     0.141 C 
BRANCH   8   9
ATOM      9  C   UNL A   1      41.492  28.442  33.536  1.00  0.00     0.241 C 
BRANCH   9  10
ATOM     10  O   UNL A   1      41.481  27.274  34.356  1.00  0.00    -0.477 OA
BRANCH  10  11
ATOM     11  C   UNL A   1      42.566  26.476  34.535  1.00  0.00     0.219 A 
ATOM     12  C   UNL A   1      43.926  23.046  35.162  1.00  0.00     0.067 C 
ATOM     13  C   UNL A   1      43.810  24.533  34.968  1.00  0.00     0.047 A 
ATOM     14  N   UNL A   1      44.928  25.119  34.488  1.00  0.00    -0.241 NA
ATOM     15  C   UNL A   1      42.611  25.227  35.139  1.00  0.00     0.032 A 
ATOM     16  C   UNL A   1      44.817  26.397  34.126  1.00  0.00     0.226 A 
ATOM     17  C   UNL A   1      41.534  24.704  36.032  1.00  0.00     0.052 C 
ATOM     18  N   UNL A   1      43.675  27.084  34.069  1.00  0.00    -0.202 NA
ENDBRANCH  10  11
ENDBRANCH   9  10
ENDBRANCH   8   9
ENDBRANCH   5   8
ENDBRANCH   3   4
ENDBRANCH   2   3
ENDBRANCH   1   2
BRANCH   1  19
ATOM     19  C   UNL A   1      36.416  32.763  30.964  1.00  0.00     0.002 C 
BRANCH  19  20
ATOM     20  C   UNL A   1      34.980  32.736  30.424  1.00  0.00     0.021 C 
BRANCH  20  21
ATOM     21  C   UNL A   1      34.865  32.753  28.901  1.00  0.00     0.116 C 
BRANCH  21  22
ATOM     22  N   UNL A   1      34.028  31.670  28.405  1.00  0.00    -0.352 N 
ATOM     23  C   UNL A   1      34.403  30.409  28.005  1.00  0.00     0.251 C 
ATOM     24  H   UNL A   1      33.065  31.867  28.350  1.00  0.00     0.163 HD
ATOM     25  O   UNL A   1      33.616  29.691  27.394  1.00  0.00    -0.269 OA
BRANCH  23  26
ATOM     26  C   UNL A   1      35.771  29.930  28.295  1.00  0.00     0.039 A 
ATOM     27  C   UNL A   1      36.757  30.043  27.312  1.00  0.00     0.014 A 
ATOM     28  C   UNL A   1      36.081  29.382  29.544  1.00  0.00     0.014 A 
ATOM     29  C   UNL A   1      38.071  29.671  27.607  1.00  0.00     0.010 A 
ATOM     30  C   UNL A   1      37.403  29.076  29.857  1.00  0.00     0.010 A 
ATOM     31  C   UNL A   1      38.412  29.217  28.893  1.00  0.00    -0.014 A 
BRANCH  31  32
ATOM     32  C   UNL A   1      39.818  28.888  29.243  1.00  0.00     0.031 A 
ATOM     33  C   UNL A   1      40.671  29.892  29.970  1.00  0.00     0.074 A 
ATOM     34  C   UNL A   1      40.341  27.704  28.870  1.00  0.00     0.049 A 
ATOM     35  N   UNL A   1      41.925  29.797  30.333  1.00  0.00    -0.248 NA
ATOM     36  C   UNL A   1      40.040  31.175  30.319  1.00  0.00     0.031 C 
ATOM     37  C   UNL A   1      39.627  26.655  28.138  1.00  0.00     0.029 A 
ATOM     38  N   UNL A   1      41.596  27.179  29.059  1.00  0.00    -0.354 N 
ATOM     39  C   UNL A   1      42.231  31.004  30.950  1.00  0.00     0.074 A 
ATOM     40  C   UNL A   1      41.051  31.836  30.862  1.00  0.00     0.031 C 
ATOM     41  C   UNL A   1      40.443  25.601  27.973  1.00  0.00     0.029 A 
ATOM     42  C   UNL A   1      41.748  25.910  28.550  1.00  0.00     0.049 A 
ATOM     43  H   UNL A   1      42.320  27.666  29.515  1.00  0.00     0.167 HD
ATOM     44  C   UNL A   1      43.383  31.380  31.556  1.00  0.00     0.031 A 
ATOM     45  C   UNL A   1      42.814  25.086  28.550  1.00  0.00     0.031 A 
ATOM     46  C   UNL A   1      44.556  30.553  31.644  1.00  0.00     0.049 A 
ATOM     47  C   UNL A   1      44.095  25.539  29.196  1.00  0.00     0.074 A 
ATOM     48  C   UNL A   1      45.760  30.833  32.267  1.00  0.00     0.029 A 
ATOM     49  N   UNL A   1      44.675  29.285  31.095  1.00  0.00    -0.354 N 
ATOM     50  N   UNL A   1      44.351  26.669  29.810  1.00  0.00    -0.248 NA
ATOM     51  C   UNL A   1      45.228  24.604  29.152  1.00  0.00     0.031 C 
ATOM     52  C   UNL A   1      46.623  29.753  32.054  1.00  0.00     0.029 A 
ATOM     53  C   UNL A   1      45.940  28.778  31.345  1.00  0.00     0.049 A 
ATOM     54  H   UNL A   1      43.966  28.815  30.600  1.00  0.00     0.167 HD
ATOM     55  C   UNL A   1      45.668  26.572  30.245  1.00  0.00     0.074 A 
ATOM     56  C   UNL A   1      46.150  25.270  29.834  1.00  0.00     0.031 C 
ATOM     57  C   UNL A   1      46.409  27.483  30.923  1.00  0.00     0.031 A 
BRANCH  44  58
ATOM     58  C   UNL A   1      43.424  32.750  32.177  1.00  0.00    -0.014 A 
ATOM     59  C   UNL A   1      43.606  33.896  31.382  1.00  0.00     0.010 A 
ATOM     60  C   UNL A   1      43.237  32.902  33.563  1.00  0.00     0.010 A 
ATOM     61  C   UNL A   1      43.641  35.165  31.965  1.00  0.00     0.020 A 
ATOM     62  C   UNL A   1      43.245  34.172  34.147  1.00  0.00     0.020 A 
ATOM     63  C   UNL A   1      43.463  35.294  33.345  1.00  0.00     0.054 A 
BRANCH  63  64
ATOM     64  S   UNL A   1      43.493  36.957  34.070  1.00  0.00     0.124 S 
ATOM     65  O   UNL A   1      43.704  37.795  32.893  1.00  0.00    -0.237 OA
ATOM     66  O   UNL A   1      42.173  37.061  34.686  1.00  0.00    -0.237 OA
ATOM     67  O   UNL A   1      44.613  36.908  35.007  1.00  0.00    -0.744 OA
ENDBRANCH  63  64
ENDBRANCH  44  58
BRANCH  45  68
ATOM     68  C   UNL A   1      42.701  23.733  27.939  1.00  0.00    -0.014 A 
ATOM     69  C   UNL A   1      42.168  22.664  28.680  1.00  0.00     0.010 A 
ATOM     70  C   UNL A   1      43.096  23.513  26.607  1.00  0.00     0.010 A 
ATOM     71  C   UNL A   1      42.031  21.399  28.100  1.00  0.00     0.020 A 
ATOM     72  C   UNL A   1      42.938  22.255  26.016  1.00  0.00     0.020 A 
ATOM     73  C   UNL A   1      42.411  21.204  26.770  1.00  0.00     0.054 A 
BRANCH  73  74
ATOM     74  S   UNL A   1      42.157  19.572  26.019  1.00  0.00     0.124 S 
ATOM     75  O   UNL A   1      42.998  19.649  24.830  1.00  0.00    -0.237 OA
ATOM     76  O   UNL A   1      42.623  18.669  27.069  1.00  0.00    -0.237 OA
ATOM     77  O   UNL A   1      40.718  19.531  25.768  1.00  0.00    -0.744 OA
ENDBRANCH  73  74
ENDBRANCH  45  68
BRANCH  57  78
ATOM     78  C   UNL A   1      47.822  27.105  31.281  1.00  0.00    -0.014 A 
ATOM     79  C   UNL A   1      48.096  26.328  32.421  1.00  0.00     0.010 A 
ATOM     80  C   UNL A   1      48.878  27.463  30.423  1.00  0.00     0.010 A 
ATOM     81  C   UNL A   1      49.405  25.931  32.705  1.00  0.00     0.020 A 
ATOM     82  C   UNL A   1      50.184  27.046  30.690  1.00  0.00     0.020 A 
ATOM     83  C   UNL A   1      50.440  26.288  31.835  1.00  0.00     0.054 A 
BRANCH  83  84
ATOM     84  S   UNL A   1      52.121  25.706  32.196  1.00  0.00     0.124 S 
ATOM     85  O   UNL A   1      51.888  24.311  32.562  1.00  0.00    -0.237 OA
ATOM     86  O   UNL A   1      52.810  25.917  30.925  1.00  0.00    -0.237 OA
ATOM     87  O   UNL A   1      52.561  26.571  33.288  1.00  0.00    -0.744 OA
ENDBRANCH  83  84
ENDBRANCH  57  78
ENDBRANCH  31  32
ENDBRANCH  23  26
ENDBRANCH  21  22
ENDBRANCH  20  21
ENDBRANCH  19  20
ENDBRANCH   1  19
TORSDOF 19
ENDMDL
MODEL 3
REMARK VINA RESULT:      -9.4      2.298      2.937
REMARK SMILES Cc1ncnc(OCCC(=O)NCCCCCCNC(=O)c2ccc(-c3c4nc(c(-c5ccc(S(=O)(=O)[O-])cc5)c5ccc([nH]5)c(-c5ccc(S(=O)(=O)[O-])cc5)c5nc(c(-c6ccc(S(=O)(=O)[O-])cc6)c6ccc3[nH]6)C=C5)C=C4)cc2)c1C
REMARK SMILES IDX 15 1 14 2 13 3 12 4 10 5 11 6 9 8 8 9 7 10 6 11 1 12 2 13
REMARK SMILES IDX 3 14 82 15 4 16 83 17 5 18 16 19 17 20 18 21 19 22 20 23
REMARK SMILES IDX 21 25 22 26 23 27 81 28 24 29 80 30 25 31 26 32 27 33 74 34
REMARK SMILES IDX 28 35 79 36 73 37 75 38 29 39 78 40 72 41 71 42 30 44 60 45
REMARK SMILES IDX 41 46 59 47 42 48 45 49 58 50 76 51 43 52 44 53 57 55 77 56
REMARK SMILES IDX 46 57 31 58 32 59 40 60 33 61 39 62 34 63 35 64 36 65 37 66
REMARK SMILES IDX 38 67 61 68 62 69 70 70 63 71 69 72 64 73 65 74 66 75 67 76
REMARK SMILES IDX 68 77 47 78 48 79 56 80 49 81 55 82 50 83 51 84 52 85 53 86
REMARK SMILES IDX 54 87
REMARK H PARENT 12 7 19 24 75 43 45 54
REMARK Flexibility Score: inf
ROOT
ATOM      1  C   UNL A   1      33.388  25.731  25.952  1.00  0.00     0.002 C 
ENDROOT
BRANCH   1   2
ATOM      2  C   UNL A   1      32.779  24.383  26.353  1.00  0.00     0.021 C 
BRANCH   2   3
ATOM      3  C   UNL A   1      33.795  23.248  26.359  1.00  0.00     0.116 C 
BRANCH   3   4
ATOM      4  N   UNL A   1      33.328  22.106  25.594  1.00  0.00    -0.356 N 
ATOM      5  C   UNL A   1      33.463  21.858  24.262  1.00  0.00     0.223 C 
ATOM      6  O   UNL A   1      33.046  20.784  23.827  1.00  0.00    -0.275 OA
ATOM      7  H   UNL A   1      32.850  21.417  26.108  1.00  0.00     0.163 HD
BRANCH   5   8
ATOM      8  C   UNL A   1      34.183  22.851  23.372  1.00  0.00     0.141 C 
BRANCH   8   9
ATOM      9  C   UNL A   1      33.348  23.388  22.208  1.00  0.00     0.241 C 
BRANCH   9  10
ATOM     10  O   UNL A   1      33.361  24.802  22.013  1.00  0.00    -0.477 OA
BRANCH  10  11
ATOM     11  C   UNL A   1      32.385  25.629  22.471  1.00  0.00     0.219 A 
ATOM     12  C   UNL A   1      30.841  29.037  22.470  1.00  0.00     0.067 C 
ATOM     13  C   UNL A   1      31.160  27.605  22.796  1.00  0.00     0.047 A 
ATOM     14  N   UNL A   1      30.116  26.900  23.282  1.00  0.00    -0.241 NA
ATOM     15  C   UNL A   1      32.390  27.017  22.495  1.00  0.00     0.032 A 
ATOM     16  C   UNL A   1      30.298  25.586  23.411  1.00  0.00     0.226 A 
ATOM     17  C   UNL A   1      33.630  27.839  22.361  1.00  0.00     0.052 C 
ATOM     18  N   UNL A   1      31.360  24.910  22.971  1.00  0.00    -0.202 NA
ENDBRANCH  10  11
ENDBRANCH   9  10
ENDBRANCH   8   9
ENDBRANCH   5   8
ENDBRANCH   3   4
ENDBRANCH   2   3
ENDBRANCH   1   2
BRANCH   1  19
ATOM     19  C   UNL A   1      32.456  26.932  26.130  1.00  0.00     0.002 C 
BRANCH  19  20
ATOM     20  C   UNL A   1      33.024  28.072  26.985  1.00  0.00     0.021 C 
BRANCH  20  21
ATOM     21  C   UNL A   1      33.883  29.080  26.224  1.00  0.00     0.116 C 
BRANCH  21  22
ATOM     22  N   UNL A   1      33.636  30.446  26.661  1.00  0.00    -0.352 N 
ATOM     23  C   UNL A   1      34.286  31.166  27.635  1.00  0.00     0.251 C 
ATOM     24  H   UNL A   1      32.906  30.916  26.198  1.00  0.00     0.163 HD
ATOM     25  O   UNL A   1      33.812  32.221  28.049  1.00  0.00    -0.269 OA
BRANCH  23  26
ATOM     26  C   UNL A   1      35.551  30.651  28.199  1.00  0.00     0.039 A 
ATOM     27  C   UNL A   1      36.765  31.149  27.720  1.00  0.00     0.014 A 
ATOM     28  C   UNL A   1      35.536  29.685  29.211  1.00  0.00     0.014 A 
ATOM     29  C   UNL A   1      37.962  30.729  28.306  1.00  0.00     0.010 A 
ATOM     30  C   UNL A   1      36.725  29.320  29.837  1.00  0.00     0.010 A 
ATOM     31  C   UNL A   1      37.950  29.838  29.393  1.00  0.00    -0.014 A 
BRANCH  31  32
ATOM     32  C   UNL A   1      39.209  29.441  30.074  1.00  0.00     0.031 A 
ATOM     33  C   UNL A   1      39.655  30.158  31.319  1.00  0.00     0.074 A 
ATOM     34  C   UNL A   1      39.975  28.464  29.549  1.00  0.00     0.049 A 
ATOM     35  N   UNL A   1      40.737  29.974  32.033  1.00  0.00    -0.248 NA
ATOM     36  C   UNL A   1      38.783  31.234  31.817  1.00  0.00     0.031 C 
ATOM     37  C   UNL A   1      39.668  27.709  28.331  1.00  0.00     0.029 A 
ATOM     38  N   UNL A   1      41.168  27.934  29.975  1.00  0.00    -0.354 N 
ATOM     39  C   UNL A   1      40.675  30.908  33.060  1.00  0.00     0.074 A 
ATOM     40  C   UNL A   1      39.480  31.695  32.845  1.00  0.00     0.031 C 
ATOM     41  C   UNL A   1      40.627  26.790  28.131  1.00  0.00     0.029 A 
ATOM     42  C   UNL A   1      41.636  26.915  29.178  1.00  0.00     0.049 A 
ATOM     43  H   UNL A   1      41.644  28.254  30.774  1.00  0.00     0.167 HD
ATOM     44  C   UNL A   1      41.522  31.081  34.102  1.00  0.00     0.031 A 
ATOM     45  C   UNL A   1      42.750  26.163  29.279  1.00  0.00     0.031 A 
ATOM     46  C   UNL A   1      42.709  30.299  34.317  1.00  0.00     0.049 A 
ATOM     47  C   UNL A   1      43.696  26.399  30.424  1.00  0.00     0.074 A 
ATOM     48  C   UNL A   1      43.614  30.378  35.362  1.00  0.00     0.029 A 
ATOM     49  N   UNL A   1      43.159  29.294  33.473  1.00  0.00    -0.354 N 
ATOM     50  N   UNL A   1      43.598  27.259  31.408  1.00  0.00    -0.248 NA
ATOM     51  C   UNL A   1      44.902  25.558  30.474  1.00  0.00     0.031 C 
ATOM     52  C   UNL A   1      44.636  29.453  35.126  1.00  0.00     0.029 A 
ATOM     53  C   UNL A   1      44.340  28.760  33.962  1.00  0.00     0.049 A 
ATOM     54  H   UNL A   1      42.707  29.003  32.649  1.00  0.00     0.167 HD
ATOM     55  C   UNL A   1      44.717  27.050  32.206  1.00  0.00     0.074 A 
ATOM     56  C   UNL A   1      45.471  25.974  31.598  1.00  0.00     0.031 C 
ATOM     57  C   UNL A   1      45.084  27.694  33.341  1.00  0.00     0.031 A 
BRANCH  44  58
ATOM     58  C   UNL A   1      41.187  32.162  35.095  1.00  0.00    -0.014 A 
ATOM     59  C   UNL A   1      41.582  33.494  34.871  1.00  0.00     0.010 A 
ATOM     60  C   UNL A   1      40.434  31.856  36.243  1.00  0.00     0.010 A 
ATOM     61  C   UNL A   1      41.267  34.492  35.796  1.00  0.00     0.020 A 
ATOM     62  C   UNL A   1      40.092  32.857  37.158  1.00  0.00     0.020 A 
ATOM     63  C   UNL A   1      40.525  34.166  36.936  1.00  0.00     0.054 A 
BRANCH  63  64
ATOM     64  S   UNL A   1      40.113  35.488  38.107  1.00  0.00     0.124 S 
ATOM     65  O   UNL A   1      41.290  35.502  38.972  1.00  0.00    -0.237 OA
ATOM     66  O   UNL A   1      39.960  36.650  37.236  1.00  0.00    -0.237 OA
ATOM     67  O   UNL A   1      38.882  35.020  38.740  1.00  0.00    -0.744 OA
ENDBRANCH  63  64
ENDBRANCH  44  58
BRANCH  45  68
ATOM     68  C   UNL A   1      43.012  25.094  28.276  1.00  0.00    -0.014 A 
ATOM     69  C   UNL A   1      43.706  25.390  27.090  1.00  0.00     0.010 A 
ATOM     70  C   UNL A   1      42.599  23.771  28.515  1.00  0.00     0.010 A 
ATOM     71  C   UNL A   1      43.981  24.383  26.160  1.00  0.00     0.020 A 
ATOM     72  C   UNL A   1      42.894  22.756  27.598  1.00  0.00     0.020 A 
ATOM     73  C   UNL A   1      43.579  23.071  26.423  1.00  0.00     0.054 A 
BRANCH  73  74
ATOM     74  S   UNL A   1      44.012  21.771  25.234  1.00  0.00     0.124 S 
ATOM     75  O   UNL A   1      43.815  22.447  23.957  1.00  0.00    -0.237 OA
ATOM     76  O   UNL A   1      45.398  21.472  25.587  1.00  0.00    -0.237 OA
ATOM     77  O   UNL A   1      43.060  20.703  25.532  1.00  0.00    -0.744 OA
ENDBRANCH  73  74
ENDBRANCH  45  68
BRANCH  57  78
ATOM     78  C   UNL A   1      46.354  27.248  34.016  1.00  0.00    -0.014 A 
ATOM     79  C   UNL A   1      47.583  27.871  33.731  1.00  0.00     0.010 A 
ATOM     80  C   UNL A   1      46.304  26.248  35.005  1.00  0.00     0.010 A 
ATOM     81  C   UNL A   1      48.741  27.489  34.412  1.00  0.00     0.020 A 
ATOM     82  C   UNL A   1      47.456  25.882  35.705  1.00  0.00     0.020 A 
ATOM     83  C   UNL A   1      48.670  26.500  35.398  1.00  0.00     0.054 A 
BRANCH  83  84
ATOM     84  S   UNL A   1      50.178  26.068  36.309  1.00  0.00     0.124 S 
ATOM     85  O   UNL A   1      50.628  27.372  36.790  1.00  0.00    -0.237 OA
ATOM     86  O   UNL A   1      49.680  25.157  37.336  1.00  0.00    -0.237 OA
ATOM     87  O   UNL A   1      51.031  25.450  35.297  1.00  0.00    -0.744 OA
ENDBRANCH  83  84
ENDBRANCH  57  78
ENDBRANCH  31  32
ENDBRANCH  23  26
ENDBRANCH  21  22
ENDBRANCH  20  21
ENDBRANCH  19  20
ENDBRANCH   1  19
TORSDOF 19
ENDMDL
