MODEL 1
REMARK VINA RESULT:     -11.4      0.000      0.000
REMARK SMILES CC1(C)CCC[C@@H]1NC(=O)CC1(C(=O)NCCCCCCNC(=O)c2ccc(-c3c4nc(c(-c5ccc(S(=O)(=O)[O-])cc5)c5ccc([nH]5)c(-c5ccc(S(=O)(=O)[O-])cc5)c5nc(c(-c6ccc(S(=O)(=O)[O-])cc6)c6ccc3[nH]6)C=C5)C=C4)cc2)CCCCC1
REMARK SMILES IDX 18 1 17 2 16 3 15 4 13 5 14 6 12 8 85 9 89 10 86 11 88 12
REMARK SMILES IDX 87 13 11 14 9 15 8 16 10 18 7 19 1 20 2 21 3 22 4 23 5 24
REMARK SMILES IDX 6 25 19 26 20 27 21 28 22 29 23 30 24 32 25 33 26 34 84 35
REMARK SMILES IDX 27 36 83 37 28 38 29 39 30 40 77 41 31 42 82 43 76 44 78 45
REMARK SMILES IDX 32 46 81 47 75 48 74 49 33 51 63 52 44 53 62 54 45 55 48 56
REMARK SMILES IDX 61 57 79 58 46 59 47 60 60 62 80 63 49 64 34 65 35 66 43 67
REMARK SMILES IDX 36 68 42 69 37 70 38 71 39 72 40 73 41 74 64 75 65 76 73 77
REMARK SMILES IDX 66 78 72 79 67 80 68 81 69 82 70 83 71 84 50 85 51 86 59 87
REMARK SMILES IDX 52 88 58 89 53 90 54 91 55 92 56 93 57 94
REMARK H PARENT 15 7 8 17 22 31 78 50 48 61
REMARK Flexibility Score: inf
ROOT
ATOM      1  C   UNL A   1      33.305  30.652  27.110  1.00  0.00     0.002 C 
ENDROOT
BRANCH   1   2
ATOM      2  C   UNL A   1      32.934  29.168  27.060  1.00  0.00     0.021 C 
BRANCH   2   3
ATOM      3  C   UNL A   1      33.868  28.337  26.186  1.00  0.00     0.116 C 
BRANCH   3   4
ATOM      4  N   UNL A   1      33.854  28.811  24.830  1.00  0.00    -0.356 N 
ATOM      5  C   UNL A   1      33.241  28.462  23.685  1.00  0.00     0.226 C 
ATOM      6  O   UNL A   1      33.711  29.102  22.729  1.00  0.00    -0.274 OA
ATOM      7  H   UNL A   1      34.444  29.591  24.708  1.00  0.00     0.163 HD
BRANCH   5   8
ATOM      8  C   UNL A   1      32.048  27.463  23.480  1.00  0.00     0.058 C 
ATOM      9  C   UNL A   1      32.287  26.189  24.346  1.00  0.00     0.017 C 
ATOM     10  C   UNL A   1      31.617  26.966  22.083  1.00  0.00     0.017 C 
ATOM     11  C   UNL A   1      33.111  25.065  23.704  1.00  0.00     0.001 C 
ATOM     12  C   UNL A   1      32.479  25.955  21.365  1.00  0.00     0.001 C 
ATOM     13  C   UNL A   1      32.785  24.752  22.241  1.00  0.00     0.000 C 
BRANCH   8  14
ATOM     14  C   UNL A   1      30.804  28.257  24.081  1.00  0.00     0.117 C 
BRANCH  14  15
ATOM     15  C   UNL A   1      29.448  28.063  23.417  1.00  0.00     0.221 C 
ATOM     16  N   UNL A   1      28.844  28.949  22.588  1.00  0.00    -0.353 N 
ATOM     17  H   UNL A   1      28.033  28.576  22.175  1.00  0.00     0.163 HD
ATOM     18  O   UNL A   1      28.822  27.017  23.633  1.00  0.00    -0.275 OA
BRANCH  16  19
ATOM     19  C   UNL A   1      29.099  30.325  22.151  1.00  0.00     0.087 C 
ATOM     20  C   UNL A   1      29.655  31.435  24.398  1.00  0.00     0.013 C 
ATOM     21  C   UNL A   1      28.674  31.373  23.227  1.00  0.00    -0.015 C 
ATOM     22  C   UNL A   1      27.247  31.142  23.780  1.00  0.00     0.013 C 
ATOM     23  C   UNL A   1      28.706  32.682  22.417  1.00  0.00     0.008 C 
ATOM     24  C   UNL A   1      28.153  32.318  21.047  1.00  0.00     0.003 C 
ATOM     25  C   UNL A   1      28.278  30.801  20.940  1.00  0.00     0.025 C 
ENDBRANCH  16  19
ENDBRANCH  14  15
ENDBRANCH   8  14
ENDBRANCH   5   8
ENDBRANCH   3   4
ENDBRANCH   2   3
ENDBRANCH   1   2
BRANCH   1  26
ATOM     26  C   UNL A   1      34.696  30.954  27.681  1.00  0.00     0.002 C 
BRANCH  26  27
ATOM     27  C   UNL A   1      34.935  32.412  28.085  1.00  0.00     0.021 C 
BRANCH  27  28
ATOM     28  C   UNL A   1      36.174  32.639  28.946  1.00  0.00     0.116 C 
BRANCH  28  29
ATOM     29  N   UNL A   1      35.968  32.191  30.312  1.00  0.00    -0.352 N 
ATOM     30  C   UNL A   1      36.666  31.262  31.040  1.00  0.00     0.251 C 
ATOM     31  H   UNL A   1      35.215  32.616  30.784  1.00  0.00     0.163 HD
ATOM     32  O   UNL A   1      36.202  30.840  32.093  1.00  0.00    -0.269 OA
BRANCH  30  33
ATOM     33  C   UNL A   1      37.971  30.771  30.550  1.00  0.00     0.039 A 
ATOM     34  C   UNL A   1      38.107  30.456  29.196  1.00  0.00     0.014 A 
ATOM     35  C   UNL A   1      39.046  30.591  31.426  1.00  0.00     0.014 A 
ATOM     36  C   UNL A   1      39.334  30.000  28.713  1.00  0.00     0.010 A 
ATOM     37  C   UNL A   1      40.287  30.202  30.930  1.00  0.00     0.010 A 
ATOM     38  C   UNL A   1      40.440  29.893  29.571  1.00  0.00    -0.014 A 
BRANCH  38  39
ATOM     39  C   UNL A   1      41.763  29.455  29.059  1.00  0.00     0.031 A 
ATOM     40  C   UNL A   1      42.896  30.439  28.945  1.00  0.00     0.074 A 
ATOM     41  C   UNL A   1      41.926  28.182  28.651  1.00  0.00     0.049 A 
ATOM     42  N   UNL A   1      44.109  30.247  28.497  1.00  0.00    -0.248 NA
ATOM     43  C   UNL A   1      42.624  31.822  29.366  1.00  0.00     0.031 C 
ATOM     44  C   UNL A   1      40.888  27.147  28.671  1.00  0.00     0.029 A 
ATOM     45  N   UNL A   1      43.023  27.540  28.137  1.00  0.00    -0.354 N 
ATOM     46  C   UNL A   1      44.740  31.484  28.568  1.00  0.00     0.074 A 
ATOM     47  C   UNL A   1      43.761  32.429  29.056  1.00  0.00     0.031 C 
ATOM     48  C   UNL A   1      41.407  25.995  28.217  1.00  0.00     0.029 A 
ATOM     49  C   UNL A   1      42.799  26.216  27.839  1.00  0.00     0.049 A 
ATOM     50  H   UNL A   1      43.889  27.985  27.993  1.00  0.00     0.167 HD
ATOM     51  C   UNL A   1      46.023  31.800  28.269  1.00  0.00     0.031 A 
ATOM     52  C   UNL A   1      43.621  25.284  27.319  1.00  0.00     0.031 A 
ATOM     53  C   UNL A   1      46.997  30.853  27.794  1.00  0.00     0.049 A 
ATOM     54  C   UNL A   1      45.041  25.660  26.999  1.00  0.00     0.074 A 
ATOM     55  C   UNL A   1      48.338  31.060  27.521  1.00  0.00     0.029 A 
ATOM     56  N   UNL A   1      46.734  29.519  27.517  1.00  0.00    -0.354 N 
ATOM     57  N   UNL A   1      45.639  26.819  27.141  1.00  0.00    -0.248 NA
ATOM     58  C   UNL A   1      45.902  24.598  26.461  1.00  0.00     0.031 C 
ATOM     59  C   UNL A   1      48.873  29.864  27.031  1.00  0.00     0.029 A 
ATOM     60  C   UNL A   1      47.881  28.897  27.053  1.00  0.00     0.049 A 
ATOM     61  H   UNL A   1      45.861  29.080  27.633  1.00  0.00     0.167 HD
ATOM     62  C   UNL A   1      46.953  26.620  26.732  1.00  0.00     0.074 A 
ATOM     63  C   UNL A   1      47.065  25.224  26.355  1.00  0.00     0.031 C 
ATOM     64  C   UNL A   1      47.975  27.510  26.675  1.00  0.00     0.031 A 
BRANCH  51  65
ATOM     65  C   UNL A   1      46.446  33.236  28.444  1.00  0.00    -0.014 A 
ATOM     66  C   UNL A   1      46.989  33.692  29.659  1.00  0.00     0.010 A 
ATOM     67  C   UNL A   1      46.337  34.132  27.366  1.00  0.00     0.010 A 
ATOM     68  C   UNL A   1      47.375  35.027  29.807  1.00  0.00     0.020 A 
ATOM     69  C   UNL A   1      46.748  35.462  27.500  1.00  0.00     0.020 A 
ATOM     70  C   UNL A   1      47.248  35.905  28.726  1.00  0.00     0.054 A 
BRANCH  70  71
ATOM     71  S   UNL A   1      47.776  37.627  28.939  1.00  0.00     0.124 S 
ATOM     72  O   UNL A   1      47.045  38.019  30.141  1.00  0.00    -0.237 OA
ATOM     73  O   UNL A   1      49.223  37.502  29.097  1.00  0.00    -0.237 OA
ATOM     74  O   UNL A   1      47.341  38.278  27.706  1.00  0.00    -0.744 OA
ENDBRANCH  70  71
ENDBRANCH  51  65
BRANCH  52  75
ATOM     75  C   UNL A   1      43.122  23.902  27.085  1.00  0.00    -0.014 A 
ATOM     76  C   UNL A   1      43.126  22.956  28.125  1.00  0.00     0.010 A 
ATOM     77  C   UNL A   1      42.620  23.531  25.823  1.00  0.00     0.010 A 
ATOM     78  C   UNL A   1      42.655  21.658  27.902  1.00  0.00     0.020 A 
ATOM     79  C   UNL A   1      42.124  22.244  25.606  1.00  0.00     0.020 A 
ATOM     80  C   UNL A   1      42.155  21.311  26.644  1.00  0.00     0.054 A 
BRANCH  80  81
ATOM     81  S   UNL A   1      41.500  19.638  26.394  1.00  0.00     0.124 S 
ATOM     82  O   UNL A   1      42.319  19.154  25.286  1.00  0.00    -0.237 OA
ATOM     83  O   UNL A   1      41.745  19.006  27.687  1.00  0.00    -0.237 OA
ATOM     84  O   UNL A   1      40.092  19.867  26.078  1.00  0.00    -0.744 OA
ENDBRANCH  80  81
ENDBRANCH  52  75
BRANCH  64  85
ATOM     85  C   UNL A   1      49.311  26.997  26.211  1.00  0.00    -0.014 A 
ATOM     86  C   UNL A   1      49.776  27.247  24.908  1.00  0.00     0.010 A 
ATOM     87  C   UNL A   1      50.133  26.291  27.110  1.00  0.00     0.010 A 
ATOM     88  C   UNL A   1      51.024  26.771  24.500  1.00  0.00     0.020 A 
ATOM     89  C   UNL A   1      51.393  25.838  26.714  1.00  0.00     0.020 A 
ATOM     90  C   UNL A   1      51.824  26.066  25.406  1.00  0.00     0.054 A 
BRANCH  90  91
ATOM     91  S   UNL A   1      53.456  25.490  24.865  1.00  0.00     0.124 S 
ATOM     92  O   UNL A   1      54.352  26.324  25.661  1.00  0.00    -0.237 OA
ATOM     93  O   UNL A   1      53.432  24.073  25.224  1.00  0.00    -0.237 OA
ATOM     94  O   UNL A   1      53.461  25.762  23.430  1.00  0.00    -0.744 OA
ENDBRANCH  90  91
ENDBRANCH  64  85
ENDBRANCH  38  39
ENDBRANCH  30  33
ENDBRANCH  28  29
ENDBRANCH  27  28
ENDBRANCH  26  27
ENDBRANCH   1  26
TORSDOF 19
ENDMDL
MODEL 2
REMARK VINA RESULT:     -11.3      6.164     11.765
REMARK SMILES CC1(C)CCC[C@@H]1NC(=O)CC1(C(=O)NCCCCCCNC(=O)c2ccc(-c3c4nc(c(-c5ccc(S(=O)(=O)[O-])cc5)c5ccc([nH]5)c(-c5ccc(S(=O)(=O)[O-])cc5)c5nc(c(-c6ccc(S(=O)(=O)[O-])cc6)c6ccc3[nH]6)C=C5)C=C4)cc2)CCCCC1
REMARK SMILES IDX 18 1 17 2 16 3 15 4 13 5 14 6 12 8 85 9 89 10 86 11 88 12
REMARK SMILES IDX 87 13 11 14 9 15 8 16 10 18 7 19 1 20 2 21 3 22 4 23 5 24
REMARK SMILES IDX 6 25 19 26 20 27 21 28 22 29 23 30 24 32 25 33 26 34 84 35
REMARK SMILES IDX 27 36 83 37 28 38 29 39 30 40 77 41 31 42 82 43 76 44 78 45
REMARK SMILES IDX 32 46 81 47 75 48 74 49 33 51 63 52 44 53 62 54 45 55 48 56
REMARK SMILES IDX 61 57 79 58 46 59 47 60 60 62 80 63 49 64 34 65 35 66 43 67
REMARK SMILES IDX 36 68 42 69 37 70 38 71 39 72 40 73 41 74 64 75 65 76 73 77
REMARK SMILES IDX 66 78 72 79 67 80 68 81 69 82 70 83 71 84 50 85 51 86 59 87
REMARK SMILES IDX 52 88 58 89 53 90 54 91 55 92 56 93 57 94
REMARK H PARENT 15 7 8 17 22 31 78 50 48 61
REMARK Flexibility Score: inf
ROOT
ATOM      1  C   UNL A   1      38.314  23.573  26.401  1.00  0.00     0.002 C 
ENDROOT
BRANCH   1   2
ATOM      2  C   UNL A   1      36.892  23.623  25.836  1.00  0.00     0.021 C 
BRANCH   2   3
ATOM      3  C   UNL A   1      36.793  23.138  24.393  1.00  0.00     0.116 C 
BRANCH   3   4
ATOM      4  N   UNL A   1      35.662  22.271  24.222  1.00  0.00    -0.356 N 
ATOM      5  C   UNL A   1      34.324  22.408  24.217  1.00  0.00     0.226 C 
ATOM      6  O   UNL A   1      33.773  21.295  24.198  1.00  0.00    -0.274 OA
ATOM      7  H   UNL A   1      35.935  21.336  24.069  1.00  0.00     0.163 HD
BRANCH   5   8
ATOM      8  C   UNL A   1      33.478  23.730  24.167  1.00  0.00     0.058 C 
ATOM      9  C   UNL A   1      33.547  24.440  25.553  1.00  0.00     0.017 C 
ATOM     10  C   UNL A   1      31.992  23.744  23.744  1.00  0.00     0.017 C 
ATOM     11  C   UNL A   1      32.505  24.017  26.596  1.00  0.00     0.001 C 
ATOM     12  C   UNL A   1      30.952  23.210  24.700  1.00  0.00     0.001 C 
ATOM     13  C   UNL A   1      31.075  23.839  26.077  1.00  0.00     0.000 C 
BRANCH   8  14
ATOM     14  C   UNL A   1      34.260  24.620  23.103  1.00  0.00     0.117 C 
BRANCH  14  15
ATOM     15  C   UNL A   1      33.499  25.753  22.427  1.00  0.00     0.221 C 
ATOM     16  N   UNL A   1      33.006  26.851  23.050  1.00  0.00    -0.353 N 
ATOM     17  H   UNL A   1      32.657  27.513  22.411  1.00  0.00     0.163 HD
ATOM     18  O   UNL A   1      33.300  25.693  21.206  1.00  0.00    -0.275 OA
BRANCH  16  19
ATOM     19  C   UNL A   1      32.864  27.300  24.438  1.00  0.00     0.087 C 
ATOM     20  C   UNL A   1      30.328  27.056  24.752  1.00  0.00     0.013 C 
ATOM     21  C   UNL A   1      31.506  28.028  24.686  1.00  0.00    -0.015 C 
ATOM     22  C   UNL A   1      31.194  29.122  23.636  1.00  0.00     0.013 C 
ATOM     23  C   UNL A   1      31.750  28.686  26.056  1.00  0.00     0.008 C 
ATOM     24  C   UNL A   1      33.193  29.166  26.017  1.00  0.00     0.003 C 
ATOM     25  C   UNL A   1      33.862  28.379  24.893  1.00  0.00     0.025 C 
ENDBRANCH  16  19
ENDBRANCH  14  15
ENDBRANCH   8  14
ENDBRANCH   5   8
ENDBRANCH   3   4
ENDBRANCH   2   3
ENDBRANCH   1   2
BRANCH   1  26
ATOM     26  C   UNL A   1      39.025  22.223  26.248  1.00  0.00     0.002 C 
BRANCH  26  27
ATOM     27  C   UNL A   1      40.394  22.125  26.928  1.00  0.00     0.021 C 
BRANCH  27  28
ATOM     28  C   UNL A   1      40.993  23.464  27.348  1.00  0.00     0.116 C 
BRANCH  28  29
ATOM     29  N   UNL A   1      41.500  24.207  26.207  1.00  0.00    -0.352 N 
ATOM     30  C   UNL A   1      41.564  25.562  26.008  1.00  0.00     0.251 C 
ATOM     31  H   UNL A   1      41.846  23.657  25.468  1.00  0.00     0.163 HD
ATOM     32  O   UNL A   1      41.800  26.003  24.889  1.00  0.00    -0.269 OA
BRANCH  30  33
ATOM     33  C   UNL A   1      41.345  26.484  27.141  1.00  0.00     0.039 A 
ATOM     34  C   UNL A   1      40.329  26.198  28.056  1.00  0.00     0.014 A 
ATOM     35  C   UNL A   1      42.114  27.643  27.283  1.00  0.00     0.014 A 
ATOM     36  C   UNL A   1      40.114  27.052  29.138  1.00  0.00     0.010 A 
ATOM     37  C   UNL A   1      41.943  28.458  28.400  1.00  0.00     0.010 A 
ATOM     38  C   UNL A   1      40.934  28.175  29.333  1.00  0.00    -0.014 A 
BRANCH  38  39
ATOM     39  C   UNL A   1      40.745  29.064  30.506  1.00  0.00     0.031 A 
ATOM     40  C   UNL A   1      41.602  28.896  31.732  1.00  0.00     0.074 A 
ATOM     41  C   UNL A   1      39.767  29.990  30.483  1.00  0.00     0.049 A 
ATOM     42  N   UNL A   1      41.564  29.559  32.858  1.00  0.00    -0.248 NA
ATOM     43  C   UNL A   1      42.616  27.830  31.696  1.00  0.00     0.031 C 
ATOM     44  C   UNL A   1      38.842  30.218  29.369  1.00  0.00     0.029 A 
ATOM     45  N   UNL A   1      39.383  30.911  31.425  1.00  0.00    -0.354 N 
ATOM     46  C   UNL A   1      42.535  28.984  33.670  1.00  0.00     0.074 A 
ATOM     47  C   UNL A   1      43.112  27.887  32.924  1.00  0.00     0.031 C 
ATOM     48  C   UNL A   1      38.018  31.231  29.681  1.00  0.00     0.029 A 
ATOM     49  C   UNL A   1      38.330  31.700  31.028  1.00  0.00     0.049 A 
ATOM     50  H   UNL A   1      39.821  30.998  32.302  1.00  0.00     0.167 HD
ATOM     51  C   UNL A   1      42.923  29.346  34.916  1.00  0.00     0.031 A 
ATOM     52  C   UNL A   1      37.684  32.689  31.675  1.00  0.00     0.031 A 
ATOM     53  C   UNL A   1      42.353  30.445  35.649  1.00  0.00     0.049 A 
ATOM     54  C   UNL A   1      38.136  33.074  33.057  1.00  0.00     0.074 A 
ATOM     55  C   UNL A   1      42.718  30.932  36.892  1.00  0.00     0.029 A 
ATOM     56  N   UNL A   1      41.296  31.227  35.208  1.00  0.00    -0.354 N 
ATOM     57  N   UNL A   1      39.105  32.565  33.779  1.00  0.00    -0.248 NA
ATOM     58  C   UNL A   1      37.415  34.179  33.705  1.00  0.00     0.031 C 
ATOM     59  C   UNL A   1      41.848  31.976  37.225  1.00  0.00     0.029 A 
ATOM     60  C   UNL A   1      40.979  32.177  36.165  1.00  0.00     0.049 A 
ATOM     61  H   UNL A   1      40.839  31.123  34.343  1.00  0.00     0.167 HD
ATOM     62  C   UNL A   1      39.126  33.301  34.958  1.00  0.00     0.074 A 
ATOM     63  C   UNL A   1      38.085  34.303  34.842  1.00  0.00     0.031 C 
ATOM     64  C   UNL A   1      39.935  33.163  36.038  1.00  0.00     0.031 A 
BRANCH  51  65
ATOM     65  C   UNL A   1      44.016  28.539  35.568  1.00  0.00    -0.014 A 
ATOM     66  C   UNL A   1      43.715  27.484  36.449  1.00  0.00     0.010 A 
ATOM     67  C   UNL A   1      45.362  28.813  35.266  1.00  0.00     0.010 A 
ATOM     68  C   UNL A   1      44.739  26.746  37.048  1.00  0.00     0.020 A 
ATOM     69  C   UNL A   1      46.390  28.059  35.841  1.00  0.00     0.020 A 
ATOM     70  C   UNL A   1      46.072  27.041  36.743  1.00  0.00     0.054 A 
BRANCH  70  71
ATOM     71  S   UNL A   1      47.380  26.054  37.519  1.00  0.00     0.124 S 
ATOM     72  O   UNL A   1      48.582  26.612  36.904  1.00  0.00    -0.237 OA
ATOM     73  O   UNL A   1      47.207  26.350  38.939  1.00  0.00    -0.237 OA
ATOM     74  O   UNL A   1      47.059  24.684  37.127  1.00  0.00    -0.744 OA
ENDBRANCH  70  71
ENDBRANCH  51  65
BRANCH  52  75
ATOM     75  C   UNL A   1      36.552  33.393  31.015  1.00  0.00    -0.014 A 
ATOM     76  C   UNL A   1      35.350  33.622  31.709  1.00  0.00     0.010 A 
ATOM     77  C   UNL A   1      36.676  33.855  29.691  1.00  0.00     0.010 A 
ATOM     78  C   UNL A   1      34.288  34.284  31.086  1.00  0.00     0.020 A 
ATOM     79  C   UNL A   1      35.626  34.541  29.076  1.00  0.00     0.020 A 
ATOM     80  C   UNL A   1      34.434  34.741  29.774  1.00  0.00     0.054 A 
BRANCH  80  81
ATOM     81  S   UNL A   1      33.062  35.645  29.004  1.00  0.00     0.124 S 
ATOM     82  O   UNL A   1      33.760  36.721  28.307  1.00  0.00    -0.237 OA
ATOM     83  O   UNL A   1      32.452  34.628  28.152  1.00  0.00    -0.237 OA
ATOM     84  O   UNL A   1      32.247  36.062  30.143  1.00  0.00    -0.744 OA
ENDBRANCH  80  81
ENDBRANCH  52  75
BRANCH  64  85
ATOM     85  C   UNL A   1      39.744  34.133  37.172  1.00  0.00    -0.014 A 
ATOM     86  C   UNL A   1      38.868  33.849  38.234  1.00  0.00     0.010 A 
ATOM     87  C   UNL A   1      40.486  35.328  37.195  1.00  0.00     0.010 A 
ATOM     88  C   UNL A   1      38.713  34.759  39.283  1.00  0.00     0.020 A 
ATOM     89  C   UNL A   1      40.354  36.227  38.255  1.00  0.00     0.020 A 
ATOM     90  C   UNL A   1      39.455  35.944  39.285  1.00  0.00     0.054 A 
BRANCH  90  91
ATOM     91  S   UNL A   1      39.263  37.093  40.675  1.00  0.00     0.124 S 
ATOM     92  O   UNL A   1      38.278  38.037  40.154  1.00  0.00    -0.237 OA
ATOM     93  O   UNL A   1      38.790  36.222  41.749  1.00  0.00    -0.237 OA
ATOM     94  O   UNL A   1      40.606  37.634  40.866  1.00  0.00    -0.744 OA
ENDBRANCH  90  91
ENDBRANCH  64  85
ENDBRANCH  38  39
ENDBRANCH  30  33
ENDBRANCH  28  29
ENDBRANCH  27  28
ENDBRANCH  26  27
ENDBRANCH   1  26
TORSDOF 19
ENDMDL
MODEL 3
REMARK VINA RESULT:     -11.0      2.633      8.870
REMARK SMILES CC1(C)CCC[C@@H]1NC(=O)CC1(C(=O)NCCCCCCNC(=O)c2ccc(-c3c4nc(c(-c5ccc(S(=O)(=O)[O-])cc5)c5ccc([nH]5)c(-c5ccc(S(=O)(=O)[O-])cc5)c5nc(c(-c6ccc(S(=O)(=O)[O-])cc6)c6ccc3[nH]6)C=C5)C=C4)cc2)CCCCC1
REMARK SMILES IDX 18 1 17 2 16 3 15 4 13 5 14 6 12 8 85 9 89 10 86 11 88 12
REMARK SMILES IDX 87 13 11 14 9 15 8 16 10 18 7 19 1 20 2 21 3 22 4 23 5 24
REMARK SMILES IDX 6 25 19 26 20 27 21 28 22 29 23 30 24 32 25 33 26 34 84 35
REMARK SMILES IDX 27 36 83 37 28 38 29 39 30 40 77 41 31 42 82 43 76 44 78 45
REMARK SMILES IDX 32 46 81 47 75 48 74 49 33 51 63 52 44 53 62 54 45 55 48 56
REMARK SMILES IDX 61 57 79 58 46 59 47 60 60 62 80 63 49 64 34 65 35 66 43 67
REMARK SMILES IDX 36 68 42 69 37 70 38 71 39 72 40 73 41 74 64 75 65 76 73 77
REMARK SMILES IDX 66 78 72 79 67 80 68 81 69 82 70 83 71 84 50 85 51 86 59 87
REMARK SMILES IDX 52 88 58 89 53 90 54 91 55 92 56 93 57 94
REMARK H PARENT 15 7 8 17 22 31 78 50 48 61
REMARK Flexibility Score: inf
ROOT
ATOM      1  C   UNL A   1      35.721  20.444  25.151  1.00  0.00     0.002 C 
ENDROOT
BRANCH   1   2
ATOM      2  C   UNL A   1      34.477  19.581  24.924  1.00  0.00     0.021 C 
BRANCH   2   3
ATOM      3  C   UNL A   1      33.209  20.395  24.682  1.00  0.00     0.116 C 
BRANCH   3   4
ATOM      4  N   UNL A   1      32.852  21.144  25.855  1.00  0.00    -0.356 N 
ATOM      5  C   UNL A   1      32.769  22.444  26.188  1.00  0.00     0.226 C 
ATOM      6  O   UNL A   1      32.574  22.567  27.409  1.00  0.00    -0.274 OA
ATOM      7  H   UNL A   1      32.605  20.556  26.605  1.00  0.00     0.163 HD
BRANCH   5   8
ATOM      8  C   UNL A   1      32.824  23.700  25.249  1.00  0.00     0.058 C 
ATOM      9  C   UNL A   1      31.687  23.600  24.186  1.00  0.00     0.017 C 
ATOM     10  C   UNL A   1      34.102  24.105  24.482  1.00  0.00     0.017 C 
ATOM     11  C   UNL A   1      32.016  22.838  22.896  1.00  0.00     0.001 C 
ATOM     12  C   UNL A   1      34.527  23.292  23.283  1.00  0.00     0.001 C 
ATOM     13  C   UNL A   1      33.393  23.120  22.287  1.00  0.00     0.000 C 
BRANCH   8  14
ATOM     14  C   UNL A   1      32.488  24.905  26.236  1.00  0.00     0.117 C 
BRANCH  14  15
ATOM     15  C   UNL A   1      31.138  25.593  26.086  1.00  0.00     0.221 C 
ATOM     16  N   UNL A   1      30.919  26.758  25.428  1.00  0.00    -0.353 N 
ATOM     17  H   UNL A   1      29.960  26.962  25.348  1.00  0.00     0.163 HD
ATOM     18  O   UNL A   1      30.140  25.068  26.596  1.00  0.00    -0.275 OA
BRANCH  16  19
ATOM     19  C   UNL A   1      31.754  27.790  24.804  1.00  0.00     0.087 C 
ATOM     20  C   UNL A   1      30.193  28.585  22.928  1.00  0.00     0.013 C 
ATOM     21  C   UNL A   1      31.512  27.892  23.266  1.00  0.00    -0.015 C 
ATOM     22  C   UNL A   1      31.559  26.524  22.543  1.00  0.00     0.013 C 
ATOM     23  C   UNL A   1      32.711  28.750  22.819  1.00  0.00     0.008 C 
ATOM     24  C   UNL A   1      33.885  28.263  23.655  1.00  0.00     0.003 C 
ATOM     25  C   UNL A   1      33.270  27.532  24.846  1.00  0.00     0.025 C 
ENDBRANCH  16  19
ENDBRANCH  14  15
ENDBRANCH   8  14
ENDBRANCH   5   8
ENDBRANCH   3   4
ENDBRANCH   2   3
ENDBRANCH   1   2
BRANCH   1  26
ATOM     26  C   UNL A   1      37.058  19.716  24.961  1.00  0.00     0.002 C 
BRANCH  26  27
ATOM     27  C   UNL A   1      38.284  20.624  24.833  1.00  0.00     0.021 C 
BRANCH  27  28
ATOM     28  C   UNL A   1      39.151  20.703  26.086  1.00  0.00     0.116 C 
BRANCH  28  29
ATOM     29  N   UNL A   1      40.201  19.700  26.076  1.00  0.00    -0.352 N 
ATOM     30  C   UNL A   1      41.563  19.862  26.083  1.00  0.00     0.251 C 
ATOM     31  H   UNL A   1      39.890  18.766  26.061  1.00  0.00     0.163 HD
ATOM     32  O   UNL A   1      42.291  18.909  25.831  1.00  0.00    -0.269 OA
BRANCH  30  33
ATOM     33  C   UNL A   1      42.145  21.185  26.390  1.00  0.00     0.039 A 
ATOM     34  C   UNL A   1      42.399  22.069  25.339  1.00  0.00     0.014 A 
ATOM     35  C   UNL A   1      42.471  21.539  27.703  1.00  0.00     0.014 A 
ATOM     36  C   UNL A   1      42.940  23.326  25.610  1.00  0.00     0.010 A 
ATOM     37  C   UNL A   1      42.947  22.819  27.978  1.00  0.00     0.010 A 
ATOM     38  C   UNL A   1      43.195  23.721  26.934  1.00  0.00    -0.014 A 
BRANCH  38  39
ATOM     39  C   UNL A   1      43.726  25.073  27.238  1.00  0.00     0.031 A 
ATOM     40  C   UNL A   1      45.180  25.387  27.011  1.00  0.00     0.074 A 
ATOM     41  C   UNL A   1      42.905  26.002  27.765  1.00  0.00     0.049 A 
ATOM     42  N   UNL A   1      45.827  26.499  27.242  1.00  0.00    -0.248 NA
ATOM     43  C   UNL A   1      46.021  24.303  26.477  1.00  0.00     0.031 C 
ATOM     44  C   UNL A   1      41.486  25.802  28.073  1.00  0.00     0.029 A 
ATOM     45  N   UNL A   1      43.146  27.300  28.140  1.00  0.00    -0.354 N 
ATOM     46  C   UNL A   1      47.150  26.247  26.898  1.00  0.00     0.074 A 
ATOM     47  C   UNL A   1      47.223  24.862  26.488  1.00  0.00     0.031 C 
ATOM     48  C   UNL A   1      40.978  26.944  28.562  1.00  0.00     0.029 A 
ATOM     49  C   UNL A   1      42.038  27.944  28.639  1.00  0.00     0.049 A 
ATOM     50  H   UNL A   1      44.028  27.728  28.059  1.00  0.00     0.167 HD
ATOM     51  C   UNL A   1      48.206  27.096  26.906  1.00  0.00     0.031 A 
ATOM     52  C   UNL A   1      41.892  29.198  29.108  1.00  0.00     0.031 A 
ATOM     53  C   UNL A   1      48.126  28.476  27.305  1.00  0.00     0.049 A 
ATOM     54  C   UNL A   1      43.079  30.122  29.104  1.00  0.00     0.074 A 
ATOM     55  C   UNL A   1      49.123  29.436  27.291  1.00  0.00     0.029 A 
ATOM     56  N   UNL A   1      46.984  29.094  27.792  1.00  0.00    -0.354 N 
ATOM     57  N   UNL A   1      44.306  29.886  28.706  1.00  0.00    -0.248 NA
ATOM     58  C   UNL A   1      42.856  31.487  29.599  1.00  0.00     0.031 C 
ATOM     59  C   UNL A   1      48.597  30.620  27.817  1.00  0.00     0.029 A 
ATOM     60  C   UNL A   1      47.258  30.415  28.106  1.00  0.00     0.049 A 
ATOM     61  H   UNL A   1      46.108  28.659  27.900  1.00  0.00     0.167 HD
ATOM     62  C   UNL A   1      44.997  31.079  28.881  1.00  0.00     0.074 A 
ATOM     63  C   UNL A   1      44.045  32.040  29.403  1.00  0.00     0.031 C 
ATOM     64  C   UNL A   1      46.301  31.356  28.631  1.00  0.00     0.031 A 
BRANCH  51  65
ATOM     65  C   UNL A   1      49.543  26.551  26.475  1.00  0.00    -0.014 A 
ATOM     66  C   UNL A   1      50.019  26.743  25.165  1.00  0.00     0.010 A 
ATOM     67  C   UNL A   1      50.353  25.873  27.403  1.00  0.00     0.010 A 
ATOM     68  C   UNL A   1      51.260  26.230  24.779  1.00  0.00     0.020 A 
ATOM     69  C   UNL A   1      51.608  25.382  27.030  1.00  0.00     0.020 A 
ATOM     70  C   UNL A   1      52.046  25.548  25.714  1.00  0.00     0.054 A 
BRANCH  70  71
ATOM     71  S   UNL A   1      53.662  24.911  25.192  1.00  0.00     0.124 S 
ATOM     72  O   UNL A   1      54.517  25.311  26.307  1.00  0.00    -0.237 OA
ATOM     73  O   UNL A   1      53.417  23.475  25.073  1.00  0.00    -0.237 OA
ATOM     74  O   UNL A   1      53.917  25.603  23.932  1.00  0.00    -0.744 OA
ENDBRANCH  70  71
ENDBRANCH  51  65
BRANCH  52  75
ATOM     75  C   UNL A   1      40.566  29.654  29.605  1.00  0.00    -0.014 A 
ATOM     76  C   UNL A   1      40.320  29.765  30.985  1.00  0.00     0.010 A 
ATOM     77  C   UNL A   1      39.547  30.000  28.698  1.00  0.00     0.010 A 
ATOM     78  C   UNL A   1      39.073  30.195  31.449  1.00  0.00     0.020 A 
ATOM     79  C   UNL A   1      38.309  30.456  29.159  1.00  0.00     0.020 A 
ATOM     80  C   UNL A   1      38.077  30.539  30.533  1.00  0.00     0.054 A 
BRANCH  80  81
ATOM     81  S   UNL A   1      36.484  31.146  31.157  1.00  0.00     0.124 S 
ATOM     82  O   UNL A   1      36.028  30.020  31.967  1.00  0.00    -0.237 OA
ATOM     83  O   UNL A   1      36.871  32.344  31.897  1.00  0.00    -0.237 OA
ATOM     84  O   UNL A   1      35.714  31.395  29.940  1.00  0.00    -0.744 OA
ENDBRANCH  80  81
ENDBRANCH  52  75
BRANCH  64  85
ATOM     85  C   UNL A   1      46.770  32.762  28.895  1.00  0.00    -0.014 A 
ATOM     86  C   UNL A   1      47.320  33.125  30.137  1.00  0.00     0.010 A 
ATOM     87  C   UNL A   1      46.700  33.721  27.868  1.00  0.00     0.010 A 
ATOM     88  C   UNL A   1      47.759  34.433  30.358  1.00  0.00     0.020 A 
ATOM     89  C   UNL A   1      47.164  35.021  28.077  1.00  0.00     0.020 A 
ATOM     90  C   UNL A   1      47.676  35.374  29.326  1.00  0.00     0.054 A 
BRANCH  90  91
ATOM     91  S   UNL A   1      48.285  37.055  29.626  1.00  0.00     0.124 S 
ATOM     92  O   UNL A   1      49.679  36.952  29.202  1.00  0.00    -0.237 OA
ATOM     93  O   UNL A   1      47.426  37.867  28.767  1.00  0.00    -0.237 OA
ATOM     94  O   UNL A   1      48.083  37.247  31.060  1.00  0.00    -0.744 OA
ENDBRANCH  90  91
ENDBRANCH  64  85
ENDBRANCH  38  39
ENDBRANCH  30  33
ENDBRANCH  28  29
ENDBRANCH  27  28
ENDBRANCH  26  27
ENDBRANCH   1  26
TORSDOF 19
ENDMDL
