MODEL 1
REMARK VINA RESULT:     -11.1      0.000      0.000
REMARK SMILES CCc1cc(C(=O)c2[nH]c3cc(Cl)ccc3c2CC(=O)NCCCCCCNC(=O)c2ccc(-c3c4nc(c(-c5ccc(S(=O)(=O)[O-])cc5)c5ccc([nH]5)c(-c5ccc(S(=O)(=O)[O-])cc5)c5nc(c(-c6ccc(S(=O)(=O)[O-])cc6)c6ccc3[nH]6)C=C5)C=C4)cc2)ncc1Cl
REMARK SMILES IDX 24 1 23 2 22 3 21 4 19 5 20 6 18 8 17 9 8 10 9 11 10 12
REMARK SMILES IDX 16 14 11 15 15 16 12 17 14 18 13 19 6 20 7 21 5 22 3 23 4 24
REMARK SMILES IDX 93 25 92 26 94 27 91 28 2 29 1 30 25 31 26 32 27 33 28 34
REMARK SMILES IDX 29 35 30 37 31 38 32 39 90 40 33 41 89 42 34 43 35 44 36 45
REMARK SMILES IDX 83 46 37 47 88 48 82 49 84 50 38 51 87 52 81 53 80 54 39 56
REMARK SMILES IDX 69 57 50 58 68 59 51 60 54 61 67 62 85 63 52 64 53 65 66 67
REMARK SMILES IDX 86 68 55 69 40 70 41 71 49 72 42 73 48 74 43 75 44 76 45 77
REMARK SMILES IDX 46 78 47 79 70 80 71 81 79 82 72 83 78 84 73 85 74 86 75 87
REMARK SMILES IDX 76 88 77 89 56 90 57 91 65 92 58 93 64 94 59 95 60 96 61 97
REMARK SMILES IDX 62 98 63 99
REMARK H PARENT 21 7 9 13 28 36 84 55 54 66
REMARK Flexibility Score: inf
ROOT
ATOM      1  C   UNL A   1      30.996  26.606  26.481  1.00  0.00     0.002 C 
ENDROOT
BRANCH   1   2
ATOM      2  C   UNL A   1      31.626  25.255  26.122  1.00  0.00     0.021 C 
BRANCH   2   3
ATOM      3  C   UNL A   1      30.741  24.333  25.283  1.00  0.00     0.116 C 
BRANCH   3   4
ATOM      4  N   UNL A   1      30.955  22.931  25.584  1.00  0.00    -0.356 N 
ATOM      5  C   UNL A   1      31.582  21.971  24.843  1.00  0.00     0.224 C 
ATOM      6  O   UNL A   1      31.730  20.850  25.338  1.00  0.00    -0.275 OA
ATOM      7  H   UNL A   1      30.597  22.627  26.450  1.00  0.00     0.163 HD
BRANCH   5   8
ATOM      8  C   UNL A   1      32.184  22.304  23.488  1.00  0.00     0.138 C 
BRANCH   8   9
ATOM      9  C   UNL A   1      33.492  23.042  23.536  1.00  0.00    -0.002 A 
ATOM     10  C   UNL A   1      33.835  24.212  22.864  1.00  0.00     0.093 A 
ATOM     11  N   UNL A   1      35.096  24.573  23.281  1.00  0.00    -0.351 N 
ATOM     12  C   UNL A   1      35.635  23.603  24.089  1.00  0.00     0.048 A 
ATOM     13  H   UNL A   1      35.548  25.411  23.034  1.00  0.00     0.167 HD
ATOM     14  C   UNL A   1      34.656  22.628  24.269  1.00  0.00     0.004 A 
ATOM     15  C   UNL A   1      36.902  23.530  24.683  1.00  0.00     0.047 A 
ATOM     16  C   UNL A   1      34.960  21.517  25.085  1.00  0.00     0.012 A 
ATOM     17  C   UNL A   1      37.173  22.417  25.482  1.00  0.00     0.043 A 
ATOM     18  C   UNL A   1      36.222  21.422  25.687  1.00  0.00     0.021 A 
ATOM     19  Cl  UNL A   1      38.719  22.274  26.226  1.00  0.00    -0.084 Cl
BRANCH  10  20
ATOM     20  C   UNL A   1      33.045  25.029  21.961  1.00  0.00     0.227 C 
ATOM     21  O   UNL A   1      32.891  24.707  20.789  1.00  0.00    -0.285 OA
BRANCH  20  22
ATOM     22  C   UNL A   1      32.362  26.260  22.518  1.00  0.00     0.113 A 
ATOM     23  C   UNL A   1      30.394  27.555  23.105  1.00  0.00    -0.026 A 
ATOM     24  C   UNL A   1      30.973  26.366  22.620  1.00  0.00     0.037 A 
ATOM     25  C   UNL A   1      31.248  28.593  23.493  1.00  0.00     0.062 A 
ATOM     26  C   UNL A   1      32.618  28.401  23.365  1.00  0.00     0.132 A 
ATOM     27  Cl  UNL A   1      30.675  30.092  24.120  1.00  0.00    -0.082 Cl
ATOM     28  N   UNL A   1      33.188  27.275  22.881  1.00  0.00    -0.251 NA
BRANCH  23  29
ATOM     29  C   UNL A   1      28.889  27.673  23.148  1.00  0.00     0.034 C 
ATOM     30  C   UNL A   1      28.248  26.550  23.954  1.00  0.00     0.009 C 
ENDBRANCH  23  29
ENDBRANCH  20  22
ENDBRANCH  10  20
ENDBRANCH   8   9
ENDBRANCH   5   8
ENDBRANCH   3   4
ENDBRANCH   2   3
ENDBRANCH   1   2
BRANCH   1  31
ATOM     31  C   UNL A   1      31.943  27.648  27.085  1.00  0.00     0.002 C 
BRANCH  31  32
ATOM     32  C   UNL A   1      33.420  27.522  26.696  1.00  0.00     0.021 C 
BRANCH  32  33
ATOM     33  C   UNL A   1      34.064  28.780  26.112  1.00  0.00     0.116 C 
BRANCH  33  34
ATOM     34  N   UNL A   1      33.788  29.963  26.905  1.00  0.00    -0.352 N 
ATOM     35  C   UNL A   1      34.542  30.557  27.888  1.00  0.00     0.251 C 
ATOM     36  H   UNL A   1      32.932  30.408  26.710  1.00  0.00     0.163 HD
ATOM     37  O   UNL A   1      34.056  31.473  28.546  1.00  0.00    -0.269 OA
BRANCH  35  38
ATOM     38  C   UNL A   1      35.923  30.101  28.177  1.00  0.00     0.039 A 
ATOM     39  C   UNL A   1      36.202  29.597  29.454  1.00  0.00     0.014 A 
ATOM     40  C   UNL A   1      36.957  30.233  27.244  1.00  0.00     0.014 A 
ATOM     41  C   UNL A   1      37.499  29.190  29.783  1.00  0.00     0.010 A 
ATOM     42  C   UNL A   1      38.247  29.798  27.563  1.00  0.00     0.010 A 
ATOM     43  C   UNL A   1      38.530  29.279  28.836  1.00  0.00    -0.014 A 
BRANCH  43  44
ATOM     44  C   UNL A   1      39.911  28.862  29.178  1.00  0.00     0.031 A 
ATOM     45  C   UNL A   1      40.829  29.802  29.909  1.00  0.00     0.074 A 
ATOM     46  C   UNL A   1      40.359  27.648  28.804  1.00  0.00     0.049 A 
ATOM     47  N   UNL A   1      42.083  29.636  30.243  1.00  0.00    -0.248 NA
ATOM     48  C   UNL A   1      40.264  31.101  30.303  1.00  0.00     0.031 C 
ATOM     49  C   UNL A   1      39.581  26.644  28.077  1.00  0.00     0.029 A 
ATOM     50  N   UNL A   1      41.583  27.056  28.988  1.00  0.00    -0.354 N 
ATOM     51  C   UNL A   1      42.470  30.818  30.860  1.00  0.00     0.074 A 
ATOM     52  C   UNL A   1      41.316  31.695  30.849  1.00  0.00     0.031 C 
ATOM     53  C   UNL A   1      40.343  25.554  27.889  1.00  0.00     0.029 A 
ATOM     54  C   UNL A   1      41.665  25.789  28.467  1.00  0.00     0.049 A 
ATOM     55  H   UNL A   1      42.333  27.499  29.449  1.00  0.00     0.167 HD
ATOM     56  C   UNL A   1      43.673  31.151  31.387  1.00  0.00     0.031 A 
ATOM     57  C   UNL A   1      42.686  24.910  28.456  1.00  0.00     0.031 A 
ATOM     58  C   UNL A   1      44.819  30.285  31.422  1.00  0.00     0.049 A 
ATOM     59  C   UNL A   1      43.993  25.277  29.095  1.00  0.00     0.074 A 
ATOM     60  C   UNL A   1      46.078  30.536  31.942  1.00  0.00     0.029 A 
ATOM     61  N   UNL A   1      44.842  28.991  30.927  1.00  0.00    -0.354 N 
ATOM     62  N   UNL A   1      44.337  26.401  29.674  1.00  0.00    -0.248 NA
ATOM     63  C   UNL A   1      45.046  24.251  29.088  1.00  0.00     0.031 C 
ATOM     64  C   UNL A   1      46.864  29.391  31.757  1.00  0.00     0.029 A 
ATOM     65  C   UNL A   1      46.089  28.426  31.135  1.00  0.00     0.049 A 
ATOM     66  H   UNL A   1      44.083  28.539  30.491  1.00  0.00     0.167 HD
ATOM     67  C   UNL A   1      45.643  26.214  30.110  1.00  0.00     0.074 A 
ATOM     68  C   UNL A   1      46.025  24.868  29.735  1.00  0.00     0.031 C 
ATOM     69  C   UNL A   1      46.452  27.084  30.764  1.00  0.00     0.031 A 
BRANCH  56  70
ATOM     70  C   UNL A   1      43.796  32.537  31.949  1.00  0.00    -0.014 A 
ATOM     71  C   UNL A   1      44.136  33.622  31.121  1.00  0.00     0.010 A 
ATOM     72  C   UNL A   1      43.602  32.751  33.325  1.00  0.00     0.010 A 
ATOM     73  C   UNL A   1      44.335  34.891  31.670  1.00  0.00     0.020 A 
ATOM     74  C   UNL A   1      43.788  34.021  33.874  1.00  0.00     0.020 A 
ATOM     75  C   UNL A   1      44.178  35.078  33.048  1.00  0.00     0.054 A 
BRANCH  75  76
ATOM     76  S   UNL A   1      44.473  36.717  33.766  1.00  0.00     0.124 S 
ATOM     77  O   UNL A   1      43.312  37.464  33.289  1.00  0.00    -0.237 OA
ATOM     78  O   UNL A   1      44.502  36.453  35.202  1.00  0.00    -0.237 OA
ATOM     79  O   UNL A   1      45.754  37.114  33.185  1.00  0.00    -0.744 OA
ENDBRANCH  75  76
ENDBRANCH  56  70
BRANCH  57  80
ATOM     80  C   UNL A   1      42.491  23.577  27.836  1.00  0.00    -0.014 A 
ATOM     81  C   UNL A   1      42.873  23.360  26.502  1.00  0.00     0.010 A 
ATOM     82  C   UNL A   1      41.969  22.512  28.590  1.00  0.00     0.010 A 
ATOM     83  C   UNL A   1      42.738  22.093  25.928  1.00  0.00     0.020 A 
ATOM     84  C   UNL A   1      41.842  21.243  28.021  1.00  0.00     0.020 A 
ATOM     85  C   UNL A   1      42.225  21.041  26.692  1.00  0.00     0.054 A 
BRANCH  85  86
ATOM     86  S   UNL A   1      42.135  19.379  25.971  1.00  0.00     0.124 S 
ATOM     87  O   UNL A   1      40.702  19.225  25.744  1.00  0.00    -0.237 OA
ATOM     88  O   UNL A   1      42.957  19.500  24.768  1.00  0.00    -0.237 OA
ATOM     89  O   UNL A   1      42.702  18.531  27.017  1.00  0.00    -0.744 OA
ENDBRANCH  85  86
ENDBRANCH  57  80
BRANCH  69  90
ATOM     90  C   UNL A   1      47.822  26.595  31.134  1.00  0.00    -0.014 A 
ATOM     91  C   UNL A   1      48.935  26.902  30.333  1.00  0.00     0.010 A 
ATOM     92  C   UNL A   1      48.002  25.847  32.311  1.00  0.00     0.010 A 
ATOM     93  C   UNL A   1      50.207  26.451  30.693  1.00  0.00     0.020 A 
ATOM     94  C   UNL A   1      49.274  25.402  32.677  1.00  0.00     0.020 A 
ATOM     95  C   UNL A   1      50.367  25.696  31.859  1.00  0.00     0.054 A 
BRANCH  95  96
ATOM     96  S   UNL A   1      52.028  25.145  32.341  1.00  0.00     0.124 S 
ATOM     97  O   UNL A   1      52.806  25.440  31.141  1.00  0.00    -0.237 OA
ATOM     98  O   UNL A   1      52.329  25.977  33.505  1.00  0.00    -0.237 OA
ATOM     99  O   UNL A   1      51.842  23.725  32.635  1.00  0.00    -0.744 OA
ENDBRANCH  95  96
ENDBRANCH  69  90
ENDBRANCH  43  44
ENDBRANCH  35  38
ENDBRANCH  33  34
ENDBRANCH  32  33
ENDBRANCH  31  32
ENDBRANCH   1  31
TORSDOF 20
ENDMDL
MODEL 2
REMARK VINA RESULT:     -10.7      4.158      9.619
REMARK SMILES CCc1cc(C(=O)c2[nH]c3cc(Cl)ccc3c2CC(=O)NCCCCCCNC(=O)c2ccc(-c3c4nc(c(-c5ccc(S(=O)(=O)[O-])cc5)c5ccc([nH]5)c(-c5ccc(S(=O)(=O)[O-])cc5)c5nc(c(-c6ccc(S(=O)(=O)[O-])cc6)c6ccc3[nH]6)C=C5)C=C4)cc2)ncc1Cl
REMARK SMILES IDX 24 1 23 2 22 3 21 4 19 5 20 6 18 8 17 9 8 10 9 11 10 12
REMARK SMILES IDX 16 14 11 15 15 16 12 17 14 18 13 19 6 20 7 21 5 22 3 23 4 24
REMARK SMILES IDX 93 25 92 26 94 27 91 28 2 29 1 30 25 31 26 32 27 33 28 34
REMARK SMILES IDX 29 35 30 37 31 38 32 39 90 40 33 41 89 42 34 43 35 44 36 45
REMARK SMILES IDX 83 46 37 47 88 48 82 49 84 50 38 51 87 52 81 53 80 54 39 56
REMARK SMILES IDX 69 57 50 58 68 59 51 60 54 61 67 62 85 63 52 64 53 65 66 67
REMARK SMILES IDX 86 68 55 69 40 70 41 71 49 72 42 73 48 74 43 75 44 76 45 77
REMARK SMILES IDX 46 78 47 79 70 80 71 81 79 82 72 83 78 84 73 85 74 86 75 87
REMARK SMILES IDX 76 88 77 89 56 90 57 91 65 92 58 93 64 94 59 95 60 96 61 97
REMARK SMILES IDX 62 98 63 99
REMARK H PARENT 21 7 9 13 28 36 84 55 54 66
REMARK Flexibility Score: inf
ROOT
ATOM      1  C   UNL A   1      39.749  22.878  26.437  1.00  0.00     0.002 C 
ENDROOT
BRANCH   1   2
ATOM      2  C   UNL A   1      38.712  23.935  26.836  1.00  0.00     0.021 C 
BRANCH   2   3
ATOM      3  C   UNL A   1      37.363  23.816  26.126  1.00  0.00     0.116 C 
BRANCH   3   4
ATOM      4  N   UNL A   1      37.497  23.382  24.749  1.00  0.00    -0.356 N 
ATOM      5  C   UNL A   1      36.571  23.381  23.746  1.00  0.00     0.224 C 
ATOM      6  O   UNL A   1      36.931  23.046  22.614  1.00  0.00    -0.275 OA
ATOM      7  H   UNL A   1      38.387  23.038  24.501  1.00  0.00     0.163 HD
BRANCH   5   8
ATOM      8  C   UNL A   1      35.159  23.888  23.991  1.00  0.00     0.138 C 
BRANCH   8   9
ATOM      9  C   UNL A   1      34.064  22.999  23.473  1.00  0.00    -0.002 A 
ATOM     10  C   UNL A   1      33.112  23.298  22.502  1.00  0.00     0.093 A 
ATOM     11  N   UNL A   1      32.375  22.158  22.281  1.00  0.00    -0.351 N 
ATOM     12  C   UNL A   1      32.722  21.176  23.175  1.00  0.00     0.048 A 
ATOM     13  H   UNL A   1      31.693  22.060  21.579  1.00  0.00     0.167 HD
ATOM     14  C   UNL A   1      33.778  21.670  23.938  1.00  0.00     0.004 A 
ATOM     15  C   UNL A   1      32.195  19.890  23.348  1.00  0.00     0.047 A 
ATOM     16  C   UNL A   1      34.336  20.836  24.930  1.00  0.00     0.012 A 
ATOM     17  C   UNL A   1      32.765  19.090  24.340  1.00  0.00     0.043 A 
ATOM     18  C   UNL A   1      33.821  19.547  25.123  1.00  0.00     0.021 A 
ATOM     19  Cl  UNL A   1      32.146  17.504  24.600  1.00  0.00    -0.084 Cl
BRANCH  10  20
ATOM     20  C   UNL A   1      32.922  24.515  21.733  1.00  0.00     0.227 C 
ATOM     21  O   UNL A   1      33.188  24.554  20.537  1.00  0.00    -0.285 OA
BRANCH  20  22
ATOM     22  C   UNL A   1      32.329  25.721  22.430  1.00  0.00     0.113 A 
ATOM     23  C   UNL A   1      30.675  26.795  23.846  1.00  0.00    -0.026 A 
ATOM     24  C   UNL A   1      31.209  25.630  23.261  1.00  0.00     0.037 A 
ATOM     25  C   UNL A   1      31.311  28.014  23.587  1.00  0.00     0.062 A 
ATOM     26  C   UNL A   1      32.423  28.012  22.755  1.00  0.00     0.132 A 
ATOM     27  Cl  UNL A   1      30.775  29.509  24.253  1.00  0.00    -0.082 Cl
ATOM     28  N   UNL A   1      32.935  26.907  22.167  1.00  0.00    -0.251 NA
BRANCH  23  29
ATOM     29  C   UNL A   1      29.427  26.685  24.690  1.00  0.00     0.034 C 
ATOM     30  C   UNL A   1      28.166  26.589  23.841  1.00  0.00     0.009 C 
ENDBRANCH  23  29
ENDBRANCH  20  22
ENDBRANCH  10  20
ENDBRANCH   8   9
ENDBRANCH   5   8
ENDBRANCH   3   4
ENDBRANCH   2   3
ENDBRANCH   1   2
BRANCH   1  31
ATOM     31  C   UNL A   1      40.554  22.260  27.585  1.00  0.00     0.002 C 
BRANCH  31  32
ATOM     32  C   UNL A   1      42.035  21.984  27.297  1.00  0.00     0.021 C 
BRANCH  32  33
ATOM     33  C   UNL A   1      42.959  23.201  27.344  1.00  0.00     0.116 C 
BRANCH  33  34
ATOM     34  N   UNL A   1      42.893  23.994  26.130  1.00  0.00    -0.352 N 
ATOM     35  C   UNL A   1      42.551  25.314  25.962  1.00  0.00     0.251 C 
ATOM     36  H   UNL A   1      43.130  23.515  25.304  1.00  0.00     0.163 HD
ATOM     37  O   UNL A   1      42.411  25.757  24.824  1.00  0.00    -0.269 OA
BRANCH  35  38
ATOM     38  C   UNL A   1      42.330  26.205  27.126  1.00  0.00     0.039 A 
ATOM     39  C   UNL A   1      41.306  25.883  28.025  1.00  0.00     0.014 A 
ATOM     40  C   UNL A   1      43.061  27.386  27.303  1.00  0.00     0.014 A 
ATOM     41  C   UNL A   1      41.038  26.716  29.116  1.00  0.00     0.010 A 
ATOM     42  C   UNL A   1      42.813  28.202  28.411  1.00  0.00     0.010 A 
ATOM     43  C   UNL A   1      41.797  27.877  29.322  1.00  0.00    -0.014 A 
BRANCH  43  44
ATOM     44  C   UNL A   1      41.514  28.773  30.470  1.00  0.00     0.031 A 
ATOM     45  C   UNL A   1      42.376  28.724  31.701  1.00  0.00     0.074 A 
ATOM     46  C   UNL A   1      40.463  29.613  30.424  1.00  0.00     0.049 A 
ATOM     47  N   UNL A   1      42.250  29.388  32.822  1.00  0.00    -0.248 NA
ATOM     48  C   UNL A   1      43.518  27.799  31.670  1.00  0.00     0.031 C 
ATOM     49  C   UNL A   1      39.537  29.752  29.299  1.00  0.00     0.029 A 
ATOM     50  N   UNL A   1      39.999  30.509  31.354  1.00  0.00    -0.354 N 
ATOM     51  C   UNL A   1      43.277  28.940  33.643  1.00  0.00     0.074 A 
ATOM     52  C   UNL A   1      44.013  27.945  32.891  1.00  0.00     0.031 C 
ATOM     53  C   UNL A   1      38.624  30.690  29.600  1.00  0.00     0.029 A 
ATOM     54  C   UNL A   1      38.889  31.205  30.942  1.00  0.00     0.049 A 
ATOM     55  H   UNL A   1      40.421  30.640  32.234  1.00  0.00     0.167 HD
ATOM     56  C   UNL A   1      43.582  29.318  34.908  1.00  0.00     0.031 A 
ATOM     57  C   UNL A   1      38.168  32.153  31.568  1.00  0.00     0.031 A 
ATOM     58  C   UNL A   1      42.873  30.318  35.658  1.00  0.00     0.049 A 
ATOM     59  C   UNL A   1      38.556  32.598  32.948  1.00  0.00     0.074 A 
ATOM     60  C   UNL A   1      43.116  30.769  36.944  1.00  0.00     0.029 A 
ATOM     61  N   UNL A   1      41.786  31.033  35.183  1.00  0.00    -0.354 N 
ATOM     62  N   UNL A   1      39.532  32.162  33.706  1.00  0.00    -0.248 NA
ATOM     63  C   UNL A   1      37.752  33.671  33.551  1.00  0.00     0.031 C 
ATOM     64  C   UNL A   1      42.171  31.758  37.248  1.00  0.00     0.029 A 
ATOM     65  C   UNL A   1      41.350  31.929  36.144  1.00  0.00     0.049 A 
ATOM     66  H   UNL A   1      41.382  30.921  34.291  1.00  0.00     0.167 HD
ATOM     67  C   UNL A   1      39.466  32.915  34.873  1.00  0.00     0.074 A 
ATOM     68  C   UNL A   1      38.360  33.837  34.717  1.00  0.00     0.031 C 
ATOM     69  C   UNL A   1      40.254  32.845  35.973  1.00  0.00     0.031 A 
BRANCH  56  70
ATOM     70  C   UNL A   1      44.736  28.611  35.556  1.00  0.00    -0.014 A 
ATOM     71  C   UNL A   1      44.536  27.430  36.291  1.00  0.00     0.010 A 
ATOM     72  C   UNL A   1      46.030  29.152  35.456  1.00  0.00     0.010 A 
ATOM     73  C   UNL A   1      45.602  26.829  36.964  1.00  0.00     0.020 A 
ATOM     74  C   UNL A   1      47.101  28.546  36.117  1.00  0.00     0.020 A 
ATOM     75  C   UNL A   1      46.876  27.403  36.888  1.00  0.00     0.054 A 
BRANCH  75  76
ATOM     76  S   UNL A   1      48.253  26.644  37.792  1.00  0.00     0.124 S 
ATOM     77  O   UNL A   1      47.800  26.757  39.176  1.00  0.00    -0.237 OA
ATOM     78  O   UNL A   1      48.298  25.286  37.256  1.00  0.00    -0.237 OA
ATOM     79  O   UNL A   1      49.393  27.487  37.437  1.00  0.00    -0.744 OA
ENDBRANCH  75  76
ENDBRANCH  56  70
BRANCH  57  80
ATOM     80  C   UNL A   1      37.012  32.767  30.871  1.00  0.00    -0.014 A 
ATOM     81  C   UNL A   1      35.704  32.500  31.308  1.00  0.00     0.010 A 
ATOM     82  C   UNL A   1      37.217  33.654  29.800  1.00  0.00     0.010 A 
ATOM     83  C   UNL A   1      34.614  33.114  30.686  1.00  0.00     0.020 A 
ATOM     84  C   UNL A   1      36.129  34.276  29.183  1.00  0.00     0.020 A 
ATOM     85  C   UNL A   1      34.833  34.000  29.628  1.00  0.00     0.054 A 
BRANCH  85  86
ATOM     86  S   UNL A   1      33.422  34.863  28.882  1.00  0.00     0.124 S 
ATOM     87  O   UNL A   1      32.519  35.005  30.019  1.00  0.00    -0.237 OA
ATOM     88  O   UNL A   1      34.021  36.103  28.392  1.00  0.00    -0.237 OA
ATOM     89  O   UNL A   1      32.982  33.941  27.838  1.00  0.00    -0.744 OA
ENDBRANCH  85  86
ENDBRANCH  57  80
BRANCH  69  90
ATOM     90  C   UNL A   1      39.960  33.810  37.085  1.00  0.00    -0.014 A 
ATOM     91  C   UNL A   1      40.500  35.108  37.071  1.00  0.00     0.010 A 
ATOM     92  C   UNL A   1      39.110  33.425  38.136  1.00  0.00     0.010 A 
ATOM     93  C   UNL A   1      40.210  36.001  38.105  1.00  0.00     0.020 A 
ATOM     94  C   UNL A   1      38.813  34.319  39.167  1.00  0.00     0.020 A 
ATOM     95  C   UNL A   1      39.375  35.598  39.152  1.00  0.00     0.054 A 
BRANCH  95  96
ATOM     96  S   UNL A   1      38.972  36.775  40.473  1.00  0.00     0.124 S 
ATOM     97  O   UNL A   1      40.281  37.015  41.075  1.00  0.00    -0.237 OA
ATOM     98  O   UNL A   1      38.398  37.907  39.746  1.00  0.00    -0.237 OA
ATOM     99  O   UNL A   1      38.025  36.038  41.307  1.00  0.00    -0.744 OA
ENDBRANCH  95  96
ENDBRANCH  69  90
ENDBRANCH  43  44
ENDBRANCH  35  38
ENDBRANCH  33  34
ENDBRANCH  32  33
ENDBRANCH  31  32
ENDBRANCH   1  31
TORSDOF 20
ENDMDL
MODEL 3
REMARK VINA RESULT:     -10.5      2.282      2.810
REMARK SMILES CCc1cc(C(=O)c2[nH]c3cc(Cl)ccc3c2CC(=O)NCCCCCCNC(=O)c2ccc(-c3c4nc(c(-c5ccc(S(=O)(=O)[O-])cc5)c5ccc([nH]5)c(-c5ccc(S(=O)(=O)[O-])cc5)c5nc(c(-c6ccc(S(=O)(=O)[O-])cc6)c6ccc3[nH]6)C=C5)C=C4)cc2)ncc1Cl
REMARK SMILES IDX 24 1 23 2 22 3 21 4 19 5 20 6 18 8 17 9 8 10 9 11 10 12
REMARK SMILES IDX 16 14 11 15 15 16 12 17 14 18 13 19 6 20 7 21 5 22 3 23 4 24
REMARK SMILES IDX 93 25 92 26 94 27 91 28 2 29 1 30 25 31 26 32 27 33 28 34
REMARK SMILES IDX 29 35 30 37 31 38 32 39 90 40 33 41 89 42 34 43 35 44 36 45
REMARK SMILES IDX 83 46 37 47 88 48 82 49 84 50 38 51 87 52 81 53 80 54 39 56
REMARK SMILES IDX 69 57 50 58 68 59 51 60 54 61 67 62 85 63 52 64 53 65 66 67
REMARK SMILES IDX 86 68 55 69 40 70 41 71 49 72 42 73 48 74 43 75 44 76 45 77
REMARK SMILES IDX 46 78 47 79 70 80 71 81 79 82 72 83 78 84 73 85 74 86 75 87
REMARK SMILES IDX 76 88 77 89 56 90 57 91 65 92 58 93 64 94 59 95 60 96 61 97
REMARK SMILES IDX 62 98 63 99
REMARK H PARENT 21 7 9 13 28 36 84 55 54 66
REMARK Flexibility Score: inf
ROOT
ATOM      1  C   UNL A   1      31.021  27.109  26.789  1.00  0.00     0.002 C 
ENDROOT
BRANCH   1   2
ATOM      2  C   UNL A   1      31.590  25.826  26.173  1.00  0.00     0.021 C 
BRANCH   2   3
ATOM      3  C   UNL A   1      30.585  24.990  25.381  1.00  0.00     0.116 C 
BRANCH   3   4
ATOM      4  N   UNL A   1      30.671  23.576  25.692  1.00  0.00    -0.356 N 
ATOM      5  C   UNL A   1      31.175  22.552  24.942  1.00  0.00     0.224 C 
ATOM      6  O   UNL A   1      31.229  21.427  25.445  1.00  0.00    -0.275 OA
ATOM      7  H   UNL A   1      30.314  23.317  26.572  1.00  0.00     0.163 HD
BRANCH   5   8
ATOM      8  C   UNL A   1      31.761  22.813  23.563  1.00  0.00     0.138 C 
BRANCH   8   9
ATOM      9  C   UNL A   1      33.137  23.416  23.559  1.00  0.00    -0.002 A 
ATOM     10  C   UNL A   1      33.574  24.535  22.858  1.00  0.00     0.093 A 
ATOM     11  N   UNL A   1      34.877  24.773  23.230  1.00  0.00    -0.351 N 
ATOM     12  C   UNL A   1      35.342  23.765  24.037  1.00  0.00     0.048 A 
ATOM     13  H   UNL A   1      35.403  25.558  22.955  1.00  0.00     0.167 HD
ATOM     14  C   UNL A   1      34.276  22.896  24.264  1.00  0.00     0.004 A 
ATOM     15  C   UNL A   1      36.613  23.573  24.594  1.00  0.00     0.047 A 
ATOM     16  C   UNL A   1      34.492  21.771  25.089  1.00  0.00     0.012 A 
ATOM     17  C   UNL A   1      36.796  22.448  25.402  1.00  0.00     0.043 A 
ATOM     18  C   UNL A   1      35.757  21.558  25.653  1.00  0.00     0.021 A 
ATOM     19  Cl  UNL A   1      38.343  22.160  26.102  1.00  0.00    -0.084 Cl
BRANCH  10  20
ATOM     20  C   UNL A   1      32.841  25.416  21.965  1.00  0.00     0.227 C 
ATOM     21  O   UNL A   1      32.743  25.165  20.770  1.00  0.00    -0.285 OA
BRANCH  20  22
ATOM     22  C   UNL A   1      32.148  26.624  22.559  1.00  0.00     0.113 A 
ATOM     23  C   UNL A   1      30.168  27.898  23.152  1.00  0.00    -0.026 A 
ATOM     24  C   UNL A   1      30.756  26.729  22.631  1.00  0.00     0.037 A 
ATOM     25  C   UNL A   1      31.014  28.915  23.606  1.00  0.00     0.062 A 
ATOM     26  C   UNL A   1      32.386  28.725  23.504  1.00  0.00     0.132 A 
ATOM     27  Cl  UNL A   1      30.428  30.387  24.283  1.00  0.00    -0.082 Cl
ATOM     28  N   UNL A   1      32.966  27.619  22.985  1.00  0.00    -0.251 NA
BRANCH  23  29
ATOM     29  C   UNL A   1      28.662  28.018  23.163  1.00  0.00     0.034 C 
ATOM     30  C   UNL A   1      28.178  29.235  22.386  1.00  0.00     0.009 C 
ENDBRANCH  23  29
ENDBRANCH  20  22
ENDBRANCH  10  20
ENDBRANCH   8   9
ENDBRANCH   5   8
ENDBRANCH   3   4
ENDBRANCH   2   3
ENDBRANCH   1   2
BRANCH   1  31
ATOM     31  C   UNL A   1      32.050  28.154  27.234  1.00  0.00     0.002 C 
BRANCH  31  32
ATOM     32  C   UNL A   1      33.499  27.900  26.801  1.00  0.00     0.021 C 
BRANCH  32  33
ATOM     33  C   UNL A   1      34.186  29.053  26.069  1.00  0.00     0.116 C 
BRANCH  33  34
ATOM     34  N   UNL A   1      33.829  30.349  26.616  1.00  0.00    -0.352 N 
ATOM     35  C   UNL A   1      34.419  31.067  27.628  1.00  0.00     0.251 C 
ATOM     36  H   UNL A   1      33.047  30.778  26.201  1.00  0.00     0.163 HD
ATOM     37  O   UNL A   1      33.866  32.082  28.044  1.00  0.00    -0.269 OA
BRANCH  35  38
ATOM     38  C   UNL A   1      35.697  30.628  28.237  1.00  0.00     0.039 A 
ATOM     39  C   UNL A   1      35.649  29.725  29.306  1.00  0.00     0.014 A 
ATOM     40  C   UNL A   1      36.930  31.147  27.824  1.00  0.00     0.014 A 
ATOM     41  C   UNL A   1      36.829  29.313  29.934  1.00  0.00     0.010 A 
ATOM     42  C   UNL A   1      38.111  30.713  28.433  1.00  0.00     0.010 A 
ATOM     43  C   UNL A   1      38.070  29.797  29.496  1.00  0.00    -0.014 A 
BRANCH  43  44
ATOM     44  C   UNL A   1      39.326  29.377  30.162  1.00  0.00     0.031 A 
ATOM     45  C   UNL A   1      39.777  30.053  31.426  1.00  0.00     0.074 A 
ATOM     46  C   UNL A   1      40.085  28.407  29.618  1.00  0.00     0.049 A 
ATOM     47  N   UNL A   1      40.871  29.861  32.119  1.00  0.00    -0.248 NA
ATOM     48  C   UNL A   1      38.888  31.087  31.974  1.00  0.00     0.031 C 
ATOM     49  C   UNL A   1      39.774  27.678  28.387  1.00  0.00     0.029 A 
ATOM     50  N   UNL A   1      41.276  27.869  30.034  1.00  0.00    -0.354 N 
ATOM     51  C   UNL A   1      40.819  30.770  33.168  1.00  0.00     0.074 A 
ATOM     52  C   UNL A   1      39.587  31.517  33.017  1.00  0.00     0.031 C 
ATOM     53  C   UNL A   1      40.744  26.777  28.156  1.00  0.00     0.029 A 
ATOM     54  C   UNL A   1      41.750  26.877  29.211  1.00  0.00     0.049 A 
ATOM     55  H   UNL A   1      41.748  28.167  30.846  1.00  0.00     0.167 HD
ATOM     56  C   UNL A   1      41.713  30.971  34.166  1.00  0.00     0.031 A 
ATOM     57  C   UNL A   1      42.866  26.128  29.295  1.00  0.00     0.031 A 
ATOM     58  C   UNL A   1      42.929  30.226  34.340  1.00  0.00     0.049 A 
ATOM     59  C   UNL A   1      43.815  26.328  30.440  1.00  0.00     0.074 A 
ATOM     60  C   UNL A   1      43.892  30.357  35.326  1.00  0.00     0.029 A 
ATOM     61  N   UNL A   1      43.345  29.197  33.510  1.00  0.00    -0.354 N 
ATOM     62  N   UNL A   1      43.746  27.194  31.422  1.00  0.00    -0.248 NA
ATOM     63  C   UNL A   1      44.987  25.442  30.493  1.00  0.00     0.031 C 
ATOM     64  C   UNL A   1      44.893  29.406  35.090  1.00  0.00     0.029 A 
ATOM     65  C   UNL A   1      44.545  28.676  33.965  1.00  0.00     0.049 A 
ATOM     66  H   UNL A   1      42.858  28.881  32.714  1.00  0.00     0.167 HD
ATOM     67  C   UNL A   1      44.860  26.949  32.217  1.00  0.00     0.074 A 
ATOM     68  C   UNL A   1      45.582  25.852  31.605  1.00  0.00     0.031 C 
ATOM     69  C   UNL A   1      45.247  27.581  33.352  1.00  0.00     0.031 A 
BRANCH  56  70
ATOM     70  C   UNL A   1      41.396  32.072  35.135  1.00  0.00    -0.014 A 
ATOM     71  C   UNL A   1      40.625  31.821  36.284  1.00  0.00     0.010 A 
ATOM     72  C   UNL A   1      41.845  33.379  34.876  1.00  0.00     0.010 A 
ATOM     73  C   UNL A   1      40.261  32.870  37.131  1.00  0.00     0.020 A 
ATOM     74  C   UNL A   1      41.494  34.428  35.729  1.00  0.00     0.020 A 
ATOM     75  C   UNL A   1      40.682  34.171  36.837  1.00  0.00     0.054 A 
BRANCH  75  76
ATOM     76  S   UNL A   1      40.178  35.539  37.916  1.00  0.00     0.124 S 
ATOM     77  O   UNL A   1      41.344  35.678  38.785  1.00  0.00    -0.237 OA
ATOM     78  O   UNL A   1      39.958  36.640  36.982  1.00  0.00    -0.237 OA
ATOM     79  O   UNL A   1      38.972  35.029  38.565  1.00  0.00    -0.744 OA
ENDBRANCH  75  76
ENDBRANCH  56  70
BRANCH  57  80
ATOM     80  C   UNL A   1      43.126  25.093  28.266  1.00  0.00    -0.014 A 
ATOM     81  C   UNL A   1      43.902  25.403  27.137  1.00  0.00     0.010 A 
ATOM     82  C   UNL A   1      42.639  23.785  28.435  1.00  0.00     0.010 A 
ATOM     83  C   UNL A   1      44.191  24.418  26.189  1.00  0.00     0.020 A 
ATOM     84  C   UNL A   1      42.935  22.797  27.493  1.00  0.00     0.020 A 
ATOM     85  C   UNL A   1      43.708  23.120  26.374  1.00  0.00     0.054 A 
BRANCH  85  86
ATOM     86  S   UNL A   1      44.160  21.824  25.187  1.00  0.00     0.124 S 
ATOM     87  O   UNL A   1      43.146  20.807  25.449  1.00  0.00    -0.237 OA
ATOM     88  O   UNL A   1      44.052  22.508  23.900  1.00  0.00    -0.237 OA
ATOM     89  O   UNL A   1      45.522  21.472  25.582  1.00  0.00    -0.744 OA
ENDBRANCH  85  86
ENDBRANCH  57  80
BRANCH  69  90
ATOM     90  C   UNL A   1      46.497  27.082  34.017  1.00  0.00    -0.014 A 
ATOM     91  C   UNL A   1      47.750  27.630  33.694  1.00  0.00     0.010 A 
ATOM     92  C   UNL A   1      46.413  26.078  34.998  1.00  0.00     0.010 A 
ATOM     93  C   UNL A   1      48.906  27.166  34.327  1.00  0.00     0.020 A 
ATOM     94  C   UNL A   1      47.566  25.618  35.638  1.00  0.00     0.020 A 
ATOM     95  C   UNL A   1      48.807  26.157  35.289  1.00  0.00     0.054 A 
BRANCH  95  96
ATOM     96  S   UNL A   1      50.308  25.584  36.136  1.00  0.00     0.124 S 
ATOM     97  O   UNL A   1      50.032  25.952  37.522  1.00  0.00    -0.237 OA
ATOM     98  O   UNL A   1      50.319  24.149  35.857  1.00  0.00    -0.237 OA
ATOM     99  O   UNL A   1      51.374  26.344  35.486  1.00  0.00    -0.744 OA
ENDBRANCH  95  96
ENDBRANCH  69  90
ENDBRANCH  43  44
ENDBRANCH  35  38
ENDBRANCH  33  34
ENDBRANCH  32  33
ENDBRANCH  31  32
ENDBRANCH   1  31
TORSDOF 20
ENDMDL
