MODEL 1
REMARK VINA RESULT:     -11.1      0.000      0.000
REMARK SMILES CCCc1cc2c(cc1Cl)C=C(C(=O)NCCCCCCNC(=O)c1ccc(-c3c4nc(c(-c5ccc(S(=O)(=O)[O-])cc5)c5ccc([nH]5)c(-c5ccc(S(=O)(=O)[O-])cc5)c5nc(c(-c6ccc(S(=O)(=O)[O-])cc6)c6ccc3[nH]6)C=C5)C=C4)cc1)[C@H](C(F)(F)F)O2
REMARK SMILES IDX 19 1 18 2 17 3 16 4 15 5 13 6 14 7 12 9 4 10 5 11 9 12 6 13
REMARK SMILES IDX 8 14 10 15 7 16 90 17 11 18 85 19 3 20 2 21 1 22 86 23 87 24
REMARK SMILES IDX 88 25 89 26 20 27 21 28 22 29 23 30 24 32 25 33 26 34 84 35
REMARK SMILES IDX 27 36 83 37 28 38 29 39 30 40 77 41 31 42 82 43 76 44 78 45
REMARK SMILES IDX 32 46 81 47 75 48 74 49 33 51 63 52 44 53 62 54 45 55 48 56
REMARK SMILES IDX 61 57 79 58 46 59 47 60 60 62 80 63 49 64 34 65 35 66 43 67
REMARK SMILES IDX 36 68 42 69 37 70 38 71 39 72 40 73 41 74 64 75 65 76 73 77
REMARK SMILES IDX 66 78 72 79 67 80 68 81 69 82 70 83 71 84 50 85 51 86 59 87
REMARK SMILES IDX 52 88 58 89 53 90 54 91 55 92 56 93 57 94
REMARK H PARENT 15 8 22 31 78 50 48 61
REMARK Flexibility Score: inf
ROOT
ATOM      1  C   UNL A   1      38.050  23.752  26.504  1.00  0.00     0.002 C 
ENDROOT
BRANCH   1   2
ATOM      2  C   UNL A   1      36.905  23.563  25.501  1.00  0.00     0.002 C 
BRANCH   2   3
ATOM      3  C   UNL A   1      35.985  22.370  25.769  1.00  0.00     0.021 C 
BRANCH   3   4
ATOM      4  C   UNL A   1      35.243  21.861  24.535  1.00  0.00     0.116 C 
BRANCH   4   5
ATOM      5  N   UNL A   1      33.919  21.358  24.868  1.00  0.00    -0.352 N 
ATOM      6  C   UNL A   1      32.649  21.828  24.905  1.00  0.00     0.251 C 
ATOM      7  O   UNL A   1      31.796  21.005  25.259  1.00  0.00    -0.270 OA
ATOM      8  H   UNL A   1      33.957  20.414  25.143  1.00  0.00     0.163 HD
BRANCH   6   9
ATOM      9  C   UNL A   1      32.223  23.217  24.555  1.00  0.00     0.067 C 
ATOM     10  C   UNL A   1      31.018  28.122  24.672  1.00  0.00    -0.026 A 
ATOM     11  C   UNL A   1      30.812  27.073  23.764  1.00  0.00     0.052 A 
ATOM     12  C   UNL A   1      31.615  27.821  25.907  1.00  0.00     0.045 A 
ATOM     13  C   UNL A   1      31.239  25.783  24.059  1.00  0.00     0.128 A 
ATOM     14  C   UNL A   1      31.996  26.507  26.219  1.00  0.00     0.032 A 
ATOM     15  Cl  UNL A   1      31.909  29.038  27.098  1.00  0.00    -0.084 Cl
ATOM     16  C   UNL A   1      31.821  25.482  25.286  1.00  0.00     0.019 A 
ATOM     17  O   UNL A   1      31.033  24.849  23.088  1.00  0.00    -0.475 OA
ATOM     18  C   UNL A   1      32.204  24.104  25.569  1.00  0.00     0.025 C 
ATOM     19  C   UNL A   1      31.864  23.663  23.164  1.00  0.00     0.314 C 
BRANCH  10  20
ATOM     20  C   UNL A   1      30.625  29.514  24.238  1.00  0.00     0.037 C 
BRANCH  20  21
ATOM     21  C   UNL A   1      29.890  29.553  22.891  1.00  0.00     0.001 C 
ATOM     22  C   UNL A   1      28.388  29.786  23.008  1.00  0.00     0.004 C 
ENDBRANCH  20  21
ENDBRANCH  10  20
BRANCH  19  23
ATOM     23  C   UNL A   1      33.098  23.823  22.255  1.00  0.00     0.429 C 
ATOM     24  F   UNL A   1      33.451  22.630  21.716  1.00  0.00    -0.167 F 
ATOM     25  F   UNL A   1      32.887  24.684  21.233  1.00  0.00    -0.167 F 
ATOM     26  F   UNL A   1      34.183  24.277  22.926  1.00  0.00    -0.167 F 
ENDBRANCH  19  23
ENDBRANCH   6   9
ENDBRANCH   4   5
ENDBRANCH   3   4
ENDBRANCH   2   3
ENDBRANCH   1   2
BRANCH   1  27
ATOM     27  C   UNL A   1      39.150  22.690  26.460  1.00  0.00     0.021 C 
BRANCH  27  28
ATOM     28  C   UNL A   1      40.520  23.163  26.933  1.00  0.00     0.116 C 
BRANCH  28  29
ATOM     29  N   UNL A   1      41.196  23.986  25.941  1.00  0.00    -0.352 N 
ATOM     30  C   UNL A   1      41.598  25.297  26.025  1.00  0.00     0.251 C 
ATOM     31  H   UNL A   1      41.396  23.538  25.087  1.00  0.00     0.163 HD
ATOM     32  O   UNL A   1      42.002  25.883  25.024  1.00  0.00    -0.269 OA
BRANCH  30  33
ATOM     33  C   UNL A   1      41.510  26.006  27.320  1.00  0.00     0.039 A 
ATOM     34  C   UNL A   1      40.399  25.832  28.148  1.00  0.00     0.014 A 
ATOM     35  C   UNL A   1      42.537  26.877  27.695  1.00  0.00     0.014 A 
ATOM     36  C   UNL A   1      40.235  26.651  29.259  1.00  0.00     0.010 A 
ATOM     37  C   UNL A   1      42.409  27.638  28.861  1.00  0.00     0.010 A 
ATOM     38  C   UNL A   1      41.233  27.570  29.626  1.00  0.00    -0.014 A 
BRANCH  38  39
ATOM     39  C   UNL A   1      41.017  28.451  30.803  1.00  0.00     0.031 A 
ATOM     40  C   UNL A   1      41.939  28.385  31.993  1.00  0.00     0.074 A 
ATOM     41  C   UNL A   1      40.025  29.364  30.770  1.00  0.00     0.049 A 
ATOM     42  N   UNL A   1      41.927  29.112  33.081  1.00  0.00    -0.248 NA
ATOM     43  C   UNL A   1      43.013  27.377  31.963  1.00  0.00     0.031 C 
ATOM     44  C   UNL A   1      39.083  29.536  29.662  1.00  0.00     0.029 A 
ATOM     45  N   UNL A   1      39.667  30.339  31.667  1.00  0.00    -0.354 N 
ATOM     46  C   UNL A   1      42.976  28.647  33.865  1.00  0.00     0.074 A 
ATOM     47  C   UNL A   1      43.585  27.550  33.147  1.00  0.00     0.031 C 
ATOM     48  C   UNL A   1      38.300  30.596  29.913  1.00  0.00     0.029 A 
ATOM     49  C   UNL A   1      38.634  31.136  31.228  1.00  0.00     0.049 A 
ATOM     50  H   UNL A   1      40.104  30.457  32.540  1.00  0.00     0.167 HD
ATOM     51  C   UNL A   1      43.402  29.104  35.067  1.00  0.00     0.031 A 
ATOM     52  C   UNL A   1      38.019  32.184  31.812  1.00  0.00     0.031 A 
ATOM     53  C   UNL A   1      42.799  30.207  35.769  1.00  0.00     0.049 A 
ATOM     54  C   UNL A   1      38.485  32.647  33.162  1.00  0.00     0.074 A 
ATOM     55  C   UNL A   1      43.168  30.745  36.991  1.00  0.00     0.029 A 
ATOM     56  N   UNL A   1      41.717  30.946  35.316  1.00  0.00    -0.354 N 
ATOM     57  N   UNL A   1      39.477  32.190  33.887  1.00  0.00    -0.248 NA
ATOM     58  C   UNL A   1      37.754  33.765  33.774  1.00  0.00     0.031 C 
ATOM     59  C   UNL A   1      42.272  31.770  37.304  1.00  0.00     0.029 A 
ATOM     60  C   UNL A   1      41.392  31.922  36.245  1.00  0.00     0.049 A 
ATOM     61  H   UNL A   1      41.250  30.800  34.463  1.00  0.00     0.167 HD
ATOM     62  C   UNL A   1      39.501  32.974  35.034  1.00  0.00     0.074 A 
ATOM     63  C   UNL A   1      38.436  33.946  34.900  1.00  0.00     0.031 C 
ATOM     64  C   UNL A   1      40.331  32.888  36.102  1.00  0.00     0.031 A 
BRANCH  51  65
ATOM     65  C   UNL A   1      44.583  28.427  35.715  1.00  0.00    -0.014 A 
ATOM     66  C   UNL A   1      44.372  27.358  36.606  1.00  0.00     0.010 A 
ATOM     67  C   UNL A   1      45.886  28.928  35.545  1.00  0.00     0.010 A 
ATOM     68  C   UNL A   1      45.436  26.824  37.341  1.00  0.00     0.020 A 
ATOM     69  C   UNL A   1      46.956  28.377  36.255  1.00  0.00     0.020 A 
ATOM     70  C   UNL A   1      46.720  27.346  37.168  1.00  0.00     0.054 A 
BRANCH  70  71
ATOM     71  S   UNL A   1      48.083  26.662  38.150  1.00  0.00     0.124 S 
ATOM     72  O   UNL A   1      49.198  27.527  37.777  1.00  0.00    -0.237 OA
ATOM     73  O   UNL A   1      47.598  26.813  39.521  1.00  0.00    -0.237 OA
ATOM     74  O   UNL A   1      48.179  25.280  37.684  1.00  0.00    -0.744 OA
ENDBRANCH  70  71
ENDBRANCH  51  65
BRANCH  52  75
ATOM     75  C   UNL A   1      36.914  32.869  31.085  1.00  0.00    -0.014 A 
ATOM     76  C   UNL A   1      35.572  32.558  31.376  1.00  0.00     0.010 A 
ATOM     77  C   UNL A   1      37.196  33.763  30.037  1.00  0.00     0.010 A 
ATOM     78  C   UNL A   1      34.537  33.073  30.591  1.00  0.00     0.020 A 
ATOM     79  C   UNL A   1      36.159  34.307  29.270  1.00  0.00     0.020 A 
ATOM     80  C   UNL A   1      34.840  33.932  29.533  1.00  0.00     0.054 A 
BRANCH  80  81
ATOM     81  S   UNL A   1      33.485  34.540  28.491  1.00  0.00     0.124 S 
ATOM     82  O   UNL A   1      34.143  35.606  27.740  1.00  0.00    -0.237 OA
ATOM     83  O   UNL A   1      33.122  33.357  27.716  1.00  0.00    -0.237 OA
ATOM     84  O   UNL A   1      32.483  34.982  29.457  1.00  0.00    -0.744 OA
ENDBRANCH  80  81
ENDBRANCH  52  75
BRANCH  64  85
ATOM     85  C   UNL A   1      40.148  33.872  37.228  1.00  0.00    -0.014 A 
ATOM     86  C   UNL A   1      39.219  33.595  38.248  1.00  0.00     0.010 A 
ATOM     87  C   UNL A   1      40.789  35.122  37.206  1.00  0.00     0.010 A 
ATOM     88  C   UNL A   1      38.903  34.565  39.203  1.00  0.00     0.020 A 
ATOM     89  C   UNL A   1      40.499  36.084  38.177  1.00  0.00     0.020 A 
ATOM     90  C   UNL A   1      39.537  35.808  39.154  1.00  0.00     0.054 A 
BRANCH  90  91
ATOM     91  S   UNL A   1      39.089  37.069  40.379  1.00  0.00     0.124 S 
ATOM     92  O   UNL A   1      40.382  37.391  40.974  1.00  0.00    -0.237 OA
ATOM     93  O   UNL A   1      38.495  38.120  39.556  1.00  0.00    -0.237 OA
ATOM     94  O   UNL A   1      38.151  36.373  41.259  1.00  0.00    -0.744 OA
ENDBRANCH  90  91
ENDBRANCH  64  85
ENDBRANCH  38  39
ENDBRANCH  30  33
ENDBRANCH  28  29
ENDBRANCH  27  28
ENDBRANCH   1  27
TORSDOF 19
ENDMDL
MODEL 2
REMARK VINA RESULT:     -11.1      6.254     11.515
REMARK SMILES CCCc1cc2c(cc1Cl)C=C(C(=O)NCCCCCCNC(=O)c1ccc(-c3c4nc(c(-c5ccc(S(=O)(=O)[O-])cc5)c5ccc([nH]5)c(-c5ccc(S(=O)(=O)[O-])cc5)c5nc(c(-c6ccc(S(=O)(=O)[O-])cc6)c6ccc3[nH]6)C=C5)C=C4)cc1)[C@H](C(F)(F)F)O2
REMARK SMILES IDX 19 1 18 2 17 3 16 4 15 5 13 6 14 7 12 9 4 10 5 11 9 12 6 13
REMARK SMILES IDX 8 14 10 15 7 16 90 17 11 18 85 19 3 20 2 21 1 22 86 23 87 24
REMARK SMILES IDX 88 25 89 26 20 27 21 28 22 29 23 30 24 32 25 33 26 34 84 35
REMARK SMILES IDX 27 36 83 37 28 38 29 39 30 40 77 41 31 42 82 43 76 44 78 45
REMARK SMILES IDX 32 46 81 47 75 48 74 49 33 51 63 52 44 53 62 54 45 55 48 56
REMARK SMILES IDX 61 57 79 58 46 59 47 60 60 62 80 63 49 64 34 65 35 66 43 67
REMARK SMILES IDX 36 68 42 69 37 70 38 71 39 72 40 73 41 74 64 75 65 76 73 77
REMARK SMILES IDX 66 78 72 79 67 80 68 81 69 82 70 83 71 84 50 85 51 86 59 87
REMARK SMILES IDX 52 88 58 89 53 90 54 91 55 92 56 93 57 94
REMARK H PARENT 15 8 22 31 78 50 48 61
REMARK Flexibility Score: inf
ROOT
ATOM      1  C   UNL A   1      34.263  30.440  28.008  1.00  0.00     0.002 C 
ENDROOT
BRANCH   1   2
ATOM      2  C   UNL A   1      33.705  29.635  26.828  1.00  0.00     0.002 C 
BRANCH   2   3
ATOM      3  C   UNL A   1      32.196  29.755  26.604  1.00  0.00     0.021 C 
BRANCH   3   4
ATOM      4  C   UNL A   1      31.693  29.061  25.340  1.00  0.00     0.116 C 
BRANCH   4   5
ATOM      5  N   UNL A   1      32.562  29.312  24.201  1.00  0.00    -0.352 N 
ATOM      6  C   UNL A   1      33.339  28.594  23.356  1.00  0.00     0.251 C 
ATOM      7  O   UNL A   1      33.922  29.256  22.489  1.00  0.00    -0.270 OA
ATOM      8  H   UNL A   1      32.594  30.272  23.984  1.00  0.00     0.163 HD
BRANCH   6   9
ATOM      9  C   UNL A   1      33.529  27.112  23.394  1.00  0.00     0.067 C 
ATOM     10  C   UNL A   1      34.428  22.348  24.813  1.00  0.00    -0.026 A 
ATOM     11  C   UNL A   1      34.337  23.014  23.583  1.00  0.00     0.052 A 
ATOM     12  C   UNL A   1      34.351  23.113  25.988  1.00  0.00     0.045 A 
ATOM     13  C   UNL A   1      34.120  24.386  23.531  1.00  0.00     0.128 A 
ATOM     14  C   UNL A   1      34.184  24.506  25.929  1.00  0.00     0.032 A 
ATOM     15  Cl  UNL A   1      34.457  22.392  27.555  1.00  0.00    -0.084 Cl
ATOM     16  C   UNL A   1      34.054  25.147  24.695  1.00  0.00     0.019 A 
ATOM     17  O   UNL A   1      33.999  24.925  22.286  1.00  0.00    -0.475 OA
ATOM     18  C   UNL A   1      33.878  26.590  24.587  1.00  0.00     0.025 C 
ATOM     19  C   UNL A   1      33.321  26.205  22.213  1.00  0.00     0.314 C 
BRANCH  10  20
ATOM     20  C   UNL A   1      34.557  20.843  24.790  1.00  0.00     0.037 C 
BRANCH  20  21
ATOM     21  C   UNL A   1      35.995  20.347  24.994  1.00  0.00     0.001 C 
ATOM     22  C   UNL A   1      37.064  21.348  24.569  1.00  0.00     0.004 C 
ENDBRANCH  20  21
ENDBRANCH  10  20
BRANCH  19  23
ATOM     23  C   UNL A   1      31.831  25.995  21.883  1.00  0.00     0.429 C 
ATOM     24  F   UNL A   1      31.634  26.005  20.541  1.00  0.00    -0.167 F 
ATOM     25  F   UNL A   1      31.350  24.822  22.355  1.00  0.00    -0.167 F 
ATOM     26  F   UNL A   1      31.042  26.971  22.393  1.00  0.00    -0.167 F 
ENDBRANCH  19  23
ENDBRANCH   6   9
ENDBRANCH   4   5
ENDBRANCH   3   4
ENDBRANCH   2   3
ENDBRANCH   1   2
BRANCH   1  27
ATOM     27  C   UNL A   1      35.390  31.417  27.670  1.00  0.00     0.021 C 
BRANCH  27  28
ATOM     28  C   UNL A   1      36.172  31.938  28.871  1.00  0.00     0.116 C 
BRANCH  28  29
ATOM     29  N   UNL A   1      35.910  31.169  30.079  1.00  0.00    -0.352 N 
ATOM     30  C   UNL A   1      36.712  30.256  30.721  1.00  0.00     0.251 C 
ATOM     31  H   UNL A   1      35.033  31.327  30.498  1.00  0.00     0.163 HD
ATOM     32  O   UNL A   1      36.258  29.573  31.636  1.00  0.00    -0.269 OA
BRANCH  30  33
ATOM     33  C   UNL A   1      38.112  30.078  30.281  1.00  0.00     0.039 A 
ATOM     34  C   UNL A   1      38.432  30.069  28.922  1.00  0.00     0.014 A 
ATOM     35  C   UNL A   1      39.112  29.890  31.239  1.00  0.00     0.014 A 
ATOM     36  C   UNL A   1      39.711  29.702  28.519  1.00  0.00     0.010 A 
ATOM     37  C   UNL A   1      40.419  29.606  30.831  1.00  0.00     0.010 A 
ATOM     38  C   UNL A   1      40.719  29.459  29.467  1.00  0.00    -0.014 A 
BRANCH  38  39
ATOM     39  C   UNL A   1      42.070  29.042  29.006  1.00  0.00     0.031 A 
ATOM     40  C   UNL A   1      42.310  27.647  28.492  1.00  0.00     0.074 A 
ATOM     41  C   UNL A   1      43.067  29.949  28.987  1.00  0.00     0.049 A 
ATOM     42  N   UNL A   1      43.411  27.131  28.006  1.00  0.00    -0.248 NA
ATOM     43  C   UNL A   1      41.177  26.707  28.525  1.00  0.00     0.031 C 
ATOM     44  C   UNL A   1      42.947  31.337  29.438  1.00  0.00     0.029 A 
ATOM     45  N   UNL A   1      44.362  29.856  28.539  1.00  0.00    -0.354 N 
ATOM     46  C   UNL A   1      43.108  25.812  27.687  1.00  0.00     0.074 A 
ATOM     47  C   UNL A   1      41.730  25.593  28.066  1.00  0.00     0.031 C 
ATOM     48  C   UNL A   1      44.094  31.983  29.183  1.00  0.00     0.029 A 
ATOM     49  C   UNL A   1      45.056  31.042  28.615  1.00  0.00     0.049 A 
ATOM     50  H   UNL A   1      44.756  29.022  28.197  1.00  0.00     0.167 HD
ATOM     51  C   UNL A   1      43.902  24.876  27.115  1.00  0.00     0.031 A 
ATOM     52  C   UNL A   1      46.323  31.347  28.271  1.00  0.00     0.031 A 
ATOM     53  C   UNL A   1      45.269  25.108  26.726  1.00  0.00     0.049 A 
ATOM     54  C   UNL A   1      47.196  30.280  27.674  1.00  0.00     0.074 A 
ATOM     55  C   UNL A   1      46.150  24.219  26.132  1.00  0.00     0.029 A 
ATOM     56  N   UNL A   1      45.951  26.306  26.877  1.00  0.00    -0.354 N 
ATOM     57  N   UNL A   1      46.889  29.039  27.383  1.00  0.00    -0.248 NA
ATOM     58  C   UNL A   1      48.580  30.651  27.355  1.00  0.00     0.031 C 
ATOM     59  C   UNL A   1      47.381  24.861  25.980  1.00  0.00     0.029 A 
ATOM     60  C   UNL A   1      47.247  26.172  26.409  1.00  0.00     0.049 A 
ATOM     61  H   UNL A   1      45.570  27.128  27.261  1.00  0.00     0.167 HD
ATOM     62  C   UNL A   1      48.038  28.484  26.834  1.00  0.00     0.074 A 
ATOM     63  C   UNL A   1      49.041  29.528  26.814  1.00  0.00     0.031 C 
ATOM     64  C   UNL A   1      48.239  27.219  26.390  1.00  0.00     0.031 A 
BRANCH  51  65
ATOM     65  C   UNL A   1      43.327  23.507  26.859  1.00  0.00    -0.014 A 
ATOM     66  C   UNL A   1      43.067  22.645  27.942  1.00  0.00     0.010 A 
ATOM     67  C   UNL A   1      43.166  23.024  25.548  1.00  0.00     0.010 A 
ATOM     68  C   UNL A   1      42.690  21.317  27.720  1.00  0.00     0.020 A 
ATOM     69  C   UNL A   1      42.760  21.705  25.323  1.00  0.00     0.020 A 
ATOM     70  C   UNL A   1      42.549  20.853  26.409  1.00  0.00     0.054 A 
BRANCH  70  71
ATOM     71  S   UNL A   1      42.088  19.120  26.139  1.00  0.00     0.124 S 
ATOM     72  O   UNL A   1      40.645  19.212  25.936  1.00  0.00    -0.237 OA
ATOM     73  O   UNL A   1      42.870  18.759  24.958  1.00  0.00    -0.237 OA
ATOM     74  O   UNL A   1      42.505  18.459  27.374  1.00  0.00    -0.744 OA
ENDBRANCH  70  71
ENDBRANCH  51  65
BRANCH  52  75
ATOM     75  C   UNL A   1      46.809  32.741  28.466  1.00  0.00    -0.014 A 
ATOM     76  C   UNL A   1      47.351  33.138  29.703  1.00  0.00     0.010 A 
ATOM     77  C   UNL A   1      46.648  33.701  27.452  1.00  0.00     0.010 A 
ATOM     78  C   UNL A   1      47.658  34.479  29.947  1.00  0.00     0.020 A 
ATOM     79  C   UNL A   1      46.986  35.040  27.681  1.00  0.00     0.020 A 
ATOM     80  C   UNL A   1      47.459  35.423  28.939  1.00  0.00     0.054 A 
BRANCH  80  81
ATOM     81  S   UNL A   1      47.808  37.167  29.298  1.00  0.00     0.124 S 
ATOM     82  O   UNL A   1      49.013  37.399  28.508  1.00  0.00    -0.237 OA
ATOM     83  O   UNL A   1      46.603  37.840  28.820  1.00  0.00    -0.237 OA
ATOM     84  O   UNL A   1      47.995  37.185  30.746  1.00  0.00    -0.744 OA
ENDBRANCH  80  81
ENDBRANCH  52  75
BRANCH  64  85
ATOM     85  C   UNL A   1      49.592  26.867  25.829  1.00  0.00    -0.014 A 
ATOM     86  C   UNL A   1      50.595  26.380  26.687  1.00  0.00     0.010 A 
ATOM     87  C   UNL A   1      49.912  27.145  24.489  1.00  0.00     0.010 A 
ATOM     88  C   UNL A   1      51.904  26.214  26.227  1.00  0.00     0.020 A 
ATOM     89  C   UNL A   1      51.213  26.952  24.017  1.00  0.00     0.020 A 
ATOM     90  C   UNL A   1      52.207  26.513  24.897  1.00  0.00     0.054 A 
BRANCH  90  91
ATOM     91  S   UNL A   1      53.919  26.328  24.326  1.00  0.00     0.124 S 
ATOM     92  O   UNL A   1      54.604  27.385  25.063  1.00  0.00    -0.237 OA
ATOM     93  O   UNL A   1      54.248  24.963  24.733  1.00  0.00    -0.237 OA
ATOM     94  O   UNL A   1      53.822  26.532  22.882  1.00  0.00    -0.744 OA
ENDBRANCH  90  91
ENDBRANCH  64  85
ENDBRANCH  38  39
ENDBRANCH  30  33
ENDBRANCH  28  29
ENDBRANCH  27  28
ENDBRANCH   1  27
TORSDOF 19
ENDMDL
MODEL 3
REMARK VINA RESULT:     -11.0      6.410     11.763
REMARK SMILES CCCc1cc2c(cc1Cl)C=C(C(=O)NCCCCCCNC(=O)c1ccc(-c3c4nc(c(-c5ccc(S(=O)(=O)[O-])cc5)c5ccc([nH]5)c(-c5ccc(S(=O)(=O)[O-])cc5)c5nc(c(-c6ccc(S(=O)(=O)[O-])cc6)c6ccc3[nH]6)C=C5)C=C4)cc1)[C@H](C(F)(F)F)O2
REMARK SMILES IDX 19 1 18 2 17 3 16 4 15 5 13 6 14 7 12 9 4 10 5 11 9 12 6 13
REMARK SMILES IDX 8 14 10 15 7 16 90 17 11 18 85 19 3 20 2 21 1 22 86 23 87 24
REMARK SMILES IDX 88 25 89 26 20 27 21 28 22 29 23 30 24 32 25 33 26 34 84 35
REMARK SMILES IDX 27 36 83 37 28 38 29 39 30 40 77 41 31 42 82 43 76 44 78 45
REMARK SMILES IDX 32 46 81 47 75 48 74 49 33 51 63 52 44 53 62 54 45 55 48 56
REMARK SMILES IDX 61 57 79 58 46 59 47 60 60 62 80 63 49 64 34 65 35 66 43 67
REMARK SMILES IDX 36 68 42 69 37 70 38 71 39 72 40 73 41 74 64 75 65 76 73 77
REMARK SMILES IDX 66 78 72 79 67 80 68 81 69 82 70 83 71 84 50 85 51 86 59 87
REMARK SMILES IDX 52 88 58 89 53 90 54 91 55 92 56 93 57 94
REMARK H PARENT 15 8 22 31 78 50 48 61
REMARK Flexibility Score: inf
ROOT
ATOM      1  C   UNL A   1      34.607  30.936  28.179  1.00  0.00     0.002 C 
ENDROOT
BRANCH   1   2
ATOM      2  C   UNL A   1      33.920  30.468  26.890  1.00  0.00     0.002 C 
BRANCH   2   3
ATOM      3  C   UNL A   1      32.394  30.572  26.882  1.00  0.00     0.021 C 
BRANCH   3   4
ATOM      4  C   UNL A   1      31.720  29.819  25.736  1.00  0.00     0.116 C 
BRANCH   4   5
ATOM      5  N   UNL A   1      32.590  29.708  24.576  1.00  0.00    -0.352 N 
ATOM      6  C   UNL A   1      33.056  28.729  23.763  1.00  0.00     0.251 C 
ATOM      7  O   UNL A   1      33.802  29.114  22.855  1.00  0.00    -0.270 OA
ATOM      8  H   UNL A   1      32.936  30.589  24.306  1.00  0.00     0.163 HD
BRANCH   6   9
ATOM      9  C   UNL A   1      32.738  27.273  23.881  1.00  0.00     0.067 C 
ATOM     10  C   UNL A   1      32.717  22.372  25.103  1.00  0.00    -0.026 A 
ATOM     11  C   UNL A   1      32.112  23.145  24.102  1.00  0.00     0.052 A 
ATOM     12  C   UNL A   1      33.629  23.001  25.965  1.00  0.00     0.045 A 
ATOM     13  C   UNL A   1      32.367  24.508  24.004  1.00  0.00     0.128 A 
ATOM     14  C   UNL A   1      33.922  24.367  25.829  1.00  0.00     0.032 A 
ATOM     15  Cl  UNL A   1      34.433  22.139  27.229  1.00  0.00    -0.084 Cl
ATOM     16  C   UNL A   1      33.278  25.131  24.852  1.00  0.00     0.019 A 
ATOM     17  O   UNL A   1      31.690  25.174  23.027  1.00  0.00    -0.475 OA
ATOM     18  C   UNL A   1      33.551  26.552  24.677  1.00  0.00     0.025 C 
ATOM     19  C   UNL A   1      31.570  26.609  23.206  1.00  0.00     0.314 C 
BRANCH  10  20
ATOM     20  C   UNL A   1      32.310  20.921  25.213  1.00  0.00     0.037 C 
BRANCH  20  21
ATOM     21  C   UNL A   1      33.023  20.006  24.209  1.00  0.00     0.001 C 
ATOM     22  C   UNL A   1      32.532  18.563  24.224  1.00  0.00     0.004 C 
ENDBRANCH  20  21
ENDBRANCH  10  20
BRANCH  19  23
ATOM     23  C   UNL A   1      30.225  26.947  23.877  1.00  0.00     0.429 C 
ATOM     24  F   UNL A   1      30.351  26.939  25.227  1.00  0.00    -0.167 F 
ATOM     25  F   UNL A   1      29.753  28.164  23.520  1.00  0.00    -0.167 F 
ATOM     26  F   UNL A   1      29.255  26.052  23.577  1.00  0.00    -0.167 F 
ENDBRANCH  19  23
ENDBRANCH   6   9
ENDBRANCH   4   5
ENDBRANCH   3   4
ENDBRANCH   2   3
ENDBRANCH   1   2
BRANCH   1  27
ATOM     27  C   UNL A   1      35.597  32.090  28.021  1.00  0.00     0.021 C 
BRANCH  27  28
ATOM     28  C   UNL A   1      36.353  32.469  29.290  1.00  0.00     0.116 C 
BRANCH  28  29
ATOM     29  N   UNL A   1      36.140  31.514  30.368  1.00  0.00    -0.352 N 
ATOM     30  C   UNL A   1      36.932  30.465  30.769  1.00  0.00     0.251 C 
ATOM     31  H   UNL A   1      35.311  31.638  30.884  1.00  0.00     0.163 HD
ATOM     32  O   UNL A   1      36.510  29.654  31.591  1.00  0.00    -0.269 OA
BRANCH  30  33
ATOM     33  C   UNL A   1      38.278  30.299  30.181  1.00  0.00     0.039 A 
ATOM     34  C   UNL A   1      38.429  30.049  28.816  1.00  0.00     0.014 A 
ATOM     35  C   UNL A   1      39.401  30.367  31.011  1.00  0.00     0.014 A 
ATOM     36  C   UNL A   1      39.677  29.699  28.315  1.00  0.00     0.010 A 
ATOM     37  C   UNL A   1      40.669  30.098  30.486  1.00  0.00     0.010 A 
ATOM     38  C   UNL A   1      40.811  29.711  29.144  1.00  0.00    -0.014 A 
BRANCH  38  39
ATOM     39  C   UNL A   1      42.128  29.305  28.586  1.00  0.00     0.031 A 
ATOM     40  C   UNL A   1      43.272  30.283  28.525  1.00  0.00     0.074 A 
ATOM     41  C   UNL A   1      42.313  28.027  28.196  1.00  0.00     0.049 A 
ATOM     42  N   UNL A   1      44.499  30.085  28.116  1.00  0.00    -0.248 NA
ATOM     43  C   UNL A   1      43.012  31.659  28.979  1.00  0.00     0.031 C 
ATOM     44  C   UNL A   1      41.285  26.985  28.230  1.00  0.00     0.029 A 
ATOM     45  N   UNL A   1      43.430  27.378  27.733  1.00  0.00    -0.354 N 
ATOM     46  C   UNL A   1      45.151  31.305  28.253  1.00  0.00     0.074 A 
ATOM     47  C   UNL A   1      44.176  32.250  28.749  1.00  0.00     0.031 C 
ATOM     48  C   UNL A   1      41.835  25.815  27.872  1.00  0.00     0.029 A 
ATOM     49  C   UNL A   1      43.234  26.034  27.516  1.00  0.00     0.049 A 
ATOM     50  H   UNL A   1      44.289  27.831  27.571  1.00  0.00     0.167 HD
ATOM     51  C   UNL A   1      46.448  31.604  28.002  1.00  0.00     0.031 A 
ATOM     52  C   UNL A   1      44.078  25.078  27.078  1.00  0.00     0.031 A 
ATOM     53  C   UNL A   1      47.417  30.653  27.522  1.00  0.00     0.049 A 
ATOM     54  C   UNL A   1      45.502  25.444  26.770  1.00  0.00     0.074 A 
ATOM     55  C   UNL A   1      48.757  30.865  27.246  1.00  0.00     0.029 A 
ATOM     56  N   UNL A   1      47.160  29.317  27.257  1.00  0.00    -0.354 N 
ATOM     57  N   UNL A   1      46.096  26.605  26.905  1.00  0.00    -0.248 NA
ATOM     58  C   UNL A   1      46.370  24.377  26.256  1.00  0.00     0.031 C 
ATOM     59  C   UNL A   1      49.295  29.672  26.757  1.00  0.00     0.029 A 
ATOM     60  C   UNL A   1      48.312  28.697  26.800  1.00  0.00     0.049 A 
ATOM     61  H   UNL A   1      46.289  28.874  27.375  1.00  0.00     0.167 HD
ATOM     62  C   UNL A   1      47.412  26.405  26.506  1.00  0.00     0.074 A 
ATOM     63  C   UNL A   1      47.533  25.009  26.143  1.00  0.00     0.031 C 
ATOM     64  C   UNL A   1      48.424  27.304  26.443  1.00  0.00     0.031 A 
BRANCH  51  65
ATOM     65  C   UNL A   1      46.919  33.016  28.244  1.00  0.00    -0.014 A 
ATOM     66  C   UNL A   1      46.874  33.956  27.196  1.00  0.00     0.010 A 
ATOM     67  C   UNL A   1      47.521  33.378  29.462  1.00  0.00     0.010 A 
ATOM     68  C   UNL A   1      47.454  35.219  27.349  1.00  0.00     0.020 A 
ATOM     69  C   UNL A   1      48.076  34.651  29.628  1.00  0.00     0.020 A 
ATOM     70  C   UNL A   1      48.061  35.554  28.562  1.00  0.00     0.054 A 
BRANCH  70  71
ATOM     71  S   UNL A   1      48.834  37.186  28.734  1.00  0.00     0.124 S 
ATOM     72  O   UNL A   1      49.656  37.015  29.927  1.00  0.00    -0.237 OA
ATOM     73  O   UNL A   1      49.566  37.328  27.477  1.00  0.00    -0.237 OA
ATOM     74  O   UNL A   1      47.694  38.089  28.883  1.00  0.00    -0.744 OA
ENDBRANCH  70  71
ENDBRANCH  51  65
BRANCH  52  75
ATOM     75  C   UNL A   1      43.580  23.681  26.942  1.00  0.00    -0.014 A 
ATOM     76  C   UNL A   1      43.348  23.131  25.666  1.00  0.00     0.010 A 
ATOM     77  C   UNL A   1      43.245  22.929  28.081  1.00  0.00     0.010 A 
ATOM     78  C   UNL A   1      42.730  21.886  25.531  1.00  0.00     0.020 A 
ATOM     79  C   UNL A   1      42.656  21.666  27.949  1.00  0.00     0.020 A 
ATOM     80  C   UNL A   1      42.374  21.168  26.675  1.00  0.00     0.054 A 
BRANCH  80  81
ATOM     81  S   UNL A   1      41.518  19.581  26.476  1.00  0.00     0.124 S 
ATOM     82  O   UNL A   1      41.715  18.969  27.787  1.00  0.00    -0.237 OA
ATOM     83  O   UNL A   1      40.149  19.992  26.173  1.00  0.00    -0.237 OA
ATOM     84  O   UNL A   1      42.233  18.944  25.373  1.00  0.00    -0.744 OA
ENDBRANCH  80  81
ENDBRANCH  52  75
BRANCH  64  85
ATOM     85  C   UNL A   1      49.774  26.827  25.975  1.00  0.00    -0.014 A 
ATOM     86  C   UNL A   1      50.693  26.315  26.910  1.00  0.00     0.010 A 
ATOM     87  C   UNL A   1      50.182  27.009  24.642  1.00  0.00     0.010 A 
ATOM     88  C   UNL A   1      52.007  26.032  26.531  1.00  0.00     0.020 A 
ATOM     89  C   UNL A   1      51.487  26.699  24.252  1.00  0.00     0.020 A 
ATOM     90  C   UNL A   1      52.399  26.237  25.206  1.00  0.00     0.054 A 
BRANCH  90  91
ATOM     91  S   UNL A   1      54.120  25.899  24.740  1.00  0.00     0.124 S 
ATOM     92  O   UNL A   1      54.863  26.628  25.762  1.00  0.00    -0.237 OA
ATOM     93  O   UNL A   1      54.196  24.442  24.825  1.00  0.00    -0.237 OA
ATOM     94  O   UNL A   1      54.220  26.441  23.386  1.00  0.00    -0.744 OA
ENDBRANCH  90  91
ENDBRANCH  64  85
ENDBRANCH  38  39
ENDBRANCH  30  33
ENDBRANCH  28  29
ENDBRANCH  27  28
ENDBRANCH   1  27
TORSDOF 19
ENDMDL
