MODEL 1
REMARK VINA RESULT:     -10.8      0.000      0.000
REMARK SMILES Cc1cccc(N2C(=O)/C(=C/c3ccc(C(=O)NCCCCCCNC(=O)c4ccc(-c5c6nc(c(-c7ccc(S(=O)(=O)[O-])cc7)c7ccc([nH]7)c(-c7ccc(S(=O)(=O)[O-])cc7)c7nc(c(-c8ccc(S(=O)(=O)[O-])cc8)c8ccc5[nH]8)C=C7)C=C6)cc4)cc3)c3ccccc3C2=O)c1
REMARK SMILES IDX 22 1 21 2 20 3 19 4 18 5 16 6 17 7 15 9 12 10 13 11 89 12
REMARK SMILES IDX 14 13 88 14 11 15 7 16 8 17 96 18 9 19 10 20 95 21 97 22
REMARK SMILES IDX 90 23 94 24 91 25 93 26 92 27 6 28 1 29 2 30 3 31 98 32 4 33
REMARK SMILES IDX 5 34 23 35 24 36 25 37 26 38 27 40 28 41 29 42 87 43 30 44
REMARK SMILES IDX 86 45 31 46 32 47 33 48 80 49 34 50 85 51 79 52 81 53 35 54
REMARK SMILES IDX 84 55 78 56 77 57 36 59 66 60 47 61 65 62 48 63 51 64 64 65
REMARK SMILES IDX 82 66 49 67 50 68 63 70 83 71 52 72 37 73 38 74 46 75 39 76
REMARK SMILES IDX 45 77 40 78 41 79 42 80 43 81 44 82 67 83 68 84 76 85 69 86
REMARK SMILES IDX 75 87 70 88 71 89 72 90 73 91 74 92 53 93 54 94 62 95 55 96
REMARK SMILES IDX 61 97 56 98 57 99 58 100 59 101 60 102
REMARK H PARENT 18 8 25 39 81 58 51 69
REMARK Flexibility Score: inf
ROOT
ATOM      1  C   UNL A   1      38.422  33.336  30.589  1.00  0.00     0.002 C 
ENDROOT
BRANCH   1   2
ATOM      2  C   UNL A   1      39.718  34.139  30.768  1.00  0.00     0.002 C 
BRANCH   2   3
ATOM      3  C   UNL A   1      40.861  33.884  29.779  1.00  0.00     0.021 C 
BRANCH   3   4
ATOM      4  C   UNL A   1      41.893  34.996  29.595  1.00  0.00     0.116 C 
BRANCH   4   5
ATOM      5  N   UNL A   1      41.860  35.627  28.288  1.00  0.00    -0.352 N 
ATOM      6  C   UNL A   1      42.631  35.375  27.177  1.00  0.00     0.251 C 
ATOM      7  O   UNL A   1      42.474  36.029  26.150  1.00  0.00    -0.269 OA
ATOM      8  H   UNL A   1      41.188  36.339  28.181  1.00  0.00     0.163 HD
BRANCH   6   9
ATOM      9  C   UNL A   1      43.697  34.348  27.221  1.00  0.00     0.039 A 
ATOM     10  C   UNL A   1      45.572  32.280  27.447  1.00  0.00    -0.025 A 
ATOM     11  C   UNL A   1      45.259  33.070  28.559  1.00  0.00     0.009 A 
ATOM     12  C   UNL A   1      45.025  32.606  26.197  1.00  0.00     0.009 A 
ATOM     13  C   UNL A   1      44.325  34.103  28.447  1.00  0.00     0.014 A 
ATOM     14  C   UNL A   1      44.088  33.637  26.083  1.00  0.00     0.014 A 
BRANCH  10  15
ATOM     15  C   UNL A   1      46.456  31.119  27.622  1.00  0.00     0.022 C 
ATOM     16  N   UNL A   1      47.270  27.723  26.685  1.00  0.00    -0.242 N 
ATOM     17  C   UNL A   1      47.322  28.860  27.519  1.00  0.00     0.265 C 
ATOM     18  C   UNL A   1      46.273  27.596  25.697  1.00  0.00     0.265 C 
ATOM     19  O   UNL A   1      48.256  29.176  28.259  1.00  0.00    -0.268 OA
ATOM     20  C   UNL A   1      46.167  29.820  27.376  1.00  0.00     0.049 C 
ATOM     21  C   UNL A   1      44.964  28.230  25.983  1.00  0.00     0.048 A 
ATOM     22  O   UNL A   1      46.356  27.011  24.620  1.00  0.00    -0.268 OA
ATOM     23  C   UNL A   1      44.893  29.291  26.879  1.00  0.00    -0.000 A 
ATOM     24  C   UNL A   1      43.804  27.733  25.369  1.00  0.00     0.014 A 
ATOM     25  C   UNL A   1      43.629  29.780  27.243  1.00  0.00     0.010 A 
ATOM     26  C   UNL A   1      42.559  28.270  25.690  1.00  0.00     0.001 A 
ATOM     27  C   UNL A   1      42.470  29.282  26.640  1.00  0.00     0.001 A 
BRANCH  16  28
ATOM     28  C   UNL A   1      48.355  26.744  26.758  1.00  0.00     0.053 A 
ATOM     29  C   UNL A   1      51.753  26.082  25.087  1.00  0.00     0.044 C 
ATOM     30  C   UNL A   1      50.560  25.933  25.984  1.00  0.00    -0.049 A 
ATOM     31  C   UNL A   1      50.504  24.876  26.890  1.00  0.00     0.003 A 
ATOM     32  C   UNL A   1      49.500  26.859  25.941  1.00  0.00     0.030 A 
ATOM     33  C   UNL A   1      49.405  24.749  27.730  1.00  0.00     0.002 A 
ATOM     34  C   UNL A   1      48.351  25.670  27.663  1.00  0.00     0.027 A 
ENDBRANCH  16  28
ENDBRANCH  10  15
ENDBRANCH   6   9
ENDBRANCH   4   5
ENDBRANCH   3   4
ENDBRANCH   2   3
ENDBRANCH   1   2
BRANCH   1  35
ATOM     35  C   UNL A   1      37.209  34.086  30.037  1.00  0.00     0.021 C 
BRANCH  35  36
ATOM     36  C   UNL A   1      36.601  33.491  28.772  1.00  0.00     0.116 C 
BRANCH  36  37
ATOM     37  N   UNL A   1      35.281  32.918  28.959  1.00  0.00    -0.352 N 
ATOM     38  C   UNL A   1      34.894  31.632  28.589  1.00  0.00     0.251 C 
ATOM     39  H   UNL A   1      34.600  33.488  29.384  1.00  0.00     0.163 HD
ATOM     40  O   UNL A   1      33.771  31.343  28.260  1.00  0.00    -0.269 OA
BRANCH  38  41
ATOM     41  C   UNL A   1      35.926  30.582  28.780  1.00  0.00     0.039 A 
ATOM     42  C   UNL A   1      36.167  30.145  30.087  1.00  0.00     0.014 A 
ATOM     43  C   UNL A   1      36.792  30.255  27.742  1.00  0.00     0.014 A 
ATOM     44  C   UNL A   1      37.372  29.509  30.387  1.00  0.00     0.010 A 
ATOM     45  C   UNL A   1      38.022  29.711  28.059  1.00  0.00     0.010 A 
ATOM     46  C   UNL A   1      38.332  29.373  29.385  1.00  0.00    -0.014 A 
BRANCH  46  47
ATOM     47  C   UNL A   1      39.718  28.976  29.625  1.00  0.00     0.031 A 
ATOM     48  C   UNL A   1      40.253  27.711  29.069  1.00  0.00     0.074 A 
ATOM     49  C   UNL A   1      40.578  29.812  30.251  1.00  0.00     0.049 A 
ATOM     50  N   UNL A   1      41.304  27.109  29.525  1.00  0.00    -0.248 NA
ATOM     51  C   UNL A   1      39.619  26.998  27.966  1.00  0.00     0.031 C 
ATOM     52  C   UNL A   1      42.038  29.740  30.209  1.00  0.00     0.029 A 
ATOM     53  N   UNL A   1      40.321  30.770  31.231  1.00  0.00    -0.354 N 
ATOM     54  C   UNL A   1      41.663  26.154  28.602  1.00  0.00     0.074 A 
ATOM     55  C   UNL A   1      40.533  26.059  27.703  1.00  0.00     0.031 C 
ATOM     56  C   UNL A   1      42.529  30.351  31.295  1.00  0.00     0.029 A 
ATOM     57  C   UNL A   1      41.399  30.713  32.133  1.00  0.00     0.049 A 
ATOM     58  H   UNL A   1      39.540  31.368  31.280  1.00  0.00     0.167 HD
ATOM     59  C   UNL A   1      42.930  25.652  28.594  1.00  0.00     0.031 A 
ATOM     60  C   UNL A   1      41.287  30.461  33.469  1.00  0.00     0.031 A 
ATOM     61  C   UNL A   1      43.764  26.195  29.666  1.00  0.00     0.049 A 
ATOM     62  C   UNL A   1      42.139  29.305  33.957  1.00  0.00     0.074 A 
ATOM     63  C   UNL A   1      44.819  27.093  29.706  1.00  0.00     0.029 A 
ATOM     64  N   UNL A   1      43.403  25.973  30.986  1.00  0.00    -0.354 N 
ATOM     65  N   UNL A   1      42.873  28.555  33.186  1.00  0.00    -0.248 NA
ATOM     66  C   UNL A   1      42.137  28.829  35.339  1.00  0.00     0.031 C 
ATOM     67  C   UNL A   1      45.121  27.372  31.066  1.00  0.00     0.029 A 
ATOM     68  C   UNL A   1      44.243  26.651  31.851  1.00  0.00     0.049 A 
ATOM     69  H   UNL A   1      42.649  25.408  31.270  1.00  0.00     0.167 HD
ATOM     70  C   UNL A   1      43.360  27.485  33.897  1.00  0.00     0.074 A 
ATOM     71  C   UNL A   1      42.882  27.713  35.248  1.00  0.00     0.031 C 
ATOM     72  C   UNL A   1      44.063  26.484  33.287  1.00  0.00     0.031 A 
BRANCH  59  73
ATOM     73  C   UNL A   1      43.497  24.858  27.434  1.00  0.00    -0.014 A 
ATOM     74  C   UNL A   1      42.626  24.318  26.464  1.00  0.00     0.010 A 
ATOM     75  C   UNL A   1      44.865  24.574  27.261  1.00  0.00     0.010 A 
ATOM     76  C   UNL A   1      43.072  23.440  25.467  1.00  0.00     0.020 A 
ATOM     77  C   UNL A   1      45.322  23.665  26.295  1.00  0.00     0.020 A 
ATOM     78  C   UNL A   1      44.417  23.087  25.413  1.00  0.00     0.054 A 
BRANCH  78  79
ATOM     79  S   UNL A   1      44.957  21.857  24.198  1.00  0.00     0.124 S 
ATOM     80  O   UNL A   1      44.336  20.631  24.696  1.00  0.00    -0.237 OA
ATOM     81  O   UNL A   1      44.405  22.383  22.953  1.00  0.00    -0.237 OA
ATOM     82  O   UNL A   1      46.414  21.889  24.297  1.00  0.00    -0.744 OA
ENDBRANCH  78  79
ENDBRANCH  59  73
BRANCH  60  83
ATOM     83  C   UNL A   1      39.973  30.853  34.047  1.00  0.00    -0.014 A 
ATOM     84  C   UNL A   1      39.913  32.079  34.740  1.00  0.00     0.010 A 
ATOM     85  C   UNL A   1      38.788  30.297  33.532  1.00  0.00     0.010 A 
ATOM     86  C   UNL A   1      38.737  32.830  34.745  1.00  0.00     0.020 A 
ATOM     87  C   UNL A   1      37.604  31.046  33.546  1.00  0.00     0.020 A 
ATOM     88  C   UNL A   1      37.612  32.337  34.083  1.00  0.00     0.054 A 
BRANCH  88  89
ATOM     89  S   UNL A   1      36.240  33.485  33.758  1.00  0.00     0.124 S 
ATOM     90  O   UNL A   1      35.549  32.844  32.644  1.00  0.00    -0.237 OA
ATOM     91  O   UNL A   1      35.526  33.471  35.035  1.00  0.00    -0.237 OA
ATOM     92  O   UNL A   1      36.920  34.737  33.443  1.00  0.00    -0.744 OA
ENDBRANCH  88  89
ENDBRANCH  60  83
BRANCH  72  93
ATOM     93  C   UNL A   1      44.624  25.229  33.928  1.00  0.00    -0.014 A 
ATOM     94  C   UNL A   1      45.960  24.810  33.847  1.00  0.00     0.010 A 
ATOM     95  C   UNL A   1      43.734  24.354  34.606  1.00  0.00     0.010 A 
ATOM     96  C   UNL A   1      46.396  23.626  34.471  1.00  0.00     0.020 A 
ATOM     97  C   UNL A   1      44.149  23.167  35.215  1.00  0.00     0.020 A 
ATOM     98  C   UNL A   1      45.487  22.815  35.155  1.00  0.00     0.054 A 
BRANCH  98  99
ATOM     99  S   UNL A   1      46.076  21.296  35.943  1.00  0.00     0.124 S 
ATOM    100  O   UNL A   1      47.508  21.334  35.657  1.00  0.00    -0.237 OA
ATOM    101  O   UNL A   1      45.710  21.511  37.341  1.00  0.00    -0.237 OA
ATOM    102  O   UNL A   1      45.335  20.236  35.265  1.00  0.00    -0.744 OA
ENDBRANCH  98  99
ENDBRANCH  72  93
ENDBRANCH  46  47
ENDBRANCH  38  41
ENDBRANCH  36  37
ENDBRANCH  35  36
ENDBRANCH   1  35
TORSDOF 18
ENDMDL
MODEL 2
REMARK VINA RESULT:      -9.9      5.380     11.570
REMARK SMILES Cc1cccc(N2C(=O)/C(=C/c3ccc(C(=O)NCCCCCCNC(=O)c4ccc(-c5c6nc(c(-c7ccc(S(=O)(=O)[O-])cc7)c7ccc([nH]7)c(-c7ccc(S(=O)(=O)[O-])cc7)c7nc(c(-c8ccc(S(=O)(=O)[O-])cc8)c8ccc5[nH]8)C=C7)C=C6)cc4)cc3)c3ccccc3C2=O)c1
REMARK SMILES IDX 22 1 21 2 20 3 19 4 18 5 16 6 17 7 15 9 12 10 13 11 89 12
REMARK SMILES IDX 14 13 88 14 11 15 7 16 8 17 96 18 9 19 10 20 95 21 97 22
REMARK SMILES IDX 90 23 94 24 91 25 93 26 92 27 6 28 1 29 2 30 3 31 98 32 4 33
REMARK SMILES IDX 5 34 23 35 24 36 25 37 26 38 27 40 28 41 29 42 87 43 30 44
REMARK SMILES IDX 86 45 31 46 32 47 33 48 80 49 34 50 85 51 79 52 81 53 35 54
REMARK SMILES IDX 84 55 78 56 77 57 36 59 66 60 47 61 65 62 48 63 51 64 64 65
REMARK SMILES IDX 82 66 49 67 50 68 63 70 83 71 52 72 37 73 38 74 46 75 39 76
REMARK SMILES IDX 45 77 40 78 41 79 42 80 43 81 44 82 67 83 68 84 76 85 69 86
REMARK SMILES IDX 75 87 70 88 71 89 72 90 73 91 74 92 53 93 54 94 62 95 55 96
REMARK SMILES IDX 61 97 56 98 57 99 58 100 59 101 60 102
REMARK H PARENT 18 8 25 39 81 58 51 69
REMARK Flexibility Score: inf
ROOT
ATOM      1  C   UNL A   1      37.029  30.494  29.948  1.00  0.00     0.002 C 
ENDROOT
BRANCH   1   2
ATOM      2  C   UNL A   1      37.218  31.785  29.141  1.00  0.00     0.002 C 
BRANCH   2   3
ATOM      3  C   UNL A   1      36.067  32.240  28.237  1.00  0.00     0.021 C 
BRANCH   3   4
ATOM      4  C   UNL A   1      34.954  31.230  27.955  1.00  0.00     0.116 C 
BRANCH   4   5
ATOM      5  N   UNL A   1      33.697  31.831  27.547  1.00  0.00    -0.352 N 
ATOM      6  C   UNL A   1      32.573  31.232  27.026  1.00  0.00     0.251 C 
ATOM      7  O   UNL A   1      31.595  31.908  26.717  1.00  0.00    -0.269 OA
ATOM      8  H   UNL A   1      33.640  32.807  27.659  1.00  0.00     0.163 HD
BRANCH   6   9
ATOM      9  C   UNL A   1      32.545  29.772  26.782  1.00  0.00     0.039 A 
ATOM     10  C   UNL A   1      32.689  26.995  26.448  1.00  0.00    -0.025 A 
ATOM     11  C   UNL A   1      33.656  27.824  25.869  1.00  0.00     0.009 A 
ATOM     12  C   UNL A   1      31.589  27.573  27.099  1.00  0.00     0.009 A 
ATOM     13  C   UNL A   1      33.584  29.210  26.033  1.00  0.00     0.014 A 
ATOM     14  C   UNL A   1      31.516  28.959  27.267  1.00  0.00     0.014 A 
BRANCH  10  15
ATOM     15  C   UNL A   1      32.860  25.538  26.373  1.00  0.00     0.022 C 
ATOM     16  N   UNL A   1      33.591  22.641  24.335  1.00  0.00    -0.242 N 
ATOM     17  C   UNL A   1      33.094  23.298  25.481  1.00  0.00     0.265 C 
ATOM     18  C   UNL A   1      33.845  23.354  23.146  1.00  0.00     0.265 C 
ATOM     19  O   UNL A   1      33.036  22.830  26.620  1.00  0.00    -0.268 OA
ATOM     20  C   UNL A   1      32.720  24.747  25.283  1.00  0.00     0.049 C 
ATOM     21  C   UNL A   1      32.986  24.531  22.876  1.00  0.00     0.048 A 
ATOM     22  O   UNL A   1      34.697  23.110  22.295  1.00  0.00    -0.268 OA
ATOM     23  C   UNL A   1      32.360  25.184  23.932  1.00  0.00    -0.000 A 
ATOM     24  C   UNL A   1      32.790  24.956  21.553  1.00  0.00     0.014 A 
ATOM     25  C   UNL A   1      31.441  26.203  23.640  1.00  0.00     0.010 A 
ATOM     26  C   UNL A   1      31.924  26.013  21.281  1.00  0.00     0.001 A 
ATOM     27  C   UNL A   1      31.235  26.625  22.323  1.00  0.00     0.001 A 
BRANCH  16  28
ATOM     28  C   UNL A   1      33.982  21.235  24.442  1.00  0.00     0.053 A 
ATOM     29  C   UNL A   1      32.419  17.763  23.910  1.00  0.00     0.044 C 
ATOM     30  C   UNL A   1      33.418  18.836  24.230  1.00  0.00    -0.049 A 
ATOM     31  C   UNL A   1      34.712  18.485  24.609  1.00  0.00     0.003 A 
ATOM     32  C   UNL A   1      33.075  20.198  24.134  1.00  0.00     0.030 A 
ATOM     33  C   UNL A   1      35.639  19.479  24.891  1.00  0.00     0.002 A 
ATOM     34  C   UNL A   1      35.277  20.831  24.807  1.00  0.00     0.027 A 
ENDBRANCH  16  28
ENDBRANCH  10  15
ENDBRANCH   6   9
ENDBRANCH   4   5
ENDBRANCH   3   4
ENDBRANCH   2   3
ENDBRANCH   1   2
BRANCH   1  35
ATOM     35  C   UNL A   1      36.687  30.643  31.431  1.00  0.00     0.021 C 
BRANCH  35  36
ATOM     36  C   UNL A   1      37.885  30.822  32.357  1.00  0.00     0.116 C 
BRANCH  36  37
ATOM     37  N   UNL A   1      38.294  29.610  33.042  1.00  0.00    -0.352 N 
ATOM     38  C   UNL A   1      39.164  28.645  32.537  1.00  0.00     0.251 C 
ATOM     39  H   UNL A   1      37.925  29.455  33.941  1.00  0.00     0.163 HD
ATOM     40  O   UNL A   1      39.100  27.477  32.822  1.00  0.00    -0.269 OA
BRANCH  38  41
ATOM     41  C   UNL A   1      40.296  29.174  31.736  1.00  0.00     0.039 A 
ATOM     42  C   UNL A   1      40.431  28.710  30.422  1.00  0.00     0.014 A 
ATOM     43  C   UNL A   1      41.321  29.882  32.355  1.00  0.00     0.014 A 
ATOM     44  C   UNL A   1      41.664  28.817  29.779  1.00  0.00     0.010 A 
ATOM     45  C   UNL A   1      42.564  29.902  31.753  1.00  0.00     0.010 A 
ATOM     46  C   UNL A   1      42.751  29.335  30.482  1.00  0.00    -0.014 A 
BRANCH  46  47
ATOM     47  C   UNL A   1      44.136  29.255  30.027  1.00  0.00     0.031 A 
ATOM     48  C   UNL A   1      44.728  30.333  29.199  1.00  0.00     0.074 A 
ATOM     49  C   UNL A   1      44.948  28.261  30.453  1.00  0.00     0.049 A 
ATOM     50  N   UNL A   1      45.777  30.181  28.457  1.00  0.00    -0.248 NA
ATOM     51  C   UNL A   1      44.157  31.672  29.115  1.00  0.00     0.031 C 
ATOM     52  C   UNL A   1      46.409  28.263  30.419  1.00  0.00     0.029 A 
ATOM     53  N   UNL A   1      44.626  26.951  30.806  1.00  0.00    -0.354 N 
ATOM     54  C   UNL A   1      46.197  31.435  28.080  1.00  0.00     0.074 A 
ATOM     55  C   UNL A   1      45.107  32.318  28.430  1.00  0.00     0.031 C 
ATOM     56  C   UNL A   1      46.841  26.995  30.422  1.00  0.00     0.029 A 
ATOM     57  C   UNL A   1      45.671  26.142  30.320  1.00  0.00     0.049 A 
ATOM     58  H   UNL A   1      43.828  26.651  31.299  1.00  0.00     0.167 HD
ATOM     59  C   UNL A   1      47.478  31.628  27.652  1.00  0.00     0.031 A 
ATOM     60  C   UNL A   1      45.514  25.107  29.445  1.00  0.00     0.031 A 
ATOM     61  C   UNL A   1      48.254  30.389  27.604  1.00  0.00     0.049 A 
ATOM     62  C   UNL A   1      46.378  25.208  28.202  1.00  0.00     0.074 A 
ATOM     63  C   UNL A   1      49.281  29.865  28.374  1.00  0.00     0.029 A 
ATOM     64  N   UNL A   1      47.849  29.366  26.762  1.00  0.00    -0.354 N 
ATOM     65  N   UNL A   1      47.162  26.211  27.931  1.00  0.00    -0.248 NA
ATOM     66  C   UNL A   1      46.336  24.237  27.110  1.00  0.00     0.031 C 
ATOM     67  C   UNL A   1      49.522  28.530  27.952  1.00  0.00     0.029 A 
ATOM     68  C   UNL A   1      48.635  28.241  26.933  1.00  0.00     0.049 A 
ATOM     69  H   UNL A   1      47.100  29.430  26.126  1.00  0.00     0.167 HD
ATOM     70  C   UNL A   1      47.651  26.092  26.653  1.00  0.00     0.074 A 
ATOM     71  C   UNL A   1      47.115  24.828  26.186  1.00  0.00     0.031 C 
ATOM     72  C   UNL A   1      48.405  27.081  26.083  1.00  0.00     0.031 A 
BRANCH  59  73
ATOM     73  C   UNL A   1      48.111  33.000  27.532  1.00  0.00    -0.014 A 
ATOM     74  C   UNL A   1      48.037  33.700  26.310  1.00  0.00     0.010 A 
ATOM     75  C   UNL A   1      48.823  33.637  28.566  1.00  0.00     0.010 A 
ATOM     76  C   UNL A   1      48.741  34.891  26.088  1.00  0.00     0.020 A 
ATOM     77  C   UNL A   1      49.567  34.807  28.349  1.00  0.00     0.020 A 
ATOM     78  C   UNL A   1      49.536  35.418  27.101  1.00  0.00     0.054 A 
BRANCH  78  79
ATOM     79  S   UNL A   1      50.537  36.889  26.759  1.00  0.00     0.124 S 
ATOM     80  O   UNL A   1      50.737  36.804  25.314  1.00  0.00    -0.237 OA
ATOM     81  O   UNL A   1      49.669  37.971  27.214  1.00  0.00    -0.237 OA
ATOM     82  O   UNL A   1      51.743  36.679  27.558  1.00  0.00    -0.744 OA
ENDBRANCH  78  79
ENDBRANCH  59  73
BRANCH  60  83
ATOM     83  C   UNL A   1      44.168  24.474  29.496  1.00  0.00    -0.014 A 
ATOM     84  C   UNL A   1      43.099  25.184  28.912  1.00  0.00     0.010 A 
ATOM     85  C   UNL A   1      44.054  23.083  29.669  1.00  0.00     0.010 A 
ATOM     86  C   UNL A   1      42.029  24.500  28.334  1.00  0.00     0.020 A 
ATOM     87  C   UNL A   1      42.976  22.396  29.097  1.00  0.00     0.020 A 
ATOM     88  C   UNL A   1      42.016  23.105  28.368  1.00  0.00     0.054 A 
BRANCH  88  89
ATOM     89  S   UNL A   1      40.848  22.235  27.278  1.00  0.00     0.124 S 
ATOM     90  O   UNL A   1      40.670  20.958  27.964  1.00  0.00    -0.237 OA
ATOM     91  O   UNL A   1      39.691  23.129  27.300  1.00  0.00    -0.237 OA
ATOM     92  O   UNL A   1      41.561  22.174  26.006  1.00  0.00    -0.744 OA
ENDBRANCH  88  89
ENDBRANCH  60  83
BRANCH  72  93
ATOM     93  C   UNL A   1      48.976  27.110  24.678  1.00  0.00    -0.014 A 
ATOM     94  C   UNL A   1      48.231  26.934  23.502  1.00  0.00     0.010 A 
ATOM     95  C   UNL A   1      50.379  27.250  24.514  1.00  0.00     0.010 A 
ATOM     96  C   UNL A   1      48.843  26.973  22.235  1.00  0.00     0.020 A 
ATOM     97  C   UNL A   1      51.003  27.273  23.264  1.00  0.00     0.020 A 
ATOM     98  C   UNL A   1      50.224  27.147  22.125  1.00  0.00     0.054 A 
BRANCH  98  99
ATOM     99  S   UNL A   1      50.984  27.187  20.483  1.00  0.00     0.124 S 
ATOM    100  O   UNL A   1      52.033  26.177  20.603  1.00  0.00    -0.237 OA
ATOM    101  O   UNL A   1      49.864  26.828  19.616  1.00  0.00    -0.237 OA
ATOM    102  O   UNL A   1      51.457  28.561  20.346  1.00  0.00    -0.744 OA
ENDBRANCH  98  99
ENDBRANCH  72  93
ENDBRANCH  46  47
ENDBRANCH  38  41
ENDBRANCH  36  37
ENDBRANCH  35  36
ENDBRANCH   1  35
TORSDOF 18
ENDMDL
MODEL 3
REMARK VINA RESULT:      -9.7      3.704     12.433
REMARK SMILES Cc1cccc(N2C(=O)/C(=C/c3ccc(C(=O)NCCCCCCNC(=O)c4ccc(-c5c6nc(c(-c7ccc(S(=O)(=O)[O-])cc7)c7ccc([nH]7)c(-c7ccc(S(=O)(=O)[O-])cc7)c7nc(c(-c8ccc(S(=O)(=O)[O-])cc8)c8ccc5[nH]8)C=C7)C=C6)cc4)cc3)c3ccccc3C2=O)c1
REMARK SMILES IDX 22 1 21 2 20 3 19 4 18 5 16 6 17 7 15 9 12 10 13 11 89 12
REMARK SMILES IDX 14 13 88 14 11 15 7 16 8 17 96 18 9 19 10 20 95 21 97 22
REMARK SMILES IDX 90 23 94 24 91 25 93 26 92 27 6 28 1 29 2 30 3 31 98 32 4 33
REMARK SMILES IDX 5 34 23 35 24 36 25 37 26 38 27 40 28 41 29 42 87 43 30 44
REMARK SMILES IDX 86 45 31 46 32 47 33 48 80 49 34 50 85 51 79 52 81 53 35 54
REMARK SMILES IDX 84 55 78 56 77 57 36 59 66 60 47 61 65 62 48 63 51 64 64 65
REMARK SMILES IDX 82 66 49 67 50 68 63 70 83 71 52 72 37 73 38 74 46 75 39 76
REMARK SMILES IDX 45 77 40 78 41 79 42 80 43 81 44 82 67 83 68 84 76 85 69 86
REMARK SMILES IDX 75 87 70 88 71 89 72 90 73 91 74 92 53 93 54 94 62 95 55 96
REMARK SMILES IDX 61 97 56 98 57 99 58 100 59 101 60 102
REMARK H PARENT 18 8 25 39 81 58 51 69
REMARK Flexibility Score: inf
ROOT
ATOM      1  C   UNL A   1      44.689  24.960  29.126  1.00  0.00     0.002 C 
ENDROOT
BRANCH   1   2
ATOM      2  C   UNL A   1      44.329  24.688  30.593  1.00  0.00     0.002 C 
BRANCH   2   3
ATOM      3  C   UNL A   1      43.991  25.891  31.483  1.00  0.00     0.021 C 
BRANCH   3   4
ATOM      4  C   UNL A   1      44.814  26.075  32.757  1.00  0.00     0.116 C 
BRANCH   4   5
ATOM      5  N   UNL A   1      44.690  27.390  33.360  1.00  0.00    -0.352 N 
ATOM      6  C   UNL A   1      44.809  27.760  34.680  1.00  0.00     0.251 C 
ATOM      7  O   UNL A   1      44.651  28.931  35.014  1.00  0.00    -0.269 OA
ATOM      8  H   UNL A   1      44.491  28.124  32.734  1.00  0.00     0.163 HD
BRANCH   6   9
ATOM      9  C   UNL A   1      45.076  26.744  35.723  1.00  0.00     0.039 A 
ATOM     10  C   UNL A   1      45.466  24.666  37.560  1.00  0.00    -0.025 A 
ATOM     11  C   UNL A   1      44.179  25.162  37.322  1.00  0.00     0.009 A 
ATOM     12  C   UNL A   1      46.566  25.293  36.957  1.00  0.00     0.009 A 
ATOM     13  C   UNL A   1      43.984  26.200  36.407  1.00  0.00     0.014 A 
ATOM     14  C   UNL A   1      46.373  26.330  36.039  1.00  0.00     0.014 A 
BRANCH  10  15
ATOM     15  C   UNL A   1      45.629  23.489  38.425  1.00  0.00     0.022 C 
ATOM     16  N   UNL A   1      47.022  20.180  38.863  1.00  0.00    -0.242 N 
ATOM     17  C   UNL A   1      46.143  21.242  39.168  1.00  0.00     0.265 C 
ATOM     18  C   UNL A   1      47.712  20.145  37.635  1.00  0.00     0.265 C 
ATOM     19  O   UNL A   1      45.657  21.488  40.273  1.00  0.00    -0.268 OA
ATOM     20  C   UNL A   1      45.893  22.217  38.044  1.00  0.00     0.049 C 
ATOM     21  C   UNL A   1      47.035  20.759  36.469  1.00  0.00     0.048 A 
ATOM     22  O   UNL A   1      48.816  19.654  37.411  1.00  0.00    -0.268 OA
ATOM     23  C   UNL A   1      46.071  21.741  36.669  1.00  0.00    -0.000 A 
ATOM     24  C   UNL A   1      47.354  20.324  35.173  1.00  0.00     0.014 A 
ATOM     25  C   UNL A   1      45.343  22.204  35.562  1.00  0.00     0.010 A 
ATOM     26  C   UNL A   1      46.669  20.838  34.074  1.00  0.00     0.001 A 
ATOM     27  C   UNL A   1      45.651  21.766  34.271  1.00  0.00     0.001 A 
BRANCH  16  28
ATOM     28  C   UNL A   1      47.321  19.193  39.899  1.00  0.00     0.053 A 
ATOM     29  C   UNL A   1      49.593  18.854  42.983  1.00  0.00     0.044 C 
ATOM     30  C   UNL A   1      48.575  18.534  41.927  1.00  0.00    -0.049 A 
ATOM     31  C   UNL A   1      47.913  17.309  41.954  1.00  0.00     0.003 A 
ATOM     32  C   UNL A   1      48.261  19.463  40.917  1.00  0.00     0.030 A 
ATOM     33  C   UNL A   1      46.961  17.021  40.985  1.00  0.00     0.002 A 
ATOM     34  C   UNL A   1      46.672  17.950  39.977  1.00  0.00     0.027 A 
ENDBRANCH  16  28
ENDBRANCH  10  15
ENDBRANCH   6   9
ENDBRANCH   4   5
ENDBRANCH   3   4
ENDBRANCH   2   3
ENDBRANCH   1   2
BRANCH   1  35
ATOM     35  C   UNL A   1      43.877  24.222  28.062  1.00  0.00     0.021 C 
BRANCH  35  36
ATOM     36  C   UNL A   1      42.467  23.824  28.484  1.00  0.00     0.116 C 
BRANCH  36  37
ATOM     37  N   UNL A   1      41.657  23.276  27.411  1.00  0.00    -0.352 N 
ATOM     38  C   UNL A   1      40.299  23.515  27.214  1.00  0.00     0.251 C 
ATOM     39  H   UNL A   1      42.107  22.683  26.767  1.00  0.00     0.163 HD
ATOM     40  O   UNL A   1      39.549  22.720  26.708  1.00  0.00    -0.269 OA
BRANCH  38  41
ATOM     41  C   UNL A   1      39.851  24.896  27.523  1.00  0.00     0.039 A 
ATOM     42  C   UNL A   1      40.354  25.932  26.727  1.00  0.00     0.014 A 
ATOM     43  C   UNL A   1      39.182  25.165  28.713  1.00  0.00     0.014 A 
ATOM     44  C   UNL A   1      40.327  27.242  27.208  1.00  0.00     0.010 A 
ATOM     45  C   UNL A   1      39.243  26.446  29.226  1.00  0.00     0.010 A 
ATOM     46  C   UNL A   1      39.849  27.480  28.495  1.00  0.00    -0.014 A 
BRANCH  46  47
ATOM     47  C   UNL A   1      40.013  28.743  29.211  1.00  0.00     0.031 A 
ATOM     48  C   UNL A   1      39.010  29.827  29.080  1.00  0.00     0.074 A 
ATOM     49  C   UNL A   1      41.015  28.907  30.105  1.00  0.00     0.049 A 
ATOM     50  N   UNL A   1      39.248  31.069  29.353  1.00  0.00    -0.248 NA
ATOM     51  C   UNL A   1      37.655  29.598  28.591  1.00  0.00     0.031 C 
ATOM     52  C   UNL A   1      41.076  29.917  31.160  1.00  0.00     0.029 A 
ATOM     53  N   UNL A   1      42.288  28.338  30.116  1.00  0.00    -0.354 N 
ATOM     54  C   UNL A   1      38.037  31.718  29.399  1.00  0.00     0.074 A 
ATOM     55  C   UNL A   1      37.090  30.787  28.824  1.00  0.00     0.031 C 
ATOM     56  C   UNL A   1      42.358  30.116  31.490  1.00  0.00     0.029 A 
ATOM     57  C   UNL A   1      43.166  29.342  30.565  1.00  0.00     0.049 A 
ATOM     58  H   UNL A   1      42.525  27.417  29.863  1.00  0.00     0.167 HD
ATOM     59  C   UNL A   1      37.922  32.909  30.053  1.00  0.00     0.031 A 
ATOM     60  C   UNL A   1      44.242  29.807  29.867  1.00  0.00     0.031 A 
ATOM     61  C   UNL A   1      39.193  33.380  30.604  1.00  0.00     0.049 A 
ATOM     62  C   UNL A   1      44.249  31.311  29.665  1.00  0.00     0.074 A 
ATOM     63  C   UNL A   1      39.715  33.469  31.885  1.00  0.00     0.029 A 
ATOM     64  N   UNL A   1      40.245  33.654  29.744  1.00  0.00    -0.354 N 
ATOM     65  N   UNL A   1      43.296  32.110  30.052  1.00  0.00    -0.248 NA
ATOM     66  C   UNL A   1      45.278  32.017  28.904  1.00  0.00     0.031 C 
ATOM     67  C   UNL A   1      41.081  33.848  31.788  1.00  0.00     0.029 A 
ATOM     68  C   UNL A   1      41.390  33.979  30.449  1.00  0.00     0.049 A 
ATOM     69  H   UNL A   1      40.186  33.622  28.762  1.00  0.00     0.167 HD
ATOM     70  C   UNL A   1      43.508  33.370  29.550  1.00  0.00     0.074 A 
ATOM     71  C   UNL A   1      44.774  33.263  28.850  1.00  0.00     0.031 C 
ATOM     72  C   UNL A   1      42.587  34.367  29.714  1.00  0.00     0.031 A 
BRANCH  59  73
ATOM     73  C   UNL A   1      36.587  33.520  30.428  1.00  0.00    -0.014 A 
ATOM     74  C   UNL A   1      35.698  33.935  29.414  1.00  0.00     0.010 A 
ATOM     75  C   UNL A   1      36.165  33.751  31.751  1.00  0.00     0.010 A 
ATOM     76  C   UNL A   1      34.529  34.655  29.695  1.00  0.00     0.020 A 
ATOM     77  C   UNL A   1      35.020  34.506  32.048  1.00  0.00     0.020 A 
ATOM     78  C   UNL A   1      34.216  34.971  31.014  1.00  0.00     0.054 A 
BRANCH  78  79
ATOM     79  S   UNL A   1      32.770  36.006  31.352  1.00  0.00     0.124 S 
ATOM     80  O   UNL A   1      31.970  35.153  32.229  1.00  0.00    -0.237 OA
ATOM     81  O   UNL A   1      33.365  37.180  31.984  1.00  0.00    -0.237 OA
ATOM     82  O   UNL A   1      32.192  36.236  30.029  1.00  0.00    -0.744 OA
ENDBRANCH  78  79
ENDBRANCH  59  73
BRANCH  60  83
ATOM     83  C   UNL A   1      44.814  28.818  28.914  1.00  0.00    -0.014 A 
ATOM     84  C   UNL A   1      44.126  28.620  27.699  1.00  0.00     0.010 A 
ATOM     85  C   UNL A   1      46.175  28.474  28.995  1.00  0.00     0.010 A 
ATOM     86  C   UNL A   1      44.823  28.277  26.541  1.00  0.00     0.020 A 
ATOM     87  C   UNL A   1      46.874  28.119  27.834  1.00  0.00     0.020 A 
ATOM     88  C   UNL A   1      46.206  28.101  26.606  1.00  0.00     0.054 A 
BRANCH  88  89
ATOM     89  S   UNL A   1      47.136  28.056  25.044  1.00  0.00     0.124 S 
ATOM     90  O   UNL A   1      48.517  28.190  25.496  1.00  0.00    -0.237 OA
ATOM     91  O   UNL A   1      46.771  26.743  24.513  1.00  0.00    -0.237 OA
ATOM     92  O   UNL A   1      46.601  29.194  24.303  1.00  0.00    -0.744 OA
ENDBRANCH  88  89
ENDBRANCH  60  83
BRANCH  72  93
ATOM     93  C   UNL A   1      42.662  35.787  29.186  1.00  0.00    -0.014 A 
ATOM     94  C   UNL A   1      43.421  36.820  29.755  1.00  0.00     0.010 A 
ATOM     95  C   UNL A   1      41.853  36.145  28.075  1.00  0.00     0.010 A 
ATOM     96  C   UNL A   1      43.431  38.113  29.200  1.00  0.00     0.020 A 
ATOM     97  C   UNL A   1      41.838  37.429  27.525  1.00  0.00     0.020 A 
ATOM     98  C   UNL A   1      42.643  38.407  28.086  1.00  0.00     0.054 A 
BRANCH  98  99
ATOM     99  S   UNL A   1      42.671  40.081  27.398  1.00  0.00     0.124 S 
ATOM    100  O   UNL A   1      42.009  40.857  28.444  1.00  0.00    -0.237 OA
ATOM    101  O   UNL A   1      44.102  40.328  27.244  1.00  0.00    -0.237 OA
ATOM    102  O   UNL A   1      41.926  39.962  26.148  1.00  0.00    -0.744 OA
ENDBRANCH  98  99
ENDBRANCH  72  93
ENDBRANCH  46  47
ENDBRANCH  38  41
ENDBRANCH  36  37
ENDBRANCH  35  36
ENDBRANCH   1  35
TORSDOF 18
ENDMDL
