MODEL 1
REMARK VINA RESULT:     -11.3      0.000      0.000
REMARK SMILES CC(C)CSc1cc2c(cc1Cl)C=C(C(=O)NCCCCCCNC(=O)c1ccc(-c3c4nc(c(-c5ccc(S(=O)(=O)[O-])cc5)c5ccc([nH]5)c(-c5ccc(S(=O)(=O)[O-])cc5)c5nc(c(-c6ccc(S(=O)(=O)[O-])cc6)c6ccc3[nH]6)C=C5)C=C4)cc1)[C@@H](C(F)(F)F)O2
REMARK SMILES IDX 20 1 19 2 18 3 17 4 15 5 16 6 14 8 6 9 7 10 11 11 8 12 10 13
REMARK SMILES IDX 12 14 9 15 92 16 13 17 87 18 5 19 4 20 2 21 1 22 3 23 88 24
REMARK SMILES IDX 89 25 90 26 91 27 21 28 22 29 23 30 24 31 25 32 26 34 27 35
REMARK SMILES IDX 28 36 86 37 29 38 85 39 30 40 31 41 32 42 79 43 33 44 84 45
REMARK SMILES IDX 78 46 80 47 34 48 83 49 77 50 76 51 35 53 65 54 46 55 64 56
REMARK SMILES IDX 47 57 50 58 63 59 81 60 48 61 49 62 62 64 82 65 51 66 36 67
REMARK SMILES IDX 37 68 45 69 38 70 44 71 39 72 40 73 41 74 42 75 43 76 66 77
REMARK SMILES IDX 67 78 75 79 68 80 74 81 69 82 70 83 71 84 72 85 73 86 52 87
REMARK SMILES IDX 53 88 61 89 54 90 60 91 55 92 56 93 57 94 58 95 59 96
REMARK H PARENT 17 7 24 33 80 52 50 63
REMARK Flexibility Score: inf
ROOT
ATOM      1  C   UNL A   1      39.326  21.890  26.222  1.00  0.00     0.002 C 
ENDROOT
BRANCH   1   2
ATOM      2  C   UNL A   1      38.126  21.384  25.418  1.00  0.00     0.021 C 
BRANCH   2   3
ATOM      3  C   UNL A   1      36.948  22.347  25.324  1.00  0.00     0.116 C 
BRANCH   3   4
ATOM      4  N   UNL A   1      35.884  22.036  26.260  1.00  0.00    -0.352 N 
ATOM      5  C   UNL A   1      34.581  22.385  26.386  1.00  0.00     0.251 C 
ATOM      6  O   UNL A   1      33.967  21.857  27.319  1.00  0.00    -0.270 OA
ATOM      7  H   UNL A   1      36.180  21.427  26.974  1.00  0.00     0.163 HD
BRANCH   5   8
ATOM      8  C   UNL A   1      33.878  23.369  25.508  1.00  0.00     0.067 C 
ATOM      9  C   UNL A   1      31.766  27.670  23.828  1.00  0.00     0.030 A 
ATOM     10  C   UNL A   1      31.972  26.383  23.296  1.00  0.00     0.063 A 
ATOM     11  C   UNL A   1      32.216  27.909  25.137  1.00  0.00     0.055 A 
ATOM     12  C   UNL A   1      32.574  25.367  24.042  1.00  0.00     0.129 A 
ATOM     13  C   UNL A   1      32.779  26.871  25.898  1.00  0.00     0.033 A 
ATOM     14  Cl  UNL A   1      32.213  29.460  25.895  1.00  0.00    -0.083 Cl
ATOM     15  C   UNL A   1      32.969  25.601  25.349  1.00  0.00     0.019 A 
ATOM     16  O   UNL A   1      32.741  24.178  23.407  1.00  0.00    -0.475 OA
ATOM     17  C   UNL A   1      33.617  24.545  26.108  1.00  0.00     0.025 C 
ATOM     18  C   UNL A   1      33.446  23.099  24.088  1.00  0.00     0.314 C 
BRANCH   9  19
ATOM     19  S   UNL A   1      31.033  28.818  22.663  1.00  0.00    -0.124 SA
BRANCH  19  20
ATOM     20  C   UNL A   1      29.764  29.762  23.579  1.00  0.00     0.078 C 
BRANCH  20  21
ATOM     21  C   UNL A   1      28.979  30.865  22.846  1.00  0.00    -0.007 C 
ATOM     22  C   UNL A   1      28.629  30.567  21.391  1.00  0.00     0.008 C 
ATOM     23  C   UNL A   1      27.681  31.121  23.625  1.00  0.00     0.008 C 
ENDBRANCH  20  21
ENDBRANCH  19  20
ENDBRANCH   9  19
BRANCH  18  24
ATOM     24  C   UNL A   1      32.583  21.837  23.922  1.00  0.00     0.429 C 
ATOM     25  F   UNL A   1      31.703  21.734  24.950  1.00  0.00    -0.167 F 
ATOM     26  F   UNL A   1      31.846  21.838  22.791  1.00  0.00    -0.167 F 
ATOM     27  F   UNL A   1      33.330  20.710  23.909  1.00  0.00    -0.167 F 
ENDBRANCH  18  24
ENDBRANCH   5   8
ENDBRANCH   3   4
ENDBRANCH   2   3
ENDBRANCH   1   2
BRANCH   1  28
ATOM     28  C   UNL A   1      40.575  21.003  26.208  1.00  0.00     0.002 C 
BRANCH  28  29
ATOM     29  C   UNL A   1      41.904  21.701  26.509  1.00  0.00     0.021 C 
BRANCH  29  30
ATOM     30  C   UNL A   1      41.801  23.168  26.906  1.00  0.00     0.116 C 
BRANCH  30  31
ATOM     31  N   UNL A   1      42.012  24.074  25.789  1.00  0.00    -0.352 N 
ATOM     32  C   UNL A   1      42.038  25.449  25.784  1.00  0.00     0.251 C 
ATOM     33  H   UNL A   1      42.156  23.643  24.915  1.00  0.00     0.163 HD
ATOM     34  O   UNL A   1      42.099  26.060  24.722  1.00  0.00    -0.269 OA
BRANCH  32  35
ATOM     35  C   UNL A   1      41.952  26.185  27.065  1.00  0.00     0.039 A 
ATOM     36  C   UNL A   1      40.980  25.857  28.013  1.00  0.00     0.014 A 
ATOM     37  C   UNL A   1      42.838  27.239  27.302  1.00  0.00     0.014 A 
ATOM     38  C   UNL A   1      40.792  26.678  29.121  1.00  0.00     0.010 A 
ATOM     39  C   UNL A   1      42.695  28.017  28.455  1.00  0.00     0.010 A 
ATOM     40  C   UNL A   1      41.642  27.771  29.350  1.00  0.00    -0.014 A 
BRANCH  40  41
ATOM     41  C   UNL A   1      41.414  28.650  30.528  1.00  0.00     0.031 A 
ATOM     42  C   UNL A   1      40.277  29.638  30.537  1.00  0.00     0.074 A 
ATOM     43  C   UNL A   1      42.205  28.523  31.611  1.00  0.00     0.049 A 
ATOM     44  N   UNL A   1      39.933  30.481  31.476  1.00  0.00    -0.248 NA
ATOM     45  C   UNL A   1      39.414  29.686  29.345  1.00  0.00     0.031 C 
ATOM     46  C   UNL A   1      43.317  27.576  31.730  1.00  0.00     0.029 A 
ATOM     47  N   UNL A   1      42.184  29.165  32.823  1.00  0.00    -0.354 N 
ATOM     48  C   UNL A   1      38.827  31.168  30.986  1.00  0.00     0.074 A 
ATOM     49  C   UNL A   1      38.572  30.664  29.656  1.00  0.00     0.031 C 
ATOM     50  C   UNL A   1      43.834  27.661  32.965  1.00  0.00     0.029 A 
ATOM     51  C   UNL A   1      43.141  28.715  33.702  1.00  0.00     0.049 A 
ATOM     52  H   UNL A   1      41.545  29.881  33.043  1.00  0.00     0.167 HD
ATOM     53  C   UNL A   1      38.086  32.121  31.598  1.00  0.00     0.031 A 
ATOM     54  C   UNL A   1      43.443  29.108  34.955  1.00  0.00     0.031 A 
ATOM     55  C   UNL A   1      38.338  32.608  32.930  1.00  0.00     0.049 A 
ATOM     56  C   UNL A   1      42.647  30.211  35.589  1.00  0.00     0.074 A 
ATOM     57  C   UNL A   1      37.633  33.568  33.636  1.00  0.00     0.029 A 
ATOM     58  N   UNL A   1      39.364  32.176  33.756  1.00  0.00    -0.354 N 
ATOM     59  N   UNL A   1      41.611  30.854  35.105  1.00  0.00    -0.248 NA
ATOM     60  C   UNL A   1      43.057  30.650  36.929  1.00  0.00     0.031 C 
ATOM     61  C   UNL A   1      38.267  33.758  34.865  1.00  0.00     0.029 A 
ATOM     62  C   UNL A   1      39.327  32.869  34.955  1.00  0.00     0.049 A 
ATOM     63  H   UNL A   1      40.021  31.481  33.525  1.00  0.00     0.167 HD
ATOM     64  C   UNL A   1      41.242  31.769  36.083  1.00  0.00     0.074 A 
ATOM     65  C   UNL A   1      42.153  31.585  37.194  1.00  0.00     0.031 C 
ATOM     66  C   UNL A   1      40.240  32.682  36.054  1.00  0.00     0.031 A 
BRANCH  53  67
ATOM     67  C   UNL A   1      36.924  32.719  30.847  1.00  0.00    -0.014 A 
ATOM     68  C   UNL A   1      37.116  33.876  30.070  1.00  0.00     0.010 A 
ATOM     69  C   UNL A   1      35.623  32.211  31.007  1.00  0.00     0.010 A 
ATOM     70  C   UNL A   1      36.027  34.532  29.489  1.00  0.00     0.020 A 
ATOM     71  C   UNL A   1      34.534  32.849  30.405  1.00  0.00     0.020 A 
ATOM     72  C   UNL A   1      34.740  34.018  29.669  1.00  0.00     0.054 A 
BRANCH  72  73
ATOM     73  S   UNL A   1      33.334  34.892  28.925  1.00  0.00     0.124 S 
ATOM     74  O   UNL A   1      32.784  33.882  28.028  1.00  0.00    -0.237 OA
ATOM     75  O   UNL A   1      32.511  35.221  30.086  1.00  0.00    -0.237 OA
ATOM     76  O   UNL A   1      33.956  36.041  28.270  1.00  0.00    -0.744 OA
ENDBRANCH  72  73
ENDBRANCH  53  67
BRANCH  54  77
ATOM     77  C   UNL A   1      44.552  28.426  35.677  1.00  0.00    -0.014 A 
ATOM     78  C   UNL A   1      44.288  27.315  36.500  1.00  0.00     0.010 A 
ATOM     79  C   UNL A   1      45.857  28.947  35.631  1.00  0.00     0.010 A 
ATOM     80  C   UNL A   1      45.287  26.780  37.315  1.00  0.00     0.020 A 
ATOM     81  C   UNL A   1      46.868  28.395  36.424  1.00  0.00     0.020 A 
ATOM     82  C   UNL A   1      46.568  27.337  37.285  1.00  0.00     0.054 A 
BRANCH  82  83
ATOM     83  S   UNL A   1      47.833  26.674  38.404  1.00  0.00     0.124 S 
ATOM     84  O   UNL A   1      47.803  25.251  38.078  1.00  0.00    -0.237 OA
ATOM     85  O   UNL A   1      49.036  27.390  37.988  1.00  0.00    -0.237 OA
ATOM     86  O   UNL A   1      47.332  27.024  39.731  1.00  0.00    -0.744 OA
ENDBRANCH  82  83
ENDBRANCH  54  77
BRANCH  66  87
ATOM     87  C   UNL A   1      40.056  33.574  37.252  1.00  0.00    -0.014 A 
ATOM     88  C   UNL A   1      38.997  33.330  38.146  1.00  0.00     0.010 A 
ATOM     89  C   UNL A   1      40.830  34.737  37.405  1.00  0.00     0.010 A 
ATOM     90  C   UNL A   1      38.686  34.255  39.145  1.00  0.00     0.020 A 
ATOM     91  C   UNL A   1      40.538  35.652  38.420  1.00  0.00     0.020 A 
ATOM     92  C   UNL A   1      39.450  35.419  39.264  1.00  0.00     0.054 A 
BRANCH  92  93
ATOM     93  S   UNL A   1      38.997  36.636  40.531  1.00  0.00     0.124 S 
ATOM     94  O   UNL A   1      40.271  36.867  41.205  1.00  0.00    -0.237 OA
ATOM     95  O   UNL A   1      38.492  37.754  39.738  1.00  0.00    -0.237 OA
ATOM     96  O   UNL A   1      37.987  35.941  41.327  1.00  0.00    -0.744 OA
ENDBRANCH  92  93
ENDBRANCH  66  87
ENDBRANCH  40  41
ENDBRANCH  32  35
ENDBRANCH  30  31
ENDBRANCH  29  30
ENDBRANCH  28  29
ENDBRANCH   1  28
TORSDOF 20
ENDMDL
MODEL 2
REMARK VINA RESULT:     -11.2      4.920     10.555
REMARK SMILES CC(C)CSc1cc2c(cc1Cl)C=C(C(=O)NCCCCCCNC(=O)c1ccc(-c3c4nc(c(-c5ccc(S(=O)(=O)[O-])cc5)c5ccc([nH]5)c(-c5ccc(S(=O)(=O)[O-])cc5)c5nc(c(-c6ccc(S(=O)(=O)[O-])cc6)c6ccc3[nH]6)C=C5)C=C4)cc1)[C@@H](C(F)(F)F)O2
REMARK SMILES IDX 20 1 19 2 18 3 17 4 15 5 16 6 14 8 6 9 7 10 11 11 8 12 10 13
REMARK SMILES IDX 12 14 9 15 92 16 13 17 87 18 5 19 4 20 2 21 1 22 3 23 88 24
REMARK SMILES IDX 89 25 90 26 91 27 21 28 22 29 23 30 24 31 25 32 26 34 27 35
REMARK SMILES IDX 28 36 86 37 29 38 85 39 30 40 31 41 32 42 79 43 33 44 84 45
REMARK SMILES IDX 78 46 80 47 34 48 83 49 77 50 76 51 35 53 65 54 46 55 64 56
REMARK SMILES IDX 47 57 50 58 63 59 81 60 48 61 49 62 62 64 82 65 51 66 36 67
REMARK SMILES IDX 37 68 45 69 38 70 44 71 39 72 40 73 41 74 42 75 43 76 66 77
REMARK SMILES IDX 67 78 75 79 68 80 74 81 69 82 70 83 71 84 72 85 73 86 52 87
REMARK SMILES IDX 53 88 61 89 54 90 60 91 55 92 56 93 57 94 58 95 59 96
REMARK H PARENT 17 7 24 33 80 52 50 63
REMARK Flexibility Score: inf
ROOT
ATOM      1  C   UNL A   1      32.314  28.982  24.085  1.00  0.00     0.002 C 
ENDROOT
BRANCH   1   2
ATOM      2  C   UNL A   1      32.540  28.692  22.598  1.00  0.00     0.021 C 
BRANCH   2   3
ATOM      3  C   UNL A   1      32.058  27.328  22.118  1.00  0.00     0.116 C 
BRANCH   3   4
ATOM      4  N   UNL A   1      30.735  26.989  22.606  1.00  0.00    -0.352 N 
ATOM      5  C   UNL A   1      30.213  25.989  23.356  1.00  0.00     0.251 C 
ATOM      6  O   UNL A   1      29.008  26.075  23.612  1.00  0.00    -0.270 OA
ATOM      7  H   UNL A   1      30.054  27.642  22.326  1.00  0.00     0.163 HD
BRANCH   5   8
ATOM      8  C   UNL A   1      30.983  24.805  23.845  1.00  0.00     0.067 C 
ATOM      9  C   UNL A   1      33.045  20.172  24.092  1.00  0.00     0.030 A 
ATOM     10  C   UNL A   1      33.071  21.322  24.904  1.00  0.00     0.063 A 
ATOM     11  C   UNL A   1      32.286  20.229  22.913  1.00  0.00     0.055 A 
ATOM     12  C   UNL A   1      32.348  22.470  24.573  1.00  0.00     0.129 A 
ATOM     13  C   UNL A   1      31.525  21.371  22.609  1.00  0.00     0.033 A 
ATOM     14  Cl  UNL A   1      32.271  18.992  21.709  1.00  0.00    -0.083 Cl
ATOM     15  C   UNL A   1      31.563  22.497  23.432  1.00  0.00     0.019 A 
ATOM     16  O   UNL A   1      32.477  23.523  25.423  1.00  0.00    -0.475 OA
ATOM     17  C   UNL A   1      30.836  23.706  23.084  1.00  0.00     0.025 C 
ATOM     18  C   UNL A   1      31.829  24.787  25.095  1.00  0.00     0.314 C 
BRANCH   9  19
ATOM     19  S   UNL A   1      34.096  18.849  24.692  1.00  0.00    -0.124 SA
BRANCH  19  20
ATOM     20  C   UNL A   1      33.025  17.387  24.925  1.00  0.00     0.078 C 
BRANCH  20  21
ATOM     21  C   UNL A   1      33.633  15.982  24.768  1.00  0.00    -0.007 C 
ATOM     22  C   UNL A   1      35.082  15.837  25.227  1.00  0.00     0.008 C 
ATOM     23  C   UNL A   1      32.763  14.996  25.561  1.00  0.00     0.008 C 
ENDBRANCH  20  21
ENDBRANCH  19  20
ENDBRANCH   9  19
BRANCH  18  24
ATOM     24  C   UNL A   1      31.088  25.243  26.363  1.00  0.00     0.429 C 
ATOM     25  F   UNL A   1      29.861  24.667  26.420  1.00  0.00    -0.167 F 
ATOM     26  F   UNL A   1      31.722  24.900  27.505  1.00  0.00    -0.167 F 
ATOM     27  F   UNL A   1      30.912  26.583  26.394  1.00  0.00    -0.167 F 
ENDBRANCH  18  24
ENDBRANCH   5   8
ENDBRANCH   3   4
ENDBRANCH   2   3
ENDBRANCH   1   2
BRANCH   1  28
ATOM     28  C   UNL A   1      33.572  29.147  24.943  1.00  0.00     0.002 C 
BRANCH  28  29
ATOM     29  C   UNL A   1      33.823  28.061  25.993  1.00  0.00     0.021 C 
BRANCH  29  30
ATOM     30  C   UNL A   1      33.436  28.425  27.420  1.00  0.00     0.116 C 
BRANCH  30  31
ATOM     31  N   UNL A   1      33.382  29.861  27.645  1.00  0.00    -0.352 N 
ATOM     32  C   UNL A   1      34.360  30.698  28.126  1.00  0.00     0.251 C 
ATOM     33  H   UNL A   1      32.525  30.292  27.421  1.00  0.00     0.163 HD
ATOM     34  O   UNL A   1      34.099  31.871  28.378  1.00  0.00    -0.269 OA
BRANCH  32  35
ATOM     35  C   UNL A   1      35.718  30.166  28.376  1.00  0.00     0.039 A 
ATOM     36  C   UNL A   1      36.074  29.682  29.637  1.00  0.00     0.014 A 
ATOM     37  C   UNL A   1      36.655  30.184  27.339  1.00  0.00     0.014 A 
ATOM     38  C   UNL A   1      37.403  29.365  29.904  1.00  0.00     0.010 A 
ATOM     39  C   UNL A   1      37.973  29.792  27.591  1.00  0.00     0.010 A 
ATOM     40  C   UNL A   1      38.368  29.423  28.886  1.00  0.00    -0.014 A 
BRANCH  40  41
ATOM     41  C   UNL A   1      39.786  29.101  29.194  1.00  0.00     0.031 A 
ATOM     42  C   UNL A   1      40.366  27.761  28.823  1.00  0.00     0.074 A 
ATOM     43  C   UNL A   1      40.567  30.037  29.769  1.00  0.00     0.049 A 
ATOM     44  N   UNL A   1      41.579  27.311  29.017  1.00  0.00    -0.248 NA
ATOM     45  C   UNL A   1      39.475  26.805  28.145  1.00  0.00     0.031 C 
ATOM     46  C   UNL A   1      40.125  31.383  30.143  1.00  0.00     0.029 A 
ATOM     47  N   UNL A   1      41.895  30.016  30.114  1.00  0.00    -0.354 N 
ATOM     48  C   UNL A   1      41.594  26.020  28.501  1.00  0.00     0.074 A 
ATOM     49  C   UNL A   1      40.263  25.746  28.008  1.00  0.00     0.031 C 
ATOM     50  C   UNL A   1      41.175  32.074  30.612  1.00  0.00     0.029 A 
ATOM     51  C   UNL A   1      42.347  31.203  30.641  1.00  0.00     0.049 A 
ATOM     52  H   UNL A   1      42.470  29.225  29.995  1.00  0.00     0.167 HD
ATOM     53  C   UNL A   1      42.630  25.150  28.432  1.00  0.00     0.031 A 
ATOM     54  C   UNL A   1      43.560  31.555  31.109  1.00  0.00     0.031 A 
ATOM     55  C   UNL A   1      43.957  25.437  28.913  1.00  0.00     0.049 A 
ATOM     56  C   UNL A   1      44.676  30.552  31.080  1.00  0.00     0.074 A 
ATOM     57  C   UNL A   1      45.072  24.618  28.877  1.00  0.00     0.029 A 
ATOM     58  N   UNL A   1      44.351  26.625  29.507  1.00  0.00    -0.354 N 
ATOM     59  N   UNL A   1      44.667  29.332  30.597  1.00  0.00    -0.248 NA
ATOM     60  C   UNL A   1      45.961  30.961  31.664  1.00  0.00     0.031 C 
ATOM     61  C   UNL A   1      46.125  25.290  29.503  1.00  0.00     0.029 A 
ATOM     62  C   UNL A   1      45.686  26.552  29.867  1.00  0.00     0.049 A 
ATOM     63  H   UNL A   1      43.768  27.405  29.652  1.00  0.00     0.167 HD
ATOM     64  C   UNL A   1      45.945  28.830  30.812  1.00  0.00     0.074 A 
ATOM     65  C   UNL A   1      46.707  29.884  31.451  1.00  0.00     0.031 C 
ATOM     66  C   UNL A   1      46.435  27.604  30.508  1.00  0.00     0.031 A 
BRANCH  53  67
ATOM     67  C   UNL A   1      42.389  23.794  27.820  1.00  0.00    -0.014 A 
ATOM     68  C   UNL A   1      42.137  22.688  28.652  1.00  0.00     0.010 A 
ATOM     69  C   UNL A   1      42.532  23.591  26.436  1.00  0.00     0.010 A 
ATOM     70  C   UNL A   1      42.060  21.399  28.118  1.00  0.00     0.020 A 
ATOM     71  C   UNL A   1      42.430  22.306  25.894  1.00  0.00     0.020 A 
ATOM     72  C   UNL A   1      42.217  21.215  26.741  1.00  0.00     0.054 A 
BRANCH  72  73
ATOM     73  S   UNL A   1      42.135  19.533  26.065  1.00  0.00     0.124 S 
ATOM     74  O   UNL A   1      40.717  19.397  25.749  1.00  0.00    -0.237 OA
ATOM     75  O   UNL A   1      43.034  19.606  24.916  1.00  0.00    -0.237 OA
ATOM     76  O   UNL A   1      42.615  18.700  27.165  1.00  0.00    -0.744 OA
ENDBRANCH  72  73
ENDBRANCH  53  67
BRANCH  54  77
ATOM     77  C   UNL A   1      43.759  32.935  31.629  1.00  0.00    -0.014 A 
ATOM     78  C   UNL A   1      44.372  33.917  30.828  1.00  0.00     0.010 A 
ATOM     79  C   UNL A   1      43.436  33.246  32.961  1.00  0.00     0.010 A 
ATOM     80  C   UNL A   1      44.721  35.158  31.364  1.00  0.00     0.020 A 
ATOM     81  C   UNL A   1      43.757  34.499  33.495  1.00  0.00     0.020 A 
ATOM     82  C   UNL A   1      44.428  35.434  32.702  1.00  0.00     0.054 A 
BRANCH  82  83
ATOM     83  S   UNL A   1      44.953  37.023  33.400  1.00  0.00     0.124 S 
ATOM     84  O   UNL A   1      43.673  37.630  33.755  1.00  0.00    -0.237 OA
ATOM     85  O   UNL A   1      45.791  36.618  34.525  1.00  0.00    -0.237 OA
ATOM     86  O   UNL A   1      45.664  37.662  32.296  1.00  0.00    -0.744 OA
ENDBRANCH  82  83
ENDBRANCH  54  77
BRANCH  66  87
ATOM     87  C   UNL A   1      47.867  27.302  30.861  1.00  0.00    -0.014 A 
ATOM     88  C   UNL A   1      48.897  27.693  29.986  1.00  0.00     0.010 A 
ATOM     89  C   UNL A   1      48.177  26.502  31.973  1.00  0.00     0.010 A 
ATOM     90  C   UNL A   1      50.206  27.251  30.190  1.00  0.00     0.020 A 
ATOM     91  C   UNL A   1      49.491  26.079  32.195  1.00  0.00     0.020 A 
ATOM     92  C   UNL A   1      50.490  26.433  31.286  1.00  0.00     0.054 A 
BRANCH  92  93
ATOM     93  S   UNL A   1      52.185  25.822  31.505  1.00  0.00     0.124 S 
ATOM     94  O   UNL A   1      51.961  24.477  32.026  1.00  0.00    -0.237 OA
ATOM     95  O   UNL A   1      52.730  25.890  30.151  1.00  0.00    -0.237 OA
ATOM     96  O   UNL A   1      52.770  26.769  32.451  1.00  0.00    -0.744 OA
ENDBRANCH  92  93
ENDBRANCH  66  87
ENDBRANCH  40  41
ENDBRANCH  32  35
ENDBRANCH  30  31
ENDBRANCH  29  30
ENDBRANCH  28  29
ENDBRANCH   1  28
TORSDOF 20
ENDMDL
MODEL 3
REMARK VINA RESULT:     -11.0      6.246     11.563
REMARK SMILES CC(C)CSc1cc2c(cc1Cl)C=C(C(=O)NCCCCCCNC(=O)c1ccc(-c3c4nc(c(-c5ccc(S(=O)(=O)[O-])cc5)c5ccc([nH]5)c(-c5ccc(S(=O)(=O)[O-])cc5)c5nc(c(-c6ccc(S(=O)(=O)[O-])cc6)c6ccc3[nH]6)C=C5)C=C4)cc1)[C@@H](C(F)(F)F)O2
REMARK SMILES IDX 20 1 19 2 18 3 17 4 15 5 16 6 14 8 6 9 7 10 11 11 8 12 10 13
REMARK SMILES IDX 12 14 9 15 92 16 13 17 87 18 5 19 4 20 2 21 1 22 3 23 88 24
REMARK SMILES IDX 89 25 90 26 91 27 21 28 22 29 23 30 24 31 25 32 26 34 27 35
REMARK SMILES IDX 28 36 86 37 29 38 85 39 30 40 31 41 32 42 79 43 33 44 84 45
REMARK SMILES IDX 78 46 80 47 34 48 83 49 77 50 76 51 35 53 65 54 46 55 64 56
REMARK SMILES IDX 47 57 50 58 63 59 81 60 48 61 49 62 62 64 82 65 51 66 36 67
REMARK SMILES IDX 37 68 45 69 38 70 44 71 39 72 40 73 41 74 42 75 43 76 66 77
REMARK SMILES IDX 67 78 75 79 68 80 74 81 69 82 70 83 71 84 72 85 73 86 52 87
REMARK SMILES IDX 53 88 61 89 54 90 60 91 55 92 56 93 57 94 58 95 59 96
REMARK H PARENT 17 7 24 33 80 52 50 63
REMARK Flexibility Score: inf
ROOT
ATOM      1  C   UNL A   1      33.212  29.531  26.407  1.00  0.00     0.002 C 
ENDROOT
BRANCH   1   2
ATOM      2  C   UNL A   1      33.405  28.541  25.255  1.00  0.00     0.021 C 
BRANCH   2   3
ATOM      3  C   UNL A   1      32.600  28.838  23.995  1.00  0.00     0.116 C 
BRANCH   3   4
ATOM      4  N   UNL A   1      31.230  28.369  24.073  1.00  0.00    -0.352 N 
ATOM      5  C   UNL A   1      30.627  27.156  24.095  1.00  0.00     0.251 C 
ATOM      6  O   UNL A   1      29.399  27.163  24.224  1.00  0.00    -0.270 OA
ATOM      7  H   UNL A   1      30.583  29.110  24.123  1.00  0.00     0.163 HD
BRANCH   5   8
ATOM      8  C   UNL A   1      31.341  25.852  23.938  1.00  0.00     0.067 C 
ATOM      9  C   UNL A   1      33.820  21.560  25.039  1.00  0.00     0.030 A 
ATOM     10  C   UNL A   1      33.351  22.169  23.860  1.00  0.00     0.063 A 
ATOM     11  C   UNL A   1      33.598  22.236  26.249  1.00  0.00     0.055 A 
ATOM     12  C   UNL A   1      32.713  23.412  23.878  1.00  0.00     0.129 A 
ATOM     13  C   UNL A   1      32.997  23.506  26.256  1.00  0.00     0.033 A 
ATOM     14  Cl  UNL A   1      33.941  21.574  27.807  1.00  0.00    -0.083 Cl
ATOM     15  C   UNL A   1      32.544  24.092  25.073  1.00  0.00     0.019 A 
ATOM     16  O   UNL A   1      32.282  23.880  22.678  1.00  0.00    -0.475 OA
ATOM     17  C   UNL A   1      31.856  25.372  25.084  1.00  0.00     0.025 C 
ATOM     18  C   UNL A   1      31.525  25.125  22.629  1.00  0.00     0.314 C 
BRANCH   9  19
ATOM     19  S   UNL A   1      34.548  19.944  24.769  1.00  0.00    -0.124 SA
BRANCH  19  20
ATOM     20  C   UNL A   1      33.221  18.716  25.035  1.00  0.00     0.078 C 
BRANCH  20  21
ATOM     21  C   UNL A   1      32.670  17.938  23.827  1.00  0.00    -0.007 C 
ATOM     22  C   UNL A   1      32.363  18.775  22.589  1.00  0.00     0.008 C 
ATOM     23  C   UNL A   1      33.695  16.857  23.451  1.00  0.00     0.008 C 
ENDBRANCH  20  21
ENDBRANCH  19  20
ENDBRANCH   9  19
BRANCH  18  24
ATOM     24  C   UNL A   1      32.157  25.980  21.517  1.00  0.00     0.429 C 
ATOM     25  F   UNL A   1      31.313  26.980  21.160  1.00  0.00    -0.167 F 
ATOM     26  F   UNL A   1      33.312  26.572  21.890  1.00  0.00    -0.167 F 
ATOM     27  F   UNL A   1      32.422  25.253  20.408  1.00  0.00    -0.167 F 
ENDBRANCH  18  24
ENDBRANCH   5   8
ENDBRANCH   3   4
ENDBRANCH   2   3
ENDBRANCH   1   2
BRANCH   1  28
ATOM     28  C   UNL A   1      34.457  29.856  27.238  1.00  0.00     0.002 C 
BRANCH  28  29
ATOM     29  C   UNL A   1      34.453  31.203  27.965  1.00  0.00     0.021 C 
BRANCH  29  30
ATOM     30  C   UNL A   1      35.727  31.541  28.728  1.00  0.00     0.116 C 
BRANCH  30  31
ATOM     31  N   UNL A   1      35.627  31.264  30.152  1.00  0.00    -0.352 N 
ATOM     32  C   UNL A   1      36.457  30.510  30.947  1.00  0.00     0.251 C 
ATOM     33  H   UNL A   1      34.857  31.674  30.610  1.00  0.00     0.163 HD
ATOM     34  O   UNL A   1      36.149  30.273  32.110  1.00  0.00    -0.269 OA
BRANCH  32  35
ATOM     35  C   UNL A   1      37.705  29.954  30.377  1.00  0.00     0.039 A 
ATOM     36  C   UNL A   1      38.671  29.375  31.203  1.00  0.00     0.014 A 
ATOM     37  C   UNL A   1      37.921  30.045  28.999  1.00  0.00     0.014 A 
ATOM     38  C   UNL A   1      39.913  29.034  30.676  1.00  0.00     0.010 A 
ATOM     39  C   UNL A   1      39.142  29.629  28.461  1.00  0.00     0.010 A 
ATOM     40  C   UNL A   1      40.165  29.163  29.301  1.00  0.00    -0.014 A 
BRANCH  40  41
ATOM     41  C   UNL A   1      41.504  28.812  28.760  1.00  0.00     0.031 A 
ATOM     42  C   UNL A   1      42.614  29.831  28.740  1.00  0.00     0.074 A 
ATOM     43  C   UNL A   1      41.735  27.557  28.328  1.00  0.00     0.049 A 
ATOM     44  N   UNL A   1      43.840  29.699  28.304  1.00  0.00    -0.248 NA
ATOM     45  C   UNL A   1      42.313  31.168  29.279  1.00  0.00     0.031 C 
ATOM     46  C   UNL A   1      40.747  26.475  28.331  1.00  0.00     0.029 A 
ATOM     47  N   UNL A   1      42.871  26.968  27.833  1.00  0.00    -0.354 N 
ATOM     48  C   UNL A   1      44.451  30.932  28.502  1.00  0.00     0.074 A 
ATOM     49  C   UNL A   1      43.456  31.811  29.072  1.00  0.00     0.031 C 
ATOM     50  C   UNL A   1      41.335  25.344  27.913  1.00  0.00     0.029 A 
ATOM     51  C   UNL A   1      42.718  25.632  27.545  1.00  0.00     0.049 A 
ATOM     52  H   UNL A   1      43.715  27.456  27.696  1.00  0.00     0.167 HD
ATOM     53  C   UNL A   1      45.731  31.291  28.243  1.00  0.00     0.031 A 
ATOM     54  C   UNL A   1      43.583  24.736  27.029  1.00  0.00     0.031 A 
ATOM     55  C   UNL A   1      46.721  30.405  27.687  1.00  0.00     0.049 A 
ATOM     56  C   UNL A   1      44.978  25.175  26.692  1.00  0.00     0.074 A 
ATOM     57  C   UNL A   1      48.047  30.680  27.400  1.00  0.00     0.029 A 
ATOM     58  N   UNL A   1      46.502  29.081  27.341  1.00  0.00    -0.354 N 
ATOM     59  N   UNL A   1      45.534  26.349  26.878  1.00  0.00    -0.248 NA
ATOM     60  C   UNL A   1      45.863  24.180  26.070  1.00  0.00     0.031 C 
ATOM     61  C   UNL A   1      48.613  29.540  26.825  1.00  0.00     0.029 A 
ATOM     62  C   UNL A   1      47.661  28.533  26.818  1.00  0.00     0.049 A 
ATOM     63  H   UNL A   1      45.650  28.602  27.452  1.00  0.00     0.167 HD
ATOM     64  C   UNL A   1      46.834  26.232  26.402  1.00  0.00     0.074 A 
ATOM     65  C   UNL A   1      46.990  24.869  25.937  1.00  0.00     0.031 C 
ATOM     66  C   UNL A   1      47.806  27.176  26.353  1.00  0.00     0.031 A 
BRANCH  53  67
ATOM     67  C   UNL A   1      46.155  32.705  28.549  1.00  0.00    -0.014 A 
ATOM     68  C   UNL A   1      46.390  33.090  29.882  1.00  0.00     0.010 A 
ATOM     69  C   UNL A   1      46.203  33.679  27.537  1.00  0.00     0.010 A 
ATOM     70  C   UNL A   1      46.636  34.428  30.203  1.00  0.00     0.020 A 
ATOM     71  C   UNL A   1      46.475  35.014  27.850  1.00  0.00     0.020 A 
ATOM     72  C   UNL A   1      46.668  35.384  29.184  1.00  0.00     0.054 A 
BRANCH  72  73
ATOM     73  S   UNL A   1      46.969  37.120  29.619  1.00  0.00     0.124 S 
ATOM     74  O   UNL A   1      46.568  37.160  31.021  1.00  0.00    -0.237 OA
ATOM     75  O   UNL A   1      48.400  37.269  29.366  1.00  0.00    -0.237 OA
ATOM     76  O   UNL A   1      46.105  37.856  28.699  1.00  0.00    -0.744 OA
ENDBRANCH  72  73
ENDBRANCH  53  67
BRANCH  54  77
ATOM     77  C   UNL A   1      43.130  23.334  26.822  1.00  0.00    -0.014 A 
ATOM     78  C   UNL A   1      43.027  22.451  27.914  1.00  0.00     0.010 A 
ATOM     79  C   UNL A   1      42.903  22.844  25.525  1.00  0.00     0.010 A 
ATOM     80  C   UNL A   1      42.775  21.093  27.709  1.00  0.00     0.020 A 
ATOM     81  C   UNL A   1      42.620  21.490  25.317  1.00  0.00     0.020 A 
ATOM     82  C   UNL A   1      42.592  20.618  26.408  1.00  0.00     0.054 A 
BRANCH  82  83
ATOM     83  S   UNL A   1      42.336  18.839  26.157  1.00  0.00     0.124 S 
ATOM     84  O   UNL A   1      43.349  18.533  25.152  1.00  0.00    -0.237 OA
ATOM     85  O   UNL A   1      42.582  18.289  27.487  1.00  0.00    -0.237 OA
ATOM     86  O   UNL A   1      40.952  18.756  25.698  1.00  0.00    -0.744 OA
ENDBRANCH  82  83
ENDBRANCH  54  77
BRANCH  66  87
ATOM     87  C   UNL A   1      49.140  26.794  25.772  1.00  0.00    -0.014 A 
ATOM     88  C   UNL A   1      50.119  26.211  26.599  1.00  0.00     0.010 A 
ATOM     89  C   UNL A   1      49.478  27.151  24.456  1.00  0.00     0.010 A 
ATOM     90  C   UNL A   1      51.424  26.034  26.135  1.00  0.00     0.020 A 
ATOM     91  C   UNL A   1      50.776  26.951  23.979  1.00  0.00     0.020 A 
ATOM     92  C   UNL A   1      51.748  26.421  24.832  1.00  0.00     0.054 A 
BRANCH  92  93
ATOM     93  S   UNL A   1      53.461  26.236  24.265  1.00  0.00     0.124 S 
ATOM     94  O   UNL A   1      54.008  27.569  24.499  1.00  0.00    -0.237 OA
ATOM     95  O   UNL A   1      53.977  25.182  25.135  1.00  0.00    -0.237 OA
ATOM     96  O   UNL A   1      53.317  25.858  22.861  1.00  0.00    -0.744 OA
ENDBRANCH  92  93
ENDBRANCH  66  87
ENDBRANCH  40  41
ENDBRANCH  32  35
ENDBRANCH  30  31
ENDBRANCH  29  30
ENDBRANCH  28  29
ENDBRANCH   1  28
TORSDOF 20
ENDMDL
