MODEL 1
REMARK VINA RESULT:     -10.8      0.000      0.000
REMARK SMILES COC(=O)[C@H]1CN(C(=O)[C@@H]2CC=CC[C@@H]2C(=O)NCCCCCCNC(=O)c2ccc(-c3c4nc(c(-c5ccc(S(=O)(=O)[O-])cc5)c5ccc([nH]5)c(-c5ccc(S(=O)(=O)[O-])cc5)c5nc(c(-c6ccc(S(=O)(=O)[O-])cc6)c6ccc3[nH]6)C=C5)C=C4)cc2)C[C@H]1C
REMARK SMILES IDX 21 1 20 2 19 3 18 4 16 5 17 6 15 8 10 9 11 10 12 11 14 12
REMARK SMILES IDX 13 13 8 14 9 15 7 16 5 17 6 18 89 19 88 20 90 21 3 22 4 23
REMARK SMILES IDX 2 24 1 25 22 26 23 27 24 28 25 29 26 30 27 32 28 33 29 34
REMARK SMILES IDX 87 35 30 36 86 37 31 38 32 39 33 40 80 41 34 42 85 43 79 44
REMARK SMILES IDX 81 45 35 46 84 47 78 48 77 49 36 51 66 52 47 53 65 54 48 55
REMARK SMILES IDX 51 56 64 57 82 58 49 59 50 60 63 62 83 63 52 64 37 65 38 66
REMARK SMILES IDX 46 67 39 68 45 69 40 70 41 71 42 72 43 73 44 74 67 75 68 76
REMARK SMILES IDX 76 77 69 78 75 79 70 80 71 81 72 82 73 83 74 84 53 85 54 86
REMARK SMILES IDX 62 87 55 88 61 89 56 90 57 91 58 92 59 93 60 94
REMARK H PARENT 18 7 25 31 81 50 51 61
REMARK Flexibility Score: inf
ROOT
ATOM      1  C   UNL A   1      39.428  22.999  26.663  1.00  0.00     0.002 C 
ENDROOT
BRANCH   1   2
ATOM      2  C   UNL A   1      38.264  22.610  25.741  1.00  0.00     0.021 C 
BRANCH   2   3
ATOM      3  C   UNL A   1      37.007  23.463  25.892  1.00  0.00     0.116 C 
BRANCH   3   4
ATOM      4  N   UNL A   1      36.025  22.851  26.776  1.00  0.00    -0.356 N 
ATOM      5  C   UNL A   1      34.693  22.601  26.638  1.00  0.00     0.224 C 
ATOM      6  O   UNL A   1      34.104  22.148  27.623  1.00  0.00    -0.275 OA
ATOM      7  H   UNL A   1      36.395  22.562  27.640  1.00  0.00     0.163 HD
BRANCH   5   8
ATOM      8  C   UNL A   1      33.979  22.841  25.318  1.00  0.00     0.095 C 
ATOM      9  C   UNL A   1      32.447  23.040  25.366  1.00  0.00     0.095 C 
ATOM     10  C   UNL A   1      31.555  21.788  25.346  1.00  0.00     0.041 C 
ATOM     11  C   UNL A   1      32.193  20.561  24.783  1.00  0.00    -0.030 C 
ATOM     12  C   UNL A   1      34.380  21.696  24.354  1.00  0.00     0.041 C 
ATOM     13  C   UNL A   1      33.451  20.518  24.333  1.00  0.00    -0.030 C 
BRANCH   9  14
ATOM     14  C   UNL A   1      31.892  24.097  26.325  1.00  0.00     0.226 C 
ATOM     15  O   UNL A   1      31.258  23.708  27.314  1.00  0.00    -0.275 OA
BRANCH  14  16
ATOM     16  N   UNL A   1      32.125  25.444  26.140  1.00  0.00    -0.341 N 
ATOM     17  C   UNL A   1      31.587  27.764  25.874  1.00  0.00     0.123 C 
ATOM     18  C   UNL A   1      31.029  26.340  25.797  1.00  0.00     0.135 C 
ATOM     19  C   UNL A   1      33.114  27.606  26.069  1.00  0.00     0.021 C 
ATOM     20  C   UNL A   1      33.387  26.113  25.939  1.00  0.00     0.123 C 
ATOM     21  C   UNL A   1      34.041  28.371  25.124  1.00  0.00     0.010 C 
BRANCH  17  22
ATOM     22  C   UNL A   1      31.155  28.614  24.695  1.00  0.00     0.310 C 
ATOM     23  O   UNL A   1      30.922  29.815  24.725  1.00  0.00    -0.252 OA
BRANCH  22  24
ATOM     24  O   UNL A   1      31.064  27.841  23.576  1.00  0.00    -0.469 OA
ATOM     25  C   UNL A   1      29.739  27.699  23.060  1.00  0.00     0.282 C 
ENDBRANCH  22  24
ENDBRANCH  17  22
ENDBRANCH  14  16
ENDBRANCH   9  14
ENDBRANCH   5   8
ENDBRANCH   3   4
ENDBRANCH   2   3
ENDBRANCH   1   2
BRANCH   1  26
ATOM     26  C   UNL A   1      40.651  22.088  26.594  1.00  0.00     0.002 C 
BRANCH  26  27
ATOM     27  C   UNL A   1      41.519  22.086  27.854  1.00  0.00     0.021 C 
BRANCH  27  28
ATOM     28  C   UNL A   1      42.664  23.096  27.844  1.00  0.00     0.116 C 
BRANCH  28  29
ATOM     29  N   UNL A   1      42.832  23.722  26.541  1.00  0.00    -0.352 N 
ATOM     30  C   UNL A   1      42.498  24.999  26.155  1.00  0.00     0.251 C 
ATOM     31  H   UNL A   1      43.236  23.158  25.844  1.00  0.00     0.163 HD
ATOM     32  O   UNL A   1      42.496  25.316  24.970  1.00  0.00    -0.269 OA
BRANCH  30  33
ATOM     33  C   UNL A   1      42.125  25.985  27.194  1.00  0.00     0.039 A 
ATOM     34  C   UNL A   1      40.991  25.762  27.978  1.00  0.00     0.014 A 
ATOM     35  C   UNL A   1      42.926  27.109  27.412  1.00  0.00     0.014 A 
ATOM     36  C   UNL A   1      40.699  26.638  29.029  1.00  0.00     0.010 A 
ATOM     37  C   UNL A   1      42.679  27.931  28.507  1.00  0.00     0.010 A 
ATOM     38  C   UNL A   1      41.562  27.708  29.326  1.00  0.00    -0.014 A 
BRANCH  38  39
ATOM     39  C   UNL A   1      41.313  28.604  30.486  1.00  0.00     0.031 A 
ATOM     40  C   UNL A   1      42.173  28.503  31.718  1.00  0.00     0.074 A 
ATOM     41  C   UNL A   1      40.278  29.469  30.457  1.00  0.00     0.049 A 
ATOM     42  N   UNL A   1      42.087  29.170  32.841  1.00  0.00    -0.248 NA
ATOM     43  C   UNL A   1      43.257  27.508  31.692  1.00  0.00     0.031 C 
ATOM     44  C   UNL A   1      39.349  29.643  29.338  1.00  0.00     0.029 A 
ATOM     45  N   UNL A   1      39.834  30.365  31.397  1.00  0.00    -0.354 N 
ATOM     46  C   UNL A   1      43.095  28.667  33.657  1.00  0.00     0.074 A 
ATOM     47  C   UNL A   1      43.738  27.601  32.922  1.00  0.00     0.031 C 
ATOM     48  C   UNL A   1      38.473  30.615  29.640  1.00  0.00     0.029 A 
ATOM     49  C   UNL A   1      38.744  31.100  30.990  1.00  0.00     0.049 A 
ATOM     50  H   UNL A   1      40.255  30.473  32.281  1.00  0.00     0.167 HD
ATOM     51  C   UNL A   1      43.469  29.070  34.895  1.00  0.00     0.031 A 
ATOM     52  C   UNL A   1      38.040  32.055  31.630  1.00  0.00     0.031 A 
ATOM     53  C   UNL A   1      42.822  30.127  35.627  1.00  0.00     0.049 A 
ATOM     54  C   UNL A   1      38.444  32.455  33.023  1.00  0.00     0.074 A 
ATOM     55  C   UNL A   1      43.152  30.640  36.870  1.00  0.00     0.029 A 
ATOM     56  N   UNL A   1      41.711  30.830  35.187  1.00  0.00    -0.354 N 
ATOM     57  N   UNL A   1      39.441  32.012  33.753  1.00  0.00    -0.248 NA
ATOM     58  C   UNL A   1      37.632  33.490  33.676  1.00  0.00     0.031 C 
ATOM     59  C   UNL A   1      42.201  31.609  37.208  1.00  0.00     0.029 A 
ATOM     60  C   UNL A   1      41.323  31.752  36.146  1.00  0.00     0.049 A 
ATOM     61  H   UNL A   1      41.264  30.695  34.321  1.00  0.00     0.167 HD
ATOM     62  C   UNL A   1      39.397  32.741  34.936  1.00  0.00     0.074 A 
ATOM     63  C   UNL A   1      38.282  33.659  34.820  1.00  0.00     0.031 C 
ATOM     64  C   UNL A   1      40.208  32.660  36.019  1.00  0.00     0.031 A 
BRANCH  51  65
ATOM     65  C   UNL A   1      44.626  28.348  35.539  1.00  0.00    -0.014 A 
ATOM     66  C   UNL A   1      45.937  28.855  35.458  1.00  0.00     0.010 A 
ATOM     67  C   UNL A   1      44.402  27.154  36.247  1.00  0.00     0.010 A 
ATOM     68  C   UNL A   1      47.007  28.153  36.021  1.00  0.00     0.020 A 
ATOM     69  C   UNL A   1      45.464  26.465  36.842  1.00  0.00     0.020 A 
ATOM     70  C   UNL A   1      46.763  26.959  36.705  1.00  0.00     0.054 A 
BRANCH  70  71
ATOM     71  S   UNL A   1      48.170  26.068  37.424  1.00  0.00     0.124 S 
ATOM     72  O   UNL A   1      48.694  25.349  36.264  1.00  0.00    -0.237 OA
ATOM     73  O   UNL A   1      49.012  27.151  37.923  1.00  0.00    -0.237 OA
ATOM     74  O   UNL A   1      47.562  25.229  38.453  1.00  0.00    -0.744 OA
ENDBRANCH  70  71
ENDBRANCH  51  65
BRANCH  52  75
ATOM     75  C   UNL A   1      36.895  32.720  30.947  1.00  0.00    -0.014 A 
ATOM     76  C   UNL A   1      37.118  33.813  30.090  1.00  0.00     0.010 A 
ATOM     77  C   UNL A   1      35.579  32.262  31.139  1.00  0.00     0.010 A 
ATOM     78  C   UNL A   1      36.046  34.445  29.452  1.00  0.00     0.020 A 
ATOM     79  C   UNL A   1      34.508  32.872  30.479  1.00  0.00     0.020 A 
ATOM     80  C   UNL A   1      34.748  33.967  29.648  1.00  0.00     0.054 A 
BRANCH  80  81
ATOM     81  S   UNL A   1      33.381  34.770  28.765  1.00  0.00     0.124 S 
ATOM     82  O   UNL A   1      32.932  33.710  27.868  1.00  0.00    -0.237 OA
ATOM     83  O   UNL A   1      32.465  35.114  29.850  1.00  0.00    -0.237 OA
ATOM     84  O   UNL A   1      34.019  35.913  28.115  1.00  0.00    -0.744 OA
ENDBRANCH  80  81
ENDBRANCH  52  75
BRANCH  64  85
ATOM     85  C   UNL A   1      39.952  33.617  37.154  1.00  0.00    -0.014 A 
ATOM     86  C   UNL A   1      40.431  34.939  37.122  1.00  0.00     0.010 A 
ATOM     87  C   UNL A   1      39.170  33.199  38.248  1.00  0.00     0.010 A 
ATOM     88  C   UNL A   1      40.157  35.815  38.178  1.00  0.00     0.020 A 
ATOM     89  C   UNL A   1      38.868  34.081  39.288  1.00  0.00     0.020 A 
ATOM     90  C   UNL A   1      39.377  35.381  39.253  1.00  0.00     0.054 A 
BRANCH  90  91
ATOM     91  S   UNL A   1      38.998  36.552  40.585  1.00  0.00     0.124 S 
ATOM     92  O   UNL A   1      40.308  36.750  41.198  1.00  0.00    -0.237 OA
ATOM     93  O   UNL A   1      38.463  37.701  39.858  1.00  0.00    -0.237 OA
ATOM     94  O   UNL A   1      38.025  35.837  41.411  1.00  0.00    -0.744 OA
ENDBRANCH  90  91
ENDBRANCH  64  85
ENDBRANCH  38  39
ENDBRANCH  30  33
ENDBRANCH  28  29
ENDBRANCH  27  28
ENDBRANCH  26  27
ENDBRANCH   1  26
TORSDOF 20
ENDMDL
MODEL 2
REMARK VINA RESULT:     -10.5      6.225     11.793
REMARK SMILES COC(=O)[C@H]1CN(C(=O)[C@@H]2CC=CC[C@@H]2C(=O)NCCCCCCNC(=O)c2ccc(-c3c4nc(c(-c5ccc(S(=O)(=O)[O-])cc5)c5ccc([nH]5)c(-c5ccc(S(=O)(=O)[O-])cc5)c5nc(c(-c6ccc(S(=O)(=O)[O-])cc6)c6ccc3[nH]6)C=C5)C=C4)cc2)C[C@H]1C
REMARK SMILES IDX 21 1 20 2 19 3 18 4 16 5 17 6 15 8 10 9 11 10 12 11 14 12
REMARK SMILES IDX 13 13 8 14 9 15 7 16 5 17 6 18 89 19 88 20 90 21 3 22 4 23
REMARK SMILES IDX 2 24 1 25 22 26 23 27 24 28 25 29 26 30 27 32 28 33 29 34
REMARK SMILES IDX 87 35 30 36 86 37 31 38 32 39 33 40 80 41 34 42 85 43 79 44
REMARK SMILES IDX 81 45 35 46 84 47 78 48 77 49 36 51 66 52 47 53 65 54 48 55
REMARK SMILES IDX 51 56 64 57 82 58 49 59 50 60 63 62 83 63 52 64 37 65 38 66
REMARK SMILES IDX 46 67 39 68 45 69 40 70 41 71 42 72 43 73 44 74 67 75 68 76
REMARK SMILES IDX 76 77 69 78 75 79 70 80 71 81 72 82 73 83 74 84 53 85 54 86
REMARK SMILES IDX 62 87 55 88 61 89 56 90 57 91 58 92 59 93 60 94
REMARK H PARENT 18 7 25 31 81 50 51 61
REMARK Flexibility Score: inf
ROOT
ATOM      1  C   UNL A   1      34.085  27.939  25.328  1.00  0.00     0.002 C 
ENDROOT
BRANCH   1   2
ATOM      2  C   UNL A   1      33.766  28.620  23.990  1.00  0.00     0.021 C 
BRANCH   2   3
ATOM      3  C   UNL A   1      34.187  27.838  22.749  1.00  0.00     0.116 C 
BRANCH   3   4
ATOM      4  N   UNL A   1      33.053  27.475  21.911  1.00  0.00    -0.356 N 
ATOM      5  C   UNL A   1      31.748  27.208  22.195  1.00  0.00     0.224 C 
ATOM      6  O   UNL A   1      31.038  26.829  21.260  1.00  0.00    -0.275 OA
ATOM      7  H   UNL A   1      33.272  27.412  20.954  1.00  0.00     0.163 HD
BRANCH   5   8
ATOM      8  C   UNL A   1      31.191  27.402  23.596  1.00  0.00     0.095 C 
ATOM      9  C   UNL A   1      30.226  26.320  24.132  1.00  0.00     0.095 C 
ATOM     10  C   UNL A   1      28.735  26.444  23.780  1.00  0.00     0.041 C 
ATOM     11  C   UNL A   1      28.281  27.817  23.406  1.00  0.00    -0.030 C 
ATOM     12  C   UNL A   1      30.561  28.816  23.657  1.00  0.00     0.041 C 
ATOM     13  C   UNL A   1      29.092  28.879  23.357  1.00  0.00    -0.030 C 
BRANCH   9  14
ATOM     14  C   UNL A   1      30.685  24.860  24.076  1.00  0.00     0.226 C 
ATOM     15  O   UNL A   1      30.203  24.132  23.200  1.00  0.00    -0.275 OA
BRANCH  14  16
ATOM     16  N   UNL A   1      31.647  24.365  24.933  1.00  0.00    -0.341 N 
ATOM     17  C   UNL A   1      33.825  23.656  25.639  1.00  0.00     0.123 C 
ATOM     18  C   UNL A   1      32.944  23.946  24.420  1.00  0.00     0.135 C 
ATOM     19  C   UNL A   1      32.881  23.729  26.864  1.00  0.00     0.021 C 
ATOM     20  C   UNL A   1      31.482  23.900  26.288  1.00  0.00     0.123 C 
ATOM     21  C   UNL A   1      32.884  22.554  27.842  1.00  0.00     0.010 C 
BRANCH  17  22
ATOM     22  C   UNL A   1      34.612  22.370  25.486  1.00  0.00     0.310 C 
ATOM     23  O   UNL A   1      35.558  22.021  26.179  1.00  0.00    -0.252 OA
BRANCH  22  24
ATOM     24  O   UNL A   1      34.107  21.639  24.452  1.00  0.00    -0.469 OA
ATOM     25  C   UNL A   1      34.198  20.223  24.626  1.00  0.00     0.282 C 
ENDBRANCH  22  24
ENDBRANCH  17  22
ENDBRANCH  14  16
ENDBRANCH   9  14
ENDBRANCH   5   8
ENDBRANCH   3   4
ENDBRANCH   2   3
ENDBRANCH   1   2
BRANCH   1  26
ATOM     26  C   UNL A   1      33.289  28.447  26.528  1.00  0.00     0.002 C 
BRANCH  26  27
ATOM     27  C   UNL A   1      33.802  29.758  27.126  1.00  0.00     0.021 C 
BRANCH  27  28
ATOM     28  C   UNL A   1      35.202  29.681  27.730  1.00  0.00     0.116 C 
BRANCH  28  29
ATOM     29  N   UNL A   1      35.270  30.315  29.039  1.00  0.00    -0.352 N 
ATOM     30  C   UNL A   1      36.296  30.284  29.954  1.00  0.00     0.251 C 
ATOM     31  H   UNL A   1      34.477  30.835  29.304  1.00  0.00     0.163 HD
ATOM     32  O   UNL A   1      36.126  30.682  31.101  1.00  0.00    -0.269 OA
BRANCH  30  33
ATOM     33  C   UNL A   1      37.610  29.746  29.536  1.00  0.00     0.039 A 
ATOM     34  C   UNL A   1      38.044  29.932  28.221  1.00  0.00     0.014 A 
ATOM     35  C   UNL A   1      38.426  29.091  30.463  1.00  0.00     0.014 A 
ATOM     36  C   UNL A   1      39.328  29.517  27.856  1.00  0.00     0.010 A 
ATOM     37  C   UNL A   1      39.731  28.754  30.118  1.00  0.00     0.010 A 
ATOM     38  C   UNL A   1      40.196  28.960  28.811  1.00  0.00    -0.014 A 
BRANCH  38  39
ATOM     39  C   UNL A   1      41.593  28.585  28.463  1.00  0.00     0.031 A 
ATOM     40  C   UNL A   1      42.676  29.630  28.452  1.00  0.00     0.074 A 
ATOM     41  C   UNL A   1      41.877  27.317  28.100  1.00  0.00     0.049 A 
ATOM     42  N   UNL A   1      43.941  29.504  28.140  1.00  0.00    -0.248 NA
ATOM     43  C   UNL A   1      42.282  30.999  28.820  1.00  0.00     0.031 C 
ATOM     44  C   UNL A   1      40.913  26.216  28.037  1.00  0.00     0.029 A 
ATOM     45  N   UNL A   1      43.061  26.740  27.714  1.00  0.00    -0.354 N 
ATOM     46  C   UNL A   1      44.489  30.776  28.261  1.00  0.00     0.074 A 
ATOM     47  C   UNL A   1      43.408  31.668  28.617  1.00  0.00     0.031 C 
ATOM     48  C   UNL A   1      41.551  25.091  27.677  1.00  0.00     0.029 A 
ATOM     49  C   UNL A   1      42.958  25.397  27.437  1.00  0.00     0.049 A 
ATOM     50  H   UNL A   1      43.906  27.241  27.643  1.00  0.00     0.167 HD
ATOM     51  C   UNL A   1      45.778  31.166  28.115  1.00  0.00     0.031 A 
ATOM     52  C   UNL A   1      43.889  24.510  27.032  1.00  0.00     0.031 A 
ATOM     53  C   UNL A   1      46.852  30.278  27.754  1.00  0.00     0.049 A 
ATOM     54  C   UNL A   1      45.307  24.975  26.830  1.00  0.00     0.074 A 
ATOM     55  C   UNL A   1      48.199  30.566  27.621  1.00  0.00     0.029 A 
ATOM     56  N   UNL A   1      46.700  28.930  27.462  1.00  0.00    -0.354 N 
ATOM     57  N   UNL A   1      45.818  26.169  27.013  1.00  0.00    -0.248 NA
ATOM     58  C   UNL A   1      46.275  23.967  26.375  1.00  0.00     0.031 C 
ATOM     59  C   UNL A   1      48.852  29.407  27.187  1.00  0.00     0.029 A 
ATOM     60  C   UNL A   1      47.925  28.380  27.120  1.00  0.00     0.049 A 
ATOM     61  H   UNL A   1      45.849  28.438  27.493  1.00  0.00     0.167 HD
ATOM     62  C   UNL A   1      47.173  26.048  26.730  1.00  0.00     0.074 A 
ATOM     63  C   UNL A   1      47.404  24.663  26.374  1.00  0.00     0.031 C 
ATOM     64  C   UNL A   1      48.141  26.997  26.766  1.00  0.00     0.031 A 
BRANCH  51  65
ATOM     65  C   UNL A   1      46.090  32.626  28.332  1.00  0.00    -0.014 A 
ATOM     66  C   UNL A   1      46.328  33.136  29.623  1.00  0.00     0.010 A 
ATOM     67  C   UNL A   1      46.160  33.500  27.233  1.00  0.00     0.010 A 
ATOM     68  C   UNL A   1      46.572  34.498  29.815  1.00  0.00     0.020 A 
ATOM     69  C   UNL A   1      46.438  34.858  27.417  1.00  0.00     0.020 A 
ATOM     70  C   UNL A   1      46.620  35.352  28.710  1.00  0.00     0.054 A 
BRANCH  70  71
ATOM     71  S   UNL A   1      46.936  37.116  28.989  1.00  0.00     0.124 S 
ATOM     72  O   UNL A   1      47.861  37.080  30.120  1.00  0.00    -0.237 OA
ATOM     73  O   UNL A   1      47.516  37.541  27.717  1.00  0.00    -0.237 OA
ATOM     74  O   UNL A   1      45.615  37.665  29.283  1.00  0.00    -0.744 OA
ENDBRANCH  70  71
ENDBRANCH  51  65
BRANCH  52  75
ATOM     75  C   UNL A   1      43.516  23.083  26.816  1.00  0.00    -0.014 A 
ATOM     76  C   UNL A   1      43.796  22.455  25.589  1.00  0.00     0.010 A 
ATOM     77  C   UNL A   1      42.891  22.342  27.835  1.00  0.00     0.010 A 
ATOM     78  C   UNL A   1      43.442  21.119  25.379  1.00  0.00     0.020 A 
ATOM     79  C   UNL A   1      42.564  20.997  27.640  1.00  0.00     0.020 A 
ATOM     80  C   UNL A   1      42.833  20.397  26.409  1.00  0.00     0.054 A 
BRANCH  80  81
ATOM     81  S   UNL A   1      42.434  18.649  26.130  1.00  0.00     0.124 S 
ATOM     82  O   UNL A   1      41.040  18.718  25.703  1.00  0.00    -0.237 OA
ATOM     83  O   UNL A   1      43.396  18.268  25.099  1.00  0.00    -0.237 OA
ATOM     84  O   UNL A   1      42.659  18.035  27.437  1.00  0.00    -0.744 OA
ENDBRANCH  80  81
ENDBRANCH  52  75
BRANCH  64  85
ATOM     85  C   UNL A   1      49.551  26.567  26.452  1.00  0.00    -0.014 A 
ATOM     86  C   UNL A   1      50.349  25.914  27.408  1.00  0.00     0.010 A 
ATOM     87  C   UNL A   1      50.064  26.772  25.157  1.00  0.00     0.010 A 
ATOM     88  C   UNL A   1      51.645  25.503  27.083  1.00  0.00     0.020 A 
ATOM     89  C   UNL A   1      51.347  26.334  24.820  1.00  0.00     0.020 A 
ATOM     90  C   UNL A   1      52.135  25.714  25.791  1.00  0.00     0.054 A 
BRANCH  90  91
ATOM     91  S   UNL A   1      53.803  25.127  25.383  1.00  0.00     0.124 S 
ATOM     92  O   UNL A   1      53.992  25.661  24.037  1.00  0.00    -0.237 OA
ATOM     93  O   UNL A   1      54.621  25.741  26.425  1.00  0.00    -0.237 OA
ATOM     94  O   UNL A   1      53.689  23.672  25.466  1.00  0.00    -0.744 OA
ENDBRANCH  90  91
ENDBRANCH  64  85
ENDBRANCH  38  39
ENDBRANCH  30  33
ENDBRANCH  28  29
ENDBRANCH  27  28
ENDBRANCH  26  27
ENDBRANCH   1  26
TORSDOF 20
ENDMDL
MODEL 3
REMARK VINA RESULT:     -10.4      2.305      9.063
REMARK SMILES COC(=O)[C@H]1CN(C(=O)[C@@H]2CC=CC[C@@H]2C(=O)NCCCCCCNC(=O)c2ccc(-c3c4nc(c(-c5ccc(S(=O)(=O)[O-])cc5)c5ccc([nH]5)c(-c5ccc(S(=O)(=O)[O-])cc5)c5nc(c(-c6ccc(S(=O)(=O)[O-])cc6)c6ccc3[nH]6)C=C5)C=C4)cc2)C[C@H]1C
REMARK SMILES IDX 21 1 20 2 19 3 18 4 16 5 17 6 15 8 10 9 11 10 12 11 14 12
REMARK SMILES IDX 13 13 8 14 9 15 7 16 5 17 6 18 89 19 88 20 90 21 3 22 4 23
REMARK SMILES IDX 2 24 1 25 22 26 23 27 24 28 25 29 26 30 27 32 28 33 29 34
REMARK SMILES IDX 87 35 30 36 86 37 31 38 32 39 33 40 80 41 34 42 85 43 79 44
REMARK SMILES IDX 81 45 35 46 84 47 78 48 77 49 36 51 66 52 47 53 65 54 48 55
REMARK SMILES IDX 51 56 64 57 82 58 49 59 50 60 63 62 83 63 52 64 37 65 38 66
REMARK SMILES IDX 46 67 39 68 45 69 40 70 41 71 42 72 43 73 44 74 67 75 68 76
REMARK SMILES IDX 76 77 69 78 75 79 70 80 71 81 72 82 73 83 74 84 53 85 54 86
REMARK SMILES IDX 62 87 55 88 61 89 56 90 57 91 58 92 59 93 60 94
REMARK H PARENT 18 7 25 31 81 50 51 61
REMARK Flexibility Score: inf
ROOT
ATOM      1  C   UNL A   1      32.820  30.259  26.018  1.00  0.00     0.002 C 
ENDROOT
BRANCH   1   2
ATOM      2  C   UNL A   1      33.299  29.699  27.365  1.00  0.00     0.021 C 
BRANCH   2   3
ATOM      3  C   UNL A   1      33.147  28.189  27.528  1.00  0.00     0.116 C 
BRANCH   3   4
ATOM      4  N   UNL A   1      33.556  27.458  26.337  1.00  0.00    -0.356 N 
ATOM      5  C   UNL A   1      32.888  26.620  25.498  1.00  0.00     0.224 C 
ATOM      6  O   UNL A   1      33.549  26.069  24.613  1.00  0.00    -0.275 OA
ATOM      7  H   UNL A   1      34.499  27.597  26.091  1.00  0.00     0.163 HD
BRANCH   5   8
ATOM      8  C   UNL A   1      31.390  26.403  25.630  1.00  0.00     0.095 C 
ATOM      9  C   UNL A   1      30.850  24.985  25.336  1.00  0.00     0.095 C 
ATOM     10  C   UNL A   1      30.531  24.622  23.876  1.00  0.00     0.041 C 
ATOM     11  C   UNL A   1      30.287  25.784  22.970  1.00  0.00    -0.030 C 
ATOM     12  C   UNL A   1      30.683  27.478  24.767  1.00  0.00     0.041 C 
ATOM     13  C   UNL A   1      30.347  27.059  23.366  1.00  0.00    -0.030 C 
BRANCH   9  14
ATOM     14  C   UNL A   1      31.496  23.806  26.068  1.00  0.00     0.226 C 
ATOM     15  O   UNL A   1      31.274  23.681  27.279  1.00  0.00    -0.275 OA
BRANCH  14  16
ATOM     16  N   UNL A   1      32.263  22.868  25.407  1.00  0.00    -0.341 N 
ATOM     17  C   UNL A   1      32.729  21.028  23.944  1.00  0.00     0.123 C 
ATOM     18  C   UNL A   1      31.629  21.739  24.740  1.00  0.00     0.135 C 
ATOM     19  C   UNL A   1      34.056  21.696  24.375  1.00  0.00     0.021 C 
ATOM     20  C   UNL A   1      33.684  22.646  25.506  1.00  0.00     0.123 C 
ATOM     21  C   UNL A   1      35.199  20.790  24.833  1.00  0.00     0.010 C 
BRANCH  17  22
ATOM     22  C   UNL A   1      32.665  19.521  24.098  1.00  0.00     0.310 C 
ATOM     23  O   UNL A   1      33.115  18.700  23.310  1.00  0.00    -0.252 OA
BRANCH  22  24
ATOM     24  O   UNL A   1      32.028  19.201  25.260  1.00  0.00    -0.469 OA
ATOM     25  C   UNL A   1      32.864  18.587  26.244  1.00  0.00     0.282 C 
ENDBRANCH  22  24
ENDBRANCH  17  22
ENDBRANCH  14  16
ENDBRANCH   9  14
ENDBRANCH   5   8
ENDBRANCH   3   4
ENDBRANCH   2   3
ENDBRANCH   1   2
BRANCH   1  26
ATOM     26  C   UNL A   1      31.594  31.167  26.085  1.00  0.00     0.002 C 
BRANCH  26  27
ATOM     27  C   UNL A   1      31.605  32.171  27.239  1.00  0.00     0.021 C 
BRANCH  27  28
ATOM     28  C   UNL A   1      32.883  32.998  27.356  1.00  0.00     0.116 C 
BRANCH  28  29
ATOM     29  N   UNL A   1      32.607  34.389  27.685  1.00  0.00    -0.352 N 
ATOM     30  C   UNL A   1      33.105  35.138  28.725  1.00  0.00     0.251 C 
ATOM     31  H   UNL A   1      31.981  34.854  27.085  1.00  0.00     0.163 HD
ATOM     32  O   UNL A   1      32.617  36.228  29.003  1.00  0.00    -0.269 OA
BRANCH  30  33
ATOM     33  C   UNL A   1      34.235  34.600  29.516  1.00  0.00     0.039 A 
ATOM     34  C   UNL A   1      33.988  34.021  30.763  1.00  0.00     0.014 A 
ATOM     35  C   UNL A   1      35.533  34.638  28.999  1.00  0.00     0.014 A 
ATOM     36  C   UNL A   1      35.039  33.419  31.461  1.00  0.00     0.010 A 
ATOM     37  C   UNL A   1      36.559  33.967  29.657  1.00  0.00     0.010 A 
ATOM     38  C   UNL A   1      36.325  33.353  30.897  1.00  0.00    -0.014 A 
BRANCH  38  39
ATOM     39  C   UNL A   1      37.439  32.649  31.587  1.00  0.00     0.031 A 
ATOM     40  C   UNL A   1      37.946  33.152  32.912  1.00  0.00     0.074 A 
ATOM     41  C   UNL A   1      38.033  31.592  30.996  1.00  0.00     0.049 A 
ATOM     42  N   UNL A   1      38.929  32.696  33.646  1.00  0.00    -0.248 NA
ATOM     43  C   UNL A   1      37.275  34.334  33.475  1.00  0.00     0.031 C 
ATOM     44  C   UNL A   1      37.660  31.025  29.698  1.00  0.00     0.029 A 
ATOM     45  N   UNL A   1      39.080  30.807  31.410  1.00  0.00    -0.354 N 
ATOM     46  C   UNL A   1      39.001  33.541  34.748  1.00  0.00     0.074 A 
ATOM     47  C   UNL A   1      38.004  34.570  34.556  1.00  0.00     0.031 C 
ATOM     48  C   UNL A   1      38.437  29.959  29.443  1.00  0.00     0.029 A 
ATOM     49  C   UNL A   1      39.394  29.796  30.532  1.00  0.00     0.049 A 
ATOM     50  H   UNL A   1      39.561  30.953  32.257  1.00  0.00     0.167 HD
ATOM     51  C   UNL A   1      39.807  33.458  35.835  1.00  0.00     0.031 A 
ATOM     52  C   UNL A   1      40.347  28.844  30.594  1.00  0.00     0.031 A 
ATOM     53  C   UNL A   1      40.804  32.436  36.020  1.00  0.00     0.049 A 
ATOM     54  C   UNL A   1      41.262  28.798  31.788  1.00  0.00     0.074 A 
ATOM     55  C   UNL A   1      41.642  32.239  37.105  1.00  0.00     0.029 A 
ATOM     56  N   UNL A   1      41.104  31.445  35.098  1.00  0.00    -0.354 N 
ATOM     57  N   UNL A   1      41.271  29.567  32.851  1.00  0.00    -0.248 NA
ATOM     58  C   UNL A   1      42.290  27.748  31.794  1.00  0.00     0.031 C 
ATOM     59  C   UNL A   1      42.491  31.167  36.810  1.00  0.00     0.029 A 
ATOM     60  C   UNL A   1      42.134  30.651  35.575  1.00  0.00     0.049 A 
ATOM     61  H   UNL A   1      40.651  31.323  34.233  1.00  0.00     0.167 HD
ATOM     62  C   UNL A   1      42.281  29.071  33.668  1.00  0.00     0.074 A 
ATOM     63  C   UNL A   1      42.853  27.931  32.981  1.00  0.00     0.031 C 
ATOM     64  C   UNL A   1      42.696  29.517  34.879  1.00  0.00     0.031 A 
BRANCH  51  65
ATOM     65  C   UNL A   1      39.646  34.514  36.899  1.00  0.00    -0.014 A 
ATOM     66  C   UNL A   1      40.234  35.786  36.758  1.00  0.00     0.010 A 
ATOM     67  C   UNL A   1      38.886  34.241  38.050  1.00  0.00     0.010 A 
ATOM     68  C   UNL A   1      40.115  36.740  37.772  1.00  0.00     0.020 A 
ATOM     69  C   UNL A   1      38.735  35.205  39.052  1.00  0.00     0.020 A 
ATOM     70  C   UNL A   1      39.370  36.441  38.916  1.00  0.00     0.054 A 
BRANCH  70  71
ATOM     71  S   UNL A   1      39.233  37.697  40.216  1.00  0.00     0.124 S 
ATOM     72  O   UNL A   1      38.823  36.895  41.367  1.00  0.00    -0.237 OA
ATOM     73  O   UNL A   1      40.588  38.239  40.280  1.00  0.00    -0.237 OA
ATOM     74  O   UNL A   1      38.220  38.618  39.707  1.00  0.00    -0.744 OA
ENDBRANCH  70  71
ENDBRANCH  51  65
BRANCH  52  75
ATOM     75  C   UNL A   1      40.468  27.837  29.502  1.00  0.00    -0.014 A 
ATOM     76  C   UNL A   1      41.395  28.028  28.461  1.00  0.00     0.010 A 
ATOM     77  C   UNL A   1      39.668  26.681  29.499  1.00  0.00     0.010 A 
ATOM     78  C   UNL A   1      41.507  27.090  27.430  1.00  0.00     0.020 A 
ATOM     79  C   UNL A   1      39.799  25.725  28.487  1.00  0.00     0.020 A 
ATOM     80  C   UNL A   1      40.711  25.941  27.453  1.00  0.00     0.054 A 
BRANCH  80  81
ATOM     81  S   UNL A   1      40.916  24.713  26.133  1.00  0.00     0.124 S 
ATOM     82  O   UNL A   1      41.686  23.670  26.804  1.00  0.00    -0.237 OA
ATOM     83  O   UNL A   1      39.534  24.371  25.805  1.00  0.00    -0.237 OA
ATOM     84  O   UNL A   1      41.631  25.447  25.091  1.00  0.00    -0.744 OA
ENDBRANCH  80  81
ENDBRANCH  52  75
BRANCH  64  85
ATOM     85  C   UNL A   1      43.795  28.749  35.567  1.00  0.00    -0.014 A 
ATOM     86  C   UNL A   1      43.510  27.701  36.460  1.00  0.00     0.010 A 
ATOM     87  C   UNL A   1      45.138  29.046  35.268  1.00  0.00     0.010 A 
ATOM     88  C   UNL A   1      44.548  26.987  37.065  1.00  0.00     0.020 A 
ATOM     89  C   UNL A   1      46.177  28.314  35.846  1.00  0.00     0.020 A 
ATOM     90  C   UNL A   1      45.875  27.297  36.753  1.00  0.00     0.054 A 
BRANCH  90  91
ATOM     91  S   UNL A   1      47.202  26.322  37.516  1.00  0.00     0.124 S 
ATOM     92  O   UNL A   1      47.325  25.199  36.590  1.00  0.00    -0.237 OA
ATOM     93  O   UNL A   1      48.323  27.258  37.521  1.00  0.00    -0.237 OA
ATOM     94  O   UNL A   1      46.671  25.986  38.836  1.00  0.00    -0.744 OA
ENDBRANCH  90  91
ENDBRANCH  64  85
ENDBRANCH  38  39
ENDBRANCH  30  33
ENDBRANCH  28  29
ENDBRANCH  27  28
ENDBRANCH  26  27
ENDBRANCH   1  26
TORSDOF 20
ENDMDL
