MODEL 1
REMARK VINA RESULT:     -11.7      0.000      0.000
REMARK SMILES CC(C)c1cc2c(cc1Cl)C=C(C(=O)NCCCCCCNC(=O)c1ccc(-c3c4nc(c(-c5ccc(S(=O)(=O)[O-])cc5)c5ccc([nH]5)c(-c5ccc(S(=O)(=O)[O-])cc5)c5nc(c(-c6ccc(S(=O)(=O)[O-])cc6)c6ccc3[nH]6)C=C5)C=C4)cc1)[C@@H](C(F)(F)F)O2
REMARK SMILES IDX 19 1 18 2 17 3 16 4 15 5 13 6 14 7 12 9 4 10 5 11 9 12 6 13
REMARK SMILES IDX 8 14 10 15 7 16 90 17 11 18 85 19 2 20 1 21 3 22 86 23 87 24
REMARK SMILES IDX 88 25 89 26 20 27 21 28 22 29 23 30 24 32 25 33 26 34 84 35
REMARK SMILES IDX 27 36 83 37 28 38 29 39 30 40 77 41 31 42 82 43 76 44 78 45
REMARK SMILES IDX 32 46 81 47 75 48 74 49 33 51 63 52 44 53 62 54 45 55 48 56
REMARK SMILES IDX 61 57 79 58 46 59 47 60 60 62 80 63 49 64 34 65 35 66 43 67
REMARK SMILES IDX 36 68 42 69 37 70 38 71 39 72 40 73 41 74 64 75 65 76 73 77
REMARK SMILES IDX 66 78 72 79 67 80 68 81 69 82 70 83 71 84 50 85 51 86 59 87
REMARK SMILES IDX 52 88 58 89 53 90 54 91 55 92 56 93 57 94
REMARK H PARENT 15 8 22 31 78 50 48 61
REMARK Flexibility Score: inf
ROOT
ATOM      1  C   UNL A   1      38.301  21.980  25.566  1.00  0.00     0.002 C 
ENDROOT
BRANCH   1   2
ATOM      2  C   UNL A   1      37.396  20.831  25.101  1.00  0.00     0.002 C 
BRANCH   2   3
ATOM      3  C   UNL A   1      36.080  21.250  24.440  1.00  0.00     0.021 C 
BRANCH   3   4
ATOM      4  C   UNL A   1      34.831  20.801  25.195  1.00  0.00     0.116 C 
BRANCH   4   5
ATOM      5  N   UNL A   1      33.749  20.453  24.291  1.00  0.00    -0.352 N 
ATOM      6  C   UNL A   1      32.707  21.081  23.695  1.00  0.00     0.251 C 
ATOM      7  O   UNL A   1      32.031  20.371  22.942  1.00  0.00    -0.270 OA
ATOM      8  H   UNL A   1      33.781  19.501  24.043  1.00  0.00     0.163 HD
BRANCH   6   9
ATOM      9  C   UNL A   1      32.332  22.514  23.883  1.00  0.00     0.067 C 
ATOM     10  C   UNL A   1      31.891  27.548  23.417  1.00  0.00    -0.023 A 
ATOM     11  C   UNL A   1      31.139  26.530  24.029  1.00  0.00     0.052 A 
ATOM     12  C   UNL A   1      33.051  27.156  22.714  1.00  0.00     0.045 A 
ATOM     13  C   UNL A   1      31.532  25.194  23.952  1.00  0.00     0.128 A 
ATOM     14  C   UNL A   1      33.417  25.805  22.605  1.00  0.00     0.032 A 
ATOM     15  Cl  UNL A   1      34.100  28.305  21.955  1.00  0.00    -0.084 Cl
ATOM     16  C   UNL A   1      32.653  24.816  23.223  1.00  0.00     0.019 A 
ATOM     17  O   UNL A   1      30.733  24.292  24.592  1.00  0.00    -0.475 OA
ATOM     18  C   UNL A   1      32.970  23.399  23.091  1.00  0.00     0.025 C 
ATOM     19  C   UNL A   1      31.339  23.007  24.900  1.00  0.00     0.314 C 
BRANCH  10  20
ATOM     20  C   UNL A   1      31.443  29.004  23.502  1.00  0.00     0.014 C 
ATOM     21  C   UNL A   1      30.100  29.204  22.786  1.00  0.00     0.012 C 
ATOM     22  C   UNL A   1      31.321  29.564  24.930  1.00  0.00     0.012 C 
ENDBRANCH  10  20
BRANCH  19  23
ATOM     23  C   UNL A   1      31.931  23.038  26.322  1.00  0.00     0.429 C 
ATOM     24  F   UNL A   1      33.112  23.701  26.335  1.00  0.00    -0.167 F 
ATOM     25  F   UNL A   1      31.121  23.676  27.201  1.00  0.00    -0.167 F 
ATOM     26  F   UNL A   1      32.150  21.800  26.819  1.00  0.00    -0.167 F 
ENDBRANCH  19  23
ENDBRANCH   6   9
ENDBRANCH   4   5
ENDBRANCH   3   4
ENDBRANCH   2   3
ENDBRANCH   1   2
BRANCH   1  27
ATOM     27  C   UNL A   1      37.590  23.294  25.895  1.00  0.00     0.021 C 
BRANCH  27  28
ATOM     28  C   UNL A   1      38.472  24.363  26.530  1.00  0.00     0.116 C 
BRANCH  28  29
ATOM     29  N   UNL A   1      39.882  24.171  26.234  1.00  0.00    -0.352 N 
ATOM     30  C   UNL A   1      40.963  24.912  26.650  1.00  0.00     0.251 C 
ATOM     31  H   UNL A   1      40.093  23.402  25.655  1.00  0.00     0.163 HD
ATOM     32  O   UNL A   1      42.076  24.697  26.179  1.00  0.00    -0.269 OA
BRANCH  30  33
ATOM     33  C   UNL A   1      40.767  25.990  27.643  1.00  0.00     0.039 A 
ATOM     34  C   UNL A   1      41.527  27.160  27.580  1.00  0.00     0.014 A 
ATOM     35  C   UNL A   1      39.828  25.814  28.664  1.00  0.00     0.014 A 
ATOM     36  C   UNL A   1      41.458  28.082  28.620  1.00  0.00     0.010 A 
ATOM     37  C   UNL A   1      39.707  26.779  29.667  1.00  0.00     0.010 A 
ATOM     38  C   UNL A   1      40.551  27.900  29.677  1.00  0.00    -0.014 A 
BRANCH  38  39
ATOM     39  C   UNL A   1      40.501  28.898  30.778  1.00  0.00     0.031 A 
ATOM     40  C   UNL A   1      39.454  29.979  30.789  1.00  0.00     0.074 A 
ATOM     41  C   UNL A   1      41.368  28.787  31.803  1.00  0.00     0.049 A 
ATOM     42  N   UNL A   1      39.248  30.909  31.686  1.00  0.00    -0.248 NA
ATOM     43  C   UNL A   1      38.514  30.023  29.656  1.00  0.00     0.031 C 
ATOM     44  C   UNL A   1      42.411  27.764  31.912  1.00  0.00     0.029 A 
ATOM     45  N   UNL A   1      41.494  29.514  32.960  1.00  0.00    -0.354 N 
ATOM     46  C   UNL A   1      38.168  31.653  31.224  1.00  0.00     0.074 A 
ATOM     47  C   UNL A   1      37.779  31.087  29.952  1.00  0.00     0.031 C 
ATOM     48  C   UNL A   1      43.026  27.890  33.096  1.00  0.00     0.029 A 
ATOM     49  C   UNL A   1      42.473  29.042  33.802  1.00  0.00     0.049 A 
ATOM     50  H   UNL A   1      40.938  30.300  33.166  1.00  0.00     0.167 HD
ATOM     51  C   UNL A   1      37.551  32.703  31.815  1.00  0.00     0.031 A 
ATOM     52  C   UNL A   1      42.890  29.484  35.006  1.00  0.00     0.031 A 
ATOM     53  C   UNL A   1      37.939  33.256  33.087  1.00  0.00     0.049 A 
ATOM     54  C   UNL A   1      42.223  30.681  35.617  1.00  0.00     0.074 A 
ATOM     55  C   UNL A   1      37.369  34.319  33.766  1.00  0.00     0.029 A 
ATOM     56  N   UNL A   1      38.981  32.791  33.873  1.00  0.00    -0.354 N 
ATOM     57  N   UNL A   1      41.210  31.376  35.157  1.00  0.00    -0.248 NA
ATOM     58  C   UNL A   1      42.752  31.160  36.900  1.00  0.00     0.031 C 
ATOM     59  C   UNL A   1      38.101  34.533  34.936  1.00  0.00     0.029 A 
ATOM     60  C   UNL A   1      39.086  33.561  35.020  1.00  0.00     0.049 A 
ATOM     61  H   UNL A   1      39.561  32.028  33.651  1.00  0.00     0.167 HD
ATOM     62  C   UNL A   1      40.978  32.373  36.097  1.00  0.00     0.074 A 
ATOM     63  C   UNL A   1      41.940  32.178  37.162  1.00  0.00     0.031 C 
ATOM     64  C   UNL A   1      40.055  33.364  36.071  1.00  0.00     0.031 A 
BRANCH  51  65
ATOM     65  C   UNL A   1      36.383  33.338  31.107  1.00  0.00    -0.014 A 
ATOM     66  C   UNL A   1      36.520  33.759  29.771  1.00  0.00     0.010 A 
ATOM     67  C   UNL A   1      35.193  33.631  31.797  1.00  0.00     0.010 A 
ATOM     68  C   UNL A   1      35.502  34.486  29.147  1.00  0.00     0.020 A 
ATOM     69  C   UNL A   1      34.163  34.336  31.169  1.00  0.00     0.020 A 
ATOM     70  C   UNL A   1      34.333  34.780  29.854  1.00  0.00     0.054 A 
BRANCH  70  71
ATOM     71  S   UNL A   1      33.032  35.744  29.038  1.00  0.00     0.124 S 
ATOM     72  O   UNL A   1      32.248  36.225  30.172  1.00  0.00    -0.237 OA
ATOM     73  O   UNL A   1      33.791  36.763  28.318  1.00  0.00    -0.237 OA
ATOM     74  O   UNL A   1      32.364  34.763  28.185  1.00  0.00    -0.744 OA
ENDBRANCH  70  71
ENDBRANCH  51  65
BRANCH  52  75
ATOM     75  C   UNL A   1      43.990  28.759  35.697  1.00  0.00    -0.014 A 
ATOM     76  C   UNL A   1      45.333  29.068  35.411  1.00  0.00     0.010 A 
ATOM     77  C   UNL A   1      43.704  27.689  36.563  1.00  0.00     0.010 A 
ATOM     78  C   UNL A   1      46.367  28.280  35.920  1.00  0.00     0.020 A 
ATOM     79  C   UNL A   1      44.739  26.916  37.100  1.00  0.00     0.020 A 
ATOM     80  C   UNL A   1      46.061  27.196  36.747  1.00  0.00     0.054 A 
BRANCH  80  81
ATOM     81  S   UNL A   1      47.413  26.144  37.344  1.00  0.00     0.124 S 
ATOM     82  O   UNL A   1      47.355  26.375  38.786  1.00  0.00    -0.237 OA
ATOM     83  O   UNL A   1      47.004  24.813  36.903  1.00  0.00    -0.237 OA
ATOM     84  O   UNL A   1      48.589  26.687  36.670  1.00  0.00    -0.744 OA
ENDBRANCH  80  81
ENDBRANCH  52  75
BRANCH  64  85
ATOM     85  C   UNL A   1      40.025  34.337  37.218  1.00  0.00    -0.014 A 
ATOM     86  C   UNL A   1      39.150  34.118  38.298  1.00  0.00     0.010 A 
ATOM     87  C   UNL A   1      40.758  35.535  37.160  1.00  0.00     0.010 A 
ATOM     88  C   UNL A   1      38.979  35.095  39.281  1.00  0.00     0.020 A 
ATOM     89  C   UNL A   1      40.608  36.505  38.155  1.00  0.00     0.020 A 
ATOM     90  C   UNL A   1      39.699  36.289  39.195  1.00  0.00     0.054 A 
BRANCH  90  91
ATOM     91  S   UNL A   1      39.434  37.566  40.455  1.00  0.00     0.124 S 
ATOM     92  O   UNL A   1      38.254  38.258  39.947  1.00  0.00    -0.237 OA
ATOM     93  O   UNL A   1      39.228  36.781  41.671  1.00  0.00    -0.237 OA
ATOM     94  O   UNL A   1      40.673  38.339  40.426  1.00  0.00    -0.744 OA
ENDBRANCH  90  91
ENDBRANCH  64  85
ENDBRANCH  38  39
ENDBRANCH  30  33
ENDBRANCH  28  29
ENDBRANCH  27  28
ENDBRANCH   1  27
TORSDOF 18
ENDMDL
MODEL 2
REMARK VINA RESULT:     -11.4      1.106      8.108
REMARK SMILES CC(C)c1cc2c(cc1Cl)C=C(C(=O)NCCCCCCNC(=O)c1ccc(-c3c4nc(c(-c5ccc(S(=O)(=O)[O-])cc5)c5ccc([nH]5)c(-c5ccc(S(=O)(=O)[O-])cc5)c5nc(c(-c6ccc(S(=O)(=O)[O-])cc6)c6ccc3[nH]6)C=C5)C=C4)cc1)[C@@H](C(F)(F)F)O2
REMARK SMILES IDX 19 1 18 2 17 3 16 4 15 5 13 6 14 7 12 9 4 10 5 11 9 12 6 13
REMARK SMILES IDX 8 14 10 15 7 16 90 17 11 18 85 19 2 20 1 21 3 22 86 23 87 24
REMARK SMILES IDX 88 25 89 26 20 27 21 28 22 29 23 30 24 32 25 33 26 34 84 35
REMARK SMILES IDX 27 36 83 37 28 38 29 39 30 40 77 41 31 42 82 43 76 44 78 45
REMARK SMILES IDX 32 46 81 47 75 48 74 49 33 51 63 52 44 53 62 54 45 55 48 56
REMARK SMILES IDX 61 57 79 58 46 59 47 60 60 62 80 63 49 64 34 65 35 66 43 67
REMARK SMILES IDX 36 68 42 69 37 70 38 71 39 72 40 73 41 74 64 75 65 76 73 77
REMARK SMILES IDX 66 78 72 79 67 80 68 81 69 82 70 83 71 84 50 85 51 86 59 87
REMARK SMILES IDX 52 88 58 89 53 90 54 91 55 92 56 93 57 94
REMARK H PARENT 15 8 22 31 78 50 48 61
REMARK Flexibility Score: inf
ROOT
ATOM      1  C   UNL A   1      38.304  22.188  25.401  1.00  0.00     0.002 C 
ENDROOT
BRANCH   1   2
ATOM      2  C   UNL A   1      37.423  21.063  24.839  1.00  0.00     0.002 C 
BRANCH   2   3
ATOM      3  C   UNL A   1      36.065  21.502  24.282  1.00  0.00     0.021 C 
BRANCH   3   4
ATOM      4  C   UNL A   1      34.882  20.700  24.818  1.00  0.00     0.116 C 
BRANCH   4   5
ATOM      5  N   UNL A   1      34.564  21.058  26.190  1.00  0.00    -0.352 N 
ATOM      6  C   UNL A   1      33.862  22.022  26.831  1.00  0.00     0.251 C 
ATOM      7  O   UNL A   1      33.831  21.914  28.063  1.00  0.00    -0.270 OA
ATOM      8  H   UNL A   1      34.972  20.429  26.827  1.00  0.00     0.163 HD
BRANCH   6   9
ATOM      9  C   UNL A   1      33.154  23.163  26.179  1.00  0.00     0.067 C 
ATOM     10  C   UNL A   1      31.916  27.717  24.314  1.00  0.00    -0.023 A 
ATOM     11  C   UNL A   1      31.488  26.396  24.096  1.00  0.00     0.052 A 
ATOM     12  C   UNL A   1      32.962  27.908  25.242  1.00  0.00     0.045 A 
ATOM     13  C   UNL A   1      32.067  25.325  24.776  1.00  0.00     0.128 A 
ATOM     14  C   UNL A   1      33.570  26.822  25.892  1.00  0.00     0.032 A 
ATOM     15  Cl  UNL A   1      33.557  29.483  25.649  1.00  0.00    -0.084 Cl
ATOM     16  C   UNL A   1      33.125  25.522  25.656  1.00  0.00     0.019 A 
ATOM     17  O   UNL A   1      31.567  24.089  24.492  1.00  0.00    -0.475 OA
ATOM     18  C   UNL A   1      33.762  24.363  26.270  1.00  0.00     0.025 C 
ATOM     19  C   UNL A   1      31.828  23.053  25.478  1.00  0.00     0.314 C 
BRANCH  10  20
ATOM     20  C   UNL A   1      31.278  28.877  23.555  1.00  0.00     0.014 C 
ATOM     21  C   UNL A   1      30.181  28.372  22.608  1.00  0.00     0.012 C 
ATOM     22  C   UNL A   1      30.682  29.984  24.442  1.00  0.00     0.012 C 
ENDBRANCH  10  20
BRANCH  19  23
ATOM     23  C   UNL A   1      30.653  22.971  26.471  1.00  0.00     0.429 C 
ATOM     24  F   UNL A   1      29.914  24.105  26.434  1.00  0.00    -0.167 F 
ATOM     25  F   UNL A   1      29.807  21.952  26.183  1.00  0.00    -0.167 F 
ATOM     26  F   UNL A   1      31.063  22.790  27.747  1.00  0.00    -0.167 F 
ENDBRANCH  19  23
ENDBRANCH   6   9
ENDBRANCH   4   5
ENDBRANCH   3   4
ENDBRANCH   2   3
ENDBRANCH   1   2
BRANCH   1  27
ATOM     27  C   UNL A   1      37.640  23.097  26.437  1.00  0.00     0.021 C 
BRANCH  27  28
ATOM     28  C   UNL A   1      38.292  24.465  26.606  1.00  0.00     0.116 C 
BRANCH  28  29
ATOM     29  N   UNL A   1      39.559  24.569  25.902  1.00  0.00    -0.352 N 
ATOM     30  C   UNL A   1      40.629  25.393  26.163  1.00  0.00     0.251 C 
ATOM     31  H   UNL A   1      39.668  23.965  25.133  1.00  0.00     0.163 HD
ATOM     32  O   UNL A   1      41.564  25.458  25.371  1.00  0.00    -0.269 OA
BRANCH  30  33
ATOM     33  C   UNL A   1      40.625  26.225  27.385  1.00  0.00     0.039 A 
ATOM     34  C   UNL A   1      39.863  25.853  28.496  1.00  0.00     0.014 A 
ATOM     35  C   UNL A   1      41.374  27.405  27.409  1.00  0.00     0.014 A 
ATOM     36  C   UNL A   1      39.729  26.733  29.565  1.00  0.00     0.010 A 
ATOM     37  C   UNL A   1      41.298  28.252  28.519  1.00  0.00     0.010 A 
ATOM     38  C   UNL A   1      40.441  27.944  29.586  1.00  0.00    -0.014 A 
BRANCH  38  39
ATOM     39  C   UNL A   1      40.276  28.868  30.739  1.00  0.00     0.031 A 
ATOM     40  C   UNL A   1      41.227  28.821  31.905  1.00  0.00     0.074 A 
ATOM     41  C   UNL A   1      39.300  29.797  30.701  1.00  0.00     0.049 A 
ATOM     42  N   UNL A   1      41.247  29.573  32.975  1.00  0.00    -0.248 NA
ATOM     43  C   UNL A   1      42.293  27.806  31.868  1.00  0.00     0.031 C 
ATOM     44  C   UNL A   1      38.334  29.953  29.610  1.00  0.00     0.029 A 
ATOM     45  N   UNL A   1      38.975  30.800  31.579  1.00  0.00    -0.354 N 
ATOM     46  C   UNL A   1      42.314  29.119  33.742  1.00  0.00     0.074 A 
ATOM     47  C   UNL A   1      42.901  28.006  33.030  1.00  0.00     0.031 C 
ATOM     48  C   UNL A   1      37.570  31.027  29.853  1.00  0.00     0.029 A 
ATOM     49  C   UNL A   1      37.940  31.594  31.147  1.00  0.00     0.049 A 
ATOM     50  H   UNL A   1      39.439  30.937  32.437  1.00  0.00     0.167 HD
ATOM     51  C   UNL A   1      42.770  29.598  34.924  1.00  0.00     0.031 A 
ATOM     52  C   UNL A   1      37.344  32.658  31.723  1.00  0.00     0.031 A 
ATOM     53  C   UNL A   1      42.186  30.714  35.622  1.00  0.00     0.049 A 
ATOM     54  C   UNL A   1      37.834  33.138  33.057  1.00  0.00     0.074 A 
ATOM     55  C   UNL A   1      42.582  31.271  36.825  1.00  0.00     0.029 A 
ATOM     56  N   UNL A   1      41.093  31.445  35.183  1.00  0.00    -0.354 N 
ATOM     57  N   UNL A   1      38.839  32.686  33.769  1.00  0.00    -0.248 NA
ATOM     58  C   UNL A   1      37.115  34.261  33.671  1.00  0.00     0.031 C 
ATOM     59  C   UNL A   1      41.696  32.304  37.141  1.00  0.00     0.029 A 
ATOM     60  C   UNL A   1      40.787  32.434  36.103  1.00  0.00     0.049 A 
ATOM     61  H   UNL A   1      40.606  31.286  34.342  1.00  0.00     0.167 HD
ATOM     62  C   UNL A   1      38.875  33.473  34.914  1.00  0.00     0.074 A 
ATOM     63  C   UNL A   1      37.806  34.443  34.789  1.00  0.00     0.031 C 
ATOM     64  C   UNL A   1      39.714  33.390  35.974  1.00  0.00     0.031 A 
BRANCH  51  65
ATOM     65  C   UNL A   1      43.964  28.930  35.554  1.00  0.00    -0.014 A 
ATOM     66  C   UNL A   1      43.773  27.923  36.519  1.00  0.00     0.010 A 
ATOM     67  C   UNL A   1      45.268  29.381  35.285  1.00  0.00     0.010 A 
ATOM     68  C   UNL A   1      44.861  27.401  37.225  1.00  0.00     0.020 A 
ATOM     69  C   UNL A   1      46.361  28.843  35.971  1.00  0.00     0.020 A 
ATOM     70  C   UNL A   1      46.148  27.872  36.954  1.00  0.00     0.054 A 
BRANCH  70  71
ATOM     71  S   UNL A   1      47.546  27.201  37.895  1.00  0.00     0.124 S 
ATOM     72  O   UNL A   1      46.884  26.281  38.816  1.00  0.00    -0.237 OA
ATOM     73  O   UNL A   1      48.361  26.577  36.856  1.00  0.00    -0.237 OA
ATOM     74  O   UNL A   1      48.141  28.385  38.512  1.00  0.00    -0.744 OA
ENDBRANCH  70  71
ENDBRANCH  51  65
BRANCH  52  75
ATOM     75  C   UNL A   1      36.226  33.331  31.008  1.00  0.00    -0.014 A 
ATOM     76  C   UNL A   1      36.415  33.826  29.703  1.00  0.00     0.010 A 
ATOM     77  C   UNL A   1      35.006  33.574  31.661  1.00  0.00     0.010 A 
ATOM     78  C   UNL A   1      35.433  34.609  29.092  1.00  0.00     0.020 A 
ATOM     79  C   UNL A   1      34.008  34.333  31.040  1.00  0.00     0.020 A 
ATOM     80  C   UNL A   1      34.242  34.873  29.773  1.00  0.00     0.054 A 
BRANCH  80  81
ATOM     81  S   UNL A   1      33.008  35.948  28.991  1.00  0.00     0.124 S 
ATOM     82  O   UNL A   1      32.226  36.391  30.143  1.00  0.00    -0.237 OA
ATOM     83  O   UNL A   1      33.831  36.974  28.356  1.00  0.00    -0.237 OA
ATOM     84  O   UNL A   1      32.314  35.053  28.069  1.00  0.00    -0.744 OA
ENDBRANCH  80  81
ENDBRANCH  52  75
BRANCH  64  85
ATOM     85  C   UNL A   1      39.526  34.361  37.107  1.00  0.00    -0.014 A 
ATOM     86  C   UNL A   1      40.138  35.628  37.051  1.00  0.00     0.010 A 
ATOM     87  C   UNL A   1      38.863  33.970  38.283  1.00  0.00     0.010 A 
ATOM     88  C   UNL A   1      40.123  36.471  38.164  1.00  0.00     0.020 A 
ATOM     89  C   UNL A   1      38.824  34.822  39.390  1.00  0.00     0.020 A 
ATOM     90  C   UNL A   1      39.478  36.056  39.332  1.00  0.00     0.054 A 
BRANCH  90  91
ATOM     91  S   UNL A   1      39.505  37.146  40.782  1.00  0.00     0.124 S 
ATOM     92  O   UNL A   1      38.483  38.132  40.443  1.00  0.00    -0.237 OA
ATOM     93  O   UNL A   1      39.164  36.237  41.874  1.00  0.00    -0.237 OA
ATOM     94  O   UNL A   1      40.876  37.649  40.806  1.00  0.00    -0.744 OA
ENDBRANCH  90  91
ENDBRANCH  64  85
ENDBRANCH  38  39
ENDBRANCH  30  33
ENDBRANCH  28  29
ENDBRANCH  27  28
ENDBRANCH   1  27
TORSDOF 18
ENDMDL
MODEL 3
REMARK VINA RESULT:     -11.3      5.750     12.646
REMARK SMILES CC(C)c1cc2c(cc1Cl)C=C(C(=O)NCCCCCCNC(=O)c1ccc(-c3c4nc(c(-c5ccc(S(=O)(=O)[O-])cc5)c5ccc([nH]5)c(-c5ccc(S(=O)(=O)[O-])cc5)c5nc(c(-c6ccc(S(=O)(=O)[O-])cc6)c6ccc3[nH]6)C=C5)C=C4)cc1)[C@@H](C(F)(F)F)O2
REMARK SMILES IDX 19 1 18 2 17 3 16 4 15 5 13 6 14 7 12 9 4 10 5 11 9 12 6 13
REMARK SMILES IDX 8 14 10 15 7 16 90 17 11 18 85 19 2 20 1 21 3 22 86 23 87 24
REMARK SMILES IDX 88 25 89 26 20 27 21 28 22 29 23 30 24 32 25 33 26 34 84 35
REMARK SMILES IDX 27 36 83 37 28 38 29 39 30 40 77 41 31 42 82 43 76 44 78 45
REMARK SMILES IDX 32 46 81 47 75 48 74 49 33 51 63 52 44 53 62 54 45 55 48 56
REMARK SMILES IDX 61 57 79 58 46 59 47 60 60 62 80 63 49 64 34 65 35 66 43 67
REMARK SMILES IDX 36 68 42 69 37 70 38 71 39 72 40 73 41 74 64 75 65 76 73 77
REMARK SMILES IDX 66 78 72 79 67 80 68 81 69 82 70 83 71 84 50 85 51 86 59 87
REMARK SMILES IDX 52 88 58 89 53 90 54 91 55 92 56 93 57 94
REMARK H PARENT 15 8 22 31 78 50 48 61
REMARK Flexibility Score: inf
ROOT
ATOM      1  C   UNL A   1      34.399  33.982  32.240  1.00  0.00     0.002 C 
ENDROOT
BRANCH   1   2
ATOM      2  C   UNL A   1      35.466  34.976  32.722  1.00  0.00     0.002 C 
BRANCH   2   3
ATOM      3  C   UNL A   1      36.919  34.559  32.476  1.00  0.00     0.021 C 
BRANCH   3   4
ATOM      4  C   UNL A   1      37.827  34.710  33.694  1.00  0.00     0.116 C 
BRANCH   4   5
ATOM      5  N   UNL A   1      37.199  34.202  34.901  1.00  0.00    -0.352 N 
ATOM      6  C   UNL A   1      37.408  33.200  35.788  1.00  0.00     0.251 C 
ATOM      7  O   UNL A   1      36.606  33.159  36.728  1.00  0.00    -0.270 OA
ATOM      8  H   UNL A   1      36.404  34.730  35.140  1.00  0.00     0.163 HD
BRANCH   6   9
ATOM      9  C   UNL A   1      38.495  32.179  35.707  1.00  0.00     0.067 C 
ATOM     10  C   UNL A   1      42.851  29.632  36.239  1.00  0.00    -0.023 A 
ATOM     11  C   UNL A   1      41.532  29.296  35.886  1.00  0.00     0.052 A 
ATOM     12  C   UNL A   1      43.104  30.981  36.569  1.00  0.00     0.045 A 
ATOM     13  C   UNL A   1      40.523  30.259  35.854  1.00  0.00     0.128 A 
ATOM     14  C   UNL A   1      42.075  31.936  36.577  1.00  0.00     0.032 A 
ATOM     15  Cl  UNL A   1      44.689  31.548  36.973  1.00  0.00    -0.084 Cl
ATOM     16  C   UNL A   1      40.777  31.576  36.222  1.00  0.00     0.019 A 
ATOM     17  O   UNL A   1      39.284  29.823  35.489  1.00  0.00    -0.475 OA
ATOM     18  C   UNL A   1      39.671  32.525  36.266  1.00  0.00     0.025 C 
ATOM     19  C   UNL A   1      38.358  30.844  35.026  1.00  0.00     0.314 C 
BRANCH  10  20
ATOM     20  C   UNL A   1      43.941  28.565  36.277  1.00  0.00     0.014 C 
ATOM     21  C   UNL A   1      43.374  27.224  36.762  1.00  0.00     0.012 C 
ATOM     22  C   UNL A   1      44.668  28.331  34.942  1.00  0.00     0.012 C 
ENDBRANCH  10  20
BRANCH  19  23
ATOM     23  C   UNL A   1      38.439  30.964  33.493  1.00  0.00     0.429 C 
ATOM     24  F   UNL A   1      39.383  31.866  33.132  1.00  0.00    -0.167 F 
ATOM     25  F   UNL A   1      38.781  29.793  32.904  1.00  0.00    -0.167 F 
ATOM     26  F   UNL A   1      37.268  31.353  32.940  1.00  0.00    -0.167 F 
ENDBRANCH  19  23
ENDBRANCH   6   9
ENDBRANCH   4   5
ENDBRANCH   3   4
ENDBRANCH   2   3
ENDBRANCH   1   2
BRANCH   1  27
ATOM     27  C   UNL A   1      34.391  33.693  30.738  1.00  0.00     0.021 C 
BRANCH  27  28
ATOM     28  C   UNL A   1      34.994  32.351  30.337  1.00  0.00     0.116 C 
BRANCH  28  29
ATOM     29  N   UNL A   1      34.287  31.731  29.229  1.00  0.00    -0.352 N 
ATOM     30  C   UNL A   1      34.751  30.823  28.306  1.00  0.00     0.251 C 
ATOM     31  H   UNL A   1      33.345  31.997  29.124  1.00  0.00     0.163 HD
ATOM     32  O   UNL A   1      34.059  30.517  27.340  1.00  0.00    -0.269 OA
BRANCH  30  33
ATOM     33  C   UNL A   1      36.102  30.246  28.470  1.00  0.00     0.039 A 
ATOM     34  C   UNL A   1      36.485  29.665  29.682  1.00  0.00     0.014 A 
ATOM     35  C   UNL A   1      37.005  30.310  27.404  1.00  0.00     0.014 A 
ATOM     36  C   UNL A   1      37.810  29.290  29.877  1.00  0.00     0.010 A 
ATOM     37  C   UNL A   1      38.317  29.862  27.579  1.00  0.00     0.010 A 
ATOM     38  C   UNL A   1      38.742  29.389  28.830  1.00  0.00    -0.014 A 
BRANCH  38  39
ATOM     39  C   UNL A   1      40.153  28.986  29.067  1.00  0.00     0.031 A 
ATOM     40  C   UNL A   1      41.099  29.894  29.807  1.00  0.00     0.074 A 
ATOM     41  C   UNL A   1      40.563  27.766  28.667  1.00  0.00     0.049 A 
ATOM     42  N   UNL A   1      42.351  29.686  30.127  1.00  0.00    -0.248 NA
ATOM     43  C   UNL A   1      40.579  31.199  30.248  1.00  0.00     0.031 C 
ATOM     44  C   UNL A   1      39.726  26.791  27.963  1.00  0.00     0.029 A 
ATOM     45  N   UNL A   1      41.766  27.125  28.818  1.00  0.00    -0.354 N 
ATOM     46  C   UNL A   1      42.770  30.832  30.794  1.00  0.00     0.074 A 
ATOM     47  C   UNL A   1      41.650  31.746  30.809  1.00  0.00     0.031 C 
ATOM     48  C   UNL A   1      40.420  25.656  27.801  1.00  0.00     0.029 A 
ATOM     49  C   UNL A   1      41.771  25.842  28.324  1.00  0.00     0.049 A 
ATOM     50  H   UNL A   1      42.551  27.544  29.239  1.00  0.00     0.167 HD
ATOM     51  C   UNL A   1      43.975  31.089  31.355  1.00  0.00     0.031 A 
ATOM     52  C   UNL A   1      42.749  24.915  28.285  1.00  0.00     0.031 A 
ATOM     53  C   UNL A   1      45.084  30.169  31.345  1.00  0.00     0.049 A 
ATOM     54  C   UNL A   1      44.092  25.243  28.868  1.00  0.00     0.074 A 
ATOM     55  C   UNL A   1      46.343  30.343  31.891  1.00  0.00     0.029 A 
ATOM     56  N   UNL A   1      45.067  28.908  30.770  1.00  0.00    -0.354 N 
ATOM     57  N   UNL A   1      44.470  26.337  29.486  1.00  0.00    -0.248 NA
ATOM     58  C   UNL A   1      45.142  24.223  28.748  1.00  0.00     0.031 C 
ATOM     59  C   UNL A   1      47.106  29.210  31.599  1.00  0.00     0.029 A 
ATOM     60  C   UNL A   1      46.303  28.302  30.929  1.00  0.00     0.049 A 
ATOM     61  H   UNL A   1      44.293  28.502  30.317  1.00  0.00     0.167 HD
ATOM     62  C   UNL A   1      45.800  26.136  29.831  1.00  0.00     0.074 A 
ATOM     63  C   UNL A   1      46.156  24.807  29.375  1.00  0.00     0.031 C 
ATOM     64  C   UNL A   1      46.650  26.982  30.463  1.00  0.00     0.031 A 
BRANCH  51  65
ATOM     65  C   UNL A   1      44.178  32.416  32.038  1.00  0.00    -0.014 A 
ATOM     66  C   UNL A   1      43.828  32.567  33.393  1.00  0.00     0.010 A 
ATOM     67  C   UNL A   1      44.595  33.545  31.310  1.00  0.00     0.010 A 
ATOM     68  C   UNL A   1      43.863  33.826  34.000  1.00  0.00     0.020 A 
ATOM     69  C   UNL A   1      44.656  34.801  31.921  1.00  0.00     0.020 A 
ATOM     70  C   UNL A   1      44.267  34.937  33.257  1.00  0.00     0.054 A 
BRANCH  70  71
ATOM     71  S   UNL A   1      44.285  36.567  34.053  1.00  0.00     0.124 S 
ATOM     72  O   UNL A   1      44.512  36.223  35.454  1.00  0.00    -0.237 OA
ATOM     73  O   UNL A   1      45.393  37.240  33.381  1.00  0.00    -0.237 OA
ATOM     74  O   UNL A   1      42.963  37.110  33.747  1.00  0.00    -0.744 OA
ENDBRANCH  70  71
ENDBRANCH  51  65
BRANCH  52  75
ATOM     75  C   UNL A   1      42.459  23.588  27.677  1.00  0.00    -0.014 A 
ATOM     76  C   UNL A   1      41.894  22.559  28.454  1.00  0.00     0.010 A 
ATOM     77  C   UNL A   1      42.841  23.313  26.352  1.00  0.00     0.010 A 
ATOM     78  C   UNL A   1      41.779  21.265  27.944  1.00  0.00     0.020 A 
ATOM     79  C   UNL A   1      42.700  22.024  25.827  1.00  0.00     0.020 A 
ATOM     80  C   UNL A   1      42.202  21.001  26.638  1.00  0.00     0.054 A 
BRANCH  80  81
ATOM     81  S   UNL A   1      42.108  19.300  26.016  1.00  0.00     0.124 S 
ATOM     82  O   UNL A   1      42.597  18.537  27.162  1.00  0.00    -0.237 OA
ATOM     83  O   UNL A   1      40.686  19.145  25.717  1.00  0.00    -0.237 OA
ATOM     84  O   UNL A   1      42.988  19.315  24.852  1.00  0.00    -0.744 OA
ENDBRANCH  80  81
ENDBRANCH  52  75
BRANCH  64  85
ATOM     85  C   UNL A   1      48.062  26.522  30.703  1.00  0.00    -0.014 A 
ATOM     86  C   UNL A   1      48.389  25.866  31.905  1.00  0.00     0.010 A 
ATOM     87  C   UNL A   1      49.088  26.862  29.805  1.00  0.00     0.010 A 
ATOM     88  C   UNL A   1      49.720  25.592  32.222  1.00  0.00     0.020 A 
ATOM     89  C   UNL A   1      50.420  26.567  30.108  1.00  0.00     0.020 A 
ATOM     90  C   UNL A   1      50.729  25.958  31.327  1.00  0.00     0.054 A 
BRANCH  90  91
ATOM     91  S   UNL A   1      52.457  25.634  31.774  1.00  0.00     0.124 S 
ATOM     92  O   UNL A   1      53.158  25.937  30.530  1.00  0.00    -0.237 OA
ATOM     93  O   UNL A   1      52.687  26.571  32.871  1.00  0.00    -0.237 OA
ATOM     94  O   UNL A   1      52.452  24.225  32.161  1.00  0.00    -0.744 OA
ENDBRANCH  90  91
ENDBRANCH  64  85
ENDBRANCH  38  39
ENDBRANCH  30  33
ENDBRANCH  28  29
ENDBRANCH  27  28
ENDBRANCH   1  27
TORSDOF 18
ENDMDL
