MODEL 1
REMARK VINA RESULT:     -12.1      0.000      0.000
REMARK SMILES CCc1cccc2c3c([nH]c12)[C@](CC)(CC(=O)NCCCCCCNC(=O)c1ccc(-c2c4nc(c(-c5ccc(S(=O)(=O)[O-])cc5)c5ccc([nH]5)c(-c5ccc(S(=O)(=O)[O-])cc5)c5nc(c(-c6ccc(S(=O)(=O)[O-])cc6)c6ccc2[nH]6)C=C5)C=C4)cc1)OCC3
REMARK SMILES IDX 22 1 21 2 20 3 19 4 18 5 16 6 17 7 15 9 12 10 3 11 4 12
REMARK SMILES IDX 11 13 5 14 7 15 10 16 6 17 8 18 9 19 90 21 89 22 88 23 2 24
REMARK SMILES IDX 1 25 13 26 14 27 23 28 24 29 25 30 26 31 27 33 28 34 29 35
REMARK SMILES IDX 87 36 30 37 86 38 31 39 32 40 33 41 80 42 34 43 85 44 79 45
REMARK SMILES IDX 81 46 35 47 84 48 78 49 77 50 36 52 66 53 47 54 65 55 48 56
REMARK SMILES IDX 51 57 64 58 82 59 49 60 50 61 63 63 83 64 52 65 37 66 38 67
REMARK SMILES IDX 46 68 39 69 45 70 40 71 41 72 42 73 43 74 44 75 67 76 68 77
REMARK SMILES IDX 76 78 69 79 75 80 70 81 71 82 72 83 73 84 74 85 53 86 54 87
REMARK SMILES IDX 62 88 55 89 61 90 56 91 57 92 58 93 59 94 60 95
REMARK H PARENT 18 8 10 20 25 32 81 51 51 62
REMARK Flexibility Score: inf
ROOT
ATOM      1  C   UNL A   1      40.054  22.579  27.435  1.00  0.00     0.002 C 
ENDROOT
BRANCH   1   2
ATOM      2  C   UNL A   1      39.921  24.096  27.436  1.00  0.00     0.002 C 
BRANCH   2   3
ATOM      3  C   UNL A   1      38.880  24.660  26.453  1.00  0.00     0.021 C 
BRANCH   3   4
ATOM      4  C   UNL A   1      37.711  23.726  26.097  1.00  0.00     0.116 C 
BRANCH   4   5
ATOM      5  N   UNL A   1      37.424  23.620  24.669  1.00  0.00    -0.356 N 
ATOM      6  C   UNL A   1      36.457  22.953  23.970  1.00  0.00     0.223 C 
ATOM      7  O   UNL A   1      36.512  22.977  22.738  1.00  0.00    -0.275 OA
ATOM      8  H   UNL A   1      38.047  24.127  24.100  1.00  0.00     0.163 HD
BRANCH   6   9
ATOM      9  C   UNL A   1      35.324  22.260  24.686  1.00  0.00     0.142 C 
BRANCH   9  10
ATOM     10  C   UNL A   1      33.933  22.935  24.731  1.00  0.00     0.117 C 
ATOM     11  C   UNL A   1      33.791  27.994  25.213  1.00  0.00    -0.024 A 
ATOM     12  C   UNL A   1      33.466  29.012  24.284  1.00  0.00     0.006 A 
ATOM     13  C   UNL A   1      33.863  26.681  24.700  1.00  0.00     0.049 A 
ATOM     14  C   UNL A   1      33.246  28.750  22.936  1.00  0.00     0.001 A 
ATOM     15  C   UNL A   1      33.587  26.402  23.363  1.00  0.00     0.003 A 
ATOM     16  N   UNL A   1      34.150  25.465  25.309  1.00  0.00    -0.356 N 
ATOM     17  C   UNL A   1      33.298  27.445  22.465  1.00  0.00     0.010 A 
ATOM     18  C   UNL A   1      33.566  24.998  23.235  1.00  0.00    -0.014 A 
ATOM     19  C   UNL A   1      33.937  24.424  24.431  1.00  0.00     0.052 A 
ATOM     20  H   UNL A   1      34.462  25.361  26.236  1.00  0.00     0.166 HD
ATOM     21  C   UNL A   1      33.073  24.213  22.096  1.00  0.00     0.066 C 
ATOM     22  C   UNL A   1      33.083  22.731  22.425  1.00  0.00     0.166 C 
ATOM     23  O   UNL A   1      32.976  22.358  23.810  1.00  0.00    -0.368 OA
BRANCH  11  24
ATOM     24  C   UNL A   1      34.003  28.361  26.657  1.00  0.00     0.034 C 
ATOM     25  C   UNL A   1      32.853  29.195  27.204  1.00  0.00     0.009 C 
ENDBRANCH  11  24
BRANCH  10  26
ATOM     26  C   UNL A   1      33.315  22.690  26.148  1.00  0.00     0.039 C 
ATOM     27  C   UNL A   1      31.794  22.853  26.242  1.00  0.00     0.007 C 
ENDBRANCH  10  26
ENDBRANCH   9  10
ENDBRANCH   6   9
ENDBRANCH   4   5
ENDBRANCH   3   4
ENDBRANCH   2   3
ENDBRANCH   1   2
BRANCH   1  28
ATOM     28  C   UNL A   1      40.923  22.017  26.311  1.00  0.00     0.021 C 
BRANCH  28  29
ATOM     29  C   UNL A   1      42.430  22.022  26.591  1.00  0.00     0.116 C 
BRANCH  29  30
ATOM     30  N   UNL A   1      43.236  22.552  25.509  1.00  0.00    -0.352 N 
ATOM     31  C   UNL A   1      43.720  23.805  25.228  1.00  0.00     0.251 C 
ATOM     32  H   UNL A   1      43.485  21.876  24.840  1.00  0.00     0.163 HD
ATOM     33  O   UNL A   1      44.486  23.898  24.266  1.00  0.00    -0.269 OA
BRANCH  31  34
ATOM     34  C   UNL A   1      43.328  25.040  25.963  1.00  0.00     0.039 A 
ATOM     35  C   UNL A   1      43.721  25.358  27.261  1.00  0.00     0.014 A 
ATOM     36  C   UNL A   1      42.469  25.930  25.291  1.00  0.00     0.014 A 
ATOM     37  C   UNL A   1      43.169  26.446  27.920  1.00  0.00     0.010 A 
ATOM     38  C   UNL A   1      41.962  27.063  25.927  1.00  0.00     0.010 A 
ATOM     39  C   UNL A   1      42.280  27.297  27.260  1.00  0.00    -0.014 A 
BRANCH  39  40
ATOM     40  C   UNL A   1      41.847  28.482  28.000  1.00  0.00     0.031 A 
ATOM     41  C   UNL A   1      42.807  29.620  27.956  1.00  0.00     0.074 A 
ATOM     42  C   UNL A   1      40.668  28.630  28.632  1.00  0.00     0.049 A 
ATOM     43  N   UNL A   1      43.481  30.130  28.935  1.00  0.00    -0.248 NA
ATOM     44  C   UNL A   1      43.147  30.171  26.635  1.00  0.00     0.031 C 
ATOM     45  C   UNL A   1      39.491  27.764  28.554  1.00  0.00     0.029 A 
ATOM     46  N   UNL A   1      40.246  29.666  29.414  1.00  0.00    -0.354 N 
ATOM     47  C   UNL A   1      44.198  31.191  28.389  1.00  0.00     0.074 A 
ATOM     48  C   UNL A   1      44.065  31.081  26.957  1.00  0.00     0.031 C 
ATOM     49  C   UNL A   1      38.423  28.423  29.059  1.00  0.00     0.029 A 
ATOM     50  C   UNL A   1      38.879  29.674  29.642  1.00  0.00     0.049 A 
ATOM     51  H   UNL A   1      40.856  30.345  29.783  1.00  0.00     0.167 HD
ATOM     52  C   UNL A   1      44.682  32.207  29.151  1.00  0.00     0.031 A 
ATOM     53  C   UNL A   1      38.164  30.664  30.226  1.00  0.00     0.031 A 
ATOM     54  C   UNL A   1      44.685  31.885  30.551  1.00  0.00     0.049 A 
ATOM     55  C   UNL A   1      39.076  31.448  31.087  1.00  0.00     0.074 A 
ATOM     56  C   UNL A   1      45.412  31.053  31.372  1.00  0.00     0.029 A 
ATOM     57  N   UNL A   1      43.552  32.244  31.233  1.00  0.00    -0.354 N 
ATOM     58  N   UNL A   1      39.653  30.966  32.151  1.00  0.00    -0.248 NA
ATOM     59  C   UNL A   1      39.590  32.732  30.629  1.00  0.00     0.031 C 
ATOM     60  C   UNL A   1      44.532  30.695  32.436  1.00  0.00     0.029 A 
ATOM     61  C   UNL A   1      43.312  31.345  32.243  1.00  0.00     0.049 A 
ATOM     62  H   UNL A   1      42.993  33.029  31.029  1.00  0.00     0.167 HD
ATOM     63  C   UNL A   1      40.849  31.650  32.240  1.00  0.00     0.074 A 
ATOM     64  C   UNL A   1      40.670  32.831  31.407  1.00  0.00     0.031 C 
ATOM     65  C   UNL A   1      41.972  31.048  32.726  1.00  0.00     0.031 A 
BRANCH  52  66
ATOM     66  C   UNL A   1      44.794  33.630  28.657  1.00  0.00    -0.014 A 
ATOM     67  C   UNL A   1      43.666  34.459  28.484  1.00  0.00     0.010 A 
ATOM     68  C   UNL A   1      46.057  34.254  28.595  1.00  0.00     0.010 A 
ATOM     69  C   UNL A   1      43.778  35.820  28.205  1.00  0.00     0.020 A 
ATOM     70  C   UNL A   1      46.181  35.633  28.357  1.00  0.00     0.020 A 
ATOM     71  C   UNL A   1      45.038  36.403  28.147  1.00  0.00     0.054 A 
BRANCH  71  72
ATOM     72  S   UNL A   1      45.134  38.186  27.856  1.00  0.00     0.124 S 
ATOM     73  O   UNL A   1      43.739  38.590  28.016  1.00  0.00    -0.237 OA
ATOM     74  O   UNL A   1      46.042  38.627  28.910  1.00  0.00    -0.237 OA
ATOM     75  O   UNL A   1      45.660  38.286  26.497  1.00  0.00    -0.744 OA
ENDBRANCH  71  72
ENDBRANCH  52  66
BRANCH  53  76
ATOM     76  C   UNL A   1      36.845  31.188  29.799  1.00  0.00    -0.014 A 
ATOM     77  C   UNL A   1      36.653  31.586  28.460  1.00  0.00     0.010 A 
ATOM     78  C   UNL A   1      35.907  31.612  30.759  1.00  0.00     0.010 A 
ATOM     79  C   UNL A   1      35.622  32.463  28.110  1.00  0.00     0.020 A 
ATOM     80  C   UNL A   1      34.875  32.497  30.414  1.00  0.00     0.020 A 
ATOM     81  C   UNL A   1      34.769  32.950  29.099  1.00  0.00     0.054 A 
BRANCH  81  82
ATOM     82  S   UNL A   1      33.599  34.264  28.656  1.00  0.00     0.124 S 
ATOM     83  O   UNL A   1      33.111  34.687  29.971  1.00  0.00    -0.237 OA
ATOM     84  O   UNL A   1      34.459  35.232  27.972  1.00  0.00    -0.237 OA
ATOM     85  O   UNL A   1      32.622  33.596  27.814  1.00  0.00    -0.744 OA
ENDBRANCH  81  82
ENDBRANCH  53  76
BRANCH  65  86
ATOM     86  C   UNL A   1      41.809  29.857  33.644  1.00  0.00    -0.014 A 
ATOM     87  C   UNL A   1      41.844  30.100  35.030  1.00  0.00     0.010 A 
ATOM     88  C   UNL A   1      41.718  28.521  33.205  1.00  0.00     0.010 A 
ATOM     89  C   UNL A   1      41.810  29.050  35.950  1.00  0.00     0.020 A 
ATOM     90  C   UNL A   1      41.651  27.463  34.125  1.00  0.00     0.020 A 
ATOM     91  C   UNL A   1      41.718  27.736  35.492  1.00  0.00     0.054 A 
BRANCH  91  92
ATOM     92  S   UNL A   1      41.689  26.402  36.721  1.00  0.00     0.124 S 
ATOM     93  O   UNL A   1      40.428  26.650  37.417  1.00  0.00    -0.237 OA
ATOM     94  O   UNL A   1      41.714  25.198  35.892  1.00  0.00    -0.237 OA
ATOM     95  O   UNL A   1      42.892  26.627  37.518  1.00  0.00    -0.744 OA
ENDBRANCH  91  92
ENDBRANCH  65  86
ENDBRANCH  39  40
ENDBRANCH  31  34
ENDBRANCH  29  30
ENDBRANCH  28  29
ENDBRANCH   1  28
TORSDOF 19
ENDMDL
MODEL 2
REMARK VINA RESULT:     -11.5      3.063      9.579
REMARK SMILES CCc1cccc2c3c([nH]c12)[C@](CC)(CC(=O)NCCCCCCNC(=O)c1ccc(-c2c4nc(c(-c5ccc(S(=O)(=O)[O-])cc5)c5ccc([nH]5)c(-c5ccc(S(=O)(=O)[O-])cc5)c5nc(c(-c6ccc(S(=O)(=O)[O-])cc6)c6ccc2[nH]6)C=C5)C=C4)cc1)OCC3
REMARK SMILES IDX 22 1 21 2 20 3 19 4 18 5 16 6 17 7 15 9 12 10 3 11 4 12
REMARK SMILES IDX 11 13 5 14 7 15 10 16 6 17 8 18 9 19 90 21 89 22 88 23 2 24
REMARK SMILES IDX 1 25 13 26 14 27 23 28 24 29 25 30 26 31 27 33 28 34 29 35
REMARK SMILES IDX 87 36 30 37 86 38 31 39 32 40 33 41 80 42 34 43 85 44 79 45
REMARK SMILES IDX 81 46 35 47 84 48 78 49 77 50 36 52 66 53 47 54 65 55 48 56
REMARK SMILES IDX 51 57 64 58 82 59 49 60 50 61 63 63 83 64 52 65 37 66 38 67
REMARK SMILES IDX 46 68 39 69 45 70 40 71 41 72 42 73 43 74 44 75 67 76 68 77
REMARK SMILES IDX 76 78 69 79 75 80 70 81 71 82 72 83 73 84 74 85 53 86 54 87
REMARK SMILES IDX 62 88 55 89 61 90 56 91 57 92 58 93 59 94 60 95
REMARK H PARENT 18 8 10 20 25 32 81 51 51 62
REMARK Flexibility Score: inf
ROOT
ATOM      1  C   UNL A   1      36.600  32.076  28.648  1.00  0.00     0.002 C 
ENDROOT
BRANCH   1   2
ATOM      2  C   UNL A   1      35.676  31.302  27.718  1.00  0.00     0.002 C 
BRANCH   2   3
ATOM      3  C   UNL A   1      35.616  29.785  27.974  1.00  0.00     0.021 C 
BRANCH   3   4
ATOM      4  C   UNL A   1      34.685  28.980  27.052  1.00  0.00     0.116 C 
BRANCH   4   5
ATOM      5  N   UNL A   1      33.455  28.507  27.681  1.00  0.00    -0.356 N 
ATOM      6  C   UNL A   1      32.194  28.297  27.199  1.00  0.00     0.223 C 
ATOM      7  O   UNL A   1      31.315  27.969  27.998  1.00  0.00    -0.275 OA
ATOM      8  H   UNL A   1      33.554  28.302  28.639  1.00  0.00     0.163 HD
BRANCH   6   9
ATOM      9  C   UNL A   1      31.904  28.404  25.722  1.00  0.00     0.142 C 
BRANCH   9  10
ATOM     10  C   UNL A   1      31.895  27.121  24.858  1.00  0.00     0.117 C 
ATOM     11  C   UNL A   1      35.259  23.489  26.012  1.00  0.00    -0.024 A 
ATOM     12  C   UNL A   1      35.094  22.223  26.623  1.00  0.00     0.006 A 
ATOM     13  C   UNL A   1      34.115  24.315  25.966  1.00  0.00     0.049 A 
ATOM     14  C   UNL A   1      33.883  21.810  27.169  1.00  0.00     0.001 A 
ATOM     15  C   UNL A   1      32.884  23.886  26.458  1.00  0.00     0.003 A 
ATOM     16  N   UNL A   1      33.916  25.590  25.454  1.00  0.00    -0.356 N 
ATOM     17  C   UNL A   1      32.768  22.633  27.086  1.00  0.00     0.010 A 
ATOM     18  C   UNL A   1      31.936  24.861  26.089  1.00  0.00    -0.014 A 
ATOM     19  C   UNL A   1      32.579  25.922  25.490  1.00  0.00     0.052 A 
ATOM     20  H   UNL A   1      34.629  26.177  25.112  1.00  0.00     0.166 HD
ATOM     21  C   UNL A   1      30.472  24.749  26.147  1.00  0.00     0.066 C 
ATOM     22  C   UNL A   1      29.819  25.962  25.509  1.00  0.00     0.166 C 
ATOM     23  O   UNL A   1      30.567  26.667  24.503  1.00  0.00    -0.368 OA
BRANCH  11  24
ATOM     24  C   UNL A   1      36.602  23.855  25.437  1.00  0.00     0.034 C 
ATOM     25  C   UNL A   1      37.621  22.740  25.625  1.00  0.00     0.009 C 
ENDBRANCH  11  24
BRANCH  10  26
ATOM     26  C   UNL A   1      32.580  27.448  23.488  1.00  0.00     0.039 C 
ATOM     27  C   UNL A   1      33.536  28.646  23.497  1.00  0.00     0.007 C 
ENDBRANCH  10  26
ENDBRANCH   9  10
ENDBRANCH   6   9
ENDBRANCH   4   5
ENDBRANCH   3   4
ENDBRANCH   2   3
ENDBRANCH   1   2
BRANCH   1  28
ATOM     28  C   UNL A   1      35.908  33.156  29.479  1.00  0.00     0.021 C 
BRANCH  28  29
ATOM     29  C   UNL A   1      34.586  32.729  30.127  1.00  0.00     0.116 C 
BRANCH  29  30
ATOM     30  N   UNL A   1      34.595  32.762  31.577  1.00  0.00    -0.352 N 
ATOM     31  C   UNL A   1      35.491  32.324  32.519  1.00  0.00     0.251 C 
ATOM     32  H   UNL A   1      33.795  33.185  31.963  1.00  0.00     0.163 HD
ATOM     33  O   UNL A   1      35.247  32.614  33.692  1.00  0.00    -0.269 OA
BRANCH  31  34
ATOM     34  C   UNL A   1      36.680  31.478  32.215  1.00  0.00     0.039 A 
ATOM     35  C   UNL A   1      37.999  31.926  32.204  1.00  0.00     0.014 A 
ATOM     36  C   UNL A   1      36.431  30.132  31.889  1.00  0.00     0.014 A 
ATOM     37  C   UNL A   1      39.020  31.106  31.747  1.00  0.00     0.010 A 
ATOM     38  C   UNL A   1      37.464  29.282  31.491  1.00  0.00     0.010 A 
ATOM     39  C   UNL A   1      38.755  29.785  31.378  1.00  0.00    -0.014 A 
BRANCH  39  40
ATOM     40  C   UNL A   1      39.915  28.967  31.025  1.00  0.00     0.031 A 
ATOM     41  C   UNL A   1      40.847  28.699  32.155  1.00  0.00     0.074 A 
ATOM     42  C   UNL A   1      40.150  28.411  29.822  1.00  0.00     0.049 A 
ATOM     43  N   UNL A   1      42.068  29.103  32.292  1.00  0.00    -0.248 NA
ATOM     44  C   UNL A   1      40.305  28.000  33.331  1.00  0.00     0.031 C 
ATOM     45  C   UNL A   1      39.237  28.310  28.683  1.00  0.00     0.029 A 
ATOM     46  N   UNL A   1      41.252  27.721  29.404  1.00  0.00    -0.354 N 
ATOM     47  C   UNL A   1      42.516  28.556  33.491  1.00  0.00     0.074 A 
ATOM     48  C   UNL A   1      41.355  28.010  34.151  1.00  0.00     0.031 C 
ATOM     49  C   UNL A   1      39.725  27.406  27.804  1.00  0.00     0.029 A 
ATOM     50  C   UNL A   1      41.052  27.001  28.237  1.00  0.00     0.049 A 
ATOM     51  H   UNL A   1      42.110  27.734  29.887  1.00  0.00     0.167 HD
ATOM     52  C   UNL A   1      43.838  28.404  33.769  1.00  0.00     0.031 A 
ATOM     53  C   UNL A   1      41.898  26.098  27.691  1.00  0.00     0.031 A 
ATOM     54  C   UNL A   1      44.673  29.170  32.886  1.00  0.00     0.049 A 
ATOM     55  C   UNL A   1      43.267  26.400  28.164  1.00  0.00     0.074 A 
ATOM     56  C   UNL A   1      44.964  30.504  32.710  1.00  0.00     0.029 A 
ATOM     57  N   UNL A   1      45.088  28.509  31.759  1.00  0.00    -0.354 N 
ATOM     58  N   UNL A   1      43.912  27.488  27.853  1.00  0.00    -0.248 NA
ATOM     59  C   UNL A   1      43.862  25.608  29.233  1.00  0.00     0.031 C 
ATOM     60  C   UNL A   1      45.286  30.650  31.329  1.00  0.00     0.029 A 
ATOM     61  C   UNL A   1      45.213  29.397  30.718  1.00  0.00     0.049 A 
ATOM     62  H   UNL A   1      45.269  27.543  31.704  1.00  0.00     0.167 HD
ATOM     63  C   UNL A   1      44.726  27.734  28.942  1.00  0.00     0.074 A 
ATOM     64  C   UNL A   1      44.792  26.468  29.656  1.00  0.00     0.031 C 
ATOM     65  C   UNL A   1      45.020  29.008  29.330  1.00  0.00     0.031 A 
BRANCH  52  66
ATOM     66  C   UNL A   1      44.383  27.264  34.597  1.00  0.00    -0.014 A 
ATOM     67  C   UNL A   1      44.982  26.128  34.012  1.00  0.00     0.010 A 
ATOM     68  C   UNL A   1      44.536  27.419  35.989  1.00  0.00     0.010 A 
ATOM     69  C   UNL A   1      45.645  25.164  34.770  1.00  0.00     0.020 A 
ATOM     70  C   UNL A   1      45.240  26.476  36.758  1.00  0.00     0.020 A 
ATOM     71  C   UNL A   1      45.775  25.345  36.142  1.00  0.00     0.054 A 
BRANCH  71  72
ATOM     72  S   UNL A   1      46.708  24.107  37.075  1.00  0.00     0.124 S 
ATOM     73  O   UNL A   1      45.880  22.916  36.904  1.00  0.00    -0.237 OA
ATOM     74  O   UNL A   1      47.990  24.088  36.376  1.00  0.00    -0.237 OA
ATOM     75  O   UNL A   1      46.745  24.653  38.429  1.00  0.00    -0.744 OA
ENDBRANCH  71  72
ENDBRANCH  52  66
BRANCH  53  76
ATOM     76  C   UNL A   1      41.547  24.787  27.094  1.00  0.00    -0.014 A 
ATOM     77  C   UNL A   1      40.670  23.921  27.780  1.00  0.00     0.010 A 
ATOM     78  C   UNL A   1      42.324  24.254  26.049  1.00  0.00     0.010 A 
ATOM     79  C   UNL A   1      40.648  22.552  27.503  1.00  0.00     0.020 A 
ATOM     80  C   UNL A   1      42.310  22.879  25.771  1.00  0.00     0.020 A 
ATOM     81  C   UNL A   1      41.503  22.032  26.532  1.00  0.00     0.054 A 
BRANCH  81  82
ATOM     82  S   UNL A   1      41.621  20.230  26.363  1.00  0.00     0.124 S 
ATOM     83  O   UNL A   1      42.053  19.831  27.706  1.00  0.00    -0.237 OA
ATOM     84  O   UNL A   1      40.248  19.857  26.017  1.00  0.00    -0.237 OA
ATOM     85  O   UNL A   1      42.602  20.039  25.310  1.00  0.00    -0.744 OA
ENDBRANCH  81  82
ENDBRANCH  53  76
BRANCH  65  86
ATOM     86  C   UNL A   1      44.917  30.114  28.303  1.00  0.00    -0.014 A 
ATOM     87  C   UNL A   1      46.095  30.475  27.622  1.00  0.00     0.010 A 
ATOM     88  C   UNL A   1      43.749  30.863  28.055  1.00  0.00     0.010 A 
ATOM     89  C   UNL A   1      46.118  31.555  26.737  1.00  0.00     0.020 A 
ATOM     90  C   UNL A   1      43.757  31.930  27.142  1.00  0.00     0.020 A 
ATOM     91  C   UNL A   1      44.948  32.280  26.505  1.00  0.00     0.054 A 
BRANCH  91  92
ATOM     92  S   UNL A   1      45.025  33.683  25.358  1.00  0.00     0.124 S 
ATOM     93  O   UNL A   1      44.168  34.667  26.016  1.00  0.00    -0.237 OA
ATOM     94  O   UNL A   1      46.450  34.011  25.343  1.00  0.00    -0.237 OA
ATOM     95  O   UNL A   1      44.503  33.146  24.104  1.00  0.00    -0.744 OA
ENDBRANCH  91  92
ENDBRANCH  65  86
ENDBRANCH  39  40
ENDBRANCH  31  34
ENDBRANCH  29  30
ENDBRANCH  28  29
ENDBRANCH   1  28
TORSDOF 19
ENDMDL
MODEL 3
REMARK VINA RESULT:     -11.4      2.666      9.548
REMARK SMILES CCc1cccc2c3c([nH]c12)[C@](CC)(CC(=O)NCCCCCCNC(=O)c1ccc(-c2c4nc(c(-c5ccc(S(=O)(=O)[O-])cc5)c5ccc([nH]5)c(-c5ccc(S(=O)(=O)[O-])cc5)c5nc(c(-c6ccc(S(=O)(=O)[O-])cc6)c6ccc2[nH]6)C=C5)C=C4)cc1)OCC3
REMARK SMILES IDX 22 1 21 2 20 3 19 4 18 5 16 6 17 7 15 9 12 10 3 11 4 12
REMARK SMILES IDX 11 13 5 14 7 15 10 16 6 17 8 18 9 19 90 21 89 22 88 23 2 24
REMARK SMILES IDX 1 25 13 26 14 27 23 28 24 29 25 30 26 31 27 33 28 34 29 35
REMARK SMILES IDX 87 36 30 37 86 38 31 39 32 40 33 41 80 42 34 43 85 44 79 45
REMARK SMILES IDX 81 46 35 47 84 48 78 49 77 50 36 52 66 53 47 54 65 55 48 56
REMARK SMILES IDX 51 57 64 58 82 59 49 60 50 61 63 63 83 64 52 65 37 66 38 67
REMARK SMILES IDX 46 68 39 69 45 70 40 71 41 72 42 73 43 74 44 75 67 76 68 77
REMARK SMILES IDX 76 78 69 79 75 80 70 81 71 82 72 83 73 84 74 85 53 86 54 87
REMARK SMILES IDX 62 88 55 89 61 90 56 91 57 92 58 93 59 94 60 95
REMARK H PARENT 18 8 10 20 25 32 81 51 51 62
REMARK Flexibility Score: inf
ROOT
ATOM      1  C   UNL A   1      32.020  28.417  27.209  1.00  0.00     0.002 C 
ENDROOT
BRANCH   1   2
ATOM      2  C   UNL A   1      31.498  27.822  25.907  1.00  0.00     0.002 C 
BRANCH   2   3
ATOM      3  C   UNL A   1      30.484  26.676  26.076  1.00  0.00     0.021 C 
BRANCH   3   4
ATOM      4  C   UNL A   1      30.368  25.697  24.895  1.00  0.00     0.116 C 
BRANCH   4   5
ATOM      5  N   UNL A   1      30.279  24.289  25.273  1.00  0.00    -0.356 N 
ATOM      6  C   UNL A   1      31.206  23.397  25.731  1.00  0.00     0.223 C 
ATOM      7  O   UNL A   1      30.855  22.225  25.889  1.00  0.00    -0.275 OA
ATOM      8  H   UNL A   1      29.375  23.910  25.178  1.00  0.00     0.163 HD
BRANCH   6   9
ATOM      9  C   UNL A   1      32.601  23.847  26.090  1.00  0.00     0.142 C 
BRANCH   9  10
ATOM     10  C   UNL A   1      33.692  23.873  24.994  1.00  0.00     0.117 C 
ATOM     11  C   UNL A   1      38.545  23.770  26.506  1.00  0.00    -0.024 A 
ATOM     12  C   UNL A   1      39.519  22.744  26.449  1.00  0.00     0.006 A 
ATOM     13  C   UNL A   1      37.236  23.411  26.116  1.00  0.00     0.049 A 
ATOM     14  C   UNL A   1      39.215  21.446  26.052  1.00  0.00     0.001 A 
ATOM     15  C   UNL A   1      36.935  22.128  25.661  1.00  0.00     0.003 A 
ATOM     16  N   UNL A   1      36.058  24.143  26.049  1.00  0.00    -0.356 N 
ATOM     17  C   UNL A   1      37.924  21.129  25.649  1.00  0.00     0.010 A 
ATOM     18  C   UNL A   1      35.609  22.166  25.185  1.00  0.00    -0.014 A 
ATOM     19  C   UNL A   1      35.063  23.403  25.447  1.00  0.00     0.052 A 
ATOM     20  H   UNL A   1      35.948  25.062  26.383  1.00  0.00     0.166 HD
ATOM     21  C   UNL A   1      34.921  21.148  24.380  1.00  0.00     0.066 C 
ATOM     22  C   UNL A   1      33.555  21.647  23.944  1.00  0.00     0.166 C 
ATOM     23  O   UNL A   1      33.371  23.069  23.833  1.00  0.00    -0.368 OA
BRANCH  11  24
ATOM     24  C   UNL A   1      38.960  25.151  26.937  1.00  0.00     0.034 C 
ATOM     25  C   UNL A   1      39.668  25.135  28.284  1.00  0.00     0.009 C 
ENDBRANCH  11  24
BRANCH  10  26
ATOM     26  C   UNL A   1      33.799  25.335  24.444  1.00  0.00     0.039 C 
ATOM     27  C   UNL A   1      33.588  25.489  22.934  1.00  0.00     0.007 C 
ENDBRANCH  10  26
ENDBRANCH   9  10
ENDBRANCH   6   9
ENDBRANCH   4   5
ENDBRANCH   3   4
ENDBRANCH   2   3
ENDBRANCH   1   2
BRANCH   1  28
ATOM     28  C   UNL A   1      33.502  28.790  27.189  1.00  0.00     0.021 C 
BRANCH  28  29
ATOM     29  C   UNL A   1      33.799  30.247  26.817  1.00  0.00     0.116 C 
BRANCH  29  30
ATOM     30  N   UNL A   1      33.908  31.141  27.953  1.00  0.00    -0.352 N 
ATOM     31  C   UNL A   1      34.953  31.499  28.767  1.00  0.00     0.251 C 
ATOM     32  H   UNL A   1      33.060  31.580  28.188  1.00  0.00     0.163 HD
ATOM     33  O   UNL A   1      34.732  32.391  29.589  1.00  0.00    -0.269 OA
BRANCH  31  34
ATOM     34  C   UNL A   1      36.288  30.838  28.758  1.00  0.00     0.039 A 
ATOM     35  C   UNL A   1      36.504  29.476  28.563  1.00  0.00     0.014 A 
ATOM     36  C   UNL A   1      37.404  31.662  28.996  1.00  0.00     0.014 A 
ATOM     37  C   UNL A   1      37.767  28.928  28.738  1.00  0.00     0.010 A 
ATOM     38  C   UNL A   1      38.687  31.125  29.108  1.00  0.00     0.010 A 
ATOM     39  C   UNL A   1      38.861  29.748  29.022  1.00  0.00    -0.014 A 
BRANCH  39  40
ATOM     40  C   UNL A   1      40.167  29.092  29.070  1.00  0.00     0.031 A 
ATOM     41  C   UNL A   1      40.688  28.856  30.445  1.00  0.00     0.074 A 
ATOM     42  C   UNL A   1      40.865  28.649  28.008  1.00  0.00     0.049 A 
ATOM     43  N   UNL A   1      41.728  29.385  31.003  1.00  0.00    -0.248 NA
ATOM     44  C   UNL A   1      39.876  28.023  31.345  1.00  0.00     0.031 C 
ATOM     45  C   UNL A   1      40.412  28.523  26.622  1.00  0.00     0.029 A 
ATOM     46  N   UNL A   1      42.123  28.119  27.978  1.00  0.00    -0.354 N 
ATOM     47  C   UNL A   1      41.810  28.814  32.269  1.00  0.00     0.074 A 
ATOM     48  C   UNL A   1      40.576  28.097  32.476  1.00  0.00     0.031 C 
ATOM     49  C   UNL A   1      41.281  27.741  25.943  1.00  0.00     0.029 A 
ATOM     50  C   UNL A   1      42.424  27.460  26.796  1.00  0.00     0.049 A 
ATOM     51  H   UNL A   1      42.757  28.196  28.727  1.00  0.00     0.167 HD
ATOM     52  C   UNL A   1      42.968  28.794  32.981  1.00  0.00     0.031 A 
ATOM     53  C   UNL A   1      43.515  26.698  26.552  1.00  0.00     0.031 A 
ATOM     54  C   UNL A   1      43.946  29.707  32.459  1.00  0.00     0.049 A 
ATOM     55  C   UNL A   1      44.591  27.121  27.475  1.00  0.00     0.074 A 
ATOM     56  C   UNL A   1      44.104  31.074  32.426  1.00  0.00     0.029 A 
ATOM     57  N   UNL A   1      44.800  29.175  31.528  1.00  0.00    -0.354 N 
ATOM     58  N   UNL A   1      45.157  28.294  27.432  1.00  0.00    -0.248 NA
ATOM     59  C   UNL A   1      44.887  26.331  28.663  1.00  0.00     0.031 C 
ATOM     60  C   UNL A   1      44.853  31.349  31.244  1.00  0.00     0.029 A 
ATOM     61  C   UNL A   1      45.153  30.139  30.615  1.00  0.00     0.049 A 
ATOM     62  H   UNL A   1      45.112  28.242  31.514  1.00  0.00     0.167 HD
ATOM     63  C   UNL A   1      45.516  28.556  28.739  1.00  0.00     0.074 A 
ATOM     64  C   UNL A   1      45.499  27.260  29.402  1.00  0.00     0.031 C 
ATOM     65  C   UNL A   1      45.493  29.826  29.236  1.00  0.00     0.031 A 
BRANCH  52  66
ATOM     66  C   UNL A   1      43.344  27.670  33.918  1.00  0.00    -0.014 A 
ATOM     67  C   UNL A   1      43.801  26.420  33.449  1.00  0.00     0.010 A 
ATOM     68  C   UNL A   1      43.489  27.924  35.297  1.00  0.00     0.010 A 
ATOM     69  C   UNL A   1      44.318  25.449  34.305  1.00  0.00     0.020 A 
ATOM     70  C   UNL A   1      44.049  26.970  36.162  1.00  0.00     0.020 A 
ATOM     71  C   UNL A   1      44.444  25.730  35.660  1.00  0.00     0.054 A 
BRANCH  71  72
ATOM     72  S   UNL A   1      45.190  24.469  36.721  1.00  0.00     0.124 S 
ATOM     73  O   UNL A   1      46.608  24.610  36.402  1.00  0.00    -0.237 OA
ATOM     74  O   UNL A   1      44.798  24.910  38.057  1.00  0.00    -0.237 OA
ATOM     75  O   UNL A   1      44.569  23.227  36.269  1.00  0.00    -0.744 OA
ENDBRANCH  71  72
ENDBRANCH  52  66
BRANCH  53  76
ATOM     76  C   UNL A   1      43.559  25.399  25.840  1.00  0.00    -0.014 A 
ATOM     77  C   UNL A   1      42.717  24.347  26.254  1.00  0.00     0.010 A 
ATOM     78  C   UNL A   1      44.645  25.089  25.000  1.00  0.00     0.010 A 
ATOM     79  C   UNL A   1      43.010  23.019  25.930  1.00  0.00     0.020 A 
ATOM     80  C   UNL A   1      44.947  23.757  24.676  1.00  0.00     0.020 A 
ATOM     81  C   UNL A   1      44.150  22.730  25.182  1.00  0.00     0.054 A 
BRANCH  81  82
ATOM     82  S   UNL A   1      44.630  20.992  24.982  1.00  0.00     0.124 S 
ATOM     83  O   UNL A   1      45.989  20.991  25.530  1.00  0.00    -0.237 OA
ATOM     84  O   UNL A   1      43.632  20.295  25.796  1.00  0.00    -0.237 OA
ATOM     85  O   UNL A   1      44.533  20.763  23.551  1.00  0.00    -0.744 OA
ENDBRANCH  81  82
ENDBRANCH  53  76
BRANCH  65  86
ATOM     86  C   UNL A   1      45.601  30.980  28.264  1.00  0.00    -0.014 A 
ATOM     87  C   UNL A   1      46.893  31.452  27.963  1.00  0.00     0.010 A 
ATOM     88  C   UNL A   1      44.498  31.666  27.718  1.00  0.00     0.010 A 
ATOM     89  C   UNL A   1      47.083  32.580  27.162  1.00  0.00     0.020 A 
ATOM     90  C   UNL A   1      44.683  32.782  26.886  1.00  0.00     0.020 A 
ATOM     91  C   UNL A   1      45.975  33.242  26.631  1.00  0.00     0.054 A 
BRANCH  91  92
ATOM     92  S   UNL A   1      46.266  34.710  25.606  1.00  0.00     0.124 S 
ATOM     93  O   UNL A   1      47.666  34.545  25.221  1.00  0.00    -0.237 OA
ATOM     94  O   UNL A   1      45.300  34.545  24.522  1.00  0.00    -0.237 OA
ATOM     95  O   UNL A   1      45.999  35.830  26.505  1.00  0.00    -0.744 OA
ENDBRANCH  91  92
ENDBRANCH  65  86
ENDBRANCH  39  40
ENDBRANCH  31  34
ENDBRANCH  29  30
ENDBRANCH  28  29
ENDBRANCH   1  28
TORSDOF 19
ENDMDL
