MODEL 1
REMARK VINA RESULT:     -14.5      0.000      0.000
REMARK SMILES Cc1c(C(=O)NCCCCCCNC(=O)c2ccc(-c3c4nc(c(-c5ccc(S(=O)(=O)[O-])cc5)c5ccc([nH]5)c(-c5ccc(S(=O)(=O)[O-])cc5)c5nc(c(-c6ccc(S(=O)(=O)[O-])cc6)c6ccc3[nH]6)C=C5)C=C4)cc2)cccc1-n1c(C)cc(/C=C2/C(=O)NC(=S)N=C2O)c1C
REMARK SMILES IDX 9 1 8 2 7 3 6 4 4 5 5 6 3 8 1 9 2 10 79 11 76 12 78 13 77 14
REMARK SMILES IDX 80 15 81 16 95 17 82 18 83 19 84 20 96 21 85 22 86 23 87 24
REMARK SMILES IDX 93 25 88 26 89 27 92 28 90 29 91 31 94 32 10 34 11 35 12 36
REMARK SMILES IDX 13 37 14 38 15 40 16 41 17 42 75 43 18 44 74 45 19 46 20 47
REMARK SMILES IDX 21 48 68 49 22 50 73 51 67 52 69 53 23 54 72 55 66 56 65 57
REMARK SMILES IDX 24 59 54 60 35 61 53 62 36 63 39 64 52 65 70 66 37 67 38 68
REMARK SMILES IDX 51 70 71 71 40 72 25 73 26 74 34 75 27 76 33 77 28 78 29 79
REMARK SMILES IDX 30 80 31 81 32 82 55 83 56 84 64 85 57 86 63 87 58 88 59 89
REMARK SMILES IDX 60 90 61 91 62 92 41 93 42 94 50 95 43 96 49 97 44 98 45 99
REMARK SMILES IDX 46 100 47 101 48 102
REMARK H PARENT 6 7 89 30 94 33 13 39 69 58 39 69
REMARK Flexibility Score: inf
ROOT
ATOM      1  C   UNL A   1      31.149  29.257  25.656  1.00  0.00     0.002 C 
ENDROOT
BRANCH   1   2
ATOM      2  C   UNL A   1      30.961  28.511  24.331  1.00  0.00     0.021 C 
BRANCH   2   3
ATOM      3  C   UNL A   1      31.094  29.367  23.058  1.00  0.00     0.116 C 
BRANCH   3   4
ATOM      4  N   UNL A   1      32.402  29.181  22.454  1.00  0.00    -0.352 N 
ATOM      5  C   UNL A   1      33.442  28.303  22.570  1.00  0.00     0.251 C 
ATOM      6  O   UNL A   1      34.374  28.502  21.779  1.00  0.00    -0.269 OA
ATOM      7  H   UNL A   1      32.589  29.874  21.781  1.00  0.00     0.163 HD
BRANCH   5   8
ATOM      8  C   UNL A   1      33.557  27.117  23.484  1.00  0.00     0.044 A 
ATOM      9  C   UNL A   1      32.306  25.364  22.090  1.00  0.00     0.047 C 
ATOM     10  C   UNL A   1      33.041  25.813  23.317  1.00  0.00    -0.014 A 
ATOM     11  C   UNL A   1      33.186  24.900  24.399  1.00  0.00     0.049 A 
ATOM     12  C   UNL A   1      34.120  27.455  24.744  1.00  0.00     0.014 A 
ATOM     13  C   UNL A   1      33.741  25.261  25.632  1.00  0.00     0.027 A 
ATOM     14  C   UNL A   1      34.200  26.552  25.807  1.00  0.00     0.003 A 
BRANCH  11  15
ATOM     15  N   UNL A   1      32.650  23.591  24.321  1.00  0.00    -0.318 N 
ATOM     16  C   UNL A   1      31.466  23.180  24.901  1.00  0.00     0.020 A 
ATOM     17  C   UNL A   1      33.268  22.511  23.700  1.00  0.00     0.027 A 
ATOM     18  C   UNL A   1      30.634  24.048  25.777  1.00  0.00     0.065 C 
ATOM     19  C   UNL A   1      31.273  21.862  24.540  1.00  0.00     0.031 A 
ATOM     20  C   UNL A   1      32.393  21.439  23.773  1.00  0.00    -0.003 A 
ATOM     21  C   UNL A   1      34.657  22.632  23.158  1.00  0.00     0.065 C 
BRANCH  20  22
ATOM     22  C   UNL A   1      32.586  20.083  23.363  1.00  0.00     0.029 C 
ATOM     23  C   UNL A   1      32.773  18.945  24.057  1.00  0.00     0.102 C 
ATOM     24  C   UNL A   1      32.763  17.687  23.263  1.00  0.00     0.262 C 
ATOM     25  C   UNL A   1      32.913  18.723  25.494  1.00  0.00     0.226 C 
ATOM     26  O   UNL A   1      32.953  17.643  22.053  1.00  0.00    -0.269 OA
ATOM     27  N   UNL A   1      32.525  16.564  24.010  1.00  0.00    -0.297 N 
ATOM     28  N   UNL A   1      32.778  17.612  26.118  1.00  0.00    -0.184 NA
ATOM     29  C   UNL A   1      32.483  16.492  25.382  1.00  0.00     0.203 C 
ATOM     30  H   UNL A   1      32.368  15.727  23.516  1.00  0.00     0.172 HD
ATOM     31  S   UNL A   1      32.157  15.009  26.087  1.00  0.00    -0.038 S 
BRANCH  25  32
ATOM     32  O   UNL A   1      33.299  19.769  26.229  1.00  0.00    -0.493 OA
ATOM     33  H   UNL A   1      32.903  20.607  26.094  1.00  0.00     0.295 HD
ENDBRANCH  25  32
ENDBRANCH  20  22
ENDBRANCH  11  15
ENDBRANCH   5   8
ENDBRANCH   3   4
ENDBRANCH   2   3
ENDBRANCH   1   2
BRANCH   1  34
ATOM     34  C   UNL A   1      32.412  30.122  25.777  1.00  0.00     0.002 C 
BRANCH  34  35
ATOM     35  C   UNL A   1      32.986  30.259  27.187  1.00  0.00     0.021 C 
BRANCH  35  36
ATOM     36  C   UNL A   1      34.458  29.876  27.285  1.00  0.00     0.116 C 
BRANCH  36  37
ATOM     37  N   UNL A   1      35.335  31.038  27.340  1.00  0.00    -0.352 N 
ATOM     38  C   UNL A   1      36.516  31.123  28.061  1.00  0.00     0.251 C 
ATOM     39  H   UNL A   1      35.067  31.830  26.820  1.00  0.00     0.163 HD
ATOM     40  O   UNL A   1      36.952  32.151  28.544  1.00  0.00    -0.269 OA
BRANCH  38  41
ATOM     41  C   UNL A   1      37.327  29.889  28.068  1.00  0.00     0.039 A 
ATOM     42  C   UNL A   1      37.329  29.136  29.249  1.00  0.00     0.014 A 
ATOM     43  C   UNL A   1      38.282  29.697  27.075  1.00  0.00     0.014 A 
ATOM     44  C   UNL A   1      38.406  28.300  29.517  1.00  0.00     0.010 A 
ATOM     45  C   UNL A   1      39.391  28.938  27.384  1.00  0.00     0.010 A 
ATOM     46  C   UNL A   1      39.475  28.286  28.625  1.00  0.00    -0.014 A 
BRANCH  46  47
ATOM     47  C   UNL A   1      40.761  27.669  28.911  1.00  0.00     0.031 A 
ATOM     48  C   UNL A   1      40.953  26.231  28.621  1.00  0.00     0.074 A 
ATOM     49  C   UNL A   1      41.800  28.442  29.297  1.00  0.00     0.049 A 
ATOM     50  N   UNL A   1      41.919  25.508  29.076  1.00  0.00    -0.248 NA
ATOM     51  C   UNL A   1      39.995  25.470  27.824  1.00  0.00     0.031 C 
ATOM     52  C   UNL A   1      43.216  28.085  29.276  1.00  0.00     0.029 A 
ATOM     53  N   UNL A   1      41.768  29.647  30.004  1.00  0.00    -0.354 N 
ATOM     54  C   UNL A   1      41.901  24.319  28.381  1.00  0.00     0.074 A 
ATOM     55  C   UNL A   1      40.622  24.297  27.715  1.00  0.00     0.031 C 
ATOM     56  C   UNL A   1      43.862  28.851  30.169  1.00  0.00     0.029 A 
ATOM     57  C   UNL A   1      42.850  29.598  30.898  1.00  0.00     0.049 A 
ATOM     58  H   UNL A   1      41.120  30.381  29.896  1.00  0.00     0.167 HD
ATOM     59  C   UNL A   1      43.040  23.569  28.315  1.00  0.00     0.031 A 
ATOM     60  C   UNL A   1      42.711  29.602  32.257  1.00  0.00     0.031 A 
ATOM     61  C   UNL A   1      44.057  24.074  29.238  1.00  0.00     0.049 A 
ATOM     62  C   UNL A   1      43.310  28.370  32.909  1.00  0.00     0.074 A 
ATOM     63  C   UNL A   1      45.203  24.833  29.066  1.00  0.00     0.029 A 
ATOM     64  N   UNL A   1      43.790  24.069  30.603  1.00  0.00    -0.354 N 
ATOM     65  N   UNL A   1      43.605  27.276  32.261  1.00  0.00    -0.248 NA
ATOM     66  C   UNL A   1      43.598  28.261  34.336  1.00  0.00     0.031 C 
ATOM     67  C   UNL A   1      45.554  25.383  30.330  1.00  0.00     0.029 A 
ATOM     68  C   UNL A   1      44.648  24.923  31.270  1.00  0.00     0.049 A 
ATOM     69  H   UNL A   1      43.086  23.532  31.035  1.00  0.00     0.167 HD
ATOM     70  C   UNL A   1      44.120  26.347  33.126  1.00  0.00     0.074 A 
ATOM     71  C   UNL A   1      44.096  27.013  34.417  1.00  0.00     0.031 C 
ATOM     72  C   UNL A   1      44.523  25.109  32.711  1.00  0.00     0.031 A 
BRANCH  59  73
ATOM     73  C   UNL A   1      43.328  22.578  27.200  1.00  0.00    -0.014 A 
ATOM     74  C   UNL A   1      42.602  21.368  27.136  1.00  0.00     0.010 A 
ATOM     75  C   UNL A   1      44.358  22.717  26.250  1.00  0.00     0.010 A 
ATOM     76  C   UNL A   1      42.946  20.332  26.249  1.00  0.00     0.020 A 
ATOM     77  C   UNL A   1      44.729  21.688  25.372  1.00  0.00     0.020 A 
ATOM     78  C   UNL A   1      44.031  20.490  25.389  1.00  0.00     0.054 A 
BRANCH  78  79
ATOM     79  S   UNL A   1      44.529  19.123  24.311  1.00  0.00     0.124 S 
ATOM     80  O   UNL A   1      43.549  18.091  24.641  1.00  0.00    -0.237 OA
ATOM     81  O   UNL A   1      44.409  19.709  22.980  1.00  0.00    -0.237 OA
ATOM     82  O   UNL A   1      45.897  18.826  24.736  1.00  0.00    -0.744 OA
ENDBRANCH  78  79
ENDBRANCH  59  73
BRANCH  60  83
ATOM     83  C   UNL A   1      41.518  30.347  32.750  1.00  0.00    -0.014 A 
ATOM     84  C   UNL A   1      40.322  29.614  32.914  1.00  0.00     0.010 A 
ATOM     85  C   UNL A   1      41.674  31.553  33.456  1.00  0.00     0.010 A 
ATOM     86  C   UNL A   1      39.397  29.970  33.899  1.00  0.00     0.020 A 
ATOM     87  C   UNL A   1      40.741  31.916  34.441  1.00  0.00     0.020 A 
ATOM     88  C   UNL A   1      39.654  31.077  34.707  1.00  0.00     0.054 A 
BRANCH  88  89
ATOM     89  S   UNL A   1      38.660  31.287  36.218  1.00  0.00     0.124 S 
ATOM     90  O   UNL A   1      38.500  29.913  36.681  1.00  0.00    -0.237 OA
ATOM     91  O   UNL A   1      39.523  32.135  37.042  1.00  0.00    -0.237 OA
ATOM     92  O   UNL A   1      37.446  31.934  35.731  1.00  0.00    -0.744 OA
ENDBRANCH  88  89
ENDBRANCH  60  83
BRANCH  72  93
ATOM     93  C   UNL A   1      44.912  23.959  33.609  1.00  0.00    -0.014 A 
ATOM     94  C   UNL A   1      44.101  22.839  33.850  1.00  0.00     0.010 A 
ATOM     95  C   UNL A   1      46.226  23.925  34.137  1.00  0.00     0.010 A 
ATOM     96  C   UNL A   1      44.558  21.765  34.631  1.00  0.00     0.020 A 
ATOM     97  C   UNL A   1      46.707  22.841  34.876  1.00  0.00     0.020 A 
ATOM     98  C   UNL A   1      45.857  21.774  35.140  1.00  0.00     0.054 A 
BRANCH  98  99
ATOM     99  S   UNL A   1      46.463  20.353  36.085  1.00  0.00     0.124 S 
ATOM    100  O   UNL A   1      45.635  19.270  35.565  1.00  0.00    -0.237 OA
ATOM    101  O   UNL A   1      47.877  20.293  35.717  1.00  0.00    -0.237 OA
ATOM    102  O   UNL A   1      46.205  20.732  37.472  1.00  0.00    -0.744 OA
ENDBRANCH  98  99
ENDBRANCH  72  93
ENDBRANCH  46  47
ENDBRANCH  38  41
ENDBRANCH  36  37
ENDBRANCH  35  36
ENDBRANCH  34  35
ENDBRANCH   1  34
TORSDOF 19
ENDMDL
MODEL 2
REMARK VINA RESULT:     -14.1      2.972      4.041
REMARK SMILES Cc1c(C(=O)NCCCCCCNC(=O)c2ccc(-c3c4nc(c(-c5ccc(S(=O)(=O)[O-])cc5)c5ccc([nH]5)c(-c5ccc(S(=O)(=O)[O-])cc5)c5nc(c(-c6ccc(S(=O)(=O)[O-])cc6)c6ccc3[nH]6)C=C5)C=C4)cc2)cccc1-n1c(C)cc(/C=C2/C(=O)NC(=S)N=C2O)c1C
REMARK SMILES IDX 9 1 8 2 7 3 6 4 4 5 5 6 3 8 1 9 2 10 79 11 76 12 78 13 77 14
REMARK SMILES IDX 80 15 81 16 95 17 82 18 83 19 84 20 96 21 85 22 86 23 87 24
REMARK SMILES IDX 93 25 88 26 89 27 92 28 90 29 91 31 94 32 10 34 11 35 12 36
REMARK SMILES IDX 13 37 14 38 15 40 16 41 17 42 75 43 18 44 74 45 19 46 20 47
REMARK SMILES IDX 21 48 68 49 22 50 73 51 67 52 69 53 23 54 72 55 66 56 65 57
REMARK SMILES IDX 24 59 54 60 35 61 53 62 36 63 39 64 52 65 70 66 37 67 38 68
REMARK SMILES IDX 51 70 71 71 40 72 25 73 26 74 34 75 27 76 33 77 28 78 29 79
REMARK SMILES IDX 30 80 31 81 32 82 55 83 56 84 64 85 57 86 63 87 58 88 59 89
REMARK SMILES IDX 60 90 61 91 62 92 41 93 42 94 50 95 43 96 49 97 44 98 45 99
REMARK SMILES IDX 46 100 47 101 48 102
REMARK H PARENT 6 7 89 30 94 33 13 39 69 58 39 69
REMARK Flexibility Score: inf
ROOT
ATOM      1  C   UNL A   1      31.834  26.935  26.520  1.00  0.00     0.002 C 
ENDROOT
BRANCH   1   2
ATOM      2  C   UNL A   1      30.911  26.745  25.311  1.00  0.00     0.021 C 
BRANCH   2   3
ATOM      3  C   UNL A   1      30.792  27.954  24.366  1.00  0.00     0.116 C 
BRANCH   3   4
ATOM      4  N   UNL A   1      32.039  28.168  23.652  1.00  0.00    -0.352 N 
ATOM      5  C   UNL A   1      33.030  27.396  23.117  1.00  0.00     0.251 C 
ATOM      6  O   UNL A   1      33.913  28.030  22.523  1.00  0.00    -0.269 OA
ATOM      7  H   UNL A   1      32.218  29.127  23.520  1.00  0.00     0.163 HD
BRANCH   5   8
ATOM      8  C   UNL A   1      33.140  25.898  23.114  1.00  0.00     0.044 A 
ATOM      9  C   UNL A   1      34.689  25.567  25.131  1.00  0.00     0.047 C 
ATOM     10  C   UNL A   1      33.888  25.060  23.970  1.00  0.00    -0.014 A 
ATOM     11  C   UNL A   1      33.918  23.668  23.674  1.00  0.00     0.049 A 
ATOM     12  C   UNL A   1      32.528  25.310  21.974  1.00  0.00     0.014 A 
ATOM     13  C   UNL A   1      33.310  23.117  22.541  1.00  0.00     0.027 A 
ATOM     14  C   UNL A   1      32.620  23.948  21.680  1.00  0.00     0.003 A 
BRANCH  11  15
ATOM     15  N   UNL A   1      34.686  22.776  24.460  1.00  0.00    -0.318 N 
ATOM     16  C   UNL A   1      34.282  22.220  25.658  1.00  0.00     0.020 A 
ATOM     17  C   UNL A   1      35.986  22.374  24.172  1.00  0.00     0.027 A 
ATOM     18  C   UNL A   1      33.005  22.567  26.337  1.00  0.00     0.065 C 
ATOM     19  C   UNL A   1      35.285  21.365  26.068  1.00  0.00     0.031 A 
ATOM     20  C   UNL A   1      36.352  21.445  25.132  1.00  0.00    -0.003 A 
ATOM     21  C   UNL A   1      36.739  22.981  23.031  1.00  0.00     0.065 C 
BRANCH  20  22
ATOM     22  C   UNL A   1      37.611  20.798  25.333  1.00  0.00     0.029 C 
ATOM     23  C   UNL A   1      38.784  21.233  25.830  1.00  0.00     0.102 C 
ATOM     24  C   UNL A   1      39.829  20.196  26.040  1.00  0.00     0.262 C 
ATOM     25  C   UNL A   1      39.189  22.564  26.277  1.00  0.00     0.226 C 
ATOM     26  O   UNL A   1      39.828  19.103  25.484  1.00  0.00    -0.269 OA
ATOM     27  N   UNL A   1      40.812  20.571  26.917  1.00  0.00    -0.297 N 
ATOM     28  N   UNL A   1      40.193  22.854  27.019  1.00  0.00    -0.184 NA
ATOM     29  C   UNL A   1      40.998  21.827  27.444  1.00  0.00     0.203 C 
ATOM     30  H   UNL A   1      41.447  19.873  27.198  1.00  0.00     0.172 HD
ATOM     31  S   UNL A   1      42.262  22.057  28.517  1.00  0.00    -0.038 S 
BRANCH  25  32
ATOM     32  O   UNL A   1      38.489  23.596  25.802  1.00  0.00    -0.493 OA
ATOM     33  H   UNL A   1      37.935  23.482  25.054  1.00  0.00     0.295 HD
ENDBRANCH  25  32
ENDBRANCH  20  22
ENDBRANCH  11  15
ENDBRANCH   5   8
ENDBRANCH   3   4
ENDBRANCH   2   3
ENDBRANCH   1   2
BRANCH   1  34
ATOM     34  C   UNL A   1      31.454  28.059  27.497  1.00  0.00     0.002 C 
BRANCH  34  35
ATOM     35  C   UNL A   1      32.003  29.443  27.155  1.00  0.00     0.021 C 
BRANCH  35  36
ATOM     36  C   UNL A   1      33.497  29.449  26.854  1.00  0.00     0.116 C 
BRANCH  36  37
ATOM     37  N   UNL A   1      34.066  30.789  26.875  1.00  0.00    -0.352 N 
ATOM     38  C   UNL A   1      35.057  31.232  27.739  1.00  0.00     0.251 C 
ATOM     39  H   UNL A   1      33.718  31.437  26.220  1.00  0.00     0.163 HD
ATOM     40  O   UNL A   1      35.160  32.377  28.135  1.00  0.00    -0.269 OA
BRANCH  38  41
ATOM     41  C   UNL A   1      36.112  30.240  28.028  1.00  0.00     0.039 A 
ATOM     42  C   UNL A   1      36.122  29.678  29.311  1.00  0.00     0.014 A 
ATOM     43  C   UNL A   1      37.211  30.149  27.181  1.00  0.00     0.014 A 
ATOM     44  C   UNL A   1      37.311  29.168  29.818  1.00  0.00     0.010 A 
ATOM     45  C   UNL A   1      38.409  29.728  27.719  1.00  0.00     0.010 A 
ATOM     46  C   UNL A   1      38.467  29.290  29.051  1.00  0.00    -0.014 A 
BRANCH  46  47
ATOM     47  C   UNL A   1      39.807  29.044  29.562  1.00  0.00     0.031 A 
ATOM     48  C   UNL A   1      40.515  27.808  29.164  1.00  0.00     0.074 A 
ATOM     49  C   UNL A   1      40.439  30.007  30.268  1.00  0.00     0.049 A 
ATOM     50  N   UNL A   1      41.563  27.336  29.749  1.00  0.00    -0.248 NA
ATOM     51  C   UNL A   1      40.031  26.954  28.082  1.00  0.00     0.031 C 
ATOM     52  C   UNL A   1      41.870  30.100  30.541  1.00  0.00     0.029 A 
ATOM     53  N   UNL A   1      39.877  30.997  31.079  1.00  0.00    -0.354 N 
ATOM     54  C   UNL A   1      42.072  26.345  28.939  1.00  0.00     0.074 A 
ATOM     55  C   UNL A   1      41.021  26.064  27.991  1.00  0.00     0.031 C 
ATOM     56  C   UNL A   1      42.047  30.847  31.642  1.00  0.00     0.029 A 
ATOM     57  C   UNL A   1      40.726  31.110  32.192  1.00  0.00     0.049 A 
ATOM     58  H   UNL A   1      39.054  31.510  30.904  1.00  0.00     0.167 HD
ATOM     59  C   UNL A   1      43.385  25.994  29.059  1.00  0.00     0.031 A 
ATOM     60  C   UNL A   1      40.342  30.824  33.471  1.00  0.00     0.031 A 
ATOM     61  C   UNL A   1      43.986  26.602  30.248  1.00  0.00     0.049 A 
ATOM     62  C   UNL A   1      41.181  29.729  34.101  1.00  0.00     0.074 A 
ATOM     63  C   UNL A   1      44.826  27.687  30.439  1.00  0.00     0.029 A 
ATOM     64  N   UNL A   1      43.484  26.268  31.501  1.00  0.00    -0.354 N 
ATOM     65  N   UNL A   1      41.938  28.911  33.422  1.00  0.00    -0.248 NA
ATOM     66  C   UNL A   1      41.216  29.451  35.535  1.00  0.00     0.031 C 
ATOM     67  C   UNL A   1      44.730  28.075  31.804  1.00  0.00     0.029 A 
ATOM     68  C   UNL A   1      43.870  27.201  32.445  1.00  0.00     0.049 A 
ATOM     69  H   UNL A   1      42.931  25.475  31.691  1.00  0.00     0.167 HD
ATOM     70  C   UNL A   1      42.561  28.037  34.273  1.00  0.00     0.074 A 
ATOM     71  C   UNL A   1      42.076  28.417  35.589  1.00  0.00     0.031 C 
ATOM     72  C   UNL A   1      43.422  27.074  33.827  1.00  0.00     0.031 A 
BRANCH  59  73
ATOM     73  C   UNL A   1      44.190  25.357  27.939  1.00  0.00    -0.014 A 
ATOM     74  C   UNL A   1      43.934  25.722  26.600  1.00  0.00     0.010 A 
ATOM     75  C   UNL A   1      45.133  24.326  28.116  1.00  0.00     0.010 A 
ATOM     76  C   UNL A   1      44.506  25.039  25.512  1.00  0.00     0.020 A 
ATOM     77  C   UNL A   1      45.699  23.619  27.044  1.00  0.00     0.020 A 
ATOM     78  C   UNL A   1      45.367  23.968  25.744  1.00  0.00     0.054 A 
BRANCH  78  79
ATOM     79  S   UNL A   1      46.033  23.031  24.345  1.00  0.00     0.124 S 
ATOM     80  O   UNL A   1      47.073  23.923  23.838  1.00  0.00    -0.237 OA
ATOM     81  O   UNL A   1      46.504  21.805  24.981  1.00  0.00    -0.237 OA
ATOM     82  O   UNL A   1      44.883  22.866  23.458  1.00  0.00    -0.744 OA
ENDBRANCH  78  79
ENDBRANCH  59  73
BRANCH  60  83
ATOM     83  C   UNL A   1      38.898  31.074  33.749  1.00  0.00    -0.014 A 
ATOM     84  C   UNL A   1      38.555  32.333  34.289  1.00  0.00     0.010 A 
ATOM     85  C   UNL A   1      37.907  30.328  33.089  1.00  0.00     0.010 A 
ATOM     86  C   UNL A   1      37.316  32.915  34.007  1.00  0.00     0.020 A 
ATOM     87  C   UNL A   1      36.659  30.909  32.811  1.00  0.00     0.020 A 
ATOM     88  C   UNL A   1      36.407  32.227  33.205  1.00  0.00     0.054 A 
BRANCH  88  89
ATOM     89  S   UNL A   1      34.989  33.149  32.528  1.00  0.00     0.124 S 
ATOM     90  O   UNL A   1      34.120  33.286  33.691  1.00  0.00    -0.237 OA
ATOM     91  O   UNL A   1      35.618  34.385  32.060  1.00  0.00    -0.237 OA
ATOM     92  O   UNL A   1      34.496  32.272  31.471  1.00  0.00    -0.744 OA
ENDBRANCH  88  89
ENDBRANCH  60  83
BRANCH  72  93
ATOM     93  C   UNL A   1      43.995  25.948  34.655  1.00  0.00    -0.014 A 
ATOM     94  C   UNL A   1      43.295  24.777  34.985  1.00  0.00     0.010 A 
ATOM     95  C   UNL A   1      45.365  25.997  35.011  1.00  0.00     0.010 A 
ATOM     96  C   UNL A   1      43.914  23.733  35.689  1.00  0.00     0.020 A 
ATOM     97  C   UNL A   1      46.004  24.944  35.670  1.00  0.00     0.020 A 
ATOM     98  C   UNL A   1      45.265  23.824  36.028  1.00  0.00     0.054 A 
BRANCH  98  99
ATOM     99  S   UNL A   1      46.076  22.442  36.873  1.00  0.00     0.124 S 
ATOM    100  O   UNL A   1      47.479  22.669  36.538  1.00  0.00    -0.237 OA
ATOM    101  O   UNL A   1      45.724  22.662  38.274  1.00  0.00    -0.237 OA
ATOM    102  O   UNL A   1      45.466  21.265  36.262  1.00  0.00    -0.744 OA
ENDBRANCH  98  99
ENDBRANCH  72  93
ENDBRANCH  46  47
ENDBRANCH  38  41
ENDBRANCH  36  37
ENDBRANCH  35  36
ENDBRANCH  34  35
ENDBRANCH   1  34
TORSDOF 19
ENDMDL
MODEL 3
REMARK VINA RESULT:     -13.9      2.929      4.700
REMARK SMILES Cc1c(C(=O)NCCCCCCNC(=O)c2ccc(-c3c4nc(c(-c5ccc(S(=O)(=O)[O-])cc5)c5ccc([nH]5)c(-c5ccc(S(=O)(=O)[O-])cc5)c5nc(c(-c6ccc(S(=O)(=O)[O-])cc6)c6ccc3[nH]6)C=C5)C=C4)cc2)cccc1-n1c(C)cc(/C=C2/C(=O)NC(=S)N=C2O)c1C
REMARK SMILES IDX 9 1 8 2 7 3 6 4 4 5 5 6 3 8 1 9 2 10 79 11 76 12 78 13 77 14
REMARK SMILES IDX 80 15 81 16 95 17 82 18 83 19 84 20 96 21 85 22 86 23 87 24
REMARK SMILES IDX 93 25 88 26 89 27 92 28 90 29 91 31 94 32 10 34 11 35 12 36
REMARK SMILES IDX 13 37 14 38 15 40 16 41 17 42 75 43 18 44 74 45 19 46 20 47
REMARK SMILES IDX 21 48 68 49 22 50 73 51 67 52 69 53 23 54 72 55 66 56 65 57
REMARK SMILES IDX 24 59 54 60 35 61 53 62 36 63 39 64 52 65 70 66 37 67 38 68
REMARK SMILES IDX 51 70 71 71 40 72 25 73 26 74 34 75 27 76 33 77 28 78 29 79
REMARK SMILES IDX 30 80 31 81 32 82 55 83 56 84 64 85 57 86 63 87 58 88 59 89
REMARK SMILES IDX 60 90 61 91 62 92 41 93 42 94 50 95 43 96 49 97 44 98 45 99
REMARK SMILES IDX 46 100 47 101 48 102
REMARK H PARENT 6 7 89 30 94 33 13 39 69 58 39 69
REMARK Flexibility Score: inf
ROOT
ATOM      1  C   UNL A   1      31.934  27.372  24.020  1.00  0.00     0.002 C 
ENDROOT
BRANCH   1   2
ATOM      2  C   UNL A   1      30.937  26.766  25.014  1.00  0.00     0.021 C 
BRANCH   2   3
ATOM      3  C   UNL A   1      31.537  26.274  26.344  1.00  0.00     0.116 C 
BRANCH   3   4
ATOM      4  N   UNL A   1      31.101  24.917  26.628  1.00  0.00    -0.352 N 
ATOM      5  C   UNL A   1      31.495  23.651  26.302  1.00  0.00     0.251 C 
ATOM      6  O   UNL A   1      30.837  22.752  26.842  1.00  0.00    -0.269 OA
ATOM      7  H   UNL A   1      30.309  24.909  27.212  1.00  0.00     0.163 HD
BRANCH   5   8
ATOM      8  C   UNL A   1      32.645  23.233  25.431  1.00  0.00     0.044 A 
ATOM      9  C   UNL A   1      34.147  22.122  27.188  1.00  0.00     0.047 C 
ATOM     10  C   UNL A   1      33.845  22.584  25.794  1.00  0.00    -0.014 A 
ATOM     11  C   UNL A   1      34.836  22.409  24.787  1.00  0.00     0.049 A 
ATOM     12  C   UNL A   1      32.533  23.735  24.106  1.00  0.00     0.014 A 
ATOM     13  C   UNL A   1      34.701  22.919  23.491  1.00  0.00     0.027 A 
ATOM     14  C   UNL A   1      33.546  23.596  23.154  1.00  0.00     0.003 A 
BRANCH  11  15
ATOM     15  N   UNL A   1      36.082  21.811  25.090  1.00  0.00    -0.318 N 
ATOM     16  C   UNL A   1      36.346  20.455  25.047  1.00  0.00     0.020 A 
ATOM     17  C   UNL A   1      37.209  22.494  25.535  1.00  0.00     0.027 A 
ATOM     18  C   UNL A   1      35.312  19.425  24.764  1.00  0.00     0.065 C 
ATOM     19  C   UNL A   1      37.683  20.292  25.348  1.00  0.00     0.031 A 
ATOM     20  C   UNL A   1      38.235  21.569  25.641  1.00  0.00    -0.003 A 
ATOM     21  C   UNL A   1      37.141  23.953  25.858  1.00  0.00     0.065 C 
BRANCH  20  22
ATOM     22  C   UNL A   1      39.565  21.745  26.137  1.00  0.00     0.029 C 
ATOM     23  C   UNL A   1      40.624  20.917  26.202  1.00  0.00     0.102 C 
ATOM     24  C   UNL A   1      41.907  21.531  26.637  1.00  0.00     0.262 C 
ATOM     25  C   UNL A   1      40.749  19.506  25.841  1.00  0.00     0.226 C 
ATOM     26  O   UNL A   1      41.983  22.587  27.254  1.00  0.00    -0.269 OA
ATOM     27  N   UNL A   1      43.014  20.803  26.288  1.00  0.00    -0.297 N 
ATOM     28  N   UNL A   1      41.834  18.859  25.631  1.00  0.00    -0.184 NA
ATOM     29  C   UNL A   1      43.022  19.534  25.763  1.00  0.00     0.203 C 
ATOM     30  H   UNL A   1      43.889  21.233  26.426  1.00  0.00     0.172 HD
ATOM     31  S   UNL A   1      44.500  18.839  25.393  1.00  0.00    -0.038 S 
BRANCH  25  32
ATOM     32  O   UNL A   1      39.620  18.794  25.801  1.00  0.00    -0.493 OA
ATOM     33  H   UNL A   1      39.613  17.951  25.390  1.00  0.00     0.295 HD
ENDBRANCH  25  32
ENDBRANCH  20  22
ENDBRANCH  11  15
ENDBRANCH   5   8
ENDBRANCH   3   4
ENDBRANCH   2   3
ENDBRANCH   1   2
BRANCH   1  34
ATOM     34  C   UNL A   1      33.261  27.876  24.606  1.00  0.00     0.002 C 
BRANCH  34  35
ATOM     35  C   UNL A   1      33.262  29.327  25.083  1.00  0.00     0.021 C 
BRANCH  35  36
ATOM     36  C   UNL A   1      33.588  29.482  26.564  1.00  0.00     0.116 C 
BRANCH  36  37
ATOM     37  N   UNL A   1      34.054  30.821  26.897  1.00  0.00    -0.352 N 
ATOM     38  C   UNL A   1      34.913  31.140  27.938  1.00  0.00     0.251 C 
ATOM     39  H   UNL A   1      33.732  31.563  26.336  1.00  0.00     0.163 HD
ATOM     40  O   UNL A   1      34.891  32.192  28.547  1.00  0.00    -0.269 OA
BRANCH  38  41
ATOM     41  C   UNL A   1      36.001  30.166  28.162  1.00  0.00     0.039 A 
ATOM     42  C   UNL A   1      36.054  29.551  29.419  1.00  0.00     0.014 A 
ATOM     43  C   UNL A   1      37.083  30.141  27.288  1.00  0.00     0.014 A 
ATOM     44  C   UNL A   1      37.267  29.053  29.879  1.00  0.00     0.010 A 
ATOM     45  C   UNL A   1      38.303  29.730  27.782  1.00  0.00     0.010 A 
ATOM     46  C   UNL A   1      38.402  29.238  29.093  1.00  0.00    -0.014 A 
BRANCH  46  47
ATOM     47  C   UNL A   1      39.760  29.007  29.564  1.00  0.00     0.031 A 
ATOM     48  C   UNL A   1      40.455  27.760  29.179  1.00  0.00     0.074 A 
ATOM     49  C   UNL A   1      40.414  29.991  30.219  1.00  0.00     0.049 A 
ATOM     50  N   UNL A   1      41.523  27.306  29.741  1.00  0.00    -0.248 NA
ATOM     51  C   UNL A   1      39.935  26.875  28.140  1.00  0.00     0.031 C 
ATOM     52  C   UNL A   1      41.854  30.092  30.440  1.00  0.00     0.029 A 
ATOM     53  N   UNL A   1      39.880  31.005  31.019  1.00  0.00    -0.354 N 
ATOM     54  C   UNL A   1      42.004  26.291  28.944  1.00  0.00     0.074 A 
ATOM     55  C   UNL A   1      40.922  25.982  28.041  1.00  0.00     0.031 C 
ATOM     56  C   UNL A   1      42.068  30.871  31.512  1.00  0.00     0.029 A 
ATOM     57  C   UNL A   1      40.767  31.151  32.099  1.00  0.00     0.049 A 
ATOM     58  H   UNL A   1      39.051  31.512  30.858  1.00  0.00     0.167 HD
ATOM     59  C   UNL A   1      43.321  25.944  29.029  1.00  0.00     0.031 A 
ATOM     60  C   UNL A   1      40.427  30.902  33.398  1.00  0.00     0.031 A 
ATOM     61  C   UNL A   1      43.962  26.587  30.178  1.00  0.00     0.049 A 
ATOM     62  C   UNL A   1      41.289  29.826  34.031  1.00  0.00     0.074 A 
ATOM     63  C   UNL A   1      44.807  27.678  30.307  1.00  0.00     0.029 A 
ATOM     64  N   UNL A   1      43.505  26.290  31.457  1.00  0.00    -0.354 N 
ATOM     65  N   UNL A   1      42.023  28.989  33.351  1.00  0.00    -0.248 NA
ATOM     66  C   UNL A   1      41.374  29.591  35.470  1.00  0.00     0.031 C 
ATOM     67  C   UNL A   1      44.758  28.106  31.662  1.00  0.00     0.029 A 
ATOM     68  C   UNL A   1      43.922  27.251  32.358  1.00  0.00     0.049 A 
ATOM     69  H   UNL A   1      42.959  25.503  31.689  1.00  0.00     0.167 HD
ATOM     70  C   UNL A   1      42.675  28.140  34.205  1.00  0.00     0.074 A 
ATOM     71  C   UNL A   1      42.236  28.559  35.525  1.00  0.00     0.031 C 
ATOM     72  C   UNL A   1      43.521  27.165  33.759  1.00  0.00     0.031 A 
BRANCH  59  73
ATOM     73  C   UNL A   1      44.088  25.274  27.901  1.00  0.00    -0.014 A 
ATOM     74  C   UNL A   1      43.696  25.495  26.563  1.00  0.00     0.010 A 
ATOM     75  C   UNL A   1      45.128  24.342  28.082  1.00  0.00     0.010 A 
ATOM     76  C   UNL A   1      44.238  24.763  25.491  1.00  0.00     0.020 A 
ATOM     77  C   UNL A   1      45.667  23.589  27.028  1.00  0.00     0.020 A 
ATOM     78  C   UNL A   1      45.204  23.791  25.736  1.00  0.00     0.054 A 
BRANCH  78  79
ATOM     79  S   UNL A   1      45.837  22.786  24.368  1.00  0.00     0.124 S 
ATOM     80  O   UNL A   1      46.444  21.655  25.066  1.00  0.00    -0.237 OA
ATOM     81  O   UNL A   1      44.626  22.488  23.610  1.00  0.00    -0.237 OA
ATOM     82  O   UNL A   1      46.786  23.672  23.696  1.00  0.00    -0.744 OA
ENDBRANCH  78  79
ENDBRANCH  59  73
BRANCH  60  83
ATOM     83  C   UNL A   1      38.994  31.161  33.719  1.00  0.00    -0.014 A 
ATOM     84  C   UNL A   1      38.674  32.419  34.274  1.00  0.00     0.010 A 
ATOM     85  C   UNL A   1      37.979  30.424  33.084  1.00  0.00     0.010 A 
ATOM     86  C   UNL A   1      37.432  33.011  34.030  1.00  0.00     0.020 A 
ATOM     87  C   UNL A   1      36.728  31.014  32.845  1.00  0.00     0.020 A 
ATOM     88  C   UNL A   1      36.496  32.332  33.251  1.00  0.00     0.054 A 
BRANCH  88  89
ATOM     89  S   UNL A   1      35.065  33.266  32.619  1.00  0.00     0.124 S 
ATOM     90  O   UNL A   1      34.378  32.272  31.801  1.00  0.00    -0.237 OA
ATOM     91  O   UNL A   1      34.379  33.654  33.852  1.00  0.00    -0.237 OA
ATOM     92  O   UNL A   1      35.683  34.366  31.887  1.00  0.00    -0.744 OA
ENDBRANCH  88  89
ENDBRANCH  60  83
BRANCH  72  93
ATOM     93  C   UNL A   1      44.125  26.064  34.599  1.00  0.00    -0.014 A 
ATOM     94  C   UNL A   1      43.378  25.183  35.396  1.00  0.00     0.010 A 
ATOM     95  C   UNL A   1      45.511  25.802  34.480  1.00  0.00     0.010 A 
ATOM     96  C   UNL A   1      43.993  24.129  36.089  1.00  0.00     0.020 A 
ATOM     97  C   UNL A   1      46.127  24.728  35.128  1.00  0.00     0.020 A 
ATOM     98  C   UNL A   1      45.365  23.909  35.952  1.00  0.00     0.054 A 
BRANCH  98  99
ATOM     99  S   UNL A   1      46.140  22.505  36.791  1.00  0.00     0.124 S 
ATOM    100  O   UNL A   1      45.714  22.707  38.172  1.00  0.00    -0.237 OA
ATOM    101  O   UNL A   1      45.548  21.351  36.116  1.00  0.00    -0.237 OA
ATOM    102  O   UNL A   1      47.565  22.701  36.537  1.00  0.00    -0.744 OA
ENDBRANCH  98  99
ENDBRANCH  72  93
ENDBRANCH  46  47
ENDBRANCH  38  41
ENDBRANCH  36  37
ENDBRANCH  35  36
ENDBRANCH  34  35
ENDBRANCH   1  34
TORSDOF 19
ENDMDL
