MODEL 1
REMARK VINA RESULT:     -10.0      0.000      0.000
REMARK SMILES CC(C)[NH2+][C@]1(C(=O)NCCCCCCNC(=O)c2ccc(-c3c4nc(c(-c5ccc(S(=O)(=O)[O-])cc5)c5ccc([nH]5)c(-c5ccc(S(=O)(=O)[O-])cc5)c5nc(c(-c6ccc(S(=O)(=O)[O-])cc6)c6ccc3[nH]6)C=C5)C=C4)cc2)CCC[C@@H]([N@@H+](C)C2CC2)C1
REMARK SMILES IDX 12 1 11 2 10 3 9 4 8 5 6 6 7 7 5 9 78 10 87 11 79 12 81 13
REMARK SMILES IDX 80 14 4 15 2 18 1 19 3 20 82 21 83 22 84 24 85 25 86 26
REMARK SMILES IDX 13 27 14 28 15 29 16 30 17 32 18 33 19 34 77 35 20 36 76 37
REMARK SMILES IDX 21 38 22 39 23 40 70 41 24 42 75 43 69 44 71 45 25 46 74 47
REMARK SMILES IDX 68 48 67 49 26 51 56 52 37 53 55 54 38 55 41 56 54 57 72 58
REMARK SMILES IDX 39 59 40 60 53 62 73 63 42 64 27 65 28 66 36 67 29 68 35 69
REMARK SMILES IDX 30 70 31 71 32 72 33 73 34 74 57 75 58 76 66 77 59 78 65 79
REMARK SMILES IDX 60 80 61 81 62 82 63 83 64 84 43 85 44 86 52 87 45 88 51 89
REMARK SMILES IDX 46 90 47 91 48 92 49 93 50 94
REMARK H PARENT 8 8 4 16 4 17 82 23 15 31 71 50 41 61
REMARK Flexibility Score: inf
ROOT
ATOM      1  C   UNL A   1      37.274  20.542  24.806  1.00  0.00     0.002 C 
ENDROOT
BRANCH   1   2
ATOM      2  C   UNL A   1      37.568  22.042  24.896  1.00  0.00     0.002 C 
BRANCH   2   3
ATOM      3  C   UNL A   1      37.018  22.766  26.128  1.00  0.00     0.021 C 
BRANCH   3   4
ATOM      4  C   UNL A   1      35.614  23.349  26.000  1.00  0.00     0.116 C 
BRANCH   4   5
ATOM      5  N   UNL A   1      34.740  22.942  27.080  1.00  0.00    -0.351 N 
ATOM      6  C   UNL A   1      33.379  22.910  27.172  1.00  0.00     0.281 C 
ATOM      7  O   UNL A   1      32.943  22.426  28.227  1.00  0.00    -0.268 OA
ATOM      8  H   UNL A   1      35.209  22.635  27.889  1.00  0.00     0.163 HD
BRANCH   6   9
ATOM      9  C   UNL A   1      32.398  23.528  26.075  1.00  0.00     0.181 C 
ATOM     10  C   UNL A   1      31.095  23.874  26.834  1.00  0.00     0.079 C 
ATOM     11  C   UNL A   1      33.072  24.858  25.645  1.00  0.00     0.144 C 
ATOM     12  C   UNL A   1      30.110  24.788  26.127  1.00  0.00     0.013 C 
ATOM     13  C   UNL A   1      32.175  25.906  24.951  1.00  0.00     0.190 C 
ATOM     14  C   UNL A   1      30.691  25.960  25.352  1.00  0.00     0.065 C 
BRANCH   9  15
ATOM     15  N   UNL A   1      32.158  22.482  25.053  1.00  0.00    -0.331 N 
ATOM     16  H   UNL A   1      32.002  21.617  25.573  1.00  0.00     0.347 HD
ATOM     17  H   UNL A   1      31.403  22.902  24.512  1.00  0.00     0.347 HD
BRANCH  15  18
ATOM     18  C   UNL A   1      33.108  22.150  24.005  1.00  0.00     0.176 C 
ATOM     19  C   UNL A   1      33.428  20.650  24.096  1.00  0.00     0.075 C 
ATOM     20  C   UNL A   1      32.555  22.444  22.610  1.00  0.00     0.075 C 
ENDBRANCH  15  18
ENDBRANCH   9  15
BRANCH  13  21
ATOM     21  N   UNL A   1      32.812  27.255  24.871  1.00  0.00    -0.332 N 
ATOM     22  C   UNL A   1      33.401  27.612  26.175  1.00  0.00     0.333 C 
ATOM     23  H   UNL A   1      32.030  27.858  24.617  1.00  0.00     0.348 HD
BRANCH  21  24
ATOM     24  C   UNL A   1      33.795  27.512  23.782  1.00  0.00     0.184 C 
ATOM     25  C   UNL A   1      33.512  27.466  22.306  1.00  0.00     0.071 C 
ATOM     26  C   UNL A   1      33.673  28.788  22.987  1.00  0.00     0.071 C 
ENDBRANCH  21  24
ENDBRANCH  13  21
ENDBRANCH   6   9
ENDBRANCH   4   5
ENDBRANCH   3   4
ENDBRANCH   2   3
ENDBRANCH   1   2
BRANCH   1  27
ATOM     27  C   UNL A   1      38.458  19.612  25.074  1.00  0.00     0.021 C 
BRANCH  27  28
ATOM     28  C   UNL A   1      39.484  20.132  26.076  1.00  0.00     0.116 C 
BRANCH  28  29
ATOM     29  N   UNL A   1      40.654  19.274  26.170  1.00  0.00    -0.352 N 
ATOM     30  C   UNL A   1      41.975  19.622  26.291  1.00  0.00     0.251 C 
ATOM     31  H   UNL A   1      40.471  18.307  26.143  1.00  0.00     0.163 HD
ATOM     32  O   UNL A   1      42.849  18.761  26.178  1.00  0.00    -0.269 OA
BRANCH  30  33
ATOM     33  C   UNL A   1      42.351  21.031  26.533  1.00  0.00     0.039 A 
ATOM     34  C   UNL A   1      42.577  21.455  27.845  1.00  0.00     0.014 A 
ATOM     35  C   UNL A   1      42.479  21.933  25.473  1.00  0.00     0.014 A 
ATOM     36  C   UNL A   1      42.987  22.768  28.087  1.00  0.00     0.010 A 
ATOM     37  C   UNL A   1      42.961  23.218  25.710  1.00  0.00     0.010 A 
ATOM     38  C   UNL A   1      43.215  23.651  27.020  1.00  0.00    -0.014 A 
BRANCH  38  39
ATOM     39  C   UNL A   1      43.720  25.030  27.254  1.00  0.00     0.031 A 
ATOM     40  C   UNL A   1      45.166  25.361  27.000  1.00  0.00     0.074 A 
ATOM     41  C   UNL A   1      42.887  25.969  27.749  1.00  0.00     0.049 A 
ATOM     42  N   UNL A   1      45.796  26.493  27.186  1.00  0.00    -0.248 NA
ATOM     43  C   UNL A   1      46.021  24.276  26.491  1.00  0.00     0.031 C 
ATOM     44  C   UNL A   1      41.473  25.762  28.071  1.00  0.00     0.029 A 
ATOM     45  N   UNL A   1      43.111  27.284  28.071  1.00  0.00    -0.354 N 
ATOM     46  C   UNL A   1      47.120  26.252  26.836  1.00  0.00     0.074 A 
ATOM     47  C   UNL A   1      47.213  24.855  26.474  1.00  0.00     0.031 C 
ATOM     48  C   UNL A   1      40.949  26.917  28.512  1.00  0.00     0.029 A 
ATOM     49  C   UNL A   1      41.996  27.932  28.551  1.00  0.00     0.049 A 
ATOM     50  H   UNL A   1      43.986  27.722  27.968  1.00  0.00     0.167 HD
ATOM     51  C   UNL A   1      48.161  27.119  26.803  1.00  0.00     0.031 A 
ATOM     52  C   UNL A   1      41.835  29.200  28.982  1.00  0.00     0.031 A 
ATOM     53  C   UNL A   1      48.061  28.511  27.156  1.00  0.00     0.049 A 
ATOM     54  C   UNL A   1      43.012  30.137  28.954  1.00  0.00     0.074 A 
ATOM     55  C   UNL A   1      49.043  29.484  27.098  1.00  0.00     0.029 A 
ATOM     56  N   UNL A   1      46.916  29.126  27.639  1.00  0.00    -0.354 N 
ATOM     57  N   UNL A   1      44.240  29.908  28.552  1.00  0.00    -0.248 NA
ATOM     58  C   UNL A   1      42.779  31.508  29.430  1.00  0.00     0.031 C 
ATOM     59  C   UNL A   1      48.511  30.672  27.606  1.00  0.00     0.029 A 
ATOM     60  C   UNL A   1      47.177  30.458  27.914  1.00  0.00     0.049 A 
ATOM     61  H   UNL A   1      46.047  28.682  27.768  1.00  0.00     0.167 HD
ATOM     62  C   UNL A   1      44.917  31.113  28.695  1.00  0.00     0.074 A 
ATOM     63  C   UNL A   1      43.959  32.072  29.207  1.00  0.00     0.031 C 
ATOM     64  C   UNL A   1      46.214  31.403  28.424  1.00  0.00     0.031 A 
BRANCH  51  65
ATOM     65  C   UNL A   1      49.506  26.584  26.381  1.00  0.00    -0.014 A 
ATOM     66  C   UNL A   1      49.999  26.789  25.079  1.00  0.00     0.010 A 
ATOM     67  C   UNL A   1      50.311  25.908  27.316  1.00  0.00     0.010 A 
ATOM     68  C   UNL A   1      51.253  26.295  24.710  1.00  0.00     0.020 A 
ATOM     69  C   UNL A   1      51.579  25.440  26.960  1.00  0.00     0.020 A 
ATOM     70  C   UNL A   1      52.035  25.622  25.654  1.00  0.00     0.054 A 
BRANCH  70  71
ATOM     71  S   UNL A   1      53.670  25.017  25.154  1.00  0.00     0.124 S 
ATOM     72  O   UNL A   1      53.774  25.524  23.788  1.00  0.00    -0.237 OA
ATOM     73  O   UNL A   1      54.556  25.651  26.126  1.00  0.00    -0.237 OA
ATOM     74  O   UNL A   1      53.555  23.566  25.271  1.00  0.00    -0.744 OA
ENDBRANCH  70  71
ENDBRANCH  51  65
BRANCH  52  75
ATOM     75  C   UNL A   1      40.504  29.661  29.465  1.00  0.00    -0.014 A 
ATOM     76  C   UNL A   1      40.219  29.706  30.842  1.00  0.00     0.010 A 
ATOM     77  C   UNL A   1      39.513  30.061  28.550  1.00  0.00     0.010 A 
ATOM     78  C   UNL A   1      38.962  30.120  31.292  1.00  0.00     0.020 A 
ATOM     79  C   UNL A   1      38.266  30.506  28.998  1.00  0.00     0.020 A 
ATOM     80  C   UNL A   1      37.994  30.519  30.367  1.00  0.00     0.054 A 
BRANCH  80  81
ATOM     81  S   UNL A   1      36.385  31.093  30.978  1.00  0.00     0.124 S 
ATOM     82  O   UNL A   1      35.579  31.092  29.761  1.00  0.00    -0.237 OA
ATOM     83  O   UNL A   1      36.042  30.074  31.967  1.00  0.00    -0.237 OA
ATOM     84  O   UNL A   1      36.680  32.413  31.531  1.00  0.00    -0.744 OA
ENDBRANCH  80  81
ENDBRANCH  52  75
BRANCH  64  85
ATOM     85  C   UNL A   1      46.669  32.823  28.637  1.00  0.00    -0.014 A 
ATOM     86  C   UNL A   1      46.558  33.789  27.621  1.00  0.00     0.010 A 
ATOM     87  C   UNL A   1      47.165  33.207  29.897  1.00  0.00     0.010 A 
ATOM     88  C   UNL A   1      46.966  35.106  27.852  1.00  0.00     0.020 A 
ATOM     89  C   UNL A   1      47.543  34.530  30.141  1.00  0.00     0.020 A 
ATOM     90  C   UNL A   1      47.454  35.468  29.111  1.00  0.00     0.054 A 
BRANCH  90  91
ATOM     91  S   UNL A   1      47.934  37.194  29.397  1.00  0.00     0.124 S 
ATOM     92  O   UNL A   1      48.155  37.212  30.839  1.00  0.00    -0.237 OA
ATOM     93  O   UNL A   1      49.134  37.331  28.575  1.00  0.00    -0.237 OA
ATOM     94  O   UNL A   1      46.777  37.958  28.934  1.00  0.00    -0.744 OA
ENDBRANCH  90  91
ENDBRANCH  64  85
ENDBRANCH  38  39
ENDBRANCH  30  33
ENDBRANCH  28  29
ENDBRANCH  27  28
ENDBRANCH   1  27
TORSDOF 20
ENDMDL
MODEL 2
REMARK VINA RESULT:      -9.7      2.097      8.918
REMARK SMILES CC(C)[NH2+][C@]1(C(=O)NCCCCCCNC(=O)c2ccc(-c3c4nc(c(-c5ccc(S(=O)(=O)[O-])cc5)c5ccc([nH]5)c(-c5ccc(S(=O)(=O)[O-])cc5)c5nc(c(-c6ccc(S(=O)(=O)[O-])cc6)c6ccc3[nH]6)C=C5)C=C4)cc2)CCC[C@@H]([N@@H+](C)C2CC2)C1
REMARK SMILES IDX 12 1 11 2 10 3 9 4 8 5 6 6 7 7 5 9 78 10 87 11 79 12 81 13
REMARK SMILES IDX 80 14 4 15 2 18 1 19 3 20 82 21 83 22 84 24 85 25 86 26
REMARK SMILES IDX 13 27 14 28 15 29 16 30 17 32 18 33 19 34 77 35 20 36 76 37
REMARK SMILES IDX 21 38 22 39 23 40 70 41 24 42 75 43 69 44 71 45 25 46 74 47
REMARK SMILES IDX 68 48 67 49 26 51 56 52 37 53 55 54 38 55 41 56 54 57 72 58
REMARK SMILES IDX 39 59 40 60 53 62 73 63 42 64 27 65 28 66 36 67 29 68 35 69
REMARK SMILES IDX 30 70 31 71 32 72 33 73 34 74 57 75 58 76 66 77 59 78 65 79
REMARK SMILES IDX 60 80 61 81 62 82 63 83 64 84 43 85 44 86 52 87 45 88 51 89
REMARK SMILES IDX 46 90 47 91 48 92 49 93 50 94
REMARK H PARENT 8 8 4 16 4 17 82 23 15 31 71 50 41 61
REMARK Flexibility Score: inf
ROOT
ATOM      1  C   UNL A   1      33.071  30.321  27.225  1.00  0.00     0.002 C 
ENDROOT
BRANCH   1   2
ATOM      2  C   UNL A   1      32.611  29.924  25.819  1.00  0.00     0.002 C 
BRANCH   2   3
ATOM      3  C   UNL A   1      33.681  29.329  24.900  1.00  0.00     0.021 C 
BRANCH   3   4
ATOM      4  C   UNL A   1      33.587  27.829  24.636  1.00  0.00     0.116 C 
BRANCH   4   5
ATOM      5  N   UNL A   1      33.682  27.503  23.228  1.00  0.00    -0.351 N 
ATOM      6  C   UNL A   1      33.398  26.353  22.550  1.00  0.00     0.281 C 
ATOM      7  O   UNL A   1      33.518  26.435  21.319  1.00  0.00    -0.268 OA
ATOM      8  H   UNL A   1      34.008  28.238  22.661  1.00  0.00     0.163 HD
BRANCH   6   9
ATOM      9  C   UNL A   1      33.035  24.969  23.258  1.00  0.00     0.181 C 
ATOM     10  C   UNL A   1      32.875  23.946  22.108  1.00  0.00     0.079 C 
ATOM     11  C   UNL A   1      34.306  24.591  24.063  1.00  0.00     0.144 C 
ATOM     12  C   UNL A   1      32.869  22.477  22.490  1.00  0.00     0.013 C 
ATOM     13  C   UNL A   1      34.457  23.112  24.483  1.00  0.00     0.190 C 
ATOM     14  C   UNL A   1      33.857  22.039  23.558  1.00  0.00     0.065 C 
BRANCH   9  15
ATOM     15  N   UNL A   1      31.757  25.161  23.982  1.00  0.00    -0.331 N 
ATOM     16  H   UNL A   1      31.449  26.107  23.755  1.00  0.00     0.347 HD
ATOM     17  H   UNL A   1      31.224  24.354  23.662  1.00  0.00     0.347 HD
BRANCH  15  18
ATOM     18  C   UNL A   1      31.624  25.036  25.424  1.00  0.00     0.176 C 
ATOM     19  C   UNL A   1      30.673  26.135  25.922  1.00  0.00     0.075 C 
ATOM     20  C   UNL A   1      31.056  23.678  25.835  1.00  0.00     0.075 C 
ENDBRANCH  15  18
ENDBRANCH   9  15
BRANCH  13  21
ATOM     21  N   UNL A   1      35.834  22.779  24.955  1.00  0.00    -0.332 N 
ATOM     22  C   UNL A   1      36.337  23.847  25.839  1.00  0.00     0.333 C 
ATOM     23  H   UNL A   1      36.360  22.712  24.084  1.00  0.00     0.348 HD
BRANCH  21  24
ATOM     24  C   UNL A   1      36.067  21.448  25.582  1.00  0.00     0.184 C 
ATOM     25  C   UNL A   1      35.741  20.113  24.971  1.00  0.00     0.071 C 
ATOM     26  C   UNL A   1      37.163  20.572  25.032  1.00  0.00     0.071 C 
ENDBRANCH  21  24
ENDBRANCH  13  21
ENDBRANCH   6   9
ENDBRANCH   4   5
ENDBRANCH   3   4
ENDBRANCH   2   3
ENDBRANCH   1   2
BRANCH   1  27
ATOM     27  C   UNL A   1      34.472  29.857  27.623  1.00  0.00     0.021 C 
BRANCH  27  28
ATOM     28  C   UNL A   1      35.406  30.953  28.126  1.00  0.00     0.116 C 
BRANCH  28  29
ATOM     29  N   UNL A   1      35.363  31.100  29.572  1.00  0.00    -0.352 N 
ATOM     30  C   UNL A   1      36.285  30.710  30.510  1.00  0.00     0.251 C 
ATOM     31  H   UNL A   1      34.559  31.544  29.927  1.00  0.00     0.163 HD
ATOM     32  O   UNL A   1      35.999  30.758  31.707  1.00  0.00    -0.269 OA
BRANCH  30  33
ATOM     33  C   UNL A   1      37.609  30.211  30.084  1.00  0.00     0.039 A 
ATOM     34  C   UNL A   1      37.989  30.357  28.747  1.00  0.00     0.014 A 
ATOM     35  C   UNL A   1      38.474  29.599  30.996  1.00  0.00     0.014 A 
ATOM     36  C   UNL A   1      39.259  29.942  28.340  1.00  0.00     0.010 A 
ATOM     37  C   UNL A   1      39.766  29.255  30.604  1.00  0.00     0.010 A 
ATOM     38  C   UNL A   1      40.171  29.418  29.270  1.00  0.00    -0.014 A 
BRANCH  38  39
ATOM     39  C   UNL A   1      41.550  29.037  28.868  1.00  0.00     0.031 A 
ATOM     40  C   UNL A   1      42.646  30.068  28.849  1.00  0.00     0.074 A 
ATOM     41  C   UNL A   1      41.802  27.774  28.466  1.00  0.00     0.049 A 
ATOM     42  N   UNL A   1      43.897  29.934  28.488  1.00  0.00    -0.248 NA
ATOM     43  C   UNL A   1      42.288  31.433  29.269  1.00  0.00     0.031 C 
ATOM     44  C   UNL A   1      40.816  26.692  28.406  1.00  0.00     0.029 A 
ATOM     45  N   UNL A   1      42.964  27.188  28.030  1.00  0.00    -0.354 N 
ATOM     46  C   UNL A   1      44.468  31.195  28.620  1.00  0.00     0.074 A 
ATOM     47  C   UNL A   1      43.416  32.091  29.046  1.00  0.00     0.031 C 
ATOM     48  C   UNL A   1      41.422  25.568  27.990  1.00  0.00     0.029 A 
ATOM     49  C   UNL A   1      42.825  25.857  27.710  1.00  0.00     0.049 A 
ATOM     50  H   UNL A   1      43.816  27.674  27.954  1.00  0.00     0.167 HD
ATOM     51  C   UNL A   1      45.755  31.570  28.420  1.00  0.00     0.031 A 
ATOM     52  C   UNL A   1      43.722  24.970  27.236  1.00  0.00     0.031 A 
ATOM     53  C   UNL A   1      46.800  30.671  28.004  1.00  0.00     0.049 A 
ATOM     54  C   UNL A   1      45.140  25.417  27.003  1.00  0.00     0.074 A 
ATOM     55  C   UNL A   1      48.146  30.941  27.833  1.00  0.00     0.029 A 
ATOM     56  N   UNL A   1      46.616  29.334  27.688  1.00  0.00    -0.354 N 
ATOM     57  N   UNL A   1      45.676  26.598  27.202  1.00  0.00    -0.248 NA
ATOM     58  C   UNL A   1      46.077  24.407  26.491  1.00  0.00     0.031 C 
ATOM     59  C   UNL A   1      48.765  29.784  27.351  1.00  0.00     0.029 A 
ATOM     60  C   UNL A   1      47.819  28.774  27.291  1.00  0.00     0.049 A 
ATOM     61  H   UNL A   1      45.758  28.853  27.737  1.00  0.00     0.167 HD
ATOM     62  C   UNL A   1      47.019  26.464  26.870  1.00  0.00     0.074 A 
ATOM     63  C   UNL A   1      47.217  25.086  26.473  1.00  0.00     0.031 C 
ATOM     64  C   UNL A   1      48.002  27.399  26.896  1.00  0.00     0.031 A 
BRANCH  51  65
ATOM     65  C   UNL A   1      46.104  33.020  28.636  1.00  0.00    -0.014 A 
ATOM     66  C   UNL A   1      46.547  33.486  29.888  1.00  0.00     0.010 A 
ATOM     67  C   UNL A   1      46.036  33.922  27.558  1.00  0.00     0.010 A 
ATOM     68  C   UNL A   1      46.877  34.832  30.066  1.00  0.00     0.020 A 
ATOM     69  C   UNL A   1      46.395  35.262  27.725  1.00  0.00     0.020 A 
ATOM     70  C   UNL A   1      46.798  35.713  28.983  1.00  0.00     0.054 A 
BRANCH  70  71
ATOM     71  S   UNL A   1      47.260  37.448  29.238  1.00  0.00     0.124 S 
ATOM     72  O   UNL A   1      47.787  37.422  30.600  1.00  0.00    -0.237 OA
ATOM     73  O   UNL A   1      48.248  37.673  28.188  1.00  0.00    -0.237 OA
ATOM     74  O   UNL A   1      46.001  38.170  29.073  1.00  0.00    -0.744 OA
ENDBRANCH  70  71
ENDBRANCH  51  65
BRANCH  52  75
ATOM     75  C   UNL A   1      43.310  23.566  26.961  1.00  0.00    -0.014 A 
ATOM     76  C   UNL A   1      43.226  23.089  25.640  1.00  0.00     0.010 A 
ATOM     77  C   UNL A   1      43.001  22.693  28.021  1.00  0.00     0.010 A 
ATOM     78  C   UNL A   1      42.819  21.777  25.383  1.00  0.00     0.020 A 
ATOM     79  C   UNL A   1      42.624  21.370  27.769  1.00  0.00     0.020 A 
ATOM     80  C   UNL A   1      42.523  20.925  26.450  1.00  0.00     0.054 A 
BRANCH  80  81
ATOM     81  S   UNL A   1      42.039  19.213  26.094  1.00  0.00     0.124 S 
ATOM     82  O   UNL A   1      42.793  18.931  24.876  1.00  0.00    -0.237 OA
ATOM     83  O   UNL A   1      42.480  18.505  27.292  1.00  0.00    -0.237 OA
ATOM     84  O   UNL A   1      40.590  19.296  25.926  1.00  0.00    -0.744 OA
ENDBRANCH  80  81
ENDBRANCH  52  75
BRANCH  64  85
ATOM     85  C   UNL A   1      49.392  26.956  26.521  1.00  0.00    -0.014 A 
ATOM     86  C   UNL A   1      49.790  26.848  25.177  1.00  0.00     0.010 A 
ATOM     87  C   UNL A   1      50.334  26.701  27.536  1.00  0.00     0.010 A 
ATOM     88  C   UNL A   1      51.092  26.458  24.854  1.00  0.00     0.020 A 
ATOM     89  C   UNL A   1      51.646  26.342  27.218  1.00  0.00     0.020 A 
ATOM     90  C   UNL A   1      52.013  26.210  25.878  1.00  0.00     0.054 A 
BRANCH  90  91
ATOM     91  S   UNL A   1      53.710  25.749  25.432  1.00  0.00     0.124 S 
ATOM     92  O   UNL A   1      53.784  24.370  25.902  1.00  0.00    -0.237 OA
ATOM     93  O   UNL A   1      53.716  25.921  23.981  1.00  0.00    -0.237 OA
ATOM     94  O   UNL A   1      54.534  26.704  26.169  1.00  0.00    -0.744 OA
ENDBRANCH  90  91
ENDBRANCH  64  85
ENDBRANCH  38  39
ENDBRANCH  30  33
ENDBRANCH  28  29
ENDBRANCH  27  28
ENDBRANCH   1  27
TORSDOF 20
ENDMDL
MODEL 3
REMARK VINA RESULT:      -9.4      2.190      8.852
REMARK SMILES CC(C)[NH2+][C@]1(C(=O)NCCCCCCNC(=O)c2ccc(-c3c4nc(c(-c5ccc(S(=O)(=O)[O-])cc5)c5ccc([nH]5)c(-c5ccc(S(=O)(=O)[O-])cc5)c5nc(c(-c6ccc(S(=O)(=O)[O-])cc6)c6ccc3[nH]6)C=C5)C=C4)cc2)CCC[C@@H]([N@@H+](C)C2CC2)C1
REMARK SMILES IDX 12 1 11 2 10 3 9 4 8 5 6 6 7 7 5 9 78 10 87 11 79 12 81 13
REMARK SMILES IDX 80 14 4 15 2 18 1 19 3 20 82 21 83 22 84 24 85 25 86 26
REMARK SMILES IDX 13 27 14 28 15 29 16 30 17 32 18 33 19 34 77 35 20 36 76 37
REMARK SMILES IDX 21 38 22 39 23 40 70 41 24 42 75 43 69 44 71 45 25 46 74 47
REMARK SMILES IDX 68 48 67 49 26 51 56 52 37 53 55 54 38 55 41 56 54 57 72 58
REMARK SMILES IDX 39 59 40 60 53 62 73 63 42 64 27 65 28 66 36 67 29 68 35 69
REMARK SMILES IDX 30 70 31 71 32 72 33 73 34 74 57 75 58 76 66 77 59 78 65 79
REMARK SMILES IDX 60 80 61 81 62 82 63 83 64 84 43 85 44 86 52 87 45 88 51 89
REMARK SMILES IDX 46 90 47 91 48 92 49 93 50 94
REMARK H PARENT 8 8 4 16 4 17 82 23 15 31 71 50 41 61
REMARK Flexibility Score: inf
ROOT
ATOM      1  C   UNL A   1      34.735  22.466  25.790  1.00  0.00     0.002 C 
ENDROOT
BRANCH   1   2
ATOM      2  C   UNL A   1      34.400  22.575  27.280  1.00  0.00     0.002 C 
BRANCH   2   3
ATOM      3  C   UNL A   1      32.919  22.754  27.630  1.00  0.00     0.021 C 
BRANCH   3   4
ATOM      4  C   UNL A   1      31.965  22.947  26.455  1.00  0.00     0.116 C 
BRANCH   4   5
ATOM      5  N   UNL A   1      30.833  23.786  26.787  1.00  0.00    -0.351 N 
ATOM      6  C   UNL A   1      30.399  24.964  26.253  1.00  0.00     0.281 C 
ATOM      7  O   UNL A   1      29.334  25.386  26.727  1.00  0.00    -0.268 OA
ATOM      8  H   UNL A   1      30.281  23.448  27.528  1.00  0.00     0.163 HD
BRANCH   6   9
ATOM      9  C   UNL A   1      31.219  25.808  25.174  1.00  0.00     0.181 C 
ATOM     10  C   UNL A   1      32.678  25.829  25.690  1.00  0.00     0.079 C 
ATOM     11  C   UNL A   1      31.178  24.948  23.884  1.00  0.00     0.144 C 
ATOM     12  C   UNL A   1      33.749  26.262  24.705  1.00  0.00     0.013 C 
ATOM     13  C   UNL A   1      32.243  25.249  22.806  1.00  0.00     0.190 C 
ATOM     14  C   UNL A   1      33.617  25.757  23.277  1.00  0.00     0.065 C 
BRANCH   9  15
ATOM     15  N   UNL A   1      30.644  27.173  25.147  1.00  0.00    -0.331 N 
ATOM     16  H   UNL A   1      29.711  27.089  25.552  1.00  0.00     0.347 HD
ATOM     17  H   UNL A   1      31.370  27.705  25.627  1.00  0.00     0.347 HD
BRANCH  15  18
ATOM     18  C   UNL A   1      30.480  27.951  23.930  1.00  0.00     0.176 C 
ATOM     19  C   UNL A   1      29.059  27.722  23.394  1.00  0.00     0.075 C 
ATOM     20  C   UNL A   1      30.671  29.449  24.173  1.00  0.00     0.075 C 
ENDBRANCH  15  18
ENDBRANCH   9  15
BRANCH  13  21
ATOM     21  N   UNL A   1      32.336  24.181  21.766  1.00  0.00    -0.332 N 
ATOM     22  C   UNL A   1      32.920  24.731  20.529  1.00  0.00     0.333 C 
ATOM     23  H   UNL A   1      31.364  23.897  21.648  1.00  0.00     0.348 HD
BRANCH  21  24
ATOM     24  C   UNL A   1      33.012  22.902  22.122  1.00  0.00     0.184 C 
ATOM     25  C   UNL A   1      32.740  22.067  23.343  1.00  0.00     0.071 C 
ATOM     26  C   UNL A   1      32.230  21.617  22.011  1.00  0.00     0.071 C 
ENDBRANCH  21  24
ENDBRANCH  13  21
ENDBRANCH   6   9
ENDBRANCH   4   5
ENDBRANCH   3   4
ENDBRANCH   2   3
ENDBRANCH   1   2
BRANCH   1  27
ATOM     27  C   UNL A   1      35.781  23.450  25.267  1.00  0.00     0.021 C 
BRANCH  27  28
ATOM     28  C   UNL A   1      37.009  23.631  26.153  1.00  0.00     0.116 C 
BRANCH  28  29
ATOM     29  N   UNL A   1      37.834  22.435  26.211  1.00  0.00    -0.352 N 
ATOM     30  C   UNL A   1      39.184  22.324  26.427  1.00  0.00     0.251 C 
ATOM     31  H   UNL A   1      37.355  21.585  26.078  1.00  0.00     0.163 HD
ATOM     32  O   UNL A   1      39.744  21.238  26.266  1.00  0.00    -0.269 OA
BRANCH  30  33
ATOM     33  C   UNL A   1      39.971  23.510  26.827  1.00  0.00     0.039 A 
ATOM     34  C   UNL A   1      39.936  24.649  26.019  1.00  0.00     0.014 A 
ATOM     35  C   UNL A   1      40.741  23.501  27.993  1.00  0.00     0.014 A 
ATOM     36  C   UNL A   1      40.629  25.797  26.411  1.00  0.00     0.010 A 
ATOM     37  C   UNL A   1      41.368  24.670  28.421  1.00  0.00     0.010 A 
ATOM     38  C   UNL A   1      41.322  25.829  27.631  1.00  0.00    -0.014 A 
BRANCH  38  39
ATOM     39  C   UNL A   1      42.005  27.064  28.098  1.00  0.00     0.031 A 
ATOM     40  C   UNL A   1      41.201  28.214  28.644  1.00  0.00     0.074 A 
ATOM     41  C   UNL A   1      43.344  27.171  27.978  1.00  0.00     0.049 A 
ATOM     42  N   UNL A   1      41.615  29.385  29.059  1.00  0.00    -0.248 NA
ATOM     43  C   UNL A   1      39.742  28.036  28.714  1.00  0.00     0.031 C 
ATOM     44  C   UNL A   1      44.231  26.141  27.432  1.00  0.00     0.029 A 
ATOM     45  N   UNL A   1      44.194  28.199  28.306  1.00  0.00    -0.354 N 
ATOM     46  C   UNL A   1      40.470  30.086  29.420  1.00  0.00     0.074 A 
ATOM     47  C   UNL A   1      39.342  29.229  29.130  1.00  0.00     0.031 C 
ATOM     48  C   UNL A   1      45.500  26.576  27.493  1.00  0.00     0.029 A 
ATOM     49  C   UNL A   1      45.515  27.930  28.036  1.00  0.00     0.049 A 
ATOM     50  H   UNL A   1      43.886  29.048  28.697  1.00  0.00     0.167 HD
ATOM     51  C   UNL A   1      40.368  31.324  29.961  1.00  0.00     0.031 A 
ATOM     52  C   UNL A   1      46.617  28.689  28.200  1.00  0.00     0.031 A 
ATOM     53  C   UNL A   1      41.495  32.169  30.256  1.00  0.00     0.049 A 
ATOM     54  C   UNL A   1      46.474  30.069  28.783  1.00  0.00     0.074 A 
ATOM     55  C   UNL A   1      41.500  33.415  30.859  1.00  0.00     0.029 A 
ATOM     56  N   UNL A   1      42.815  31.860  29.965  1.00  0.00    -0.354 N 
ATOM     57  N   UNL A   1      45.388  30.687  29.184  1.00  0.00    -0.248 NA
ATOM     58  C   UNL A   1      47.708  30.852  28.944  1.00  0.00     0.031 C 
ATOM     59  C   UNL A   1      42.815  33.888  30.874  1.00  0.00     0.029 A 
ATOM     60  C   UNL A   1      43.639  32.906  30.346  1.00  0.00     0.049 A 
ATOM     61  H   UNL A   1      43.122  31.023  29.549  1.00  0.00     0.167 HD
ATOM     62  C   UNL A   1      45.812  31.916  29.675  1.00  0.00     0.074 A 
ATOM     63  C   UNL A   1      47.253  31.949  29.534  1.00  0.00     0.031 C 
ATOM     64  C   UNL A   1      45.074  32.926  30.200  1.00  0.00     0.031 A 
BRANCH  51  65
ATOM     65  C   UNL A   1      38.986  31.848  30.257  1.00  0.00    -0.014 A 
ATOM     66  C   UNL A   1      38.315  32.692  29.352  1.00  0.00     0.010 A 
ATOM     67  C   UNL A   1      38.327  31.450  31.434  1.00  0.00     0.010 A 
ATOM     68  C   UNL A   1      37.029  33.159  29.638  1.00  0.00     0.020 A 
ATOM     69  C   UNL A   1      37.029  31.890  31.709  1.00  0.00     0.020 A 
ATOM     70  C   UNL A   1      36.394  32.755  30.817  1.00  0.00     0.054 A 
BRANCH  70  71
ATOM     71  S   UNL A   1      34.715  33.355  31.147  1.00  0.00     0.124 S 
ATOM     72  O   UNL A   1      34.103  33.280  29.824  1.00  0.00    -0.237 OA
ATOM     73  O   UNL A   1      34.218  32.390  32.124  1.00  0.00    -0.237 OA
ATOM     74  O   UNL A   1      34.923  34.706  31.660  1.00  0.00    -0.744 OA
ENDBRANCH  70  71
ENDBRANCH  51  65
BRANCH  52  75
ATOM     75  C   UNL A   1      47.954  28.157  27.817  1.00  0.00    -0.014 A 
ATOM     76  C   UNL A   1      48.693  27.365  28.715  1.00  0.00     0.010 A 
ATOM     77  C   UNL A   1      48.497  28.437  26.550  1.00  0.00     0.010 A 
ATOM     78  C   UNL A   1      49.958  26.884  28.362  1.00  0.00     0.020 A 
ATOM     79  C   UNL A   1      49.747  27.931  26.181  1.00  0.00     0.020 A 
ATOM     80  C   UNL A   1      50.475  27.168  27.095  1.00  0.00     0.054 A 
BRANCH  80  81
ATOM     81  S   UNL A   1      52.099  26.497  26.644  1.00  0.00     0.124 S 
ATOM     82  O   UNL A   1      51.881  25.060  26.774  1.00  0.00    -0.237 OA
ATOM     83  O   UNL A   1      52.276  26.991  25.281  1.00  0.00    -0.237 OA
ATOM     84  O   UNL A   1      52.999  27.085  27.634  1.00  0.00    -0.744 OA
ENDBRANCH  80  81
ENDBRANCH  52  75
BRANCH  64  85
ATOM     85  C   UNL A   1      45.813  34.141  30.699  1.00  0.00    -0.014 A 
ATOM     86  C   UNL A   1      46.049  35.249  29.865  1.00  0.00     0.010 A 
ATOM     87  C   UNL A   1      46.226  34.194  32.043  1.00  0.00     0.010 A 
ATOM     88  C   UNL A   1      46.716  36.373  30.358  1.00  0.00     0.020 A 
ATOM     89  C   UNL A   1      46.864  35.330  32.548  1.00  0.00     0.020 A 
ATOM     90  C   UNL A   1      47.118  36.408  31.698  1.00  0.00     0.054 A 
BRANCH  90  91
ATOM     91  S   UNL A   1      47.941  37.897  32.324  1.00  0.00     0.124 S 
ATOM     92  O   UNL A   1      47.888  37.689  33.768  1.00  0.00    -0.237 OA
ATOM     93  O   UNL A   1      49.269  37.804  31.723  1.00  0.00    -0.237 OA
ATOM     94  O   UNL A   1      47.112  38.991  31.821  1.00  0.00    -0.744 OA
ENDBRANCH  90  91
ENDBRANCH  64  85
ENDBRANCH  38  39
ENDBRANCH  30  33
ENDBRANCH  28  29
ENDBRANCH  27  28
ENDBRANCH   1  27
TORSDOF 20
ENDMDL
