MODEL 1
REMARK VINA RESULT:     -10.6      0.000      0.000
REMARK SMILES C[C@H](C(=O)NCCCCCCNC(=O)c1ccc(-c2c3nc(c(-c4ccc(S(=O)(=O)[O-])cc4)c4ccc([nH]4)c(-c4ccc(S(=O)(=O)[O-])cc4)c4nc(c(-c5ccc(S(=O)(=O)[O-])cc5)c5ccc2[nH]5)C=C4)C=C3)cc1)[C@H](C)[NH+]1CCN(c2ccccc2Cl)CC1
REMARK SMILES IDX 8 1 7 2 6 3 5 4 3 5 4 6 2 8 1 9 75 10 76 11 77 12 78 13
REMARK SMILES IDX 89 14 79 16 88 17 80 18 81 19 82 20 86 21 83 22 85 23 87 24
REMARK SMILES IDX 84 25 9 26 10 27 11 28 12 29 13 30 14 32 15 33 16 34 74 35
REMARK SMILES IDX 17 36 73 37 18 38 19 39 20 40 67 41 21 42 72 43 66 44 68 45
REMARK SMILES IDX 22 46 71 47 65 48 64 49 23 51 53 52 34 53 52 54 35 55 38 56
REMARK SMILES IDX 51 57 69 58 36 59 37 60 50 62 70 63 39 64 24 65 25 66 33 67
REMARK SMILES IDX 26 68 32 69 27 70 28 71 29 72 30 73 31 74 54 75 55 76 63 77
REMARK SMILES IDX 56 78 62 79 57 80 58 81 59 82 60 83 61 84 40 85 41 86 49 87
REMARK SMILES IDX 42 88 48 89 43 90 44 91 45 92 46 93 47 94
REMARK H PARENT 5 7 77 15 12 31 68 50 38 61
REMARK Flexibility Score: inf
ROOT
ATOM      1  C   UNL A   1      33.276  28.233  23.661  1.00  0.00     0.002 C 
ENDROOT
BRANCH   1   2
ATOM      2  C   UNL A   1      31.983  28.836  23.104  1.00  0.00     0.021 C 
BRANCH   2   3
ATOM      3  C   UNL A   1      30.847  28.888  24.119  1.00  0.00     0.116 C 
BRANCH   3   4
ATOM      4  N   UNL A   1      29.755  28.017  23.723  1.00  0.00    -0.356 N 
ATOM      5  C   UNL A   1      29.543  26.701  24.010  1.00  0.00     0.228 C 
ATOM      6  O   UNL A   1      28.491  26.189  23.628  1.00  0.00    -0.275 OA
ATOM      7  H   UNL A   1      29.065  28.439  23.163  1.00  0.00     0.163 HD
BRANCH   5   8
ATOM      8  C   UNL A   1      30.554  25.970  24.893  1.00  0.00     0.133 C 
ATOM      9  C   UNL A   1      29.711  25.491  26.077  1.00  0.00     0.024 C 
BRANCH   8  10
ATOM     10  C   UNL A   1      31.535  24.995  24.116  1.00  0.00     0.193 C 
ATOM     11  C   UNL A   1      31.483  25.212  22.584  1.00  0.00     0.076 C 
BRANCH  10  12
ATOM     12  N   UNL A   1      31.867  23.623  24.604  1.00  0.00    -0.329 N 
ATOM     13  C   UNL A   1      32.844  22.829  23.845  1.00  0.00     0.284 C 
ATOM     14  C   UNL A   1      32.307  23.543  26.028  1.00  0.00     0.284 C 
ATOM     15  H   UNL A   1      30.942  23.215  24.465  1.00  0.00     0.348 HD
ATOM     16  C   UNL A   1      34.252  23.426  23.894  1.00  0.00     0.178 C 
ATOM     17  C   UNL A   1      33.805  23.892  26.322  1.00  0.00     0.178 C 
ATOM     18  N   UNL A   1      34.707  23.378  25.282  1.00  0.00    -0.359 N 
BRANCH  18  19
ATOM     19  C   UNL A   1      35.976  22.897  25.532  1.00  0.00     0.056 A 
ATOM     20  C   UNL A   1      37.004  23.812  25.821  1.00  0.00     0.027 A 
ATOM     21  C   UNL A   1      36.333  21.540  25.402  1.00  0.00     0.064 A 
ATOM     22  C   UNL A   1      38.333  23.405  25.964  1.00  0.00     0.002 A 
ATOM     23  C   UNL A   1      37.664  21.131  25.547  1.00  0.00     0.023 A 
ATOM     24  Cl  UNL A   1      35.190  20.325  24.931  1.00  0.00    -0.082 Cl
ATOM     25  C   UNL A   1      38.663  22.063  25.823  1.00  0.00     0.002 A 
ENDBRANCH  18  19
ENDBRANCH  10  12
ENDBRANCH   8  10
ENDBRANCH   5   8
ENDBRANCH   3   4
ENDBRANCH   2   3
ENDBRANCH   1   2
BRANCH   1  26
ATOM     26  C   UNL A   1      33.842  28.951  24.891  1.00  0.00     0.002 C 
BRANCH  26  27
ATOM     27  C   UNL A   1      34.058  28.056  26.114  1.00  0.00     0.021 C 
BRANCH  27  28
ATOM     28  C   UNL A   1      33.348  28.534  27.374  1.00  0.00     0.116 C 
BRANCH  28  29
ATOM     29  N   UNL A   1      33.427  29.977  27.526  1.00  0.00    -0.352 N 
ATOM     30  C   UNL A   1      34.447  30.739  28.039  1.00  0.00     0.251 C 
ATOM     31  H   UNL A   1      32.639  30.480  27.216  1.00  0.00     0.163 HD
ATOM     32  O   UNL A   1      34.264  31.927  28.289  1.00  0.00    -0.269 OA
BRANCH  30  33
ATOM     33  C   UNL A   1      35.757  30.111  28.312  1.00  0.00     0.039 A 
ATOM     34  C   UNL A   1      36.719  30.091  27.302  1.00  0.00     0.014 A 
ATOM     35  C   UNL A   1      36.040  29.572  29.571  1.00  0.00     0.014 A 
ATOM     36  C   UNL A   1      37.997  29.602  27.580  1.00  0.00     0.010 A 
ATOM     37  C   UNL A   1      37.333  29.149  29.865  1.00  0.00     0.010 A 
ATOM     38  C   UNL A   1      38.329  29.173  28.876  1.00  0.00    -0.014 A 
BRANCH  38  39
ATOM     39  C   UNL A   1      39.725  28.811  29.228  1.00  0.00     0.031 A 
ATOM     40  C   UNL A   1      40.644  29.821  29.861  1.00  0.00     0.074 A 
ATOM     41  C   UNL A   1      40.185  27.584  28.906  1.00  0.00     0.049 A 
ATOM     42  N   UNL A   1      41.906  29.695  30.179  1.00  0.00    -0.248 NA
ATOM     43  C   UNL A   1      40.081  31.150  30.156  1.00  0.00     0.031 C 
ATOM     44  C   UNL A   1      39.404  26.533  28.246  1.00  0.00     0.029 A 
ATOM     45  N   UNL A   1      41.424  27.015  29.075  1.00  0.00    -0.354 N 
ATOM     46  C   UNL A   1      42.294  30.926  30.696  1.00  0.00     0.074 A 
ATOM     47  C   UNL A   1      41.142  31.798  30.619  1.00  0.00     0.031 C 
ATOM     48  C   UNL A   1      40.175  25.446  28.084  1.00  0.00     0.029 A 
ATOM     49  C   UNL A   1      41.516  25.734  28.581  1.00  0.00     0.049 A 
ATOM     50  H   UNL A   1      42.175  27.480  29.509  1.00  0.00     0.167 HD
ATOM     51  C   UNL A   1      43.497  31.290  31.196  1.00  0.00     0.031 A 
ATOM     52  C   UNL A   1      42.566  24.892  28.511  1.00  0.00     0.031 A 
ATOM     53  C   UNL A   1      44.635  30.411  31.285  1.00  0.00     0.049 A 
ATOM     54  C   UNL A   1      43.896  25.336  29.058  1.00  0.00     0.074 A 
ATOM     55  C   UNL A   1      45.869  30.667  31.856  1.00  0.00     0.029 A 
ATOM     56  N   UNL A   1      44.685  29.121  30.782  1.00  0.00    -0.354 N 
ATOM     57  N   UNL A   1      44.209  26.468  29.641  1.00  0.00    -0.248 NA
ATOM     58  C   UNL A   1      45.013  24.387  28.942  1.00  0.00     0.031 C 
ATOM     59  C   UNL A   1      46.692  29.559  31.632  1.00  0.00     0.029 A 
ATOM     60  C   UNL A   1      45.947  28.587  30.984  1.00  0.00     0.049 A 
ATOM     61  H   UNL A   1      43.937  28.654  30.345  1.00  0.00     0.167 HD
ATOM     62  C   UNL A   1      45.554  26.359  29.976  1.00  0.00     0.074 A 
ATOM     63  C   UNL A   1      45.986  25.042  29.560  1.00  0.00     0.031 C 
ATOM     64  C   UNL A   1      46.363  27.274  30.565  1.00  0.00     0.031 A 
BRANCH  51  65
ATOM     65  C   UNL A   1      43.671  32.702  31.687  1.00  0.00    -0.014 A 
ATOM     66  C   UNL A   1      43.437  33.040  33.032  1.00  0.00     0.010 A 
ATOM     67  C   UNL A   1      44.191  33.678  30.816  1.00  0.00     0.010 A 
ATOM     68  C   UNL A   1      43.715  34.330  33.494  1.00  0.00     0.020 A 
ATOM     69  C   UNL A   1      44.493  34.961  31.281  1.00  0.00     0.020 A 
ATOM     70  C   UNL A   1      44.249  35.280  32.618  1.00  0.00     0.054 A 
BRANCH  70  71
ATOM     71  S   UNL A   1      44.678  36.919  33.269  1.00  0.00     0.124 S 
ATOM     72  O   UNL A   1      46.098  37.011  32.940  1.00  0.00    -0.237 OA
ATOM     73  O   UNL A   1      43.799  37.802  32.508  1.00  0.00    -0.237 OA
ATOM     74  O   UNL A   1      44.375  36.817  34.694  1.00  0.00    -0.744 OA
ENDBRANCH  70  71
ENDBRANCH  51  65
BRANCH  52  75
ATOM     75  C   UNL A   1      42.421  23.556  27.866  1.00  0.00    -0.014 A 
ATOM     76  C   UNL A   1      41.726  22.515  28.508  1.00  0.00     0.010 A 
ATOM     77  C   UNL A   1      43.015  23.308  26.614  1.00  0.00     0.010 A 
ATOM     78  C   UNL A   1      41.668  21.241  27.932  1.00  0.00     0.020 A 
ATOM     79  C   UNL A   1      42.928  22.046  26.019  1.00  0.00     0.020 A 
ATOM     80  C   UNL A   1      42.274  21.016  26.693  1.00  0.00     0.054 A 
BRANCH  80  81
ATOM     81  S   UNL A   1      42.185  19.357  25.963  1.00  0.00     0.124 S 
ATOM     82  O   UNL A   1      40.746  19.181  25.790  1.00  0.00    -0.237 OA
ATOM     83  O   UNL A   1      42.957  19.512  24.733  1.00  0.00    -0.237 OA
ATOM     84  O   UNL A   1      42.804  18.505  26.976  1.00  0.00    -0.744 OA
ENDBRANCH  80  81
ENDBRANCH  52  75
BRANCH  64  85
ATOM     85  C   UNL A   1      47.795  26.876  30.812  1.00  0.00    -0.014 A 
ATOM     86  C   UNL A   1      48.804  27.188  29.883  1.00  0.00     0.010 A 
ATOM     87  C   UNL A   1      48.144  26.238  32.016  1.00  0.00     0.010 A 
ATOM     88  C   UNL A   1      50.133  26.842  30.141  1.00  0.00     0.020 A 
ATOM     89  C   UNL A   1      49.476  25.920  32.292  1.00  0.00     0.020 A 
ATOM     90  C   UNL A   1      50.461  26.213  31.346  1.00  0.00     0.054 A 
BRANCH  90  91
ATOM     91  S   UNL A   1      52.201  25.824  31.677  1.00  0.00     0.124 S 
ATOM     92  O   UNL A   1      52.132  24.416  32.057  1.00  0.00    -0.237 OA
ATOM     93  O   UNL A   1      52.839  26.098  30.392  1.00  0.00    -0.237 OA
ATOM     94  O   UNL A   1      52.563  26.742  32.755  1.00  0.00    -0.744 OA
ENDBRANCH  90  91
ENDBRANCH  64  85
ENDBRANCH  38  39
ENDBRANCH  30  33
ENDBRANCH  28  29
ENDBRANCH  27  28
ENDBRANCH  26  27
ENDBRANCH   1  26
TORSDOF 19
ENDMDL
MODEL 2
REMARK VINA RESULT:     -10.1      4.422     10.320
REMARK SMILES C[C@H](C(=O)NCCCCCCNC(=O)c1ccc(-c2c3nc(c(-c4ccc(S(=O)(=O)[O-])cc4)c4ccc([nH]4)c(-c4ccc(S(=O)(=O)[O-])cc4)c4nc(c(-c5ccc(S(=O)(=O)[O-])cc5)c5ccc2[nH]5)C=C4)C=C3)cc1)[C@H](C)[NH+]1CCN(c2ccccc2Cl)CC1
REMARK SMILES IDX 8 1 7 2 6 3 5 4 3 5 4 6 2 8 1 9 75 10 76 11 77 12 78 13
REMARK SMILES IDX 89 14 79 16 88 17 80 18 81 19 82 20 86 21 83 22 85 23 87 24
REMARK SMILES IDX 84 25 9 26 10 27 11 28 12 29 13 30 14 32 15 33 16 34 74 35
REMARK SMILES IDX 17 36 73 37 18 38 19 39 20 40 67 41 21 42 72 43 66 44 68 45
REMARK SMILES IDX 22 46 71 47 65 48 64 49 23 51 53 52 34 53 52 54 35 55 38 56
REMARK SMILES IDX 51 57 69 58 36 59 37 60 50 62 70 63 39 64 24 65 25 66 33 67
REMARK SMILES IDX 26 68 32 69 27 70 28 71 29 72 30 73 31 74 54 75 55 76 63 77
REMARK SMILES IDX 56 78 62 79 57 80 58 81 59 82 60 83 61 84 40 85 41 86 49 87
REMARK SMILES IDX 42 88 48 89 43 90 44 91 45 92 46 93 47 94
REMARK H PARENT 5 7 77 15 12 31 68 50 38 61
REMARK Flexibility Score: inf
ROOT
ATOM      1  C   UNL A   1      37.715  21.594  25.198  1.00  0.00     0.002 C 
ENDROOT
BRANCH   1   2
ATOM      2  C   UNL A   1      36.472  20.713  25.038  1.00  0.00     0.021 C 
BRANCH   2   3
ATOM      3  C   UNL A   1      35.193  21.363  25.551  1.00  0.00     0.116 C 
BRANCH   3   4
ATOM      4  N   UNL A   1      34.069  20.450  25.454  1.00  0.00    -0.356 N 
ATOM      5  C   UNL A   1      32.876  20.601  24.812  1.00  0.00     0.228 C 
ATOM      6  O   UNL A   1      32.102  19.645  24.799  1.00  0.00    -0.275 OA
ATOM      7  H   UNL A   1      34.185  19.592  25.922  1.00  0.00     0.163 HD
BRANCH   5   8
ATOM      8  C   UNL A   1      32.617  21.895  24.040  1.00  0.00     0.133 C 
ATOM      9  C   UNL A   1      32.090  21.403  22.690  1.00  0.00     0.024 C 
BRANCH   8  10
ATOM     10  C   UNL A   1      31.873  23.027  24.866  1.00  0.00     0.193 C 
ATOM     11  C   UNL A   1      31.163  22.463  26.121  1.00  0.00     0.076 C 
BRANCH  10  12
ATOM     12  N   UNL A   1      31.278  24.237  24.226  1.00  0.00    -0.329 N 
ATOM     13  C   UNL A   1      30.513  25.168  25.068  1.00  0.00     0.284 C 
ATOM     14  C   UNL A   1      32.236  25.088  23.460  1.00  0.00     0.284 C 
ATOM     15  H   UNL A   1      30.626  23.746  23.614  1.00  0.00     0.348 HD
ATOM     16  C   UNL A   1      31.386  25.876  26.107  1.00  0.00     0.178 C 
ATOM     17  C   UNL A   1      33.108  26.089  24.290  1.00  0.00     0.178 C 
ATOM     18  N   UNL A   1      32.349  26.706  25.387  1.00  0.00    -0.359 N 
BRANCH  18  19
ATOM     19  C   UNL A   1      32.524  28.008  25.807  1.00  0.00     0.056 A 
ATOM     20  C   UNL A   1      33.362  28.258  26.909  1.00  0.00     0.027 A 
ATOM     21  C   UNL A   1      31.819  29.103  25.267  1.00  0.00     0.064 A 
ATOM     22  C   UNL A   1      33.488  29.535  27.462  1.00  0.00     0.002 A 
ATOM     23  C   UNL A   1      31.947  30.382  25.819  1.00  0.00     0.023 A 
ATOM     24  Cl  UNL A   1      30.665  28.916  23.988  1.00  0.00    -0.082 Cl
ATOM     25  C   UNL A   1      32.777  30.597  26.918  1.00  0.00     0.002 A 
ENDBRANCH  18  19
ENDBRANCH  10  12
ENDBRANCH   8  10
ENDBRANCH   5   8
ENDBRANCH   3   4
ENDBRANCH   2   3
ENDBRANCH   1   2
BRANCH   1  26
ATOM     26  C   UNL A   1      37.482  23.087  24.943  1.00  0.00     0.002 C 
BRANCH  26  27
ATOM     27  C   UNL A   1      37.811  23.999  26.127  1.00  0.00     0.021 C 
BRANCH  27  28
ATOM     28  C   UNL A   1      39.017  23.554  26.945  1.00  0.00     0.116 C 
BRANCH  28  29
ATOM     29  N   UNL A   1      40.266  23.784  26.237  1.00  0.00    -0.352 N 
ATOM     30  C   UNL A   1      41.065  24.899  26.231  1.00  0.00     0.251 C 
ATOM     31  H   UNL A   1      40.584  23.033  25.684  1.00  0.00     0.163 HD
ATOM     32  O   UNL A   1      41.973  25.003  25.411  1.00  0.00    -0.269 OA
BRANCH  30  33
ATOM     33  C   UNL A   1      40.805  25.985  27.199  1.00  0.00     0.039 A 
ATOM     34  C   UNL A   1      39.993  25.723  28.303  1.00  0.00     0.014 A 
ATOM     35  C   UNL A   1      41.386  27.245  27.030  1.00  0.00     0.014 A 
ATOM     36  C   UNL A   1      39.829  26.704  29.283  1.00  0.00     0.010 A 
ATOM     37  C   UNL A   1      41.278  28.196  28.041  1.00  0.00     0.010 A 
ATOM     38  C   UNL A   1      40.510  27.930  29.185  1.00  0.00    -0.014 A 
BRANCH  38  39
ATOM     39  C   UNL A   1      40.480  28.912  30.298  1.00  0.00     0.031 A 
ATOM     40  C   UNL A   1      41.396  28.758  31.482  1.00  0.00     0.074 A 
ATOM     41  C   UNL A   1      39.569  29.907  30.270  1.00  0.00     0.049 A 
ATOM     42  N   UNL A   1      41.463  29.487  32.566  1.00  0.00    -0.248 NA
ATOM     43  C   UNL A   1      42.344  27.631  31.457  1.00  0.00     0.031 C 
ATOM     44  C   UNL A   1      38.593  30.133  29.198  1.00  0.00     0.029 A 
ATOM     45  N   UNL A   1      39.301  30.907  31.172  1.00  0.00    -0.354 N 
ATOM     46  C   UNL A   1      42.444  28.902  33.358  1.00  0.00     0.074 A 
ATOM     47  C   UNL A   1      42.923  27.738  32.646  1.00  0.00     0.031 C 
ATOM     48  C   UNL A   1      37.850  31.210  29.497  1.00  0.00     0.029 A 
ATOM     49  C   UNL A   1      38.259  31.724  30.799  1.00  0.00     0.049 A 
ATOM     50  H   UNL A   1      39.808  31.029  32.007  1.00  0.00     0.167 HD
ATOM     51  C   UNL A   1      42.908  29.306  34.564  1.00  0.00     0.031 A 
ATOM     52  C   UNL A   1      37.677  32.757  31.441  1.00  0.00     0.031 A 
ATOM     53  C   UNL A   1      42.438  30.476  35.259  1.00  0.00     0.049 A 
ATOM     54  C   UNL A   1      38.203  33.167  32.791  1.00  0.00     0.074 A 
ATOM     55  C   UNL A   1      42.908  31.011  36.446  1.00  0.00     0.029 A 
ATOM     56  N   UNL A   1      41.387  31.280  34.846  1.00  0.00    -0.354 N 
ATOM     57  N   UNL A   1      39.205  32.663  33.471  1.00  0.00    -0.248 NA
ATOM     58  C   UNL A   1      37.524  34.287  33.457  1.00  0.00     0.031 C 
ATOM     59  C   UNL A   1      42.095  32.096  36.789  1.00  0.00     0.029 A 
ATOM     60  C   UNL A   1      41.163  32.277  35.780  1.00  0.00     0.049 A 
ATOM     61  H   UNL A   1      40.877  31.160  34.013  1.00  0.00     0.167 HD
ATOM     62  C   UNL A   1      39.286  33.418  34.636  1.00  0.00     0.074 A 
ATOM     63  C   UNL A   1      38.253  34.429  34.554  1.00  0.00     0.031 C 
ATOM     64  C   UNL A   1      40.132  33.278  35.686  1.00  0.00     0.031 A 
BRANCH  51  65
ATOM     65  C   UNL A   1      43.977  28.483  35.232  1.00  0.00    -0.014 A 
ATOM     66  C   UNL A   1      43.648  27.411  36.079  1.00  0.00     0.010 A 
ATOM     67  C   UNL A   1      45.328  28.713  34.910  1.00  0.00     0.010 A 
ATOM     68  C   UNL A   1      44.652  26.588  36.598  1.00  0.00     0.020 A 
ATOM     69  C   UNL A   1      46.332  27.876  35.406  1.00  0.00     0.020 A 
ATOM     70  C   UNL A   1      45.987  26.820  36.251  1.00  0.00     0.054 A 
BRANCH  70  71
ATOM     71  S   UNL A   1      47.257  25.683  36.873  1.00  0.00     0.124 S 
ATOM     72  O   UNL A   1      48.455  26.168  36.192  1.00  0.00    -0.237 OA
ATOM     73  O   UNL A   1      47.215  25.917  38.313  1.00  0.00    -0.237 OA
ATOM     74  O   UNL A   1      46.787  24.368  36.442  1.00  0.00    -0.744 OA
ENDBRANCH  70  71
ENDBRANCH  51  65
BRANCH  52  75
ATOM     75  C   UNL A   1      36.505  33.456  30.842  1.00  0.00    -0.014 A 
ATOM     76  C   UNL A   1      36.560  33.965  29.532  1.00  0.00     0.010 A 
ATOM     77  C   UNL A   1      35.335  33.649  31.600  1.00  0.00     0.010 A 
ATOM     78  C   UNL A   1      35.486  34.693  29.009  1.00  0.00     0.020 A 
ATOM     79  C   UNL A   1      34.245  34.344  31.067  1.00  0.00     0.020 A 
ATOM     80  C   UNL A   1      34.338  34.881  29.783  1.00  0.00     0.054 A 
BRANCH  80  81
ATOM     81  S   UNL A   1      32.955  35.825  29.085  1.00  0.00     0.124 S 
ATOM     82  O   UNL A   1      32.327  34.840  28.211  1.00  0.00    -0.237 OA
ATOM     83  O   UNL A   1      32.192  36.194  30.275  1.00  0.00    -0.237 OA
ATOM     84  O   UNL A   1      33.612  36.939  28.405  1.00  0.00    -0.744 OA
ENDBRANCH  80  81
ENDBRANCH  52  75
BRANCH  64  85
ATOM     85  C   UNL A   1      39.990  34.252  36.827  1.00  0.00    -0.014 A 
ATOM     86  C   UNL A   1      40.726  35.449  36.853  1.00  0.00     0.010 A 
ATOM     87  C   UNL A   1      39.062  33.993  37.853  1.00  0.00     0.010 A 
ATOM     88  C   UNL A   1      40.559  36.358  37.902  1.00  0.00     0.020 A 
ATOM     89  C   UNL A   1      38.868  34.915  38.885  1.00  0.00     0.020 A 
ATOM     90  C   UNL A   1      39.628  36.086  38.909  1.00  0.00     0.054 A 
BRANCH  90  91
ATOM     91  S   UNL A   1      39.394  37.308  40.228  1.00  0.00     0.124 S 
ATOM     92  O   UNL A   1      40.768  37.694  40.534  1.00  0.00    -0.237 OA
ATOM     93  O   UNL A   1      38.584  38.332  39.574  1.00  0.00    -0.237 OA
ATOM     94  O   UNL A   1      38.711  36.558  41.280  1.00  0.00    -0.744 OA
ENDBRANCH  90  91
ENDBRANCH  64  85
ENDBRANCH  38  39
ENDBRANCH  30  33
ENDBRANCH  28  29
ENDBRANCH  27  28
ENDBRANCH  26  27
ENDBRANCH   1  26
TORSDOF 19
ENDMDL
MODEL 3
REMARK VINA RESULT:      -9.7      0.931      8.124
REMARK SMILES C[C@H](C(=O)NCCCCCCNC(=O)c1ccc(-c2c3nc(c(-c4ccc(S(=O)(=O)[O-])cc4)c4ccc([nH]4)c(-c4ccc(S(=O)(=O)[O-])cc4)c4nc(c(-c5ccc(S(=O)(=O)[O-])cc5)c5ccc2[nH]5)C=C4)C=C3)cc1)[C@H](C)[NH+]1CCN(c2ccccc2Cl)CC1
REMARK SMILES IDX 8 1 7 2 6 3 5 4 3 5 4 6 2 8 1 9 75 10 76 11 77 12 78 13
REMARK SMILES IDX 89 14 79 16 88 17 80 18 81 19 82 20 86 21 83 22 85 23 87 24
REMARK SMILES IDX 84 25 9 26 10 27 11 28 12 29 13 30 14 32 15 33 16 34 74 35
REMARK SMILES IDX 17 36 73 37 18 38 19 39 20 40 67 41 21 42 72 43 66 44 68 45
REMARK SMILES IDX 22 46 71 47 65 48 64 49 23 51 53 52 34 53 52 54 35 55 38 56
REMARK SMILES IDX 51 57 69 58 36 59 37 60 50 62 70 63 39 64 24 65 25 66 33 67
REMARK SMILES IDX 26 68 32 69 27 70 28 71 29 72 30 73 31 74 54 75 55 76 63 77
REMARK SMILES IDX 56 78 62 79 57 80 58 81 59 82 60 83 61 84 40 85 41 86 49 87
REMARK SMILES IDX 42 88 48 89 43 90 44 91 45 92 46 93 47 94
REMARK H PARENT 5 7 77 15 12 31 68 50 38 61
REMARK Flexibility Score: inf
ROOT
ATOM      1  C   UNL A   1      32.839  29.332  24.077  1.00  0.00     0.002 C 
ENDROOT
BRANCH   1   2
ATOM      2  C   UNL A   1      31.399  29.511  24.569  1.00  0.00     0.021 C 
BRANCH   2   3
ATOM      3  C   UNL A   1      30.349  29.201  23.510  1.00  0.00     0.116 C 
BRANCH   3   4
ATOM      4  N   UNL A   1      30.861  28.260  22.530  1.00  0.00    -0.356 N 
ATOM      5  C   UNL A   1      31.043  26.913  22.628  1.00  0.00     0.228 C 
ATOM      6  O   UNL A   1      31.417  26.306  21.626  1.00  0.00    -0.275 OA
ATOM      7  H   UNL A   1      31.116  28.653  21.665  1.00  0.00     0.163 HD
BRANCH   5   8
ATOM      8  C   UNL A   1      30.652  26.212  23.930  1.00  0.00     0.133 C 
ATOM      9  C   UNL A   1      29.132  26.082  23.821  1.00  0.00     0.024 C 
BRANCH   8  10
ATOM     10  C   UNL A   1      31.571  24.980  24.325  1.00  0.00     0.193 C 
ATOM     11  C   UNL A   1      30.760  23.831  24.973  1.00  0.00     0.076 C 
BRANCH  10  12
ATOM     12  N   UNL A   1      32.996  25.134  24.743  1.00  0.00    -0.329 N 
ATOM     13  C   UNL A   1      33.471  24.366  25.903  1.00  0.00     0.284 C 
ATOM     14  C   UNL A   1      34.003  24.897  23.666  1.00  0.00     0.284 C 
ATOM     15  H   UNL A   1      32.942  26.118  25.008  1.00  0.00     0.348 HD
ATOM     16  C   UNL A   1      33.479  22.857  25.646  1.00  0.00     0.178 C 
ATOM     17  C   UNL A   1      34.367  23.405  23.360  1.00  0.00     0.178 C 
ATOM     18  N   UNL A   1      34.445  22.592  24.581  1.00  0.00    -0.359 N 
BRANCH  18  19
ATOM     19  C   UNL A   1      35.346  21.564  24.766  1.00  0.00     0.056 A 
ATOM     20  C   UNL A   1      36.718  21.868  24.831  1.00  0.00     0.027 A 
ATOM     21  C   UNL A   1      34.983  20.202  24.778  1.00  0.00     0.064 A 
ATOM     22  C   UNL A   1      37.691  20.867  24.894  1.00  0.00     0.002 A 
ATOM     23  C   UNL A   1      35.957  19.199  24.844  1.00  0.00     0.023 A 
ATOM     24  Cl  UNL A   1      33.340  19.684  24.584  1.00  0.00    -0.082 Cl
ATOM     25  C   UNL A   1      37.309  19.531  24.897  1.00  0.00     0.002 A 
ENDBRANCH  18  19
ENDBRANCH  10  12
ENDBRANCH   8  10
ENDBRANCH   5   8
ENDBRANCH   3   4
ENDBRANCH   2   3
ENDBRANCH   1   2
BRANCH   1  26
ATOM     26  C   UNL A   1      33.840  28.907  25.158  1.00  0.00     0.002 C 
BRANCH  26  27
ATOM     27  C   UNL A   1      33.272  27.961  26.220  1.00  0.00     0.021 C 
BRANCH  27  28
ATOM     28  C   UNL A   1      33.370  28.488  27.646  1.00  0.00     0.116 C 
BRANCH  28  29
ATOM     29  N   UNL A   1      33.436  29.940  27.683  1.00  0.00    -0.352 N 
ATOM     30  C   UNL A   1      34.479  30.750  28.058  1.00  0.00     0.251 C 
ATOM     31  H   UNL A   1      32.618  30.409  27.399  1.00  0.00     0.163 HD
ATOM     32  O   UNL A   1      34.295  31.951  28.232  1.00  0.00    -0.269 OA
BRANCH  30  33
ATOM     33  C   UNL A   1      35.816  30.160  28.275  1.00  0.00     0.039 A 
ATOM     34  C   UNL A   1      36.716  30.117  27.210  1.00  0.00     0.014 A 
ATOM     35  C   UNL A   1      36.186  29.679  29.535  1.00  0.00     0.014 A 
ATOM     36  C   UNL A   1      38.018  29.665  27.428  1.00  0.00     0.010 A 
ATOM     37  C   UNL A   1      37.504  29.294  29.767  1.00  0.00     0.010 A 
ATOM     38  C   UNL A   1      38.438  29.297  28.718  1.00  0.00    -0.014 A 
BRANCH  38  39
ATOM     39  C   UNL A   1      39.861  28.977  28.998  1.00  0.00     0.031 A 
ATOM     40  C   UNL A   1      40.435  27.639  28.620  1.00  0.00     0.074 A 
ATOM     41  C   UNL A   1      40.616  29.876  29.663  1.00  0.00     0.049 A 
ATOM     42  N   UNL A   1      41.636  27.171  28.840  1.00  0.00    -0.248 NA
ATOM     43  C   UNL A   1      39.543  26.697  27.923  1.00  0.00     0.031 C 
ATOM     44  C   UNL A   1      40.158  31.190  30.126  1.00  0.00     0.029 A 
ATOM     45  N   UNL A   1      41.923  29.820  30.081  1.00  0.00    -0.354 N 
ATOM     46  C   UNL A   1      41.642  25.880  28.327  1.00  0.00     0.074 A 
ATOM     47  C   UNL A   1      40.315  25.624  27.812  1.00  0.00     0.031 C 
ATOM     48  C   UNL A   1      41.170  31.819  30.744  1.00  0.00     0.029 A 
ATOM     49  C   UNL A   1      42.333  30.939  30.768  1.00  0.00     0.049 A 
ATOM     50  H   UNL A   1      42.512  29.051  29.904  1.00  0.00     0.167 HD
ATOM     51  C   UNL A   1      42.665  24.994  28.282  1.00  0.00     0.031 A 
ATOM     52  C   UNL A   1      43.505  31.220  31.372  1.00  0.00     0.031 A 
ATOM     53  C   UNL A   1      43.988  25.262  28.782  1.00  0.00     0.049 A 
ATOM     54  C   UNL A   1      44.615  30.204  31.321  1.00  0.00     0.074 A 
ATOM     55  C   UNL A   1      45.111  24.456  28.702  1.00  0.00     0.029 A 
ATOM     56  N   UNL A   1      44.366  26.408  29.463  1.00  0.00    -0.354 N 
ATOM     57  N   UNL A   1      44.630  29.031  30.734  1.00  0.00    -0.248 NA
ATOM     58  C   UNL A   1      45.866  30.551  32.010  1.00  0.00     0.031 C 
ATOM     59  C   UNL A   1      46.149  25.082  29.399  1.00  0.00     0.029 A 
ATOM     60  C   UNL A   1      45.691  26.309  29.853  1.00  0.00     0.049 A 
ATOM     61  H   UNL A   1      43.779  27.178  29.643  1.00  0.00     0.167 HD
ATOM     62  C   UNL A   1      45.898  28.510  30.969  1.00  0.00     0.074 A 
ATOM     63  C   UNL A   1      46.629  29.506  31.723  1.00  0.00     0.031 C 
ATOM     64  C   UNL A   1      46.407  27.308  30.603  1.00  0.00     0.031 A 
BRANCH  51  65
ATOM     65  C   UNL A   1      42.411  23.638  27.680  1.00  0.00    -0.014 A 
ATOM     66  C   UNL A   1      42.691  23.377  26.327  1.00  0.00     0.010 A 
ATOM     67  C   UNL A   1      42.000  22.578  28.510  1.00  0.00     0.010 A 
ATOM     68  C   UNL A   1      42.559  22.083  25.815  1.00  0.00     0.020 A 
ATOM     69  C   UNL A   1      41.890  21.278  28.008  1.00  0.00     0.020 A 
ATOM     70  C   UNL A   1      42.168  21.040  26.661  1.00  0.00     0.054 A 
BRANCH  70  71
ATOM     71  S   UNL A   1      42.087  19.358  25.986  1.00  0.00     0.124 S 
ATOM     72  O   UNL A   1      40.656  19.200  25.740  1.00  0.00    -0.237 OA
ATOM     73  O   UNL A   1      42.922  19.454  24.792  1.00  0.00    -0.237 OA
ATOM     74  O   UNL A   1      42.628  18.527  27.058  1.00  0.00    -0.744 OA
ENDBRANCH  70  71
ENDBRANCH  51  65
BRANCH  52  75
ATOM     75  C   UNL A   1      43.685  32.500  32.113  1.00  0.00    -0.014 A 
ATOM     76  C   UNL A   1      43.412  32.582  33.490  1.00  0.00     0.010 A 
ATOM     77  C   UNL A   1      44.096  33.661  31.429  1.00  0.00     0.010 A 
ATOM     78  C   UNL A   1      43.503  33.808  34.159  1.00  0.00     0.020 A 
ATOM     79  C   UNL A   1      44.223  34.879  32.102  1.00  0.00     0.020 A 
ATOM     80  C   UNL A   1      43.903  34.949  33.458  1.00  0.00     0.054 A 
BRANCH  80  81
ATOM     81  S   UNL A   1      44.017  36.527  34.344  1.00  0.00     0.124 S 
ATOM     82  O   UNL A   1      44.187  36.086  35.725  1.00  0.00    -0.237 OA
ATOM     83  O   UNL A   1      45.186  37.151  33.729  1.00  0.00    -0.237 OA
ATOM     84  O   UNL A   1      42.743  37.178  34.046  1.00  0.00    -0.744 OA
ENDBRANCH  80  81
ENDBRANCH  52  75
BRANCH  64  85
ATOM     85  C   UNL A   1      47.829  27.008  30.997  1.00  0.00    -0.014 A 
ATOM     86  C   UNL A   1      48.117  26.224  32.129  1.00  0.00     0.010 A 
ATOM     87  C   UNL A   1      48.888  27.464  30.191  1.00  0.00     0.010 A 
ATOM     88  C   UNL A   1      49.441  25.927  32.463  1.00  0.00     0.020 A 
ATOM     89  C   UNL A   1      50.210  27.141  30.503  1.00  0.00     0.020 A 
ATOM     90  C   UNL A   1      50.480  26.385  31.646  1.00  0.00     0.054 A 
BRANCH  90  91
ATOM     91  S   UNL A   1      52.184  25.938  32.075  1.00  0.00     0.124 S 
ATOM     92  O   UNL A   1      52.098  24.486  32.193  1.00  0.00    -0.237 OA
ATOM     93  O   UNL A   1      52.941  26.433  30.928  1.00  0.00    -0.237 OA
ATOM     94  O   UNL A   1      52.425  26.651  33.328  1.00  0.00    -0.744 OA
ENDBRANCH  90  91
ENDBRANCH  64  85
ENDBRANCH  38  39
ENDBRANCH  30  33
ENDBRANCH  28  29
ENDBRANCH  27  28
ENDBRANCH  26  27
ENDBRANCH   1  26
TORSDOF 19
ENDMDL
