MODEL 1
REMARK VINA RESULT:     -10.8      0.000      0.000
REMARK SMILES O=C(/C=C/c1ccccc1Oc1cccc(Cl)c1)NCCCCCCNC(=O)c1ccc(-c2c3nc(c(-c4ccc(S(=O)(=O)[O-])cc4)c4ccc([nH]4)c(-c4ccc(S(=O)(=O)[O-])cc4)c4nc(c(-c5ccc(S(=O)(=O)[O-])cc5)c5ccc2[nH]5)C=C4)C=C3)cc1
REMARK SMILES IDX 22 1 21 2 20 3 19 4 1 5 2 6 3 8 4 9 5 10 6 11 10 12 7 13
REMARK SMILES IDX 9 14 8 15 11 16 12 17 13 18 18 19 14 20 16 21 15 22 17 23
REMARK SMILES IDX 23 24 24 25 25 26 26 27 27 28 28 30 29 31 30 32 88 33 31 34
REMARK SMILES IDX 87 35 32 36 33 37 34 38 81 39 35 40 86 41 80 42 82 43 36 44
REMARK SMILES IDX 85 45 79 46 78 47 37 49 67 50 48 51 66 52 49 53 52 54 65 55
REMARK SMILES IDX 83 56 50 57 51 58 64 60 84 61 53 62 38 63 39 64 47 65 40 66
REMARK SMILES IDX 46 67 41 68 42 69 43 70 44 71 45 72 68 73 69 74 77 75 70 76
REMARK SMILES IDX 76 77 71 78 72 79 73 80 74 81 75 82 54 83 55 84 63 85 56 86
REMARK SMILES IDX 62 87 57 88 58 89 59 90 60 91 61 92
REMARK H PARENT 19 7 26 29 82 48 52 59
REMARK Flexibility Score: inf
ROOT
ATOM      1  C   UNL A   1      32.241  26.675  24.965  1.00  0.00     0.002 C 
ENDROOT
BRANCH   1   2
ATOM      2  C   UNL A   1      31.357  27.199  23.826  1.00  0.00     0.021 C 
BRANCH   2   3
ATOM      3  C   UNL A   1      31.401  26.367  22.544  1.00  0.00     0.116 C 
BRANCH   3   4
ATOM      4  N   UNL A   1      31.766  24.988  22.785  1.00  0.00    -0.353 N 
ATOM      5  O   UNL A   1      33.281  24.819  21.068  1.00  0.00    -0.270 OA
ATOM      6  C   UNL A   1      32.671  24.318  22.002  1.00  0.00     0.244 C 
ATOM      7  H   UNL A   1      31.348  24.512  23.540  1.00  0.00     0.163 HD
BRANCH   6   8
ATOM      8  C   UNL A   1      32.940  22.904  22.381  1.00  0.00     0.072 C 
ATOM      9  C   UNL A   1      32.185  22.180  23.220  1.00  0.00     0.017 C 
BRANCH   9  10
ATOM     10  C   UNL A   1      32.499  20.797  23.597  1.00  0.00     0.017 A 
ATOM     11  C   UNL A   1      32.159  19.838  22.619  1.00  0.00     0.012 A 
ATOM     12  C   UNL A   1      33.047  20.357  24.817  1.00  0.00     0.134 A 
ATOM     13  C   UNL A   1      32.354  18.474  22.836  1.00  0.00     0.001 A 
ATOM     14  C   UNL A   1      33.238  18.976  25.015  1.00  0.00     0.048 A 
ATOM     15  C   UNL A   1      32.894  18.041  24.039  1.00  0.00     0.004 A 
BRANCH  12  16
ATOM     16  O   UNL A   1      33.476  21.076  25.914  1.00  0.00    -0.457 OA
BRANCH  16  17
ATOM     17  C   UNL A   1      34.554  21.912  25.853  1.00  0.00     0.128 A 
ATOM     18  C   UNL A   1      34.304  23.287  25.820  1.00  0.00     0.047 A 
ATOM     19  C   UNL A   1      35.851  21.423  25.712  1.00  0.00     0.067 A 
ATOM     20  C   UNL A   1      35.367  24.186  25.727  1.00  0.00     0.005 A 
ATOM     21  C   UNL A   1      36.909  22.328  25.630  1.00  0.00     0.044 A 
ATOM     22  C   UNL A   1      36.675  23.704  25.642  1.00  0.00     0.021 A 
ATOM     23  Cl  UNL A   1      38.523  21.740  25.560  1.00  0.00    -0.084 Cl
ENDBRANCH  16  17
ENDBRANCH  12  16
ENDBRANCH   9  10
ENDBRANCH   6   8
ENDBRANCH   3   4
ENDBRANCH   2   3
ENDBRANCH   1   2
BRANCH   1  24
ATOM     24  C   UNL A   1      31.673  26.839  26.377  1.00  0.00     0.002 C 
BRANCH  24  25
ATOM     25  C   UNL A   1      32.322  27.928  27.234  1.00  0.00     0.021 C 
BRANCH  25  26
ATOM     26  C   UNL A   1      33.536  28.622  26.619  1.00  0.00     0.116 C 
BRANCH  26  27
ATOM     27  N   UNL A   1      33.516  30.066  26.791  1.00  0.00    -0.352 N 
ATOM     28  C   UNL A   1      34.408  30.875  27.456  1.00  0.00     0.251 C 
ATOM     29  H   UNL A   1      32.756  30.531  26.372  1.00  0.00     0.163 HD
ATOM     30  O   UNL A   1      34.165  32.071  27.593  1.00  0.00    -0.269 OA
BRANCH  28  31
ATOM     31  C   UNL A   1      35.640  30.299  28.038  1.00  0.00     0.039 A 
ATOM     32  C   UNL A   1      36.815  30.317  27.279  1.00  0.00     0.014 A 
ATOM     33  C   UNL A   1      35.647  29.754  29.326  1.00  0.00     0.014 A 
ATOM     34  C   UNL A   1      38.012  29.866  27.841  1.00  0.00     0.010 A 
ATOM     35  C   UNL A   1      36.851  29.355  29.904  1.00  0.00     0.010 A 
ATOM     36  C   UNL A   1      38.047  29.421  29.173  1.00  0.00    -0.014 A 
BRANCH  36  37
ATOM     37  C   UNL A   1      39.330  29.069  29.833  1.00  0.00     0.031 A 
ATOM     38  C   UNL A   1      39.865  29.901  30.964  1.00  0.00     0.074 A 
ATOM     39  C   UNL A   1      40.057  28.041  29.354  1.00  0.00     0.049 A 
ATOM     40  N   UNL A   1      40.999  29.785  31.608  1.00  0.00    -0.248 NA
ATOM     41  C   UNL A   1      39.027  31.023  31.415  1.00  0.00     0.031 C 
ATOM     42  C   UNL A   1      39.675  27.186  28.228  1.00  0.00     0.029 A 
ATOM     43  N   UNL A   1      41.281  27.553  29.741  1.00  0.00    -0.354 N 
ATOM     44  C   UNL A   1      41.018  30.822  32.531  1.00  0.00     0.074 A 
ATOM     45  C   UNL A   1      39.801  31.582  32.334  1.00  0.00     0.031 C 
ATOM     46  C   UNL A   1      40.640  26.275  28.021  1.00  0.00     0.029 A 
ATOM     47  C   UNL A   1      41.722  26.501  28.974  1.00  0.00     0.049 A 
ATOM     48  H   UNL A   1      41.794  27.921  30.496  1.00  0.00     0.167 HD
ATOM     49  C   UNL A   1      41.955  31.109  33.467  1.00  0.00     0.031 A 
ATOM     50  C   UNL A   1      42.874  25.803  29.017  1.00  0.00     0.031 A 
ATOM     51  C   UNL A   1      43.167  30.358  33.660  1.00  0.00     0.049 A 
ATOM     52  C   UNL A   1      43.902  26.141  30.057  1.00  0.00     0.074 A 
ATOM     53  C   UNL A   1      44.150  30.539  34.617  1.00  0.00     0.029 A 
ATOM     54  N   UNL A   1      43.568  29.288  32.873  1.00  0.00    -0.354 N 
ATOM     55  N   UNL A   1      43.871  27.083  30.968  1.00  0.00    -0.248 NA
ATOM     56  C   UNL A   1      45.118  25.317  30.080  1.00  0.00     0.031 C 
ATOM     57  C   UNL A   1      45.167  29.604  34.383  1.00  0.00     0.029 A 
ATOM     58  C   UNL A   1      44.795  28.814  33.307  1.00  0.00     0.049 A 
ATOM     59  H   UNL A   1      43.055  28.920  32.118  1.00  0.00     0.167 HD
ATOM     60  C   UNL A   1      45.058  26.961  31.679  1.00  0.00     0.074 A 
ATOM     61  C   UNL A   1      45.778  25.842  31.105  1.00  0.00     0.031 C 
ATOM     62  C   UNL A   1      45.510  27.712  32.715  1.00  0.00     0.031 A 
BRANCH  49  63
ATOM     63  C   UNL A   1      41.698  32.304  34.347  1.00  0.00    -0.014 A 
ATOM     64  C   UNL A   1      40.978  32.176  35.548  1.00  0.00     0.010 A 
ATOM     65  C   UNL A   1      42.179  33.570  33.968  1.00  0.00     0.010 A 
ATOM     66  C   UNL A   1      40.691  33.301  36.325  1.00  0.00     0.020 A 
ATOM     67  C   UNL A   1      41.916  34.696  34.756  1.00  0.00     0.020 A 
ATOM     68  C   UNL A   1      41.150  34.557  35.917  1.00  0.00     0.054 A 
BRANCH  68  69
ATOM     69  S   UNL A   1      40.749  36.006  36.930  1.00  0.00     0.124 S 
ATOM     70  O   UNL A   1      39.757  36.686  36.100  1.00  0.00    -0.237 OA
ATOM     71  O   UNL A   1      40.233  35.409  38.160  1.00  0.00    -0.237 OA
ATOM     72  O   UNL A   1      42.028  36.697  37.067  1.00  0.00    -0.744 OA
ENDBRANCH  68  69
ENDBRANCH  49  63
BRANCH  50  73
ATOM     73  C   UNL A   1      43.098  24.710  28.035  1.00  0.00    -0.014 A 
ATOM     74  C   UNL A   1      43.682  24.983  26.787  1.00  0.00     0.010 A 
ATOM     75  C   UNL A   1      42.784  23.380  28.371  1.00  0.00     0.010 A 
ATOM     76  C   UNL A   1      43.954  23.944  25.892  1.00  0.00     0.020 A 
ATOM     77  C   UNL A   1      43.073  22.337  27.487  1.00  0.00     0.020 A 
ATOM     78  C   UNL A   1      43.654  22.627  26.251  1.00  0.00     0.054 A 
BRANCH  78  79
ATOM     79  S   UNL A   1      44.104  21.283  25.116  1.00  0.00     0.124 S 
ATOM     80  O   UNL A   1      45.422  20.898  25.609  1.00  0.00    -0.237 OA
ATOM     81  O   UNL A   1      43.035  20.311  25.336  1.00  0.00    -0.237 OA
ATOM     82  O   UNL A   1      44.087  21.927  23.804  1.00  0.00    -0.744 OA
ENDBRANCH  78  79
ENDBRANCH  50  73
BRANCH  62  83
ATOM     83  C   UNL A   1      46.849  27.346  33.296  1.00  0.00    -0.014 A 
ATOM     84  C   UNL A   1      48.028  27.955  32.830  1.00  0.00     0.010 A 
ATOM     85  C   UNL A   1      46.924  26.423  34.354  1.00  0.00     0.010 A 
ATOM     86  C   UNL A   1      49.262  27.629  33.398  1.00  0.00     0.020 A 
ATOM     87  C   UNL A   1      48.155  26.111  34.939  1.00  0.00     0.020 A 
ATOM     88  C   UNL A   1      49.319  26.708  34.449  1.00  0.00     0.054 A 
BRANCH  88  89
ATOM     89  S   UNL A   1      50.926  26.338  35.204  1.00  0.00     0.124 S 
ATOM     90  O   UNL A   1      51.594  27.636  35.147  1.00  0.00    -0.237 OA
ATOM     91  O   UNL A   1      50.557  25.879  36.540  1.00  0.00    -0.237 OA
ATOM     92  O   UNL A   1      51.488  25.309  34.331  1.00  0.00    -0.744 OA
ENDBRANCH  88  89
ENDBRANCH  62  83
ENDBRANCH  36  37
ENDBRANCH  28  31
ENDBRANCH  26  27
ENDBRANCH  25  26
ENDBRANCH  24  25
ENDBRANCH   1  24
TORSDOF 19
ENDMDL
MODEL 2
REMARK VINA RESULT:     -10.6      1.956      8.098
REMARK SMILES O=C(/C=C/c1ccccc1Oc1cccc(Cl)c1)NCCCCCCNC(=O)c1ccc(-c2c3nc(c(-c4ccc(S(=O)(=O)[O-])cc4)c4ccc([nH]4)c(-c4ccc(S(=O)(=O)[O-])cc4)c4nc(c(-c5ccc(S(=O)(=O)[O-])cc5)c5ccc2[nH]5)C=C4)C=C3)cc1
REMARK SMILES IDX 22 1 21 2 20 3 19 4 1 5 2 6 3 8 4 9 5 10 6 11 10 12 7 13
REMARK SMILES IDX 9 14 8 15 11 16 12 17 13 18 18 19 14 20 16 21 15 22 17 23
REMARK SMILES IDX 23 24 24 25 25 26 26 27 27 28 28 30 29 31 30 32 88 33 31 34
REMARK SMILES IDX 87 35 32 36 33 37 34 38 81 39 35 40 86 41 80 42 82 43 36 44
REMARK SMILES IDX 85 45 79 46 78 47 37 49 67 50 48 51 66 52 49 53 52 54 65 55
REMARK SMILES IDX 83 56 50 57 51 58 64 60 84 61 53 62 38 63 39 64 47 65 40 66
REMARK SMILES IDX 46 67 41 68 42 69 43 70 44 71 45 72 68 73 69 74 77 75 70 76
REMARK SMILES IDX 76 77 71 78 72 79 73 80 74 81 75 82 54 83 55 84 63 85 56 86
REMARK SMILES IDX 62 87 57 88 58 89 59 90 60 91 61 92
REMARK H PARENT 19 7 26 29 82 48 52 59
REMARK Flexibility Score: inf
ROOT
ATOM      1  C   UNL A   1      33.727  26.220  25.135  1.00  0.00     0.002 C 
ENDROOT
BRANCH   1   2
ATOM      2  C   UNL A   1      33.703  26.971  23.798  1.00  0.00     0.021 C 
BRANCH   2   3
ATOM      3  C   UNL A   1      33.063  26.203  22.641  1.00  0.00     0.116 C 
BRANCH   3   4
ATOM      4  N   UNL A   1      33.302  24.778  22.716  1.00  0.00    -0.353 N 
ATOM      5  O   UNL A   1      31.098  24.158  22.897  1.00  0.00    -0.270 OA
ATOM      6  C   UNL A   1      32.286  23.868  22.861  1.00  0.00     0.244 C 
ATOM      7  H   UNL A   1      34.228  24.450  22.661  1.00  0.00     0.163 HD
BRANCH   6   8
ATOM      8  C   UNL A   1      32.695  22.439  22.922  1.00  0.00     0.072 C 
ATOM      9  C   UNL A   1      31.993  21.467  23.520  1.00  0.00     0.017 C 
BRANCH   9  10
ATOM     10  C   UNL A   1      32.444  20.072  23.589  1.00  0.00     0.017 A 
ATOM     11  C   UNL A   1      32.177  19.318  22.427  1.00  0.00     0.012 A 
ATOM     12  C   UNL A   1      33.054  19.434  24.686  1.00  0.00     0.134 A 
ATOM     13  C   UNL A   1      32.506  17.964  22.344  1.00  0.00     0.001 A 
ATOM     14  C   UNL A   1      33.379  18.069  24.581  1.00  0.00     0.048 A 
ATOM     15  C   UNL A   1      33.107  17.337  23.425  1.00  0.00     0.004 A 
BRANCH  12  16
ATOM     16  O   UNL A   1      33.434  19.938  25.914  1.00  0.00    -0.457 OA
BRANCH  16  17
ATOM     17  C   UNL A   1      34.276  21.007  26.027  1.00  0.00     0.128 A 
ATOM     18  C   UNL A   1      33.782  22.156  26.649  1.00  0.00     0.047 A 
ATOM     19  C   UNL A   1      35.543  21.004  25.445  1.00  0.00     0.067 A 
ATOM     20  C   UNL A   1      34.590  23.288  26.763  1.00  0.00     0.005 A 
ATOM     21  C   UNL A   1      36.348  22.134  25.574  1.00  0.00     0.044 A 
ATOM     22  C   UNL A   1      35.881  23.273  26.234  1.00  0.00     0.021 A 
ATOM     23  Cl  UNL A   1      37.951  22.108  24.952  1.00  0.00    -0.084 Cl
ENDBRANCH  16  17
ENDBRANCH  12  16
ENDBRANCH   9  10
ENDBRANCH   6   8
ENDBRANCH   3   4
ENDBRANCH   2   3
ENDBRANCH   1   2
BRANCH   1  24
ATOM     24  C   UNL A   1      32.494  26.404  26.024  1.00  0.00     0.002 C 
BRANCH  24  25
ATOM     25  C   UNL A   1      32.379  27.756  26.732  1.00  0.00     0.021 C 
BRANCH  25  26
ATOM     26  C   UNL A   1      33.698  28.397  27.156  1.00  0.00     0.116 C 
BRANCH  26  27
ATOM     27  N   UNL A   1      33.549  29.779  27.587  1.00  0.00    -0.352 N 
ATOM     28  C   UNL A   1      34.463  30.602  28.203  1.00  0.00     0.251 C 
ATOM     29  H   UNL A   1      32.668  30.183  27.413  1.00  0.00     0.163 HD
ATOM     30  O   UNL A   1      34.119  31.712  28.599  1.00  0.00    -0.269 OA
BRANCH  28  31
ATOM     31  C   UNL A   1      35.850  30.135  28.423  1.00  0.00     0.039 A 
ATOM     32  C   UNL A   1      36.740  30.135  27.344  1.00  0.00     0.014 A 
ATOM     33  C   UNL A   1      36.280  29.710  29.684  1.00  0.00     0.014 A 
ATOM     34  C   UNL A   1      38.078  29.790  27.546  1.00  0.00     0.010 A 
ATOM     35  C   UNL A   1      37.626  29.419  29.896  1.00  0.00     0.010 A 
ATOM     36  C   UNL A   1      38.541  29.470  28.833  1.00  0.00    -0.014 A 
BRANCH  36  37
ATOM     37  C   UNL A   1      39.985  29.236  29.096  1.00  0.00     0.031 A 
ATOM     38  C   UNL A   1      40.616  27.908  28.786  1.00  0.00     0.074 A 
ATOM     39  C   UNL A   1      40.711  30.201  29.694  1.00  0.00     0.049 A 
ATOM     40  N   UNL A   1      41.839  27.504  29.014  1.00  0.00    -0.248 NA
ATOM     41  C   UNL A   1      39.752  26.896  28.157  1.00  0.00     0.031 C 
ATOM     42  C   UNL A   1      40.205  31.516  30.093  1.00  0.00     0.029 A 
ATOM     43  N   UNL A   1      42.026  30.216  30.089  1.00  0.00    -0.354 N 
ATOM     44  C   UNL A   1      41.892  26.189  28.570  1.00  0.00     0.074 A 
ATOM     45  C   UNL A   1      40.566  25.852  28.098  1.00  0.00     0.031 C 
ATOM     46  C   UNL A   1      41.199  32.212  30.669  1.00  0.00     0.029 A 
ATOM     47  C   UNL A   1      42.400  31.384  30.710  1.00  0.00     0.049 A 
ATOM     48  H   UNL A   1      42.641  29.462  29.942  1.00  0.00     0.167 HD
ATOM     49  C   UNL A   1      42.951  25.343  28.545  1.00  0.00     0.031 A 
ATOM     50  C   UNL A   1      43.572  31.747  31.268  1.00  0.00     0.031 A 
ATOM     51  C   UNL A   1      44.268  25.676  29.019  1.00  0.00     0.049 A 
ATOM     52  C   UNL A   1      44.731  30.793  31.235  1.00  0.00     0.074 A 
ATOM     53  C   UNL A   1      45.417  24.905  28.984  1.00  0.00     0.029 A 
ATOM     54  N   UNL A   1      44.610  26.876  29.625  1.00  0.00    -0.354 N 
ATOM     55  N   UNL A   1      44.781  29.577  30.747  1.00  0.00    -0.248 NA
ATOM     56  C   UNL A   1      45.993  31.263  31.821  1.00  0.00     0.031 C 
ATOM     57  C   UNL A   1      46.445  25.623  29.608  1.00  0.00     0.029 A 
ATOM     58  C   UNL A   1      45.946  26.858  29.991  1.00  0.00     0.049 A 
ATOM     59  H   UNL A   1      43.994  27.630  29.772  1.00  0.00     0.167 HD
ATOM     60  C   UNL A   1      46.082  29.138  30.960  1.00  0.00     0.074 A 
ATOM     61  C   UNL A   1      46.792  30.225  31.603  1.00  0.00     0.031 C 
ATOM     62  C   UNL A   1      46.636  27.939  30.649  1.00  0.00     0.031 A 
BRANCH  49  63
ATOM     63  C   UNL A   1      42.710  23.964  27.990  1.00  0.00    -0.014 A 
ATOM     64  C   UNL A   1      42.826  23.709  26.611  1.00  0.00     0.010 A 
ATOM     65  C   UNL A   1      42.361  22.911  28.854  1.00  0.00     0.010 A 
ATOM     66  C   UNL A   1      42.539  22.442  26.099  1.00  0.00     0.020 A 
ATOM     67  C   UNL A   1      42.098  21.634  28.348  1.00  0.00     0.020 A 
ATOM     68  C   UNL A   1      42.163  21.415  26.969  1.00  0.00     0.054 A 
BRANCH  68  69
ATOM     69  S   UNL A   1      41.776  19.782  26.280  1.00  0.00     0.124 S 
ATOM     70  O   UNL A   1      40.336  19.884  26.063  1.00  0.00    -0.237 OA
ATOM     71  O   UNL A   1      42.592  19.741  25.068  1.00  0.00    -0.237 OA
ATOM     72  O   UNL A   1      42.185  18.857  27.334  1.00  0.00    -0.744 OA
ENDBRANCH  68  69
ENDBRANCH  49  63
BRANCH  50  73
ATOM     73  C   UNL A   1      43.692  33.087  31.900  1.00  0.00    -0.014 A 
ATOM     74  C   UNL A   1      44.049  34.207  31.131  1.00  0.00     0.010 A 
ATOM     75  C   UNL A   1      43.389  33.256  33.263  1.00  0.00     0.010 A 
ATOM     76  C   UNL A   1      44.095  35.477  31.714  1.00  0.00     0.020 A 
ATOM     77  C   UNL A   1      43.415  34.527  33.844  1.00  0.00     0.020 A 
ATOM     78  C   UNL A   1      43.771  35.630  33.065  1.00  0.00     0.054 A 
BRANCH  78  79
ATOM     79  S   UNL A   1      43.743  37.299  33.778  1.00  0.00     0.124 S 
ATOM     80  O   UNL A   1      42.486  37.290  34.520  1.00  0.00    -0.237 OA
ATOM     81  O   UNL A   1      44.958  37.318  34.590  1.00  0.00    -0.237 OA
ATOM     82  O   UNL A   1      43.775  38.170  32.606  1.00  0.00    -0.744 OA
ENDBRANCH  78  79
ENDBRANCH  50  73
BRANCH  62  83
ATOM     83  C   UNL A   1      48.085  27.740  31.002  1.00  0.00    -0.014 A 
ATOM     84  C   UNL A   1      49.104  28.143  30.122  1.00  0.00     0.010 A 
ATOM     85  C   UNL A   1      48.431  27.190  32.250  1.00  0.00     0.010 A 
ATOM     86  C   UNL A   1      50.446  27.980  30.474  1.00  0.00     0.020 A 
ATOM     87  C   UNL A   1      49.773  27.045  32.614  1.00  0.00     0.020 A 
ATOM     88  C   UNL A   1      50.773  27.431  31.718  1.00  0.00     0.054 A 
BRANCH  88  89
ATOM     89  S   UNL A   1      52.522  27.274  32.174  1.00  0.00     0.124 S 
ATOM     90  O   UNL A   1      53.192  27.547  30.905  1.00  0.00    -0.237 OA
ATOM     91  O   UNL A   1      52.681  28.298  33.202  1.00  0.00    -0.237 OA
ATOM     92  O   UNL A   1      52.631  25.898  32.653  1.00  0.00    -0.744 OA
ENDBRANCH  88  89
ENDBRANCH  62  83
ENDBRANCH  36  37
ENDBRANCH  28  31
ENDBRANCH  26  27
ENDBRANCH  25  26
ENDBRANCH  24  25
ENDBRANCH   1  24
TORSDOF 19
ENDMDL
MODEL 3
REMARK VINA RESULT:     -10.6      0.967      8.144
REMARK SMILES O=C(/C=C/c1ccccc1Oc1cccc(Cl)c1)NCCCCCCNC(=O)c1ccc(-c2c3nc(c(-c4ccc(S(=O)(=O)[O-])cc4)c4ccc([nH]4)c(-c4ccc(S(=O)(=O)[O-])cc4)c4nc(c(-c5ccc(S(=O)(=O)[O-])cc5)c5ccc2[nH]5)C=C4)C=C3)cc1
REMARK SMILES IDX 22 1 21 2 20 3 19 4 1 5 2 6 3 8 4 9 5 10 6 11 10 12 7 13
REMARK SMILES IDX 9 14 8 15 11 16 12 17 13 18 18 19 14 20 16 21 15 22 17 23
REMARK SMILES IDX 23 24 24 25 25 26 26 27 27 28 28 30 29 31 30 32 88 33 31 34
REMARK SMILES IDX 87 35 32 36 33 37 34 38 81 39 35 40 86 41 80 42 82 43 36 44
REMARK SMILES IDX 85 45 79 46 78 47 37 49 67 50 48 51 66 52 49 53 52 54 65 55
REMARK SMILES IDX 83 56 50 57 51 58 64 60 84 61 53 62 38 63 39 64 47 65 40 66
REMARK SMILES IDX 46 67 41 68 42 69 43 70 44 71 45 72 68 73 69 74 77 75 70 76
REMARK SMILES IDX 76 77 71 78 72 79 73 80 74 81 75 82 54 83 55 84 63 85 56 86
REMARK SMILES IDX 62 87 57 88 58 89 59 90 60 91 61 92
REMARK H PARENT 19 7 26 29 82 48 52 59
REMARK Flexibility Score: inf
ROOT
ATOM      1  C   UNL A   1      33.198  26.913  24.503  1.00  0.00     0.002 C 
ENDROOT
BRANCH   1   2
ATOM      2  C   UNL A   1      32.169  27.541  23.553  1.00  0.00     0.021 C 
BRANCH   2   3
ATOM      3  C   UNL A   1      31.517  26.563  22.575  1.00  0.00     0.116 C 
BRANCH   3   4
ATOM      4  N   UNL A   1      31.880  25.187  22.835  1.00  0.00    -0.353 N 
ATOM      5  O   UNL A   1      33.272  24.944  21.024  1.00  0.00    -0.270 OA
ATOM      6  C   UNL A   1      32.721  24.480  22.013  1.00  0.00     0.244 C 
ATOM      7  H   UNL A   1      31.511  24.741  23.631  1.00  0.00     0.163 HD
BRANCH   6   8
ATOM      8  C   UNL A   1      32.998  23.075  22.417  1.00  0.00     0.072 C 
ATOM      9  C   UNL A   1      32.164  22.306  23.131  1.00  0.00     0.017 C 
BRANCH   9  10
ATOM     10  C   UNL A   1      32.485  20.934  23.540  1.00  0.00     0.017 A 
ATOM     11  C   UNL A   1      32.159  19.952  22.580  1.00  0.00     0.012 A 
ATOM     12  C   UNL A   1      33.026  20.523  24.773  1.00  0.00     0.134 A 
ATOM     13  C   UNL A   1      32.363  18.594  22.828  1.00  0.00     0.001 A 
ATOM     14  C   UNL A   1      33.225  19.149  25.002  1.00  0.00     0.048 A 
ATOM     15  C   UNL A   1      32.895  18.190  24.044  1.00  0.00     0.004 A 
BRANCH  12  16
ATOM     16  O   UNL A   1      33.441  21.269  25.858  1.00  0.00    -0.457 OA
BRANCH  16  17
ATOM     17  C   UNL A   1      34.575  22.030  25.821  1.00  0.00     0.128 A 
ATOM     18  C   UNL A   1      34.420  23.417  25.760  1.00  0.00     0.047 A 
ATOM     19  C   UNL A   1      35.840  21.452  25.729  1.00  0.00     0.067 A 
ATOM     20  C   UNL A   1      35.544  24.240  25.689  1.00  0.00     0.005 A 
ATOM     21  C   UNL A   1      36.958  22.282  25.669  1.00  0.00     0.044 A 
ATOM     22  C   UNL A   1      36.818  23.671  25.655  1.00  0.00     0.021 A 
ATOM     23  Cl  UNL A   1      38.530  21.585  25.661  1.00  0.00    -0.084 Cl
ENDBRANCH  16  17
ENDBRANCH  12  16
ENDBRANCH   9  10
ENDBRANCH   6   8
ENDBRANCH   3   4
ENDBRANCH   2   3
ENDBRANCH   1   2
BRANCH   1  24
ATOM     24  C   UNL A   1      32.775  26.814  25.971  1.00  0.00     0.002 C 
BRANCH  24  25
ATOM     25  C   UNL A   1      33.206  27.976  26.868  1.00  0.00     0.021 C 
BRANCH  25  26
ATOM     26  C   UNL A   1      34.023  29.073  26.188  1.00  0.00     0.116 C 
BRANCH  26  27
ATOM     27  N   UNL A   1      33.719  30.404  26.688  1.00  0.00    -0.352 N 
ATOM     28  C   UNL A   1      34.389  31.154  27.627  1.00  0.00     0.251 C 
ATOM     29  H   UNL A   1      32.921  30.830  26.300  1.00  0.00     0.163 HD
ATOM     30  O   UNL A   1      33.917  32.221  28.009  1.00  0.00    -0.269 OA
BRANCH  28  31
ATOM     31  C   UNL A   1      35.659  30.658  28.204  1.00  0.00     0.039 A 
ATOM     32  C   UNL A   1      36.864  31.199  27.744  1.00  0.00     0.014 A 
ATOM     33  C   UNL A   1      35.666  29.676  29.199  1.00  0.00     0.014 A 
ATOM     34  C   UNL A   1      38.069  30.816  28.339  1.00  0.00     0.010 A 
ATOM     35  C   UNL A   1      36.863  29.336  29.828  1.00  0.00     0.010 A 
ATOM     36  C   UNL A   1      38.073  29.913  29.415  1.00  0.00    -0.014 A 
BRANCH  36  37
ATOM     37  C   UNL A   1      39.325  29.600  30.151  1.00  0.00     0.031 A 
ATOM     38  C   UNL A   1      40.213  28.472  29.709  1.00  0.00     0.074 A 
ATOM     39  C   UNL A   1      39.618  30.285  31.273  1.00  0.00     0.049 A 
ATOM     40  N   UNL A   1      41.302  28.012  30.270  1.00  0.00    -0.248 NA
ATOM     41  C   UNL A   1      39.813  27.753  28.489  1.00  0.00     0.031 C 
ATOM     42  C   UNL A   1      38.813  31.369  31.839  1.00  0.00     0.029 A 
ATOM     43  N   UNL A   1      40.666  30.156  32.152  1.00  0.00    -0.354 N 
ATOM     44  C   UNL A   1      41.712  26.944  29.482  1.00  0.00     0.074 A 
ATOM     45  C   UNL A   1      40.731  26.800  28.428  1.00  0.00     0.031 C 
ATOM     46  C   UNL A   1      39.398  31.811  32.963  1.00  0.00     0.029 A 
ATOM     47  C   UNL A   1      40.600  31.022  33.218  1.00  0.00     0.049 A 
ATOM     48  H   UNL A   1      41.394  29.506  32.031  1.00  0.00     0.167 HD
ATOM     49  C   UNL A   1      42.812  26.164  29.615  1.00  0.00     0.031 A 
ATOM     50  C   UNL A   1      41.404  31.160  34.290  1.00  0.00     0.031 A 
ATOM     51  C   UNL A   1      43.785  26.303  30.666  1.00  0.00     0.049 A 
ATOM     52  C   UNL A   1      42.614  30.281  34.422  1.00  0.00     0.074 A 
ATOM     53  C   UNL A   1      44.960  25.596  30.853  1.00  0.00     0.029 A 
ATOM     54  N   UNL A   1      43.691  27.205  31.716  1.00  0.00    -0.354 N 
ATOM     55  N   UNL A   1      43.023  29.322  33.628  1.00  0.00    -0.248 NA
ATOM     56  C   UNL A   1      43.474  30.509  35.591  1.00  0.00     0.031 C 
ATOM     57  C   UNL A   1      45.556  26.041  32.039  1.00  0.00     0.029 A 
ATOM     58  C   UNL A   1      44.773  27.056  32.568  1.00  0.00     0.049 A 
ATOM     59  H   UNL A   1      42.962  27.856  31.837  1.00  0.00     0.167 HD
ATOM     60  C   UNL A   1      44.194  28.835  34.196  1.00  0.00     0.074 A 
ATOM     61  C   UNL A   1      44.438  29.619  35.391  1.00  0.00     0.031 C 
ATOM     62  C   UNL A   1      44.994  27.828  33.765  1.00  0.00     0.031 A 
BRANCH  49  63
ATOM     63  C   UNL A   1      43.006  25.076  28.591  1.00  0.00    -0.014 A 
ATOM     64  C   UNL A   1      43.738  25.314  27.414  1.00  0.00     0.010 A 
ATOM     65  C   UNL A   1      42.448  23.804  28.806  1.00  0.00     0.010 A 
ATOM     66  C   UNL A   1      43.858  24.318  26.442  1.00  0.00     0.020 A 
ATOM     67  C   UNL A   1      42.588  22.795  27.847  1.00  0.00     0.020 A 
ATOM     68  C   UNL A   1      43.271  23.068  26.658  1.00  0.00     0.054 A 
BRANCH  68  69
ATOM     69  S   UNL A   1      43.423  21.797  25.374  1.00  0.00     0.124 S 
ATOM     70  O   UNL A   1      43.404  22.600  24.155  1.00  0.00    -0.237 OA
ATOM     71  O   UNL A   1      44.704  21.168  25.691  1.00  0.00    -0.237 OA
ATOM     72  O   UNL A   1      42.250  20.952  25.584  1.00  0.00    -0.744 OA
ENDBRANCH  68  69
ENDBRANCH  49  63
BRANCH  50  73
ATOM     73  C   UNL A   1      41.077  32.184  35.317  1.00  0.00    -0.014 A 
ATOM     74  C   UNL A   1      40.267  31.855  36.417  1.00  0.00     0.010 A 
ATOM     75  C   UNL A   1      41.625  33.476  35.228  1.00  0.00     0.010 A 
ATOM     76  C   UNL A   1      40.017  32.800  37.416  1.00  0.00     0.020 A 
ATOM     77  C   UNL A   1      41.392  34.417  36.236  1.00  0.00     0.020 A 
ATOM     78  C   UNL A   1      40.586  34.073  37.322  1.00  0.00     0.054 A 
BRANCH  78  79
ATOM     79  S   UNL A   1      40.327  35.253  38.677  1.00  0.00     0.124 S 
ATOM     80  O   UNL A   1      38.907  35.562  38.543  1.00  0.00    -0.237 OA
ATOM     81  O   UNL A   1      40.697  34.471  39.855  1.00  0.00    -0.237 OA
ATOM     82  O   UNL A   1      41.242  36.346  38.355  1.00  0.00    -0.744 OA
ENDBRANCH  78  79
ENDBRANCH  50  73
BRANCH  62  83
ATOM     83  C   UNL A   1      46.211  27.514  34.592  1.00  0.00    -0.014 A 
ATOM     84  C   UNL A   1      46.153  26.568  35.629  1.00  0.00     0.010 A 
ATOM     85  C   UNL A   1      47.438  28.135  34.294  1.00  0.00     0.010 A 
ATOM     86  C   UNL A   1      47.298  26.263  36.371  1.00  0.00     0.020 A 
ATOM     87  C   UNL A   1      48.589  27.816  35.020  1.00  0.00     0.020 A 
ATOM     88  C   UNL A   1      48.509  26.889  36.062  1.00  0.00     0.054 A 
BRANCH  88  89
ATOM     89  S   UNL A   1      49.992  26.441  37.005  1.00  0.00     0.124 S 
ATOM     90  O   UNL A   1      50.998  27.332  36.432  1.00  0.00    -0.237 OA
ATOM     91  O   UNL A   1      49.602  26.736  38.381  1.00  0.00    -0.237 OA
ATOM     92  O   UNL A   1      50.174  25.022  36.707  1.00  0.00    -0.744 OA
ENDBRANCH  88  89
ENDBRANCH  62  83
ENDBRANCH  36  37
ENDBRANCH  28  31
ENDBRANCH  26  27
ENDBRANCH  25  26
ENDBRANCH  24  25
ENDBRANCH   1  24
TORSDOF 19
ENDMDL
