MODEL 1
REMARK VINA RESULT:     -10.7      0.000      0.000
REMARK SMILES CCOc1cc(/C=C2/C(=O)N(c3cccc(C(=O)NCCCCCCNC(=O)c4ccc(-c5c6nc(c(-c7ccc(S(=O)(=O)[O-])cc7)c7ccc([nH]7)c(-c7ccc(S(=O)(=O)[O-])cc7)c7nc(c(-c8ccc(S(=O)(=O)[O-])cc8)c8ccc5[nH]8)C=C7)C=C6)cc4)c3)N=C2C)cc(Cl)c1O
REMARK SMILES IDX 22 1 21 2 20 3 19 4 17 5 18 6 16 8 12 9 13 10 89 11 14 12
REMARK SMILES IDX 15 13 11 14 7 15 8 16 9 17 91 18 10 19 90 20 92 21 6 22 4 23
REMARK SMILES IDX 5 24 96 25 94 26 93 27 95 28 3 29 2 30 1 31 97 32 23 34
REMARK SMILES IDX 24 35 25 36 26 37 27 38 28 40 29 41 30 42 88 43 31 44 87 45
REMARK SMILES IDX 32 46 33 47 34 48 81 49 35 50 86 51 80 52 82 53 36 54 85 55
REMARK SMILES IDX 79 56 78 57 37 59 67 60 48 61 66 62 49 63 52 64 65 65 83 66
REMARK SMILES IDX 50 67 51 68 64 70 84 71 53 72 38 73 39 74 47 75 40 76 46 77
REMARK SMILES IDX 41 78 42 79 43 80 44 81 45 82 68 83 69 84 77 85 70 86 76 87
REMARK SMILES IDX 71 88 72 89 73 90 74 91 75 92 54 93 55 94 63 95 56 96 62 97
REMARK SMILES IDX 57 98 58 99 59 100 60 101 61 102
REMARK H PARENT 19 7 97 33 26 39 82 58 52 69
REMARK Flexibility Score: inf
ROOT
ATOM      1  C   UNL A   1      33.432  30.991  26.623  1.00  0.00     0.002 C 
ENDROOT
BRANCH   1   2
ATOM      2  C   UNL A   1      31.947  31.334  26.524  1.00  0.00     0.021 C 
BRANCH   2   3
ATOM      3  C   UNL A   1      31.062  30.316  25.812  1.00  0.00     0.116 C 
BRANCH   3   4
ATOM      4  N   UNL A   1      31.021  30.463  24.364  1.00  0.00    -0.352 N 
ATOM      5  C   UNL A   1      30.386  29.717  23.394  1.00  0.00     0.251 C 
ATOM      6  O   UNL A   1      30.529  30.033  22.213  1.00  0.00    -0.269 OA
ATOM      7  H   UNL A   1      31.537  31.229  24.018  1.00  0.00     0.163 HD
BRANCH   5   8
ATOM      8  C   UNL A   1      29.613  28.489  23.728  1.00  0.00     0.041 A 
ATOM      9  C   UNL A   1      29.553  26.102  24.124  1.00  0.00     0.069 A 
ATOM     10  C   UNL A   1      28.182  26.103  23.832  1.00  0.00     0.028 A 
ATOM     11  C   UNL A   1      30.226  27.326  24.193  1.00  0.00     0.042 A 
ATOM     12  C   UNL A   1      27.512  27.300  23.574  1.00  0.00     0.003 A 
ATOM     13  C   UNL A   1      28.235  28.488  23.482  1.00  0.00     0.014 A 
BRANCH   9  14
ATOM     14  N   UNL A   1      30.275  24.888  24.188  1.00  0.00    -0.196 N 
ATOM     15  C   UNL A   1      32.169  22.281  25.634  1.00  0.00     0.024 C 
ATOM     16  C   UNL A   1      31.641  23.216  24.836  1.00  0.00     0.065 C 
ATOM     17  C   UNL A   1      30.643  24.188  25.346  1.00  0.00     0.280 C 
ATOM     18  C   UNL A   1      31.789  23.551  23.413  1.00  0.00     0.071 C 
ATOM     19  O   UNL A   1      30.296  24.310  26.503  1.00  0.00    -0.267 OA
ATOM     20  N   UNL A   1      30.959  24.491  23.039  1.00  0.00    -0.169 NA
ATOM     21  C   UNL A   1      32.819  22.966  22.506  1.00  0.00     0.069 C 
BRANCH  15  22
ATOM     22  C   UNL A   1      33.085  21.209  25.251  1.00  0.00    -0.019 A 
ATOM     23  C   UNL A   1      35.292  20.237  25.138  1.00  0.00     0.163 A 
ATOM     24  C   UNL A   1      34.468  21.321  25.439  1.00  0.00     0.058 A 
ATOM     25  C   UNL A   1      34.744  19.024  24.715  1.00  0.00     0.176 A 
ATOM     26  C   UNL A   1      33.375  18.925  24.483  1.00  0.00     0.087 A 
ATOM     27  C   UNL A   1      32.545  20.015  24.752  1.00  0.00     0.032 A 
ATOM     28  Cl  UNL A   1      32.662  17.467  23.898  1.00  0.00    -0.080 Cl
BRANCH  23  29
ATOM     29  O   UNL A   1      36.640  20.329  25.361  1.00  0.00    -0.490 OA
BRANCH  29  30
ATOM     30  C   UNL A   1      37.240  21.393  24.603  1.00  0.00     0.226 C 
ATOM     31  C   UNL A   1      38.070  22.295  25.503  1.00  0.00     0.049 C 
ENDBRANCH  29  30
ENDBRANCH  23  29
BRANCH  25  32
ATOM     32  O   UNL A   1      35.551  17.930  24.571  1.00  0.00    -0.503 OA
ATOM     33  H   UNL A   1      36.098  17.846  23.814  1.00  0.00     0.293 HD
ENDBRANCH  25  32
ENDBRANCH  15  22
ENDBRANCH   9  14
ENDBRANCH   5   8
ENDBRANCH   3   4
ENDBRANCH   2   3
ENDBRANCH   1   2
BRANCH   1  34
ATOM     34  C   UNL A   1      34.098  31.255  27.977  1.00  0.00     0.002 C 
BRANCH  34  35
ATOM     35  C   UNL A   1      35.557  31.715  27.935  1.00  0.00     0.021 C 
BRANCH  35  36
ATOM     36  C   UNL A   1      36.125  32.234  29.252  1.00  0.00     0.116 C 
BRANCH  36  37
ATOM     37  N   UNL A   1      35.865  31.336  30.365  1.00  0.00    -0.352 N 
ATOM     38  C   UNL A   1      36.624  30.299  30.848  1.00  0.00     0.251 C 
ATOM     39  H   UNL A   1      35.020  31.496  30.843  1.00  0.00     0.163 HD
ATOM     40  O   UNL A   1      36.152  29.542  31.692  1.00  0.00    -0.269 OA
BRANCH  38  41
ATOM     41  C   UNL A   1      37.998  30.079  30.343  1.00  0.00     0.039 A 
ATOM     42  C   UNL A   1      39.046  29.979  31.262  1.00  0.00     0.014 A 
ATOM     43  C   UNL A   1      38.261  29.992  28.973  1.00  0.00     0.014 A 
ATOM     44  C   UNL A   1      40.346  29.738  30.810  1.00  0.00     0.010 A 
ATOM     45  C   UNL A   1      39.543  29.674  28.530  1.00  0.00     0.010 A 
ATOM     46  C   UNL A   1      40.602  29.551  29.442  1.00  0.00    -0.014 A 
BRANCH  46  47
ATOM     47  C   UNL A   1      41.969  29.229  28.953  1.00  0.00     0.031 A 
ATOM     48  C   UNL A   1      42.299  27.840  28.475  1.00  0.00     0.074 A 
ATOM     49  C   UNL A   1      42.927  30.177  28.984  1.00  0.00     0.049 A 
ATOM     50  N   UNL A   1      43.440  27.365  28.044  1.00  0.00    -0.248 NA
ATOM     51  C   UNL A   1      41.211  26.847  28.506  1.00  0.00     0.031 C 
ATOM     52  C   UNL A   1      42.746  31.550  29.459  1.00  0.00     0.029 A 
ATOM     53  N   UNL A   1      44.246  30.129  28.607  1.00  0.00    -0.354 N 
ATOM     54  C   UNL A   1      43.212  26.022  27.766  1.00  0.00     0.074 A 
ATOM     55  C   UNL A   1      41.840  25.743  28.129  1.00  0.00     0.031 C 
ATOM     56  C   UNL A   1      43.898  32.222  29.315  1.00  0.00     0.029 A 
ATOM     57  C   UNL A   1      44.913  31.320  28.782  1.00  0.00     0.049 A 
ATOM     58  H   UNL A   1      44.676  29.320  28.247  1.00  0.00     0.167 HD
ATOM     59  C   UNL A   1      44.062  25.109  27.237  1.00  0.00     0.031 A 
ATOM     60  C   UNL A   1      46.199  31.650  28.546  1.00  0.00     0.031 A 
ATOM     61  C   UNL A   1      45.426  25.392  26.872  1.00  0.00     0.049 A 
ATOM     62  C   UNL A   1      47.128  30.612  27.976  1.00  0.00     0.074 A 
ATOM     63  C   UNL A   1      46.351  24.548  26.283  1.00  0.00     0.029 A 
ATOM     64  N   UNL A   1      46.061  26.609  27.065  1.00  0.00    -0.354 N 
ATOM     65  N   UNL A   1      46.875  29.363  27.660  1.00  0.00    -0.248 NA
ATOM     66  C   UNL A   1      48.512  31.031  27.719  1.00  0.00     0.031 C 
ATOM     67  C   UNL A   1      47.565  25.234  26.179  1.00  0.00     0.029 A 
ATOM     68  C   UNL A   1      47.376  26.529  26.635  1.00  0.00     0.049 A 
ATOM     69  H   UNL A   1      45.642  27.411  27.451  1.00  0.00     0.167 HD
ATOM     70  C   UNL A   1      48.060  28.859  27.137  1.00  0.00     0.074 A 
ATOM     71  C   UNL A   1      49.023  29.941  27.163  1.00  0.00     0.031 C 
ATOM     72  C   UNL A   1      48.327  27.613  26.672  1.00  0.00     0.031 A 
BRANCH  59  73
ATOM     73  C   UNL A   1      43.542  23.708  27.030  1.00  0.00    -0.014 A 
ATOM     74  C   UNL A   1      43.355  22.830  28.113  1.00  0.00     0.010 A 
ATOM     75  C   UNL A   1      43.192  23.277  25.736  1.00  0.00     0.010 A 
ATOM     76  C   UNL A   1      42.871  21.535  27.903  1.00  0.00     0.020 A 
ATOM     77  C   UNL A   1      42.677  21.995  25.524  1.00  0.00     0.020 A 
ATOM     78  C   UNL A   1      42.537  21.126  26.608  1.00  0.00     0.054 A 
BRANCH  78  79
ATOM     79  S   UNL A   1      41.890  19.448  26.368  1.00  0.00     0.124 S 
ATOM     80  O   UNL A   1      42.445  19.097  25.063  1.00  0.00    -0.237 OA
ATOM     81  O   UNL A   1      42.451  18.724  27.506  1.00  0.00    -0.237 OA
ATOM     82  O   UNL A   1      40.440  19.627  26.400  1.00  0.00    -0.744 OA
ENDBRANCH  78  79
ENDBRANCH  59  73
BRANCH  60  83
ATOM     83  C   UNL A   1      46.679  33.029  28.836  1.00  0.00    -0.014 A 
ATOM     84  C   UNL A   1      47.218  33.352  30.095  1.00  0.00     0.010 A 
ATOM     85  C   UNL A   1      46.609  34.029  27.849  1.00  0.00     0.010 A 
ATOM     86  C   UNL A   1      47.656  34.650  30.368  1.00  0.00     0.020 A 
ATOM     87  C   UNL A   1      47.075  35.321  28.107  1.00  0.00     0.020 A 
ATOM     88  C   UNL A   1      47.586  35.626  29.370  1.00  0.00     0.054 A 
BRANCH  88  89
ATOM     89  S   UNL A   1      48.207  37.293  29.731  1.00  0.00     0.124 S 
ATOM     90  O   UNL A   1      47.188  37.805  30.642  1.00  0.00    -0.237 OA
ATOM     91  O   UNL A   1      49.511  37.019  30.328  1.00  0.00    -0.237 OA
ATOM     92  O   UNL A   1      48.252  37.932  28.418  1.00  0.00    -0.744 OA
ENDBRANCH  88  89
ENDBRANCH  60  83
BRANCH  72  93
ATOM     93  C   UNL A   1      49.705  27.358  26.117  1.00  0.00    -0.014 A 
ATOM     94  C   UNL A   1      50.671  26.643  26.847  1.00  0.00     0.010 A 
ATOM     95  C   UNL A   1      50.021  27.807  24.821  1.00  0.00     0.010 A 
ATOM     96  C   UNL A   1      51.940  26.417  26.308  1.00  0.00     0.020 A 
ATOM     97  C   UNL A   1      51.278  27.553  24.265  1.00  0.00     0.020 A 
ATOM     98  C   UNL A   1      52.235  26.873  25.020  1.00  0.00     0.054 A 
BRANCH  98  99
ATOM     99  S   UNL A   1      53.878  26.536  24.329  1.00  0.00     0.124 S 
ATOM    100  O   UNL A   1      53.873  25.080  24.227  1.00  0.00    -0.237 OA
ATOM    101  O   UNL A   1      53.843  27.257  23.058  1.00  0.00    -0.237 OA
ATOM    102  O   UNL A   1      54.793  27.088  25.326  1.00  0.00    -0.744 OA
ENDBRANCH  98  99
ENDBRANCH  72  93
ENDBRANCH  46  47
ENDBRANCH  38  41
ENDBRANCH  36  37
ENDBRANCH  35  36
ENDBRANCH  34  35
ENDBRANCH   1  34
TORSDOF 21
ENDMDL
MODEL 2
REMARK VINA RESULT:     -10.0      4.592      7.719
REMARK SMILES CCOc1cc(/C=C2/C(=O)N(c3cccc(C(=O)NCCCCCCNC(=O)c4ccc(-c5c6nc(c(-c7ccc(S(=O)(=O)[O-])cc7)c7ccc([nH]7)c(-c7ccc(S(=O)(=O)[O-])cc7)c7nc(c(-c8ccc(S(=O)(=O)[O-])cc8)c8ccc5[nH]8)C=C7)C=C6)cc4)c3)N=C2C)cc(Cl)c1O
REMARK SMILES IDX 22 1 21 2 20 3 19 4 17 5 18 6 16 8 12 9 13 10 89 11 14 12
REMARK SMILES IDX 15 13 11 14 7 15 8 16 9 17 91 18 10 19 90 20 92 21 6 22 4 23
REMARK SMILES IDX 5 24 96 25 94 26 93 27 95 28 3 29 2 30 1 31 97 32 23 34
REMARK SMILES IDX 24 35 25 36 26 37 27 38 28 40 29 41 30 42 88 43 31 44 87 45
REMARK SMILES IDX 32 46 33 47 34 48 81 49 35 50 86 51 80 52 82 53 36 54 85 55
REMARK SMILES IDX 79 56 78 57 37 59 67 60 48 61 66 62 49 63 52 64 65 65 83 66
REMARK SMILES IDX 50 67 51 68 64 70 84 71 53 72 38 73 39 74 47 75 40 76 46 77
REMARK SMILES IDX 41 78 42 79 43 80 44 81 45 82 68 83 69 84 77 85 70 86 76 87
REMARK SMILES IDX 71 88 72 89 73 90 74 91 75 92 54 93 55 94 63 95 56 96 62 97
REMARK SMILES IDX 57 98 58 99 59 100 60 101 61 102
REMARK H PARENT 19 7 97 33 26 39 82 58 52 69
REMARK Flexibility Score: inf
ROOT
ATOM      1  C   UNL A   1      32.335  29.226  25.042  1.00  0.00     0.002 C 
ENDROOT
BRANCH   1   2
ATOM      2  C   UNL A   1      32.234  27.948  24.212  1.00  0.00     0.021 C 
BRANCH   2   3
ATOM      3  C   UNL A   1      32.933  26.715  24.777  1.00  0.00     0.116 C 
BRANCH   3   4
ATOM      4  N   UNL A   1      32.258  26.112  25.918  1.00  0.00    -0.352 N 
ATOM      5  C   UNL A   1      32.316  24.835  26.436  1.00  0.00     0.251 C 
ATOM      6  O   UNL A   1      31.618  24.557  27.409  1.00  0.00    -0.269 OA
ATOM      7  H   UNL A   1      31.656  26.723  26.404  1.00  0.00     0.163 HD
BRANCH   5   8
ATOM      8  C   UNL A   1      33.127  23.764  25.794  1.00  0.00     0.041 A 
ATOM      9  C   UNL A   1      35.288  22.783  25.317  1.00  0.00     0.069 A 
ATOM     10  C   UNL A   1      34.728  22.120  24.216  1.00  0.00     0.028 A 
ATOM     11  C   UNL A   1      34.444  23.499  26.171  1.00  0.00     0.042 A 
ATOM     12  C   UNL A   1      33.360  22.210  23.954  1.00  0.00     0.003 A 
ATOM     13  C   UNL A   1      32.566  23.064  24.720  1.00  0.00     0.014 A 
BRANCH   9  14
ATOM     14  N   UNL A   1      36.692  22.862  25.473  1.00  0.00    -0.196 N 
ATOM     15  C   UNL A   1      39.970  21.763  26.189  1.00  0.00     0.024 C 
ATOM     16  C   UNL A   1      38.830  22.448  26.055  1.00  0.00     0.065 C 
ATOM     17  C   UNL A   1      37.588  21.790  25.580  1.00  0.00     0.280 C 
ATOM     18  C   UNL A   1      38.450  23.854  26.251  1.00  0.00     0.071 C 
ATOM     19  O   UNL A   1      37.446  20.600  25.378  1.00  0.00    -0.267 OA
ATOM     20  N   UNL A   1      37.222  24.092  25.866  1.00  0.00    -0.169 NA
ATOM     21  C   UNL A   1      39.315  24.885  26.893  1.00  0.00     0.069 C 
BRANCH  15  22
ATOM     22  C   UNL A   1      41.281  22.295  26.555  1.00  0.00    -0.019 A 
ATOM     23  C   UNL A   1      43.344  23.425  26.013  1.00  0.00     0.163 A 
ATOM     24  C   UNL A   1      42.141  22.851  25.601  1.00  0.00     0.058 A 
ATOM     25  C   UNL A   1      43.665  23.507  27.369  1.00  0.00     0.176 A 
ATOM     26  C   UNL A   1      42.834  22.915  28.315  1.00  0.00     0.087 A 
ATOM     27  C   UNL A   1      41.642  22.310  27.910  1.00  0.00     0.032 A 
ATOM     28  Cl  UNL A   1      43.221  22.933  29.996  1.00  0.00    -0.080 Cl
BRANCH  23  29
ATOM     29  O   UNL A   1      44.168  24.008  25.086  1.00  0.00    -0.490 OA
BRANCH  29  30
ATOM     30  C   UNL A   1      44.743  23.040  24.192  1.00  0.00     0.226 C 
ATOM     31  C   UNL A   1      46.142  22.652  24.644  1.00  0.00     0.049 C 
ENDBRANCH  29  30
ENDBRANCH  23  29
BRANCH  25  32
ATOM     32  O   UNL A   1      44.772  24.206  27.762  1.00  0.00    -0.503 OA
ATOM     33  H   UNL A   1      44.967  25.035  27.370  1.00  0.00     0.293 HD
ENDBRANCH  25  32
ENDBRANCH  15  22
ENDBRANCH   9  14
ENDBRANCH   5   8
ENDBRANCH   3   4
ENDBRANCH   2   3
ENDBRANCH   1   2
BRANCH   1  34
ATOM     34  C   UNL A   1      33.683  29.488  25.719  1.00  0.00     0.002 C 
BRANCH  34  35
ATOM     35  C   UNL A   1      33.641  29.772  27.222  1.00  0.00     0.021 C 
BRANCH  35  36
ATOM     36  C   UNL A   1      34.620  30.829  27.723  1.00  0.00     0.116 C 
BRANCH  36  37
ATOM     37  N   UNL A   1      33.951  31.980  28.305  1.00  0.00    -0.352 N 
ATOM     38  C   UNL A   1      34.446  32.949  29.142  1.00  0.00     0.251 C 
ATOM     39  H   UNL A   1      33.002  32.080  28.062  1.00  0.00     0.163 HD
ATOM     40  O   UNL A   1      33.676  33.748  29.669  1.00  0.00    -0.269 OA
BRANCH  38  41
ATOM     41  C   UNL A   1      35.897  33.022  29.426  1.00  0.00     0.039 A 
ATOM     42  C   UNL A   1      36.339  33.839  30.470  1.00  0.00     0.014 A 
ATOM     43  C   UNL A   1      36.822  32.308  28.658  1.00  0.00     0.014 A 
ATOM     44  C   UNL A   1      37.701  33.897  30.778  1.00  0.00     0.010 A 
ATOM     45  C   UNL A   1      38.168  32.307  29.016  1.00  0.00     0.010 A 
ATOM     46  C   UNL A   1      38.625  33.107  30.075  1.00  0.00    -0.014 A 
BRANCH  46  47
ATOM     47  C   UNL A   1      40.068  33.110  30.434  1.00  0.00     0.031 A 
ATOM     48  C   UNL A   1      40.622  32.066  31.366  1.00  0.00     0.074 A 
ATOM     49  C   UNL A   1      40.871  34.082  29.957  1.00  0.00     0.049 A 
ATOM     50  N   UNL A   1      41.843  31.927  31.817  1.00  0.00    -0.248 NA
ATOM     51  C   UNL A   1      39.678  31.058  31.878  1.00  0.00     0.031 C 
ATOM     52  C   UNL A   1      40.449  35.173  29.076  1.00  0.00     0.029 A 
ATOM     53  N   UNL A   1      42.211  34.311  30.147  1.00  0.00    -0.354 N 
ATOM     54  C   UNL A   1      41.811  30.830  32.671  1.00  0.00     0.074 A 
ATOM     55  C   UNL A   1      40.439  30.374  32.720  1.00  0.00     0.031 C 
ATOM     56  C   UNL A   1      41.513  35.934  28.776  1.00  0.00     0.029 A 
ATOM     57  C   UNL A   1      42.683  35.415  29.476  1.00  0.00     0.049 A 
ATOM     58  H   UNL A   1      42.781  33.739  30.710  1.00  0.00     0.167 HD
ATOM     59  C   UNL A   1      42.834  30.243  33.338  1.00  0.00     0.031 A 
ATOM     60  C   UNL A   1      43.918  35.957  29.434  1.00  0.00     0.031 A 
ATOM     61  C   UNL A   1      44.199  30.698  33.284  1.00  0.00     0.049 A 
ATOM     62  C   UNL A   1      45.032  35.298  30.199  1.00  0.00     0.074 A 
ATOM     63  C   UNL A   1      45.315  30.141  33.884  1.00  0.00     0.029 A 
ATOM     64  N   UNL A   1      44.634  31.819  32.594  1.00  0.00    -0.354 N 
ATOM     65  N   UNL A   1      44.993  34.221  30.951  1.00  0.00    -0.248 NA
ATOM     66  C   UNL A   1      46.360  35.916  30.100  1.00  0.00     0.031 C 
ATOM     67  C   UNL A   1      46.413  30.962  33.611  1.00  0.00     0.029 A 
ATOM     68  C   UNL A   1      45.997  31.989  32.779  1.00  0.00     0.049 A 
ATOM     69  H   UNL A   1      44.060  32.409  32.053  1.00  0.00     0.167 HD
ATOM     70  C   UNL A   1      46.298  34.019  31.387  1.00  0.00     0.074 A 
ATOM     71  C   UNL A   1      47.103  35.071  30.802  1.00  0.00     0.031 C 
ATOM     72  C   UNL A   1      46.787  33.045  32.195  1.00  0.00     0.031 A 
BRANCH  59  73
ATOM     73  C   UNL A   1      42.512  29.046  34.198  1.00  0.00    -0.014 A 
ATOM     74  C   UNL A   1      42.580  27.738  33.685  1.00  0.00     0.010 A 
ATOM     75  C   UNL A   1      42.180  29.229  35.553  1.00  0.00     0.010 A 
ATOM     76  C   UNL A   1      42.279  26.640  34.496  1.00  0.00     0.020 A 
ATOM     77  C   UNL A   1      41.910  28.133  36.377  1.00  0.00     0.020 A 
ATOM     78  C   UNL A   1      41.944  26.845  35.838  1.00  0.00     0.054 A 
BRANCH  78  79
ATOM     79  S   UNL A   1      41.581  25.401  36.873  1.00  0.00     0.124 S 
ATOM     80  O   UNL A   1      42.790  25.304  37.689  1.00  0.00    -0.237 OA
ATOM     81  O   UNL A   1      40.374  25.813  37.584  1.00  0.00    -0.237 OA
ATOM     82  O   UNL A   1      41.394  24.320  35.908  1.00  0.00    -0.744 OA
ENDBRANCH  78  79
ENDBRANCH  59  73
BRANCH  60  83
ATOM     83  C   UNL A   1      44.165  37.183  28.626  1.00  0.00    -0.014 A 
ATOM     84  C   UNL A   1      44.759  37.098  27.354  1.00  0.00     0.010 A 
ATOM     85  C   UNL A   1      43.797  38.448  29.122  1.00  0.00     0.010 A 
ATOM     86  C   UNL A   1      45.001  38.252  26.605  1.00  0.00     0.020 A 
ATOM     87  C   UNL A   1      44.007  39.601  28.363  1.00  0.00     0.020 A 
ATOM     88  C   UNL A   1      44.619  39.497  27.112  1.00  0.00     0.054 A 
BRANCH  88  89
ATOM     89  S   UNL A   1      44.898  40.977  26.100  1.00  0.00     0.124 S 
ATOM     90  O   UNL A   1      45.591  40.426  24.940  1.00  0.00    -0.237 OA
ATOM     91  O   UNL A   1      43.538  41.452  25.858  1.00  0.00    -0.237 OA
ATOM     92  O   UNL A   1      45.705  41.835  26.964  1.00  0.00    -0.744 OA
ENDBRANCH  88  89
ENDBRANCH  60  83
BRANCH  72  93
ATOM     93  C   UNL A   1      48.268  33.047  32.469  1.00  0.00    -0.014 A 
ATOM     94  C   UNL A   1      48.805  33.674  33.607  1.00  0.00     0.010 A 
ATOM     95  C   UNL A   1      49.133  32.370  31.589  1.00  0.00     0.010 A 
ATOM     96  C   UNL A   1      50.184  33.658  33.839  1.00  0.00     0.020 A 
ATOM     97  C   UNL A   1      50.508  32.323  31.835  1.00  0.00     0.020 A 
ATOM     98  C   UNL A   1      51.026  32.982  32.951  1.00  0.00     0.054 A 
BRANCH  98  99
ATOM     99  S   UNL A   1      52.807  32.946  33.294  1.00  0.00     0.124 S 
ATOM    100  O   UNL A   1      52.876  33.569  34.612  1.00  0.00    -0.237 OA
ATOM    101  O   UNL A   1      53.109  31.517  33.256  1.00  0.00    -0.237 OA
ATOM    102  O   UNL A   1      53.386  33.728  32.204  1.00  0.00    -0.744 OA
ENDBRANCH  98  99
ENDBRANCH  72  93
ENDBRANCH  46  47
ENDBRANCH  38  41
ENDBRANCH  36  37
ENDBRANCH  35  36
ENDBRANCH  34  35
ENDBRANCH   1  34
TORSDOF 21
ENDMDL
MODEL 3
REMARK VINA RESULT:      -9.9      4.140      7.683
REMARK SMILES CCOc1cc(/C=C2/C(=O)N(c3cccc(C(=O)NCCCCCCNC(=O)c4ccc(-c5c6nc(c(-c7ccc(S(=O)(=O)[O-])cc7)c7ccc([nH]7)c(-c7ccc(S(=O)(=O)[O-])cc7)c7nc(c(-c8ccc(S(=O)(=O)[O-])cc8)c8ccc5[nH]8)C=C7)C=C6)cc4)c3)N=C2C)cc(Cl)c1O
REMARK SMILES IDX 22 1 21 2 20 3 19 4 17 5 18 6 16 8 12 9 13 10 89 11 14 12
REMARK SMILES IDX 15 13 11 14 7 15 8 16 9 17 91 18 10 19 90 20 92 21 6 22 4 23
REMARK SMILES IDX 5 24 96 25 94 26 93 27 95 28 3 29 2 30 1 31 97 32 23 34
REMARK SMILES IDX 24 35 25 36 26 37 27 38 28 40 29 41 30 42 88 43 31 44 87 45
REMARK SMILES IDX 32 46 33 47 34 48 81 49 35 50 86 51 80 52 82 53 36 54 85 55
REMARK SMILES IDX 79 56 78 57 37 59 67 60 48 61 66 62 49 63 52 64 65 65 83 66
REMARK SMILES IDX 50 67 51 68 64 70 84 71 53 72 38 73 39 74 47 75 40 76 46 77
REMARK SMILES IDX 41 78 42 79 43 80 44 81 45 82 68 83 69 84 77 85 70 86 76 87
REMARK SMILES IDX 71 88 72 89 73 90 74 91 75 92 54 93 55 94 63 95 56 96 62 97
REMARK SMILES IDX 57 98 58 99 59 100 60 101 61 102
REMARK H PARENT 19 7 97 33 26 39 82 58 52 69
REMARK Flexibility Score: inf
ROOT
ATOM      1  C   UNL A   1      39.550  27.012  29.392  1.00  0.00     0.002 C 
ENDROOT
BRANCH   1   2
ATOM      2  C   UNL A   1      40.181  27.485  28.084  1.00  0.00     0.021 C 
BRANCH   2   3
ATOM      3  C   UNL A   1      41.257  26.584  27.485  1.00  0.00     0.116 C 
BRANCH   3   4
ATOM      4  N   UNL A   1      42.229  26.088  28.448  1.00  0.00    -0.352 N 
ATOM      5  C   UNL A   1      42.664  24.807  28.720  1.00  0.00     0.251 C 
ATOM      6  O   UNL A   1      43.490  24.639  29.617  1.00  0.00    -0.269 OA
ATOM      7  H   UNL A   1      42.649  26.787  29.001  1.00  0.00     0.163 HD
BRANCH   5   8
ATOM      8  C   UNL A   1      42.096  23.620  28.024  1.00  0.00     0.041 A 
ATOM      9  C   UNL A   1      40.309  22.608  26.742  1.00  0.00     0.069 A 
ATOM     10  C   UNL A   1      40.744  21.344  27.162  1.00  0.00     0.028 A 
ATOM     11  C   UNL A   1      41.076  23.728  27.079  1.00  0.00     0.042 A 
ATOM     12  C   UNL A   1      41.897  21.210  27.938  1.00  0.00     0.003 A 
ATOM     13  C   UNL A   1      42.550  22.351  28.402  1.00  0.00     0.014 A 
BRANCH   9  14
ATOM     14  N   UNL A   1      39.044  22.770  26.132  1.00  0.00    -0.196 N 
ATOM     15  C   UNL A   1      35.780  24.032  25.656  1.00  0.00     0.024 C 
ATOM     16  C   UNL A   1      36.885  23.283  25.733  1.00  0.00     0.065 C 
ATOM     17  C   UNL A   1      38.123  23.801  26.366  1.00  0.00     0.280 C 
ATOM     18  C   UNL A   1      37.242  21.933  25.275  1.00  0.00     0.071 C 
ATOM     19  O   UNL A   1      38.233  24.860  26.951  1.00  0.00    -0.267 OA
ATOM     20  N   UNL A   1      38.508  21.665  25.470  1.00  0.00    -0.169 NA
ATOM     21  C   UNL A   1      36.274  20.937  24.732  1.00  0.00     0.069 C 
BRANCH  15  22
ATOM     22  C   UNL A   1      34.527  23.690  24.985  1.00  0.00    -0.019 A 
ATOM     23  C   UNL A   1      32.275  22.821  25.001  1.00  0.00     0.163 A 
ATOM     24  C   UNL A   1      33.483  23.048  25.660  1.00  0.00     0.058 A 
ATOM     25  C   UNL A   1      32.078  23.286  23.699  1.00  0.00     0.176 A 
ATOM     26  C   UNL A   1      33.130  23.883  23.010  1.00  0.00     0.087 A 
ATOM     27  C   UNL A   1      34.353  24.087  23.651  1.00  0.00     0.032 A 
ATOM     28  Cl  UNL A   1      32.954  24.414  21.378  1.00  0.00    -0.080 Cl
BRANCH  23  29
ATOM     29  O   UNL A   1      31.237  22.231  25.673  1.00  0.00    -0.490 OA
BRANCH  29  30
ATOM     30  C   UNL A   1      30.882  22.957  26.861  1.00  0.00     0.226 C 
ATOM     31  C   UNL A   1      30.208  24.273  26.508  1.00  0.00     0.049 C 
ENDBRANCH  29  30
ENDBRANCH  23  29
BRANCH  25  32
ATOM     32  O   UNL A   1      30.841  23.189  23.125  1.00  0.00    -0.503 OA
ATOM     33  H   UNL A   1      30.242  23.908  23.178  1.00  0.00     0.293 HD
ENDBRANCH  25  32
ENDBRANCH  15  22
ENDBRANCH   9  14
ENDBRANCH   5   8
ENDBRANCH   3   4
ENDBRANCH   2   3
ENDBRANCH   1   2
BRANCH   1  34
ATOM     34  C   UNL A   1      39.322  28.086  30.460  1.00  0.00     0.002 C 
BRANCH  34  35
ATOM     35  C   UNL A   1      37.895  28.209  31.000  1.00  0.00     0.021 C 
BRANCH  35  36
ATOM     36  C   UNL A   1      37.773  28.363  32.513  1.00  0.00     0.116 C 
BRANCH  36  37
ATOM     37  N   UNL A   1      37.028  29.551  32.896  1.00  0.00    -0.352 N 
ATOM     38  C   UNL A   1      37.412  30.869  32.876  1.00  0.00     0.251 C 
ATOM     39  H   UNL A   1      36.112  29.385  33.216  1.00  0.00     0.163 HD
ATOM     40  O   UNL A   1      36.700  31.717  33.406  1.00  0.00    -0.269 OA
BRANCH  38  41
ATOM     41  C   UNL A   1      38.687  31.267  32.238  1.00  0.00     0.039 A 
ATOM     42  C   UNL A   1      38.663  31.749  30.927  1.00  0.00     0.014 A 
ATOM     43  C   UNL A   1      39.904  31.149  32.917  1.00  0.00     0.014 A 
ATOM     44  C   UNL A   1      39.850  32.162  30.317  1.00  0.00     0.010 A 
ATOM     45  C   UNL A   1      41.074  31.635  32.336  1.00  0.00     0.010 A 
ATOM     46  C   UNL A   1      41.062  32.139  31.026  1.00  0.00    -0.014 A 
BRANCH  46  47
ATOM     47  C   UNL A   1      42.321  32.637  30.412  1.00  0.00     0.031 A 
ATOM     48  C   UNL A   1      43.227  31.697  29.662  1.00  0.00     0.074 A 
ATOM     49  C   UNL A   1      42.674  33.929  30.570  1.00  0.00     0.049 A 
ATOM     50  N   UNL A   1      44.377  31.942  29.088  1.00  0.00    -0.248 NA
ATOM     51  C   UNL A   1      42.796  30.292  29.562  1.00  0.00     0.031 C 
ATOM     52  C   UNL A   1      41.903  34.934  31.306  1.00  0.00     0.029 A 
ATOM     53  N   UNL A   1      43.772  34.620  30.121  1.00  0.00    -0.354 N 
ATOM     54  C   UNL A   1      44.811  30.725  28.573  1.00  0.00     0.074 A 
ATOM     55  C   UNL A   1      43.829  29.733  28.950  1.00  0.00     0.031 C 
ATOM     56  C   UNL A   1      42.534  36.116  31.231  1.00  0.00     0.029 A 
ATOM     57  C   UNL A   1      43.774  35.948  30.481  1.00  0.00     0.049 A 
ATOM     58  H   UNL A   1      44.490  34.205  29.591  1.00  0.00     0.167 HD
ATOM     59  C   UNL A   1      45.917  30.462  27.834  1.00  0.00     0.031 A 
ATOM     60  C   UNL A   1      44.676  36.921  30.243  1.00  0.00     0.031 A 
ATOM     61  C   UNL A   1      46.890  31.454  27.457  1.00  0.00     0.049 A 
ATOM     62  C   UNL A   1      45.905  36.599  29.438  1.00  0.00     0.074 A 
ATOM     63  C   UNL A   1      48.017  31.296  26.669  1.00  0.00     0.029 A 
ATOM     64  N   UNL A   1      46.856  32.785  27.843  1.00  0.00    -0.354 N 
ATOM     65  N   UNL A   1      46.265  35.454  28.905  1.00  0.00    -0.248 NA
ATOM     66  C   UNL A   1      46.843  37.702  29.190  1.00  0.00     0.031 C 
ATOM     67  C   UNL A   1      48.699  32.516  26.632  1.00  0.00     0.029 A 
ATOM     68  C   UNL A   1      47.958  33.454  27.335  1.00  0.00     0.049 A 
ATOM     69  H   UNL A   1      46.152  33.196  28.396  1.00  0.00     0.167 HD
ATOM     70  C   UNL A   1      47.455  35.710  28.232  1.00  0.00     0.074 A 
ATOM     71  C   UNL A   1      47.743  37.118  28.411  1.00  0.00     0.031 C 
ATOM     72  C   UNL A   1      48.237  34.856  27.525  1.00  0.00     0.031 A 
BRANCH  59  73
ATOM     73  C   UNL A   1      46.140  29.036  27.394  1.00  0.00    -0.014 A 
ATOM     74  C   UNL A   1      46.862  28.129  28.191  1.00  0.00     0.010 A 
ATOM     75  C   UNL A   1      45.580  28.584  26.184  1.00  0.00     0.010 A 
ATOM     76  C   UNL A   1      47.059  26.812  27.767  1.00  0.00     0.020 A 
ATOM     77  C   UNL A   1      45.746  27.259  25.771  1.00  0.00     0.020 A 
ATOM     78  C   UNL A   1      46.499  26.385  26.558  1.00  0.00     0.054 A 
BRANCH  78  79
ATOM     79  S   UNL A   1      46.751  24.664  26.045  1.00  0.00     0.124 S 
ATOM     80  O   UNL A   1      47.923  24.285  26.830  1.00  0.00    -0.237 OA
ATOM     81  O   UNL A   1      45.497  24.027  26.438  1.00  0.00    -0.237 OA
ATOM     82  O   UNL A   1      46.973  24.761  24.604  1.00  0.00    -0.744 OA
ENDBRANCH  78  79
ENDBRANCH  59  73
BRANCH  60  83
ATOM     83  C   UNL A   1      44.442  38.297  30.764  1.00  0.00    -0.014 A 
ATOM     84  C   UNL A   1      44.929  38.679  32.027  1.00  0.00     0.010 A 
ATOM     85  C   UNL A   1      43.735  39.238  29.992  1.00  0.00     0.010 A 
ATOM     86  C   UNL A   1      44.696  39.967  32.517  1.00  0.00     0.020 A 
ATOM     87  C   UNL A   1      43.528  40.537  30.465  1.00  0.00     0.020 A 
ATOM     88  C   UNL A   1      44.000  40.890  31.731  1.00  0.00     0.054 A 
BRANCH  88  89
ATOM     89  S   UNL A   1      43.753  42.571  32.367  1.00  0.00     0.124 S 
ATOM     90  O   UNL A   1      44.147  43.389  31.225  1.00  0.00    -0.237 OA
ATOM     91  O   UNL A   1      42.329  42.577  32.691  1.00  0.00    -0.237 OA
ATOM     92  O   UNL A   1      44.647  42.633  33.522  1.00  0.00    -0.744 OA
ENDBRANCH  88  89
ENDBRANCH  60  83
BRANCH  72  93
ATOM     93  C   UNL A   1      49.463  35.425  26.858  1.00  0.00    -0.014 A 
ATOM     94  C   UNL A   1      49.403  35.998  25.575  1.00  0.00     0.010 A 
ATOM     95  C   UNL A   1      50.688  35.424  27.551  1.00  0.00     0.010 A 
ATOM     96  C   UNL A   1      50.555  36.523  24.982  1.00  0.00     0.020 A 
ATOM     97  C   UNL A   1      51.834  35.979  26.975  1.00  0.00     0.020 A 
ATOM     98  C   UNL A   1      51.762  36.510  25.686  1.00  0.00     0.054 A 
BRANCH  98  99
ATOM     99  S   UNL A   1      53.234  37.229  24.908  1.00  0.00     0.124 S 
ATOM    100  O   UNL A   1      53.014  36.922  23.498  1.00  0.00    -0.237 OA
ATOM    101  O   UNL A   1      53.127  38.641  25.268  1.00  0.00    -0.237 OA
ATOM    102  O   UNL A   1      54.343  36.514  25.535  1.00  0.00    -0.744 OA
ENDBRANCH  98  99
ENDBRANCH  72  93
ENDBRANCH  46  47
ENDBRANCH  38  41
ENDBRANCH  36  37
ENDBRANCH  35  36
ENDBRANCH  34  35
ENDBRANCH   1  34
TORSDOF 21
ENDMDL
