MODEL 1
REMARK VINA RESULT:     -11.4      0.000      0.000
REMARK SMILES Cc1nn(CC(=O)NCCCCCCNC(=O)c2ccc(-c3c4nc(c(-c5ccc(S(=O)(=O)[O-])cc5)c5ccc([nH]5)c(-c5ccc(S(=O)(=O)[O-])cc5)c5nc(c(-c6ccc(S(=O)(=O)[O-])cc6)c6ccc3[nH]6)C=C5)C=C4)cc2)c(C)c1NC(=O)C(=O)Nc1ccc(F)cc1
REMARK SMILES IDX 11 1 10 2 9 3 8 4 6 5 7 6 5 8 4 9 1 10 2 11 3 12 80 13 78 14
REMARK SMILES IDX 79 15 81 16 82 17 83 19 84 20 85 21 86 22 87 24 88 25 93 26
REMARK SMILES IDX 89 27 92 28 90 29 91 30 12 31 13 32 14 33 15 34 16 35 17 37
REMARK SMILES IDX 18 38 19 39 77 40 20 41 76 42 21 43 22 44 23 45 70 46 24 47
REMARK SMILES IDX 75 48 69 49 71 50 25 51 74 52 68 53 67 54 26 56 56 57 37 58
REMARK SMILES IDX 55 59 38 60 41 61 54 62 72 63 39 64 40 65 53 67 73 68 42 69
REMARK SMILES IDX 27 70 28 71 36 72 29 73 35 74 30 75 31 76 32 77 33 78 34 79
REMARK SMILES IDX 57 80 58 81 66 82 59 83 65 84 60 85 61 86 62 87 63 88 64 89
REMARK SMILES IDX 43 90 44 91 52 92 45 93 51 94 46 95 47 96 48 97 49 98 50 99
REMARK H PARENT 8 7 81 18 86 23 15 36 71 55 41 66
REMARK Flexibility Score: inf
ROOT
ATOM      1  C   UNL A   1      35.062  30.506  27.386  1.00  0.00     0.002 C 
ENDROOT
BRANCH   1   2
ATOM      2  C   UNL A   1      33.555  30.753  27.274  1.00  0.00     0.021 C 
BRANCH   2   3
ATOM      3  C   UNL A   1      32.843  29.761  26.362  1.00  0.00     0.116 C 
BRANCH   3   4
ATOM      4  N   UNL A   1      33.294  29.850  24.989  1.00  0.00    -0.354 N 
ATOM      5  C   UNL A   1      33.193  28.990  23.938  1.00  0.00     0.241 C 
ATOM      6  O   UNL A   1      33.697  29.386  22.876  1.00  0.00    -0.273 OA
ATOM      7  H   UNL A   1      33.761  30.690  24.775  1.00  0.00     0.163 HD
BRANCH   5   8
ATOM      8  C   UNL A   1      32.371  27.718  23.942  1.00  0.00     0.244 C 
BRANCH   8   9
ATOM      9  N   UNL A   1      32.943  26.573  24.629  1.00  0.00    -0.258 N 
ATOM     10  C   UNL A   1      35.452  24.087  24.586  1.00  0.00     0.071 C 
ATOM     11  C   UNL A   1      34.290  24.969  24.890  1.00  0.00     0.083 A 
ATOM     12  N   UNL A   1      34.057  26.033  24.122  1.00  0.00    -0.175 NA
ATOM     13  C   UNL A   1      33.329  24.843  25.944  1.00  0.00     0.086 A 
ATOM     14  C   UNL A   1      32.445  25.893  25.729  1.00  0.00     0.060 A 
ATOM     15  C   UNL A   1      31.244  26.402  26.448  1.00  0.00     0.069 C 
BRANCH  13  16
ATOM     16  N   UNL A   1      33.428  23.858  26.916  1.00  0.00    -0.315 N 
ATOM     17  C   UNL A   1      32.544  23.000  27.521  1.00  0.00     0.314 C 
ATOM     18  H   UNL A   1      34.348  23.750  27.250  1.00  0.00     0.170 HD
ATOM     19  O   UNL A   1      32.920  22.279  28.441  1.00  0.00    -0.263 OA
BRANCH  17  20
ATOM     20  C   UNL A   1      31.131  22.854  26.993  1.00  0.00     0.314 C 
ATOM     21  O   UNL A   1      30.213  23.463  27.538  1.00  0.00    -0.263 OA
ATOM     22  N   UNL A   1      30.852  22.006  25.929  1.00  0.00    -0.318 N 
ATOM     23  H   UNL A   1      30.209  21.273  26.063  1.00  0.00     0.170 HD
BRANCH  22  24
ATOM     24  C   UNL A   1      31.454  22.155  24.665  1.00  0.00     0.041 A 
ATOM     25  C   UNL A   1      30.987  23.225  23.888  1.00  0.00     0.029 A 
ATOM     26  C   UNL A   1      32.498  21.360  24.198  1.00  0.00     0.029 A 
ATOM     27  C   UNL A   1      31.636  23.570  22.708  1.00  0.00     0.041 A 
ATOM     28  C   UNL A   1      33.138  21.697  23.001  1.00  0.00     0.041 A 
ATOM     29  C   UNL A   1      32.717  22.811  22.281  1.00  0.00     0.123 A 
ATOM     30  F   UNL A   1      33.362  23.164  21.163  1.00  0.00    -0.207 F 
ENDBRANCH  22  24
ENDBRANCH  17  20
ENDBRANCH  13  16
ENDBRANCH   8   9
ENDBRANCH   5   8
ENDBRANCH   3   4
ENDBRANCH   2   3
ENDBRANCH   1   2
BRANCH   1  31
ATOM     31  C   UNL A   1      35.899  31.702  27.870  1.00  0.00     0.002 C 
BRANCH  31  32
ATOM     32  C   UNL A   1      35.138  33.009  28.142  1.00  0.00     0.021 C 
BRANCH  32  33
ATOM     33  C   UNL A   1      35.766  33.867  29.227  1.00  0.00     0.116 C 
BRANCH  33  34
ATOM     34  N   UNL A   1      35.090  33.718  30.519  1.00  0.00    -0.352 N 
ATOM     35  C   UNL A   1      35.196  32.685  31.436  1.00  0.00     0.251 C 
ATOM     36  H   UNL A   1      34.482  34.449  30.768  1.00  0.00     0.163 HD
ATOM     37  O   UNL A   1      34.334  32.505  32.278  1.00  0.00    -0.269 OA
BRANCH  35  38
ATOM     38  C   UNL A   1      36.386  31.818  31.373  1.00  0.00     0.039 A 
ATOM     39  C   UNL A   1      36.300  30.440  31.152  1.00  0.00     0.014 A 
ATOM     40  C   UNL A   1      37.621  32.439  31.515  1.00  0.00     0.014 A 
ATOM     41  C   UNL A   1      37.480  29.711  31.008  1.00  0.00     0.010 A 
ATOM     42  C   UNL A   1      38.756  31.771  31.160  1.00  0.00     0.010 A 
ATOM     43  C   UNL A   1      38.704  30.394  31.004  1.00  0.00    -0.014 A 
BRANCH  43  44
ATOM     44  C   UNL A   1      39.974  29.721  30.775  1.00  0.00     0.031 A 
ATOM     45  C   UNL A   1      40.812  29.559  31.992  1.00  0.00     0.074 A 
ATOM     46  C   UNL A   1      40.213  29.048  29.627  1.00  0.00     0.049 A 
ATOM     47  N   UNL A   1      41.930  30.142  32.268  1.00  0.00    -0.248 NA
ATOM     48  C   UNL A   1      40.261  28.776  33.112  1.00  0.00     0.031 C 
ATOM     49  C   UNL A   1      39.300  28.830  28.492  1.00  0.00     0.029 A 
ATOM     50  N   UNL A   1      41.279  28.280  29.288  1.00  0.00    -0.354 N 
ATOM     51  C   UNL A   1      42.346  29.609  33.486  1.00  0.00     0.074 A 
ATOM     52  C   UNL A   1      41.190  28.965  34.051  1.00  0.00     0.031 C 
ATOM     53  C   UNL A   1      39.744  27.798  27.741  1.00  0.00     0.029 A 
ATOM     54  C   UNL A   1      41.055  27.409  28.225  1.00  0.00     0.049 A 
ATOM     55  H   UNL A   1      42.143  28.335  29.757  1.00  0.00     0.167 HD
ATOM     56  C   UNL A   1      43.670  29.498  33.797  1.00  0.00     0.031 A 
ATOM     57  C   UNL A   1      41.876  26.416  27.797  1.00  0.00     0.031 A 
ATOM     58  C   UNL A   1      44.487  30.234  32.864  1.00  0.00     0.049 A 
ATOM     59  C   UNL A   1      43.223  26.715  28.345  1.00  0.00     0.074 A 
ATOM     60  C   UNL A   1      44.586  31.556  32.485  1.00  0.00     0.029 A 
ATOM     61  N   UNL A   1      45.081  29.502  31.861  1.00  0.00    -0.354 N 
ATOM     62  N   UNL A   1      43.912  27.771  28.009  1.00  0.00    -0.248 NA
ATOM     63  C   UNL A   1      43.585  26.114  29.619  1.00  0.00     0.031 C 
ATOM     64  C   UNL A   1      44.800  31.517  31.076  1.00  0.00     0.029 A 
ATOM     65  C   UNL A   1      44.904  30.180  30.684  1.00  0.00     0.049 A 
ATOM     66  H   UNL A   1      45.552  28.644  31.969  1.00  0.00     0.167 HD
ATOM     67  C   UNL A   1      44.479  28.219  29.195  1.00  0.00     0.074 A 
ATOM     68  C   UNL A   1      44.321  27.106  30.132  1.00  0.00     0.031 C 
ATOM     69  C   UNL A   1      44.761  29.543  29.391  1.00  0.00     0.031 A 
BRANCH  56  70
ATOM     70  C   UNL A   1      44.258  28.386  34.642  1.00  0.00    -0.014 A 
ATOM     71  C   UNL A   1      44.791  27.259  33.979  1.00  0.00     0.010 A 
ATOM     72  C   UNL A   1      44.052  28.266  36.031  1.00  0.00     0.010 A 
ATOM     73  C   UNL A   1      44.989  26.045  34.647  1.00  0.00     0.020 A 
ATOM     74  C   UNL A   1      44.289  27.072  36.716  1.00  0.00     0.020 A 
ATOM     75  C   UNL A   1      44.713  25.955  36.011  1.00  0.00     0.054 A 
BRANCH  75  76
ATOM     76  S   UNL A   1      44.834  24.350  36.833  1.00  0.00     0.124 S 
ATOM     77  O   UNL A   1      44.739  24.729  38.240  1.00  0.00    -0.237 OA
ATOM     78  O   UNL A   1      43.684  23.636  36.288  1.00  0.00    -0.237 OA
ATOM     79  O   UNL A   1      46.137  23.845  36.405  1.00  0.00    -0.744 OA
ENDBRANCH  75  76
ENDBRANCH  56  70
BRANCH  57  80
ATOM     80  C   UNL A   1      41.498  25.091  27.241  1.00  0.00    -0.014 A 
ATOM     81  C   UNL A   1      42.317  24.419  26.315  1.00  0.00     0.010 A 
ATOM     82  C   UNL A   1      40.448  24.357  27.834  1.00  0.00     0.010 A 
ATOM     83  C   UNL A   1      42.127  23.052  26.033  1.00  0.00     0.020 A 
ATOM     84  C   UNL A   1      40.250  22.998  27.555  1.00  0.00     0.020 A 
ATOM     85  C   UNL A   1      41.103  22.345  26.671  1.00  0.00     0.054 A 
BRANCH  85  86
ATOM     86  S   UNL A   1      40.963  20.546  26.437  1.00  0.00     0.124 S 
ATOM     87  O   UNL A   1      39.674  20.419  25.764  1.00  0.00    -0.237 OA
ATOM     88  O   UNL A   1      42.135  20.237  25.624  1.00  0.00    -0.237 OA
ATOM     89  O   UNL A   1      41.005  20.021  27.802  1.00  0.00    -0.744 OA
ENDBRANCH  85  86
ENDBRANCH  57  80
BRANCH  69  90
ATOM     90  C   UNL A   1      44.712  30.479  28.205  1.00  0.00    -0.014 A 
ATOM     91  C   UNL A   1      43.524  31.038  27.690  1.00  0.00     0.010 A 
ATOM     92  C   UNL A   1      45.942  30.965  27.729  1.00  0.00     0.010 A 
ATOM     93  C   UNL A   1      43.574  32.056  26.722  1.00  0.00     0.020 A 
ATOM     94  C   UNL A   1      45.998  31.987  26.781  1.00  0.00     0.020 A 
ATOM     95  C   UNL A   1      44.814  32.527  26.278  1.00  0.00     0.054 A 
BRANCH  95  96
ATOM     96  S   UNL A   1      44.883  33.897  25.088  1.00  0.00     0.124 S 
ATOM     97  O   UNL A   1      46.292  34.276  25.123  1.00  0.00    -0.237 OA
ATOM     98  O   UNL A   1      44.429  33.274  23.846  1.00  0.00    -0.237 OA
ATOM     99  O   UNL A   1      43.962  34.889  25.644  1.00  0.00    -0.744 OA
ENDBRANCH  95  96
ENDBRANCH  69  90
ENDBRANCH  43  44
ENDBRANCH  35  38
ENDBRANCH  33  34
ENDBRANCH  32  33
ENDBRANCH  31  32
ENDBRANCH   1  31
TORSDOF 20
ENDMDL
MODEL 2
REMARK VINA RESULT:     -11.4      3.112      7.633
REMARK SMILES Cc1nn(CC(=O)NCCCCCCNC(=O)c2ccc(-c3c4nc(c(-c5ccc(S(=O)(=O)[O-])cc5)c5ccc([nH]5)c(-c5ccc(S(=O)(=O)[O-])cc5)c5nc(c(-c6ccc(S(=O)(=O)[O-])cc6)c6ccc3[nH]6)C=C5)C=C4)cc2)c(C)c1NC(=O)C(=O)Nc1ccc(F)cc1
REMARK SMILES IDX 11 1 10 2 9 3 8 4 6 5 7 6 5 8 4 9 1 10 2 11 3 12 80 13 78 14
REMARK SMILES IDX 79 15 81 16 82 17 83 19 84 20 85 21 86 22 87 24 88 25 93 26
REMARK SMILES IDX 89 27 92 28 90 29 91 30 12 31 13 32 14 33 15 34 16 35 17 37
REMARK SMILES IDX 18 38 19 39 77 40 20 41 76 42 21 43 22 44 23 45 70 46 24 47
REMARK SMILES IDX 75 48 69 49 71 50 25 51 74 52 68 53 67 54 26 56 56 57 37 58
REMARK SMILES IDX 55 59 38 60 41 61 54 62 72 63 39 64 40 65 53 67 73 68 42 69
REMARK SMILES IDX 27 70 28 71 36 72 29 73 35 74 30 75 31 76 32 77 33 78 34 79
REMARK SMILES IDX 57 80 58 81 66 82 59 83 65 84 60 85 61 86 62 87 63 88 64 89
REMARK SMILES IDX 43 90 44 91 52 92 45 93 51 94 46 95 47 96 48 97 49 98 50 99
REMARK H PARENT 8 7 81 18 86 23 15 36 71 55 41 66
REMARK Flexibility Score: inf
ROOT
ATOM      1  C   UNL A   1      33.513  29.589  26.669  1.00  0.00     0.002 C 
ENDROOT
BRANCH   1   2
ATOM      2  C   UNL A   1      32.020  29.462  26.353  1.00  0.00     0.021 C 
BRANCH   2   3
ATOM      3  C   UNL A   1      31.737  29.048  24.914  1.00  0.00     0.116 C 
BRANCH   3   4
ATOM      4  N   UNL A   1      30.909  30.008  24.215  1.00  0.00    -0.354 N 
ATOM      5  C   UNL A   1      29.859  29.856  23.360  1.00  0.00     0.241 C 
ATOM      6  O   UNL A   1      29.364  30.910  22.934  1.00  0.00    -0.273 OA
ATOM      7  H   UNL A   1      31.150  30.946  24.389  1.00  0.00     0.163 HD
BRANCH   5   8
ATOM      8  C   UNL A   1      29.172  28.538  23.067  1.00  0.00     0.244 C 
BRANCH   8   9
ATOM      9  N   UNL A   1      30.023  27.365  22.971  1.00  0.00    -0.258 N 
ATOM     10  C   UNL A   1      32.569  25.736  21.144  1.00  0.00     0.071 C 
ATOM     11  C   UNL A   1      31.503  26.134  22.106  1.00  0.00     0.083 A 
ATOM     12  N   UNL A   1      30.951  27.343  22.009  1.00  0.00    -0.175 NA
ATOM     13  C   UNL A   1      30.947  25.373  23.184  1.00  0.00     0.086 A 
ATOM     14  C   UNL A   1      29.962  26.196  23.714  1.00  0.00     0.060 A 
ATOM     15  C   UNL A   1      29.022  26.083  24.864  1.00  0.00     0.069 C 
BRANCH  13  16
ATOM     16  N   UNL A   1      31.432  24.119  23.524  1.00  0.00    -0.315 N 
ATOM     17  C   UNL A   1      32.451  23.655  24.319  1.00  0.00     0.314 C 
ATOM     18  H   UNL A   1      30.928  23.390  23.094  1.00  0.00     0.170 HD
ATOM     19  O   UNL A   1      32.703  22.454  24.355  1.00  0.00    -0.263 OA
BRANCH  17  20
ATOM     20  C   UNL A   1      33.199  24.599  25.239  1.00  0.00     0.314 C 
ATOM     21  O   UNL A   1      32.639  25.043  26.239  1.00  0.00    -0.263 OA
ATOM     22  N   UNL A   1      34.494  25.004  24.944  1.00  0.00    -0.318 N 
ATOM     23  H   UNL A   1      34.677  25.965  24.836  1.00  0.00     0.170 HD
BRANCH  22  24
ATOM     24  C   UNL A   1      35.556  24.092  24.794  1.00  0.00     0.041 A 
ATOM     25  C   UNL A   1      36.272  23.790  25.961  1.00  0.00     0.029 A 
ATOM     26  C   UNL A   1      35.873  23.452  23.598  1.00  0.00     0.029 A 
ATOM     27  C   UNL A   1      37.217  22.770  25.959  1.00  0.00     0.041 A 
ATOM     28  C   UNL A   1      36.837  22.439  23.593  1.00  0.00     0.041 A 
ATOM     29  C   UNL A   1      37.482  22.092  24.777  1.00  0.00     0.123 A 
ATOM     30  F   UNL A   1      38.366  21.088  24.784  1.00  0.00    -0.207 F 
ENDBRANCH  22  24
ENDBRANCH  17  20
ENDBRANCH  13  16
ENDBRANCH   8   9
ENDBRANCH   5   8
ENDBRANCH   3   4
ENDBRANCH   2   3
ENDBRANCH   1   2
BRANCH   1  31
ATOM     31  C   UNL A   1      33.917  30.823  27.494  1.00  0.00     0.002 C 
BRANCH  31  32
ATOM     32  C   UNL A   1      32.796  31.815  27.840  1.00  0.00     0.021 C 
BRANCH  32  33
ATOM     33  C   UNL A   1      32.793  33.060  26.969  1.00  0.00     0.116 C 
BRANCH  33  34
ATOM     34  N   UNL A   1      32.536  34.280  27.738  1.00  0.00    -0.352 N 
ATOM     35  C   UNL A   1      33.114  34.691  28.928  1.00  0.00     0.251 C 
ATOM     36  H   UNL A   1      31.863  34.889  27.359  1.00  0.00     0.163 HD
ATOM     37  O   UNL A   1      32.572  35.521  29.635  1.00  0.00    -0.269 OA
BRANCH  35  38
ATOM     38  C   UNL A   1      34.412  34.104  29.308  1.00  0.00     0.039 A 
ATOM     39  C   UNL A   1      34.598  33.402  30.503  1.00  0.00     0.014 A 
ATOM     40  C   UNL A   1      35.456  34.255  28.403  1.00  0.00     0.014 A 
ATOM     41  C   UNL A   1      35.832  32.796  30.737  1.00  0.00     0.010 A 
ATOM     42  C   UNL A   1      36.576  33.487  28.532  1.00  0.00     0.010 A 
ATOM     43  C   UNL A   1      36.810  32.838  29.735  1.00  0.00    -0.014 A 
BRANCH  43  44
ATOM     44  C   UNL A   1      38.092  32.160  29.864  1.00  0.00     0.031 A 
ATOM     45  C   UNL A   1      38.097  30.757  29.376  1.00  0.00     0.074 A 
ATOM     46  C   UNL A   1      39.227  32.850  30.119  1.00  0.00     0.049 A 
ATOM     47  N   UNL A   1      38.208  29.675  30.072  1.00  0.00    -0.248 NA
ATOM     48  C   UNL A   1      37.777  30.516  27.957  1.00  0.00     0.031 C 
ATOM     49  C   UNL A   1      39.395  34.307  30.255  1.00  0.00     0.029 A 
ATOM     50  N   UNL A   1      40.509  32.409  30.163  1.00  0.00    -0.354 N 
ATOM     51  C   UNL A   1      38.223  28.630  29.151  1.00  0.00     0.074 A 
ATOM     52  C   UNL A   1      37.730  29.183  27.917  1.00  0.00     0.031 C 
ATOM     53  C   UNL A   1      40.698  34.632  30.102  1.00  0.00     0.029 A 
ATOM     54  C   UNL A   1      41.473  33.407  30.048  1.00  0.00     0.049 A 
ATOM     55  H   UNL A   1      40.739  31.457  30.267  1.00  0.00     0.167 HD
ATOM     56  C   UNL A   1      38.901  27.473  29.401  1.00  0.00     0.031 A 
ATOM     57  C   UNL A   1      42.809  33.234  29.884  1.00  0.00     0.031 A 
ATOM     58  C   UNL A   1      39.314  27.401  30.781  1.00  0.00     0.049 A 
ATOM     59  C   UNL A   1      43.112  31.844  30.307  1.00  0.00     0.074 A 
ATOM     60  C   UNL A   1      38.662  27.396  31.997  1.00  0.00     0.029 A 
ATOM     61  N   UNL A   1      40.621  27.743  31.048  1.00  0.00    -0.354 N 
ATOM     62  N   UNL A   1      42.954  31.419  31.531  1.00  0.00    -0.248 NA
ATOM     63  C   UNL A   1      43.115  30.810  29.284  1.00  0.00     0.031 C 
ATOM     64  C   UNL A   1      39.481  28.192  32.852  1.00  0.00     0.029 A 
ATOM     65  C   UNL A   1      40.625  28.566  32.142  1.00  0.00     0.049 A 
ATOM     66  H   UNL A   1      41.412  27.447  30.542  1.00  0.00     0.167 HD
ATOM     67  C   UNL A   1      42.410  30.148  31.400  1.00  0.00     0.074 A 
ATOM     68  C   UNL A   1      42.621  29.791  29.996  1.00  0.00     0.031 C 
ATOM     69  C   UNL A   1      41.588  29.627  32.360  1.00  0.00     0.031 A 
BRANCH  56  70
ATOM     70  C   UNL A   1      39.579  26.633  28.338  1.00  0.00    -0.014 A 
ATOM     71  C   UNL A   1      39.424  25.230  28.400  1.00  0.00     0.010 A 
ATOM     72  C   UNL A   1      40.578  27.122  27.474  1.00  0.00     0.010 A 
ATOM     73  C   UNL A   1      40.301  24.369  27.730  1.00  0.00     0.020 A 
ATOM     74  C   UNL A   1      41.430  26.272  26.765  1.00  0.00     0.020 A 
ATOM     75  C   UNL A   1      41.315  24.900  26.934  1.00  0.00     0.054 A 
BRANCH  75  76
ATOM     76  S   UNL A   1      42.527  23.785  26.189  1.00  0.00     0.124 S 
ATOM     77  O   UNL A   1      41.688  22.661  25.783  1.00  0.00    -0.237 OA
ATOM     78  O   UNL A   1      43.068  24.598  25.104  1.00  0.00    -0.237 OA
ATOM     79  O   UNL A   1      43.457  23.512  27.283  1.00  0.00    -0.744 OA
ENDBRANCH  75  76
ENDBRANCH  56  70
BRANCH  57  80
ATOM     80  C   UNL A   1      43.750  34.068  29.091  1.00  0.00    -0.014 A 
ATOM     81  C   UNL A   1      44.982  34.496  29.620  1.00  0.00     0.010 A 
ATOM     82  C   UNL A   1      43.550  34.220  27.703  1.00  0.00     0.010 A 
ATOM     83  C   UNL A   1      45.995  35.006  28.785  1.00  0.00     0.020 A 
ATOM     84  C   UNL A   1      44.552  34.730  26.865  1.00  0.00     0.020 A 
ATOM     85  C   UNL A   1      45.778  35.102  27.407  1.00  0.00     0.054 A 
BRANCH  85  86
ATOM     86  S   UNL A   1      47.141  35.599  26.308  1.00  0.00     0.124 S 
ATOM     87  O   UNL A   1      46.788  36.977  25.978  1.00  0.00    -0.237 OA
ATOM     88  O   UNL A   1      48.315  35.434  27.160  1.00  0.00    -0.237 OA
ATOM     89  O   UNL A   1      47.047  34.651  25.198  1.00  0.00    -0.744 OA
ENDBRANCH  85  86
ENDBRANCH  57  80
BRANCH  69  90
ATOM     90  C   UNL A   1      41.495  30.327  33.696  1.00  0.00    -0.014 A 
ATOM     91  C   UNL A   1      42.342  30.056  34.790  1.00  0.00     0.010 A 
ATOM     92  C   UNL A   1      40.645  31.444  33.768  1.00  0.00     0.010 A 
ATOM     93  C   UNL A   1      42.333  30.885  35.924  1.00  0.00     0.020 A 
ATOM     94  C   UNL A   1      40.643  32.281  34.885  1.00  0.00     0.020 A 
ATOM     95  C   UNL A   1      41.485  31.996  35.961  1.00  0.00     0.054 A 
BRANCH  95  96
ATOM     96  S   UNL A   1      41.527  33.115  37.391  1.00  0.00     0.124 S 
ATOM     97  O   UNL A   1      40.333  33.931  37.190  1.00  0.00    -0.237 OA
ATOM     98  O   UNL A   1      41.479  32.197  38.526  1.00  0.00    -0.237 OA
ATOM     99  O   UNL A   1      42.796  33.829  37.238  1.00  0.00    -0.744 OA
ENDBRANCH  95  96
ENDBRANCH  69  90
ENDBRANCH  43  44
ENDBRANCH  35  38
ENDBRANCH  33  34
ENDBRANCH  32  33
ENDBRANCH  31  32
ENDBRANCH   1  31
TORSDOF 20
ENDMDL
MODEL 3
REMARK VINA RESULT:     -11.3      2.474      3.540
REMARK SMILES Cc1nn(CC(=O)NCCCCCCNC(=O)c2ccc(-c3c4nc(c(-c5ccc(S(=O)(=O)[O-])cc5)c5ccc([nH]5)c(-c5ccc(S(=O)(=O)[O-])cc5)c5nc(c(-c6ccc(S(=O)(=O)[O-])cc6)c6ccc3[nH]6)C=C5)C=C4)cc2)c(C)c1NC(=O)C(=O)Nc1ccc(F)cc1
REMARK SMILES IDX 11 1 10 2 9 3 8 4 6 5 7 6 5 8 4 9 1 10 2 11 3 12 80 13 78 14
REMARK SMILES IDX 79 15 81 16 82 17 83 19 84 20 85 21 86 22 87 24 88 25 93 26
REMARK SMILES IDX 89 27 92 28 90 29 91 30 12 31 13 32 14 33 15 34 16 35 17 37
REMARK SMILES IDX 18 38 19 39 77 40 20 41 76 42 21 43 22 44 23 45 70 46 24 47
REMARK SMILES IDX 75 48 69 49 71 50 25 51 74 52 68 53 67 54 26 56 56 57 37 58
REMARK SMILES IDX 55 59 38 60 41 61 54 62 72 63 39 64 40 65 53 67 73 68 42 69
REMARK SMILES IDX 27 70 28 71 36 72 29 73 35 74 30 75 31 76 32 77 33 78 34 79
REMARK SMILES IDX 57 80 58 81 66 82 59 83 65 84 60 85 61 86 62 87 63 88 64 89
REMARK SMILES IDX 43 90 44 91 52 92 45 93 51 94 46 95 47 96 48 97 49 98 50 99
REMARK H PARENT 8 7 81 18 86 23 15 36 71 55 41 66
REMARK Flexibility Score: inf
ROOT
ATOM      1  C   UNL A   1      33.965  27.594  24.101  1.00  0.00     0.002 C 
ENDROOT
BRANCH   1   2
ATOM      2  C   UNL A   1      33.343  28.967  23.830  1.00  0.00     0.021 C 
BRANCH   2   3
ATOM      3  C   UNL A   1      32.194  28.927  22.830  1.00  0.00     0.116 C 
BRANCH   3   4
ATOM      4  N   UNL A   1      30.943  28.532  23.441  1.00  0.00    -0.354 N 
ATOM      5  C   UNL A   1      30.194  27.398  23.338  1.00  0.00     0.241 C 
ATOM      6  O   UNL A   1      29.154  27.385  24.012  1.00  0.00    -0.273 OA
ATOM      7  H   UNL A   1      30.560  29.209  24.044  1.00  0.00     0.163 HD
BRANCH   5   8
ATOM      8  C   UNL A   1      30.638  26.136  22.628  1.00  0.00     0.244 C 
BRANCH   8   9
ATOM      9  N   UNL A   1      31.251  25.106  23.449  1.00  0.00    -0.258 N 
ATOM     10  C   UNL A   1      31.253  23.475  26.582  1.00  0.00     0.071 C 
ATOM     11  C   UNL A   1      31.524  23.958  25.199  1.00  0.00     0.083 A 
ATOM     12  N   UNL A   1      30.715  24.864  24.650  1.00  0.00    -0.175 NA
ATOM     13  C   UNL A   1      32.584  23.576  24.315  1.00  0.00     0.086 A 
ATOM     14  C   UNL A   1      32.393  24.365  23.188  1.00  0.00     0.060 A 
ATOM     15  C   UNL A   1      33.076  24.474  21.868  1.00  0.00     0.069 C 
BRANCH  13  16
ATOM     16  N   UNL A   1      33.494  22.583  24.645  1.00  0.00    -0.315 N 
ATOM     17  C   UNL A   1      33.557  21.224  24.461  1.00  0.00     0.314 C 
ATOM     18  H   UNL A   1      34.279  22.935  25.124  1.00  0.00     0.170 HD
ATOM     19  O   UNL A   1      34.475  20.579  24.959  1.00  0.00    -0.263 OA
BRANCH  17  20
ATOM     20  C   UNL A   1      32.563  20.524  23.556  1.00  0.00     0.314 C 
ATOM     21  O   UNL A   1      32.270  21.026  22.473  1.00  0.00    -0.263 OA
ATOM     22  N   UNL A   1      31.945  19.345  23.953  1.00  0.00    -0.318 N 
ATOM     23  H   UNL A   1      30.962  19.320  24.007  1.00  0.00     0.170 HD
BRANCH  22  24
ATOM     24  C   UNL A   1      32.670  18.184  24.281  1.00  0.00     0.041 A 
ATOM     25  C   UNL A   1      33.451  17.640  23.250  1.00  0.00     0.029 A 
ATOM     26  C   UNL A   1      32.698  17.612  25.551  1.00  0.00     0.029 A 
ATOM     27  C   UNL A   1      34.342  16.607  23.518  1.00  0.00     0.041 A 
ATOM     28  C   UNL A   1      33.581  16.560  25.813  1.00  0.00     0.041 A 
ATOM     29  C   UNL A   1      34.411  16.084  24.802  1.00  0.00     0.123 A 
ATOM     30  F   UNL A   1      35.293  15.113  25.066  1.00  0.00    -0.207 F 
ENDBRANCH  22  24
ENDBRANCH  17  20
ENDBRANCH  13  16
ENDBRANCH   8   9
ENDBRANCH   5   8
ENDBRANCH   3   4
ENDBRANCH   2   3
ENDBRANCH   1   2
BRANCH   1  31
ATOM     31  C   UNL A   1      33.686  27.000  25.492  1.00  0.00     0.002 C 
BRANCH  31  32
ATOM     32  C   UNL A   1      32.871  27.871  26.462  1.00  0.00     0.021 C 
BRANCH  32  33
ATOM     33  C   UNL A   1      33.727  28.679  27.422  1.00  0.00     0.116 C 
BRANCH  33  34
ATOM     34  N   UNL A   1      33.474  30.118  27.320  1.00  0.00    -0.352 N 
ATOM     35  C   UNL A   1      34.256  31.169  27.773  1.00  0.00     0.251 C 
ATOM     36  H   UNL A   1      32.637  30.373  26.869  1.00  0.00     0.163 HD
ATOM     37  O   UNL A   1      33.778  32.276  27.947  1.00  0.00    -0.269 OA
BRANCH  35  38
ATOM     38  C   UNL A   1      35.685  30.913  28.024  1.00  0.00     0.039 A 
ATOM     39  C   UNL A   1      36.541  31.887  28.547  1.00  0.00     0.014 A 
ATOM     40  C   UNL A   1      36.151  29.634  27.744  1.00  0.00     0.014 A 
ATOM     41  C   UNL A   1      37.856  31.529  28.847  1.00  0.00     0.010 A 
ATOM     42  C   UNL A   1      37.359  29.233  28.235  1.00  0.00     0.010 A 
ATOM     43  C   UNL A   1      38.248  30.193  28.695  1.00  0.00    -0.014 A 
BRANCH  43  44
ATOM     44  C   UNL A   1      39.574  29.720  29.064  1.00  0.00     0.031 A 
ATOM     45  C   UNL A   1      39.793  29.584  30.528  1.00  0.00     0.074 A 
ATOM     46  C   UNL A   1      40.404  29.173  28.147  1.00  0.00     0.049 A 
ATOM     47  N   UNL A   1      40.563  30.292  31.284  1.00  0.00    -0.248 NA
ATOM     48  C   UNL A   1      38.928  28.651  31.273  1.00  0.00     0.031 C 
ATOM     49  C   UNL A   1      40.141  28.917  26.720  1.00  0.00     0.029 A 
ATOM     50  N   UNL A   1      41.614  28.586  28.324  1.00  0.00    -0.354 N 
ATOM     51  C   UNL A   1      40.468  29.732  32.556  1.00  0.00     0.074 A 
ATOM     52  C   UNL A   1      39.297  28.895  32.532  1.00  0.00     0.031 C 
ATOM     53  C   UNL A   1      41.028  28.015  26.248  1.00  0.00     0.029 A 
ATOM     54  C   UNL A   1      42.027  27.774  27.272  1.00  0.00     0.049 A 
ATOM     55  H   UNL A   1      42.156  28.723  29.135  1.00  0.00     0.167 HD
ATOM     56  C   UNL A   1      41.512  29.780  33.433  1.00  0.00     0.031 A 
ATOM     57  C   UNL A   1      43.096  26.937  27.259  1.00  0.00     0.031 A 
ATOM     58  C   UNL A   1      42.534  30.689  32.975  1.00  0.00     0.049 A 
ATOM     59  C   UNL A   1      43.991  27.376  28.359  1.00  0.00     0.074 A 
ATOM     60  C   UNL A   1      42.585  32.037  32.688  1.00  0.00     0.029 A 
ATOM     61  N   UNL A   1      43.621  30.122  32.347  1.00  0.00    -0.354 N 
ATOM     62  N   UNL A   1      44.584  28.539  28.377  1.00  0.00    -0.248 NA
ATOM     63  C   UNL A   1      43.834  26.737  29.656  1.00  0.00     0.031 C 
ATOM     64  C   UNL A   1      43.410  32.132  31.529  1.00  0.00     0.029 A 
ATOM     65  C   UNL A   1      43.885  30.855  31.221  1.00  0.00     0.049 A 
ATOM     66  H   UNL A   1      44.120  29.330  32.654  1.00  0.00     0.167 HD
ATOM     67  C   UNL A   1      44.483  28.970  29.693  1.00  0.00     0.074 A 
ATOM     68  C   UNL A   1      44.097  27.779  30.452  1.00  0.00     0.031 C 
ATOM     69  C   UNL A   1      44.438  30.302  30.001  1.00  0.00     0.031 A 
BRANCH  56  70
ATOM     70  C   UNL A   1      41.825  28.700  34.448  1.00  0.00    -0.014 A 
ATOM     71  C   UNL A   1      42.079  29.094  35.780  1.00  0.00     0.010 A 
ATOM     72  C   UNL A   1      42.163  27.376  34.103  1.00  0.00     0.010 A 
ATOM     73  C   UNL A   1      42.745  28.249  36.677  1.00  0.00     0.020 A 
ATOM     74  C   UNL A   1      42.787  26.510  35.004  1.00  0.00     0.020 A 
ATOM     75  C   UNL A   1      43.116  26.968  36.271  1.00  0.00     0.054 A 
BRANCH  75  76
ATOM     76  S   UNL A   1      44.100  25.939  37.386  1.00  0.00     0.124 S 
ATOM     77  O   UNL A   1      43.695  24.596  36.985  1.00  0.00    -0.237 OA
ATOM     78  O   UNL A   1      45.464  26.323  37.036  1.00  0.00    -0.237 OA
ATOM     79  O   UNL A   1      43.659  26.359  38.715  1.00  0.00    -0.744 OA
ENDBRANCH  75  76
ENDBRANCH  56  70
BRANCH  57  80
ATOM     80  C   UNL A   1      43.219  25.618  26.586  1.00  0.00    -0.014 A 
ATOM     81  C   UNL A   1      43.865  25.480  25.343  1.00  0.00     0.010 A 
ATOM     82  C   UNL A   1      42.931  24.437  27.304  1.00  0.00     0.010 A 
ATOM     83  C   UNL A   1      44.256  24.216  24.863  1.00  0.00     0.020 A 
ATOM     84  C   UNL A   1      43.313  23.175  26.830  1.00  0.00     0.020 A 
ATOM     85  C   UNL A   1      43.993  23.071  25.620  1.00  0.00     0.054 A 
BRANCH  85  86
ATOM     86  S   UNL A   1      44.646  21.459  25.083  1.00  0.00     0.124 S 
ATOM     87  O   UNL A   1      45.982  21.453  25.672  1.00  0.00    -0.237 OA
ATOM     88  O   UNL A   1      43.694  20.518  25.666  1.00  0.00    -0.237 OA
ATOM     89  O   UNL A   1      44.611  21.547  23.624  1.00  0.00    -0.744 OA
ENDBRANCH  85  86
ENDBRANCH  57  80
BRANCH  69  90
ATOM     90  C   UNL A   1      44.778  31.308  28.926  1.00  0.00    -0.014 A 
ATOM     91  C   UNL A   1      43.852  31.802  27.984  1.00  0.00     0.010 A 
ATOM     92  C   UNL A   1      46.039  31.924  29.010  1.00  0.00     0.010 A 
ATOM     93  C   UNL A   1      44.187  32.883  27.151  1.00  0.00     0.020 A 
ATOM     94  C   UNL A   1      46.371  33.008  28.197  1.00  0.00     0.020 A 
ATOM     95  C   UNL A   1      45.445  33.482  27.268  1.00  0.00     0.054 A 
BRANCH  95  96
ATOM     96  S   UNL A   1      45.852  34.930  26.249  1.00  0.00     0.124 S 
ATOM     97  O   UNL A   1      45.923  34.362  24.907  1.00  0.00    -0.237 OA
ATOM     98  O   UNL A   1      44.725  35.828  26.494  1.00  0.00    -0.237 OA
ATOM     99  O   UNL A   1      47.129  35.392  26.794  1.00  0.00    -0.744 OA
ENDBRANCH  95  96
ENDBRANCH  69  90
ENDBRANCH  43  44
ENDBRANCH  35  38
ENDBRANCH  33  34
ENDBRANCH  32  33
ENDBRANCH  31  32
ENDBRANCH   1  31
TORSDOF 20
ENDMDL
