MODEL 1
REMARK VINA RESULT:     -11.3      0.000      0.000
REMARK SMILES CO[C@@H]1C[C@H](C(=O)NCCCCCCNC(=O)c2ccc(-c3c4nc(c(-c5ccc(S(=O)(=O)[O-])cc5)c5ccc([nH]5)c(-c5ccc(S(=O)(=O)[O-])cc5)c5nc(c(-c6ccc(S(=O)(=O)[O-])cc6)c6ccc3[nH]6)C=C5)C=C4)cc2)N(C(=O)c2ccn(C)c(=O)c2)C1
REMARK SMILES IDX 12 1 11 2 10 3 9 4 8 5 6 6 7 7 5 9 3 10 4 11 89 12 78 13
REMARK SMILES IDX 2 14 1 15 79 16 80 17 81 18 82 19 88 20 83 21 86 22 84 23
REMARK SMILES IDX 87 24 85 25 13 26 14 27 15 28 16 29 17 31 18 32 19 33 77 34
REMARK SMILES IDX 20 35 76 36 21 37 22 38 23 39 70 40 24 41 75 42 69 43 71 44
REMARK SMILES IDX 25 45 74 46 68 47 67 48 26 50 56 51 37 52 55 53 38 54 41 55
REMARK SMILES IDX 54 56 72 57 39 58 40 59 53 61 73 62 42 63 27 64 28 65 36 66
REMARK SMILES IDX 29 67 35 68 30 69 31 70 32 71 33 72 34 73 57 74 58 75 66 76
REMARK SMILES IDX 59 77 65 78 60 79 61 80 62 81 63 82 64 83 43 84 44 85 52 86
REMARK SMILES IDX 45 87 51 88 46 89 47 90 48 91 49 92 50 93
REMARK H PARENT 8 8 15 30 71 49 41 60
REMARK Flexibility Score: inf
ROOT
ATOM      1  C   UNL A   1      40.410  22.277  27.519  1.00  0.00     0.002 C 
ENDROOT
BRANCH   1   2
ATOM      2  C   UNL A   1      39.735  21.574  26.333  1.00  0.00     0.002 C 
BRANCH   2   3
ATOM      3  C   UNL A   1      38.435  22.218  25.830  1.00  0.00     0.021 C 
BRANCH   3   4
ATOM      4  C   UNL A   1      37.543  21.288  24.995  1.00  0.00     0.116 C 
BRANCH   4   5
ATOM      5  N   UNL A   1      36.787  22.005  23.988  1.00  0.00    -0.354 N 
ATOM      6  C   UNL A   1      35.492  22.411  23.953  1.00  0.00     0.242 C 
ATOM      7  O   UNL A   1      35.187  23.169  23.022  1.00  0.00    -0.273 OA
ATOM      8  H   UNL A   1      37.305  22.238  23.184  1.00  0.00     0.163 HD
BRANCH   6   9
ATOM      9  C   UNL A   1      34.404  22.003  24.976  1.00  0.00     0.177 C 
ATOM     10  C   UNL A   1      32.776  23.443  26.138  1.00  0.00     0.139 C 
ATOM     11  C   UNL A   1      34.233  22.961  26.166  1.00  0.00     0.069 C 
ATOM     12  C   UNL A   1      32.052  22.430  25.258  1.00  0.00     0.152 C 
ATOM     13  N   UNL A   1      33.058  21.760  24.456  1.00  0.00    -0.324 N 
BRANCH  10  14
ATOM     14  O   UNL A   1      32.752  24.790  25.673  1.00  0.00    -0.380 OA
ATOM     15  C   UNL A   1      31.798  25.629  26.311  1.00  0.00     0.195 C 
ENDBRANCH  10  14
BRANCH  13  16
ATOM     16  C   UNL A   1      32.615  20.780  23.597  1.00  0.00     0.254 C 
ATOM     17  O   UNL A   1      32.098  21.054  22.512  1.00  0.00    -0.269 OA
BRANCH  16  18
ATOM     18  C   UNL A   1      32.688  19.346  23.992  1.00  0.00     0.046 A 
ATOM     19  C   UNL A   1      32.444  18.963  25.364  1.00  0.00     0.032 A 
ATOM     20  C   UNL A   1      33.255  18.480  23.140  1.00  0.00     0.085 A 
ATOM     21  C   UNL A   1      32.758  17.730  25.781  1.00  0.00     0.089 A 
ATOM     22  C   UNL A   1      33.552  17.091  23.574  1.00  0.00     0.251 A 
ATOM     23  N   UNL A   1      33.298  16.799  24.912  1.00  0.00    -0.319 N 
ATOM     24  O   UNL A   1      34.032  16.307  22.759  1.00  0.00    -0.269 OA
ATOM     25  C   UNL A   1      33.638  15.482  25.426  1.00  0.00     0.153 C 
ENDBRANCH  16  18
ENDBRANCH  13  16
ENDBRANCH   6   9
ENDBRANCH   4   5
ENDBRANCH   3   4
ENDBRANCH   2   3
ENDBRANCH   1   2
BRANCH   1  26
ATOM     26  C   UNL A   1      41.928  22.108  27.632  1.00  0.00     0.021 C 
BRANCH  26  27
ATOM     27  C   UNL A   1      42.752  23.381  27.441  1.00  0.00     0.116 C 
BRANCH  27  28
ATOM     28  N   UNL A   1      42.334  24.134  26.270  1.00  0.00    -0.352 N 
ATOM     29  C   UNL A   1      41.711  25.354  26.169  1.00  0.00     0.251 C 
ATOM     30  H   UNL A   1      42.529  23.700  25.410  1.00  0.00     0.163 HD
ATOM     31  O   UNL A   1      41.263  25.705  25.080  1.00  0.00    -0.269 OA
BRANCH  29  32
ATOM     32  C   UNL A   1      41.566  26.247  27.343  1.00  0.00     0.039 A 
ATOM     33  C   UNL A   1      40.524  26.005  28.246  1.00  0.00     0.014 A 
ATOM     34  C   UNL A   1      42.386  27.364  27.521  1.00  0.00     0.014 A 
ATOM     35  C   UNL A   1      40.326  26.858  29.337  1.00  0.00     0.010 A 
ATOM     36  C   UNL A   1      42.230  28.178  28.644  1.00  0.00     0.010 A 
ATOM     37  C   UNL A   1      41.186  27.946  29.553  1.00  0.00    -0.014 A 
BRANCH  37  38
ATOM     38  C   UNL A   1      40.976  28.879  30.693  1.00  0.00     0.031 A 
ATOM     39  C   UNL A   1      41.852  28.781  31.917  1.00  0.00     0.074 A 
ATOM     40  C   UNL A   1      39.978  29.783  30.652  1.00  0.00     0.049 A 
ATOM     41  N   UNL A   1      41.790  29.463  33.032  1.00  0.00    -0.248 NA
ATOM     42  C   UNL A   1      42.918  27.768  31.892  1.00  0.00     0.031 C 
ATOM     43  C   UNL A   1      39.041  29.963  29.541  1.00  0.00     0.029 A 
ATOM     44  N   UNL A   1      39.582  30.720  31.574  1.00  0.00    -0.354 N 
ATOM     45  C   UNL A   1      42.792  28.948  33.848  1.00  0.00     0.074 A 
ATOM     46  C   UNL A   1      43.415  27.866  33.117  1.00  0.00     0.031 C 
ATOM     47  C   UNL A   1      38.196  30.964  29.836  1.00  0.00     0.029 A 
ATOM     48  C   UNL A   1      38.507  31.475  31.169  1.00  0.00     0.049 A 
ATOM     49  H   UNL A   1      40.027  30.840  32.444  1.00  0.00     0.167 HD
ATOM     50  C   UNL A   1      43.174  29.347  35.086  1.00  0.00     0.031 A 
ATOM     51  C   UNL A   1      37.845  32.467  31.796  1.00  0.00     0.031 A 
ATOM     52  C   UNL A   1      42.571  30.438  35.804  1.00  0.00     0.049 A 
ATOM     53  C   UNL A   1      38.297  32.905  33.163  1.00  0.00     0.074 A 
ATOM     54  C   UNL A   1      42.917  30.949  37.043  1.00  0.00     0.029 A 
ATOM     55  N   UNL A   1      41.502  31.192  35.345  1.00  0.00    -0.354 N 
ATOM     56  N   UNL A   1      39.274  32.432  33.898  1.00  0.00    -0.248 NA
ATOM     57  C   UNL A   1      37.566  34.022  33.777  1.00  0.00     0.031 C 
ATOM     58  C   UNL A   1      42.034  31.991  37.349  1.00  0.00     0.029 A 
ATOM     59  C   UNL A   1      41.170  32.158  36.279  1.00  0.00     0.049 A 
ATOM     60  H   UNL A   1      41.046  31.060  34.482  1.00  0.00     0.167 HD
ATOM     61  C   UNL A   1      39.297  33.217  35.047  1.00  0.00     0.074 A 
ATOM     62  C   UNL A   1      38.241  34.198  34.905  1.00  0.00     0.031 C 
ATOM     63  C   UNL A   1      40.121  33.133  36.120  1.00  0.00     0.031 A 
BRANCH  50  64
ATOM     64  C   UNL A   1      44.300  28.593  35.741  1.00  0.00    -0.014 A 
ATOM     65  C   UNL A   1      44.062  27.398  36.446  1.00  0.00     0.010 A 
ATOM     66  C   UNL A   1      45.620  29.068  35.632  1.00  0.00     0.010 A 
ATOM     67  C   UNL A   1      45.112  26.720  37.069  1.00  0.00     0.020 A 
ATOM     68  C   UNL A   1      46.678  28.378  36.230  1.00  0.00     0.020 A 
ATOM     69  C   UNL A   1      46.414  27.219  36.963  1.00  0.00     0.054 A 
BRANCH  69  70
ATOM     70  S   UNL A   1      47.762  26.317  37.775  1.00  0.00     0.124 S 
ATOM     71  O   UNL A   1      48.024  27.157  38.942  1.00  0.00    -0.237 OA
ATOM     72  O   UNL A   1      47.155  25.019  38.060  1.00  0.00    -0.237 OA
ATOM     73  O   UNL A   1      48.821  26.298  36.771  1.00  0.00    -0.744 OA
ENDBRANCH  69  70
ENDBRANCH  50  64
BRANCH  51  74
ATOM     74  C   UNL A   1      36.699  33.137  31.123  1.00  0.00    -0.014 A 
ATOM     75  C   UNL A   1      35.414  33.090  31.691  1.00  0.00     0.010 A 
ATOM     76  C   UNL A   1      36.890  33.835  29.916  1.00  0.00     0.010 A 
ATOM     77  C   UNL A   1      34.336  33.713  31.056  1.00  0.00     0.020 A 
ATOM     78  C   UNL A   1      35.819  34.480  29.292  1.00  0.00     0.020 A 
ATOM     79  C   UNL A   1      34.546  34.406  29.860  1.00  0.00     0.054 A 
BRANCH  79  80
ATOM     80  S   UNL A   1      33.143  35.253  29.080  1.00  0.00     0.124 S 
ATOM     81  O   UNL A   1      32.692  34.260  28.110  1.00  0.00    -0.237 OA
ATOM     82  O   UNL A   1      32.247  35.487  30.210  1.00  0.00    -0.237 OA
ATOM     83  O   UNL A   1      33.745  36.457  28.513  1.00  0.00    -0.744 OA
ENDBRANCH  79  80
ENDBRANCH  51  74
BRANCH  63  84
ATOM     84  C   UNL A   1      39.947  34.159  37.208  1.00  0.00    -0.014 A 
ATOM     85  C   UNL A   1      40.609  35.397  37.158  1.00  0.00     0.010 A 
ATOM     86  C   UNL A   1      39.062  33.895  38.271  1.00  0.00     0.010 A 
ATOM     87  C   UNL A   1      40.417  36.341  38.170  1.00  0.00     0.020 A 
ATOM     88  C   UNL A   1      38.849  34.847  39.271  1.00  0.00     0.020 A 
ATOM     89  C   UNL A   1      39.539  36.059  39.222  1.00  0.00     0.054 A 
BRANCH  89  90
ATOM     90  S   UNL A   1      39.274  37.315  40.504  1.00  0.00     0.124 S 
ATOM     91  O   UNL A   1      40.587  37.949  40.583  1.00  0.00    -0.237 OA
ATOM     92  O   UNL A   1      38.211  38.138  39.933  1.00  0.00    -0.237 OA
ATOM     93  O   UNL A   1      38.886  36.535  41.677  1.00  0.00    -0.744 OA
ENDBRANCH  89  90
ENDBRANCH  63  84
ENDBRANCH  37  38
ENDBRANCH  29  32
ENDBRANCH  27  28
ENDBRANCH  26  27
ENDBRANCH   1  26
TORSDOF 19
ENDMDL
MODEL 2
REMARK VINA RESULT:     -11.3      1.503      3.218
REMARK SMILES CO[C@@H]1C[C@H](C(=O)NCCCCCCNC(=O)c2ccc(-c3c4nc(c(-c5ccc(S(=O)(=O)[O-])cc5)c5ccc([nH]5)c(-c5ccc(S(=O)(=O)[O-])cc5)c5nc(c(-c6ccc(S(=O)(=O)[O-])cc6)c6ccc3[nH]6)C=C5)C=C4)cc2)N(C(=O)c2ccn(C)c(=O)c2)C1
REMARK SMILES IDX 12 1 11 2 10 3 9 4 8 5 6 6 7 7 5 9 3 10 4 11 89 12 78 13
REMARK SMILES IDX 2 14 1 15 79 16 80 17 81 18 82 19 88 20 83 21 86 22 84 23
REMARK SMILES IDX 87 24 85 25 13 26 14 27 15 28 16 29 17 31 18 32 19 33 77 34
REMARK SMILES IDX 20 35 76 36 21 37 22 38 23 39 70 40 24 41 75 42 69 43 71 44
REMARK SMILES IDX 25 45 74 46 68 47 67 48 26 50 56 51 37 52 55 53 38 54 41 55
REMARK SMILES IDX 54 56 72 57 39 58 40 59 53 61 73 62 42 63 27 64 28 65 36 66
REMARK SMILES IDX 29 67 35 68 30 69 31 70 32 71 33 72 34 73 57 74 58 75 66 76
REMARK SMILES IDX 59 77 65 78 60 79 61 80 62 81 63 82 64 83 43 84 44 85 52 86
REMARK SMILES IDX 45 87 51 88 46 89 47 90 48 91 49 92 50 93
REMARK H PARENT 8 8 15 30 71 49 41 60
REMARK Flexibility Score: inf
ROOT
ATOM      1  C   UNL A   1      40.592  22.002  27.644  1.00  0.00     0.002 C 
ENDROOT
BRANCH   1   2
ATOM      2  C   UNL A   1      39.617  22.010  26.457  1.00  0.00     0.002 C 
BRANCH   2   3
ATOM      3  C   UNL A   1      38.817  23.305  26.263  1.00  0.00     0.021 C 
BRANCH   3   4
ATOM      4  C   UNL A   1      37.467  23.122  25.554  1.00  0.00     0.116 C 
BRANCH   4   5
ATOM      5  N   UNL A   1      36.425  22.674  26.456  1.00  0.00    -0.354 N 
ATOM      6  C   UNL A   1      35.328  21.902  26.253  1.00  0.00     0.242 C 
ATOM      7  O   UNL A   1      34.721  21.542  27.271  1.00  0.00    -0.273 OA
ATOM      8  H   UNL A   1      36.533  22.986  27.384  1.00  0.00     0.163 HD
BRANCH   6   9
ATOM      9  C   UNL A   1      34.802  21.452  24.867  1.00  0.00     0.177 C 
ATOM     10  C   UNL A   1      32.547  20.657  24.268  1.00  0.00     0.139 C 
ATOM     11  C   UNL A   1      33.883  20.220  24.885  1.00  0.00     0.069 C 
ATOM     12  C   UNL A   1      32.875  21.938  23.510  1.00  0.00     0.152 C 
ATOM     13  N   UNL A   1      34.114  22.457  24.057  1.00  0.00    -0.324 N 
BRANCH  10  14
ATOM     14  O   UNL A   1      31.586  20.788  25.312  1.00  0.00    -0.380 OA
ATOM     15  C   UNL A   1      31.233  22.126  25.639  1.00  0.00     0.195 C 
ENDBRANCH  10  14
BRANCH  13  16
ATOM     16  C   UNL A   1      34.605  23.613  23.492  1.00  0.00     0.254 C 
ATOM     17  O   UNL A   1      35.522  23.593  22.667  1.00  0.00    -0.269 OA
BRANCH  16  18
ATOM     18  C   UNL A   1      34.080  24.939  23.919  1.00  0.00     0.046 A 
ATOM     19  C   UNL A   1      33.837  25.201  25.319  1.00  0.00     0.032 A 
ATOM     20  C   UNL A   1      33.575  25.754  22.982  1.00  0.00     0.085 A 
ATOM     21  C   UNL A   1      33.131  26.278  25.686  1.00  0.00     0.089 A 
ATOM     22  C   UNL A   1      32.841  26.984  23.377  1.00  0.00     0.251 A 
ATOM     23  N   UNL A   1      32.640  27.164  24.743  1.00  0.00    -0.319 N 
ATOM     24  O   UNL A   1      32.428  27.734  22.497  1.00  0.00    -0.269 OA
ATOM     25  C   UNL A   1      31.862  28.305  25.200  1.00  0.00     0.153 C 
ENDBRANCH  16  18
ENDBRANCH  13  16
ENDBRANCH   6   9
ENDBRANCH   4   5
ENDBRANCH   3   4
ENDBRANCH   2   3
ENDBRANCH   1   2
BRANCH   1  26
ATOM     26  C   UNL A   1      42.059  21.710  27.313  1.00  0.00     0.021 C 
BRANCH  26  27
ATOM     27  C   UNL A   1      42.992  22.920  27.323  1.00  0.00     0.116 C 
BRANCH  27  28
ATOM     28  N   UNL A   1      42.828  23.749  26.141  1.00  0.00    -0.352 N 
ATOM     29  C   UNL A   1      42.363  25.034  26.009  1.00  0.00     0.251 C 
ATOM     30  H   UNL A   1      43.094  23.320  25.296  1.00  0.00     0.163 HD
ATOM     31  O   UNL A   1      42.114  25.466  24.886  1.00  0.00    -0.269 OA
BRANCH  29  32
ATOM     32  C   UNL A   1      42.152  25.904  27.191  1.00  0.00     0.039 A 
ATOM     33  C   UNL A   1      41.046  25.663  28.013  1.00  0.00     0.014 A 
ATOM     34  C   UNL A   1      42.978  27.001  27.450  1.00  0.00     0.014 A 
ATOM     35  C   UNL A   1      40.789  26.496  29.108  1.00  0.00     0.010 A 
ATOM     36  C   UNL A   1      42.758  27.793  28.579  1.00  0.00     0.010 A 
ATOM     37  C   UNL A   1      41.650  27.561  29.408  1.00  0.00    -0.014 A 
BRANCH  37  38
ATOM     38  C   UNL A   1      41.378  28.473  30.552  1.00  0.00     0.031 A 
ATOM     39  C   UNL A   1      42.214  28.381  31.803  1.00  0.00     0.074 A 
ATOM     40  C   UNL A   1      40.359  29.352  30.488  1.00  0.00     0.049 A 
ATOM     41  N   UNL A   1      42.098  29.045  32.925  1.00  0.00    -0.248 NA
ATOM     42  C   UNL A   1      43.307  27.395  31.802  1.00  0.00     0.031 C 
ATOM     43  C   UNL A   1      39.455  29.523  29.349  1.00  0.00     0.029 A 
ATOM     44  N   UNL A   1      39.908  30.266  31.409  1.00  0.00    -0.354 N 
ATOM     45  C   UNL A   1      43.084  28.544  33.768  1.00  0.00     0.074 A 
ATOM     46  C   UNL A   1      43.759  27.489  33.045  1.00  0.00     0.031 C 
ATOM     47  C   UNL A   1      38.575  30.499  29.628  1.00  0.00     0.029 A 
ATOM     48  C   UNL A   1      38.828  31.000  30.977  1.00  0.00     0.049 A 
ATOM     49  H   UNL A   1      40.320  30.385  32.295  1.00  0.00     0.167 HD
ATOM     50  C   UNL A   1      43.413  28.936  35.023  1.00  0.00     0.031 A 
ATOM     51  C   UNL A   1      38.120  31.965  31.594  1.00  0.00     0.031 A 
ATOM     52  C   UNL A   1      42.759  30.002  35.734  1.00  0.00     0.049 A 
ATOM     53  C   UNL A   1      38.514  32.396  32.982  1.00  0.00     0.074 A 
ATOM     54  C   UNL A   1      43.050  30.504  36.990  1.00  0.00     0.029 A 
ATOM     55  N   UNL A   1      41.687  30.735  35.249  1.00  0.00    -0.354 N 
ATOM     56  N   UNL A   1      39.478  31.938  33.743  1.00  0.00    -0.248 NA
ATOM     57  C   UNL A   1      37.734  33.485  33.584  1.00  0.00     0.031 C 
ATOM     58  C   UNL A   1      42.131  31.519  37.280  1.00  0.00     0.029 A 
ATOM     59  C   UNL A   1      41.299  31.679  36.183  1.00  0.00     0.049 A 
ATOM     60  H   UNL A   1      41.264  30.603  34.369  1.00  0.00     0.167 HD
ATOM     61  C   UNL A   1      39.442  32.707  34.902  1.00  0.00     0.074 A 
ATOM     62  C   UNL A   1      38.366  33.663  34.737  1.00  0.00     0.031 C 
ATOM     63  C   UNL A   1      40.231  32.629  36.002  1.00  0.00     0.031 A 
BRANCH  50  64
ATOM     64  C   UNL A   1      44.536  28.202  35.706  1.00  0.00    -0.014 A 
ATOM     65  C   UNL A   1      44.288  27.053  36.480  1.00  0.00     0.010 A 
ATOM     66  C   UNL A   1      45.862  28.649  35.555  1.00  0.00     0.010 A 
ATOM     67  C   UNL A   1      45.335  26.394  37.128  1.00  0.00     0.020 A 
ATOM     68  C   UNL A   1      46.916  27.976  36.179  1.00  0.00     0.020 A 
ATOM     69  C   UNL A   1      46.644  26.865  36.979  1.00  0.00     0.054 A 
BRANCH  69  70
ATOM     70  S   UNL A   1      47.987  25.988  37.824  1.00  0.00     0.124 S 
ATOM     71  O   UNL A   1      47.250  25.106  38.726  1.00  0.00    -0.237 OA
ATOM     72  O   UNL A   1      48.680  25.323  36.724  1.00  0.00    -0.237 OA
ATOM     73  O   UNL A   1      48.742  27.055  38.476  1.00  0.00    -0.744 OA
ENDBRANCH  69  70
ENDBRANCH  50  64
BRANCH  51  74
ATOM     74  C   UNL A   1      36.981  32.615  30.891  1.00  0.00    -0.014 A 
ATOM     75  C   UNL A   1      37.203  33.706  30.033  1.00  0.00     0.010 A 
ATOM     76  C   UNL A   1      35.669  32.138  31.067  1.00  0.00     0.010 A 
ATOM     77  C   UNL A   1      36.132  34.321  29.377  1.00  0.00     0.020 A 
ATOM     78  C   UNL A   1      34.599  32.734  30.393  1.00  0.00     0.020 A 
ATOM     79  C   UNL A   1      34.837  33.829  29.561  1.00  0.00     0.054 A 
BRANCH  79  80
ATOM     80  S   UNL A   1      33.468  34.608  28.659  1.00  0.00     0.124 S 
ATOM     81  O   UNL A   1      34.149  35.681  27.942  1.00  0.00    -0.237 OA
ATOM     82  O   UNL A   1      32.968  33.512  27.833  1.00  0.00    -0.237 OA
ATOM     83  O   UNL A   1      32.563  35.039  29.721  1.00  0.00    -0.744 OA
ENDBRANCH  79  80
ENDBRANCH  51  74
BRANCH  63  84
ATOM     84  C   UNL A   1      39.994  33.635  37.096  1.00  0.00    -0.014 A 
ATOM     85  C   UNL A   1      40.606  34.899  37.072  1.00  0.00     0.010 A 
ATOM     86  C   UNL A   1      39.100  33.325  38.138  1.00  0.00     0.010 A 
ATOM     87  C   UNL A   1      40.356  35.824  38.089  1.00  0.00     0.020 A 
ATOM     88  C   UNL A   1      38.828  34.256  39.143  1.00  0.00     0.020 A 
ATOM     89  C   UNL A   1      39.470  35.495  39.120  1.00  0.00     0.054 A 
BRANCH  89  90
ATOM     90  S   UNL A   1      39.129  36.725  40.409  1.00  0.00     0.124 S 
ATOM     91  O   UNL A   1      38.568  37.829  39.635  1.00  0.00    -0.237 OA
ATOM     92  O   UNL A   1      38.187  36.026  41.280  1.00  0.00    -0.237 OA
ATOM     93  O   UNL A   1      40.441  36.981  40.999  1.00  0.00    -0.744 OA
ENDBRANCH  89  90
ENDBRANCH  63  84
ENDBRANCH  37  38
ENDBRANCH  29  32
ENDBRANCH  27  28
ENDBRANCH  26  27
ENDBRANCH   1  26
TORSDOF 19
ENDMDL
MODEL 3
REMARK VINA RESULT:     -10.8      2.636      4.608
REMARK SMILES CO[C@@H]1C[C@H](C(=O)NCCCCCCNC(=O)c2ccc(-c3c4nc(c(-c5ccc(S(=O)(=O)[O-])cc5)c5ccc([nH]5)c(-c5ccc(S(=O)(=O)[O-])cc5)c5nc(c(-c6ccc(S(=O)(=O)[O-])cc6)c6ccc3[nH]6)C=C5)C=C4)cc2)N(C(=O)c2ccn(C)c(=O)c2)C1
REMARK SMILES IDX 12 1 11 2 10 3 9 4 8 5 6 6 7 7 5 9 3 10 4 11 89 12 78 13
REMARK SMILES IDX 2 14 1 15 79 16 80 17 81 18 82 19 88 20 83 21 86 22 84 23
REMARK SMILES IDX 87 24 85 25 13 26 14 27 15 28 16 29 17 31 18 32 19 33 77 34
REMARK SMILES IDX 20 35 76 36 21 37 22 38 23 39 70 40 24 41 75 42 69 43 71 44
REMARK SMILES IDX 25 45 74 46 68 47 67 48 26 50 56 51 37 52 55 53 38 54 41 55
REMARK SMILES IDX 54 56 72 57 39 58 40 59 53 61 73 62 42 63 27 64 28 65 36 66
REMARK SMILES IDX 29 67 35 68 30 69 31 70 32 71 33 72 34 73 57 74 58 75 66 76
REMARK SMILES IDX 59 77 65 78 60 79 61 80 62 81 63 82 64 83 43 84 44 85 52 86
REMARK SMILES IDX 45 87 51 88 46 89 47 90 48 91 49 92 50 93
REMARK H PARENT 8 8 15 30 71 49 41 60
REMARK Flexibility Score: inf
ROOT
ATOM      1  C   UNL A   1      37.277  23.311  25.734  1.00  0.00     0.002 C 
ENDROOT
BRANCH   1   2
ATOM      2  C   UNL A   1      35.754  23.504  25.739  1.00  0.00     0.002 C 
BRANCH   2   3
ATOM      3  C   UNL A   1      35.198  24.431  24.649  1.00  0.00     0.021 C 
BRANCH   3   4
ATOM      4  C   UNL A   1      34.207  25.489  25.155  1.00  0.00     0.116 C 
BRANCH   4   5
ATOM      5  N   UNL A   1      33.236  24.939  26.080  1.00  0.00    -0.354 N 
ATOM      6  C   UNL A   1      32.057  25.427  26.543  1.00  0.00     0.242 C 
ATOM      7  O   UNL A   1      31.359  24.635  27.191  1.00  0.00    -0.273 OA
ATOM      8  H   UNL A   1      33.474  24.053  26.436  1.00  0.00     0.163 HD
BRANCH   6   9
ATOM      9  C   UNL A   1      31.542  26.871  26.318  1.00  0.00     0.177 C 
ATOM     10  C   UNL A   1      32.828  28.972  26.306  1.00  0.00     0.139 C 
ATOM     11  C   UNL A   1      32.169  27.938  27.229  1.00  0.00     0.069 C 
ATOM     12  C   UNL A   1      32.184  28.738  24.944  1.00  0.00     0.152 C 
ATOM     13  N   UNL A   1      31.622  27.402  24.958  1.00  0.00    -0.324 N 
BRANCH  10  14
ATOM     14  O   UNL A   1      34.241  28.792  26.358  1.00  0.00    -0.380 OA
ATOM     15  C   UNL A   1      34.840  29.092  27.612  1.00  0.00     0.195 C 
ENDBRANCH  10  14
BRANCH  13  16
ATOM     16  C   UNL A   1      30.967  26.993  23.818  1.00  0.00     0.254 C 
ATOM     17  O   UNL A   1      31.148  25.875  23.332  1.00  0.00    -0.269 OA
BRANCH  16  18
ATOM     18  C   UNL A   1      30.061  27.929  23.096  1.00  0.00     0.046 A 
ATOM     19  C   UNL A   1      30.617  28.973  22.266  1.00  0.00     0.032 A 
ATOM     20  C   UNL A   1      28.769  27.966  23.453  1.00  0.00     0.085 A 
ATOM     21  C   UNL A   1      29.834  29.967  21.827  1.00  0.00     0.089 A 
ATOM     22  C   UNL A   1      27.878  29.029  22.924  1.00  0.00     0.251 A 
ATOM     23  N   UNL A   1      28.486  30.005  22.138  1.00  0.00    -0.319 N 
ATOM     24  O   UNL A   1      26.690  29.013  23.234  1.00  0.00    -0.269 OA
ATOM     25  C   UNL A   1      27.691  31.120  21.651  1.00  0.00     0.153 C 
ENDBRANCH  16  18
ENDBRANCH  13  16
ENDBRANCH   6   9
ENDBRANCH   4   5
ENDBRANCH   3   4
ENDBRANCH   2   3
ENDBRANCH   1   2
BRANCH   1  26
ATOM     26  C   UNL A   1      38.061  24.089  26.796  1.00  0.00     0.021 C 
BRANCH  26  27
ATOM     27  C   UNL A   1      39.475  23.581  27.078  1.00  0.00     0.116 C 
BRANCH  27  28
ATOM     28  N   UNL A   1      40.456  24.160  26.175  1.00  0.00    -0.352 N 
ATOM     29  C   UNL A   1      41.001  25.420  26.138  1.00  0.00     0.251 C 
ATOM     30  H   UNL A   1      40.784  23.550  25.476  1.00  0.00     0.163 HD
ATOM     31  O   UNL A   1      41.661  25.756  25.157  1.00  0.00    -0.269 OA
BRANCH  29  32
ATOM     32  C   UNL A   1      40.806  26.379  27.252  1.00  0.00     0.039 A 
ATOM     33  C   UNL A   1      41.605  27.526  27.298  1.00  0.00     0.014 A 
ATOM     34  C   UNL A   1      39.909  26.121  28.292  1.00  0.00     0.014 A 
ATOM     35  C   UNL A   1      41.483  28.427  28.362  1.00  0.00     0.010 A 
ATOM     36  C   UNL A   1      39.741  27.051  29.319  1.00  0.00     0.010 A 
ATOM     37  C   UNL A   1      40.540  28.203  29.376  1.00  0.00    -0.014 A 
BRANCH  37  38
ATOM     38  C   UNL A   1      40.413  29.136  30.529  1.00  0.00     0.031 A 
ATOM     39  C   UNL A   1      41.314  28.979  31.728  1.00  0.00     0.074 A 
ATOM     40  C   UNL A   1      39.466  30.094  30.522  1.00  0.00     0.049 A 
ATOM     41  N   UNL A   1      41.321  29.652  32.850  1.00  0.00    -0.248 NA
ATOM     42  C   UNL A   1      42.322  27.908  31.667  1.00  0.00     0.031 C 
ATOM     43  C   UNL A   1      38.511  30.335  29.439  1.00  0.00     0.029 A 
ATOM     44  N   UNL A   1      39.148  31.043  31.462  1.00  0.00    -0.354 N 
ATOM     45  C   UNL A   1      42.313  29.075  33.634  1.00  0.00     0.074 A 
ATOM     46  C   UNL A   1      42.856  27.967  32.878  1.00  0.00     0.031 C 
ATOM     47  C   UNL A   1      37.731  31.379  29.765  1.00  0.00     0.029 A 
ATOM     48  C   UNL A   1      38.106  31.860  31.092  1.00  0.00     0.049 A 
ATOM     49  H   UNL A   1      39.622  31.130  32.321  1.00  0.00     0.167 HD
ATOM     50  C   UNL A   1      42.750  29.441  34.864  1.00  0.00     0.031 A 
ATOM     51  C   UNL A   1      37.517  32.881  31.745  1.00  0.00     0.031 A 
ATOM     52  C   UNL A   1      42.228  30.558  35.607  1.00  0.00     0.049 A 
ATOM     53  C   UNL A   1      38.028  33.281  33.103  1.00  0.00     0.074 A 
ATOM     54  C   UNL A   1      42.635  31.037  36.840  1.00  0.00     0.029 A 
ATOM     55  N   UNL A   1      41.191  31.373  35.183  1.00  0.00    -0.354 N 
ATOM     56  N   UNL A   1      38.998  32.748  33.807  1.00  0.00    -0.248 NA
ATOM     57  C   UNL A   1      37.377  34.431  33.745  1.00  0.00     0.031 C 
ATOM     58  C   UNL A   1      41.820  32.123  37.178  1.00  0.00     0.029 A 
ATOM     59  C   UNL A   1      40.938  32.348  36.133  1.00  0.00     0.049 A 
ATOM     60  H   UNL A   1      40.706  31.275  34.332  1.00  0.00     0.167 HD
ATOM     61  C   UNL A   1      39.094  33.520  34.961  1.00  0.00     0.074 A 
ATOM     62  C   UNL A   1      38.091  34.559  34.855  1.00  0.00     0.031 C 
ATOM     63  C   UNL A   1      39.941  33.380  36.011  1.00  0.00     0.031 A 
BRANCH  50  64
ATOM     64  C   UNL A   1      43.850  28.620  35.483  1.00  0.00    -0.014 A 
ATOM     65  C   UNL A   1      43.558  27.510  36.297  1.00  0.00     0.010 A 
ATOM     66  C   UNL A   1      45.195  28.943  35.228  1.00  0.00     0.010 A 
ATOM     67  C   UNL A   1      44.587  26.770  36.884  1.00  0.00     0.020 A 
ATOM     68  C   UNL A   1      46.229  28.188  35.790  1.00  0.00     0.020 A 
ATOM     69  C   UNL A   1      45.917  27.119  36.632  1.00  0.00     0.054 A 
BRANCH  69  70
ATOM     70  S   UNL A   1      47.236  26.139  37.400  1.00  0.00     0.124 S 
ATOM     71  O   UNL A   1      47.307  26.726  38.736  1.00  0.00    -0.237 OA
ATOM     72  O   UNL A   1      46.704  24.780  37.340  1.00  0.00    -0.237 OA
ATOM     73  O   UNL A   1      48.395  26.388  36.548  1.00  0.00    -0.744 OA
ENDBRANCH  69  70
ENDBRANCH  50  64
BRANCH  51  74
ATOM     74  C   UNL A   1      36.392  33.619  31.109  1.00  0.00    -0.014 A 
ATOM     75  C   UNL A   1      35.242  33.941  31.850  1.00  0.00     0.010 A 
ATOM     76  C   UNL A   1      36.471  34.016  29.761  1.00  0.00     0.010 A 
ATOM     77  C   UNL A   1      34.182  34.628  31.251  1.00  0.00     0.020 A 
ATOM     78  C   UNL A   1      35.425  34.725  29.166  1.00  0.00     0.020 A 
ATOM     79  C   UNL A   1      34.281  35.018  29.912  1.00  0.00     0.054 A 
BRANCH  79  80
ATOM     80  S   UNL A   1      32.917  35.956  29.169  1.00  0.00     0.124 S 
ATOM     81  O   UNL A   1      32.396  35.008  28.189  1.00  0.00    -0.237 OA
ATOM     82  O   UNL A   1      32.053  36.220  30.317  1.00  0.00    -0.237 OA
ATOM     83  O   UNL A   1      33.578  37.134  28.613  1.00  0.00    -0.744 OA
ENDBRANCH  79  80
ENDBRANCH  51  74
BRANCH  63  84
ATOM     84  C   UNL A   1      39.853  34.404  37.110  1.00  0.00    -0.014 A 
ATOM     85  C   UNL A   1      40.568  35.612  37.044  1.00  0.00     0.010 A 
ATOM     86  C   UNL A   1      38.997  34.172  38.203  1.00  0.00     0.010 A 
ATOM     87  C   UNL A   1      40.456  36.555  38.069  1.00  0.00     0.020 A 
ATOM     88  C   UNL A   1      38.864  35.124  39.217  1.00  0.00     0.020 A 
ATOM     89  C   UNL A   1      39.606  36.305  39.150  1.00  0.00     0.054 A 
BRANCH  89  90
ATOM     90  S   UNL A   1      39.445  37.561  40.449  1.00  0.00     0.124 S 
ATOM     91  O   UNL A   1      40.707  38.285  40.329  1.00  0.00    -0.237 OA
ATOM     92  O   UNL A   1      38.254  38.300  40.036  1.00  0.00    -0.237 OA
ATOM     93  O   UNL A   1      39.290  36.776  41.672  1.00  0.00    -0.744 OA
ENDBRANCH  89  90
ENDBRANCH  63  84
ENDBRANCH  37  38
ENDBRANCH  29  32
ENDBRANCH  27  28
ENDBRANCH  26  27
ENDBRANCH   1  26
TORSDOF 19
ENDMDL
