MODEL 1
REMARK VINA RESULT:     -10.3      0.000      0.000
REMARK SMILES COC[C@H]1CC[N@@H+]([C@H]2CCC[C@]([NH2+]C(C)C)(C(=O)NCCCCCCNC(=O)c3ccc(-c4c5nc(c(-c6ccc(S(=O)(=O)[O-])cc6)c6ccc([nH]6)c(-c6ccc(S(=O)(=O)[O-])cc6)c6nc(c(-c7ccc(S(=O)(=O)[O-])cc7)c7ccc4[nH]7)C=C6)C=C5)cc3)C2)C1
REMARK SMILES IDX 22 1 21 2 20 3 19 4 17 5 18 6 12 8 8 9 9 10 89 11 10 12
REMARK SMILES IDX 11 13 7 14 4 15 5 16 90 17 6 18 3 20 2 21 1 22 13 23 14 26
REMARK SMILES IDX 15 27 16 28 23 29 24 30 25 31 26 32 27 33 28 35 29 36 30 37
REMARK SMILES IDX 88 38 31 39 87 40 32 41 33 42 34 43 81 44 35 45 86 46 80 47
REMARK SMILES IDX 82 48 36 49 85 50 79 51 78 52 37 54 67 55 48 56 66 57 49 58
REMARK SMILES IDX 52 59 65 60 83 61 50 62 51 63 64 65 84 66 53 67 38 68 39 69
REMARK SMILES IDX 47 70 40 71 46 72 41 73 42 74 43 75 44 76 45 77 68 78 69 79
REMARK SMILES IDX 77 80 70 81 76 82 71 83 72 84 73 85 74 86 75 87 54 88 55 89
REMARK SMILES IDX 63 90 56 91 62 92 57 93 58 94 59 95 60 96 61 97
REMARK H PARENT 19 7 7 19 13 24 13 25 26 34 82 53 52 64
REMARK Flexibility Score: inf
ROOT
ATOM      1  C   UNL A   1      34.546  29.018  26.636  1.00  0.00     0.002 C 
ENDROOT
BRANCH   1   2
ATOM      2  C   UNL A   1      33.225  28.264  26.828  1.00  0.00     0.021 C 
BRANCH   2   3
ATOM      3  C   UNL A   1      33.187  26.852  26.245  1.00  0.00     0.116 C 
BRANCH   3   4
ATOM      4  N   UNL A   1      31.922  26.205  26.509  1.00  0.00    -0.351 N 
ATOM      5  C   UNL A   1      31.470  24.943  26.304  1.00  0.00     0.281 C 
ATOM      6  O   UNL A   1      30.244  24.842  26.418  1.00  0.00    -0.268 OA
ATOM      7  H   UNL A   1      31.254  26.800  26.918  1.00  0.00     0.163 HD
BRANCH   5   8
ATOM      8  C   UNL A   1      32.418  23.763  25.868  1.00  0.00     0.181 C 
ATOM      9  C   UNL A   1      32.852  21.176  26.148  1.00  0.00     0.190 C 
ATOM     10  C   UNL A   1      33.787  21.441  27.326  1.00  0.00     0.065 C 
ATOM     11  C   UNL A   1      31.830  22.346  26.095  1.00  0.00     0.144 C 
ATOM     12  C   UNL A   1      34.513  22.773  27.268  1.00  0.00     0.013 C 
ATOM     13  C   UNL A   1      33.736  23.975  26.703  1.00  0.00     0.079 C 
BRANCH   9  14
ATOM     14  N   UNL A   1      33.438  20.765  24.846  1.00  0.00    -0.332 N 
ATOM     15  C   UNL A   1      33.937  18.497  24.048  1.00  0.00     0.076 C 
ATOM     16  C   UNL A   1      32.462  18.820  23.853  1.00  0.00     0.073 C 
ATOM     17  C   UNL A   1      34.471  19.720  24.788  1.00  0.00     0.268 C 
ATOM     18  C   UNL A   1      32.424  20.341  23.864  1.00  0.00     0.263 C 
ATOM     19  H   UNL A   1      33.902  21.650  24.639  1.00  0.00     0.348 HD
BRANCH  15  20
ATOM     20  C   UNL A   1      34.202  17.194  24.810  1.00  0.00     0.169 C 
BRANCH  20  21
ATOM     21  O   UNL A   1      33.587  16.058  24.199  1.00  0.00    -0.384 OA
ATOM     22  C   UNL A   1      32.893  15.221  25.108  1.00  0.00     0.194 C 
ENDBRANCH  20  21
ENDBRANCH  15  20
ENDBRANCH   9  14
BRANCH   8  23
ATOM     23  N   UNL A   1      32.774  23.856  24.412  1.00  0.00    -0.331 N 
ATOM     24  H   UNL A   1      32.920  22.899  24.090  1.00  0.00     0.347 HD
ATOM     25  H   UNL A   1      33.566  24.498  24.424  1.00  0.00     0.347 HD
BRANCH  23  26
ATOM     26  C   UNL A   1      31.871  24.488  23.434  1.00  0.00     0.176 C 
ATOM     27  C   UNL A   1      32.654  24.548  22.113  1.00  0.00     0.075 C 
ATOM     28  C   UNL A   1      30.554  23.752  23.185  1.00  0.00     0.075 C 
ENDBRANCH  23  26
ENDBRANCH   8  23
ENDBRANCH   5   8
ENDBRANCH   3   4
ENDBRANCH   2   3
ENDBRANCH   1   2
BRANCH   1  29
ATOM     29  C   UNL A   1      34.833  30.122  27.657  1.00  0.00     0.002 C 
BRANCH  29  30
ATOM     30  C   UNL A   1      34.359  31.520  27.262  1.00  0.00     0.021 C 
BRANCH  30  31
ATOM     31  C   UNL A   1      32.941  31.864  27.695  1.00  0.00     0.116 C 
BRANCH  31  32
ATOM     32  N   UNL A   1      32.748  33.292  27.863  1.00  0.00    -0.352 N 
ATOM     33  C   UNL A   1      33.415  34.167  28.680  1.00  0.00     0.251 C 
ATOM     34  H   UNL A   1      32.036  33.691  27.312  1.00  0.00     0.163 HD
ATOM     35  O   UNL A   1      32.990  35.315  28.817  1.00  0.00    -0.269 OA
BRANCH  33  36
ATOM     36  C   UNL A   1      34.623  33.730  29.410  1.00  0.00     0.039 A 
ATOM     37  C   UNL A   1      34.472  32.858  30.489  1.00  0.00     0.014 A 
ATOM     38  C   UNL A   1      35.897  34.185  29.050  1.00  0.00     0.014 A 
ATOM     39  C   UNL A   1      35.598  32.414  31.181  1.00  0.00     0.010 A 
ATOM     40  C   UNL A   1      37.025  33.676  29.688  1.00  0.00     0.010 A 
ATOM     41  C   UNL A   1      36.887  32.799  30.772  1.00  0.00    -0.014 A 
BRANCH  41  42
ATOM     42  C   UNL A   1      38.084  32.277  31.479  1.00  0.00     0.031 A 
ATOM     43  C   UNL A   1      38.495  32.838  32.812  1.00  0.00     0.074 A 
ATOM     44  C   UNL A   1      38.809  31.295  30.907  1.00  0.00     0.049 A 
ATOM     45  N   UNL A   1      39.450  32.438  33.612  1.00  0.00    -0.248 NA
ATOM     46  C   UNL A   1      37.754  34.012  33.302  1.00  0.00     0.031 C 
ATOM     47  C   UNL A   1      38.543  30.707  29.592  1.00  0.00     0.029 A 
ATOM     48  N   UNL A   1      39.901  30.605  31.366  1.00  0.00    -0.354 N 
ATOM     49  C   UNL A   1      39.430  33.313  34.694  1.00  0.00     0.074 A 
ATOM     50  C   UNL A   1      38.410  34.300  34.416  1.00  0.00     0.031 C 
ATOM     51  C   UNL A   1      39.408  29.703  29.378  1.00  0.00     0.029 A 
ATOM     52  C   UNL A   1      40.308  29.599  30.522  1.00  0.00     0.049 A 
ATOM     53  H   UNL A   1      40.350  30.809  32.217  1.00  0.00     0.167 HD
ATOM     54  C   UNL A   1      40.177  33.286  35.824  1.00  0.00     0.031 A 
ATOM     55  C   UNL A   1      41.281  28.679  30.662  1.00  0.00     0.031 A 
ATOM     56  C   UNL A   1      41.197  32.305  36.090  1.00  0.00     0.049 A 
ATOM     57  C   UNL A   1      42.094  28.660  31.925  1.00  0.00     0.074 A 
ATOM     58  C   UNL A   1      41.972  32.154  37.226  1.00  0.00     0.029 A 
ATOM     59  N   UNL A   1      41.591  31.313  35.204  1.00  0.00    -0.354 N 
ATOM     60  N   UNL A   1      42.006  29.444  32.974  1.00  0.00    -0.248 NA
ATOM     61  C   UNL A   1      43.124  27.618  32.032  1.00  0.00     0.031 C 
ATOM     62  C   UNL A   1      42.875  31.107  37.003  1.00  0.00     0.029 A 
ATOM     63  C   UNL A   1      42.616  30.563  35.754  1.00  0.00     0.049 A 
ATOM     64  H   UNL A   1      41.198  31.164  34.312  1.00  0.00     0.167 HD
ATOM     65  C   UNL A   1      42.949  28.970  33.879  1.00  0.00     0.074 A 
ATOM     66  C   UNL A   1      43.585  27.826  33.258  1.00  0.00     0.031 C 
ATOM     67  C   UNL A   1      43.253  29.436  35.118  1.00  0.00     0.031 A 
BRANCH  54  68
ATOM     68  C   UNL A   1      39.927  34.371  36.842  1.00  0.00    -0.014 A 
ATOM     69  C   UNL A   1      40.629  35.591  36.798  1.00  0.00     0.010 A 
ATOM     70  C   UNL A   1      38.977  34.169  37.860  1.00  0.00     0.010 A 
ATOM     71  C   UNL A   1      40.435  36.557  37.789  1.00  0.00     0.020 A 
ATOM     72  C   UNL A   1      38.756  35.147  38.834  1.00  0.00     0.020 A 
ATOM     73  C   UNL A   1      39.506  36.324  38.807  1.00  0.00     0.054 A 
BRANCH  73  74
ATOM     74  S   UNL A   1      39.289  37.583  40.094  1.00  0.00     0.124 S 
ATOM     75  O   UNL A   1      38.983  36.766  41.266  1.00  0.00    -0.237 OA
ATOM     76  O   UNL A   1      40.590  38.249  40.116  1.00  0.00    -0.237 OA
ATOM     77  O   UNL A   1      38.183  38.400  39.599  1.00  0.00    -0.744 OA
ENDBRANCH  73  74
ENDBRANCH  54  68
BRANCH  55  78
ATOM     78  C   UNL A   1      41.487  27.662  29.595  1.00  0.00    -0.014 A 
ATOM     79  C   UNL A   1      42.672  27.658  28.837  1.00  0.00     0.010 A 
ATOM     80  C   UNL A   1      40.527  26.659  29.369  1.00  0.00     0.010 A 
ATOM     81  C   UNL A   1      42.892  26.671  27.872  1.00  0.00     0.020 A 
ATOM     82  C   UNL A   1      40.755  25.656  28.424  1.00  0.00     0.020 A 
ATOM     83  C   UNL A   1      41.935  25.671  27.678  1.00  0.00     0.054 A 
BRANCH  83  84
ATOM     84  S   UNL A   1      42.281  24.352  26.480  1.00  0.00     0.124 S 
ATOM     85  O   UNL A   1      42.418  25.101  25.235  1.00  0.00    -0.237 OA
ATOM     86  O   UNL A   1      43.510  23.765  27.006  1.00  0.00    -0.237 OA
ATOM     87  O   UNL A   1      41.102  23.494  26.568  1.00  0.00    -0.744 OA
ENDBRANCH  83  84
ENDBRANCH  55  78
BRANCH  67  88
ATOM     88  C   UNL A   1      44.303  28.686  35.895  1.00  0.00    -0.014 A 
ATOM     89  C   UNL A   1      45.671  28.980  35.755  1.00  0.00     0.010 A 
ATOM     90  C   UNL A   1      43.907  27.684  36.801  1.00  0.00     0.010 A 
ATOM     91  C   UNL A   1      46.627  28.252  36.471  1.00  0.00     0.020 A 
ATOM     92  C   UNL A   1      44.856  26.977  37.541  1.00  0.00     0.020 A 
ATOM     93  C   UNL A   1      46.212  27.252  37.357  1.00  0.00     0.054 A 
BRANCH  93  94
ATOM     94  S   UNL A   1      47.470  26.332  38.285  1.00  0.00     0.124 S 
ATOM     95  O   UNL A   1      47.585  27.124  39.506  1.00  0.00    -0.237 OA
ATOM     96  O   UNL A   1      46.854  25.017  38.444  1.00  0.00    -0.237 OA
ATOM     97  O   UNL A   1      48.639  26.364  37.409  1.00  0.00    -0.744 OA
ENDBRANCH  93  94
ENDBRANCH  67  88
ENDBRANCH  41  42
ENDBRANCH  33  36
ENDBRANCH  31  32
ENDBRANCH  30  31
ENDBRANCH  29  30
ENDBRANCH   1  29
TORSDOF 21
ENDMDL
MODEL 2
REMARK VINA RESULT:      -9.9      1.210      8.087
REMARK SMILES COC[C@H]1CC[N@@H+]([C@H]2CCC[C@]([NH2+]C(C)C)(C(=O)NCCCCCCNC(=O)c3ccc(-c4c5nc(c(-c6ccc(S(=O)(=O)[O-])cc6)c6ccc([nH]6)c(-c6ccc(S(=O)(=O)[O-])cc6)c6nc(c(-c7ccc(S(=O)(=O)[O-])cc7)c7ccc4[nH]7)C=C6)C=C5)cc3)C2)C1
REMARK SMILES IDX 22 1 21 2 20 3 19 4 17 5 18 6 12 8 8 9 9 10 89 11 10 12
REMARK SMILES IDX 11 13 7 14 4 15 5 16 90 17 6 18 3 20 2 21 1 22 13 23 14 26
REMARK SMILES IDX 15 27 16 28 23 29 24 30 25 31 26 32 27 33 28 35 29 36 30 37
REMARK SMILES IDX 88 38 31 39 87 40 32 41 33 42 34 43 81 44 35 45 86 46 80 47
REMARK SMILES IDX 82 48 36 49 85 50 79 51 78 52 37 54 67 55 48 56 66 57 49 58
REMARK SMILES IDX 52 59 65 60 83 61 50 62 51 63 64 65 84 66 53 67 38 68 39 69
REMARK SMILES IDX 47 70 40 71 46 72 41 73 42 74 43 75 44 76 45 77 68 78 69 79
REMARK SMILES IDX 77 80 70 81 76 82 71 83 72 84 73 85 74 86 75 87 54 88 55 89
REMARK SMILES IDX 63 90 56 91 62 92 57 93 58 94 59 95 60 96 61 97
REMARK H PARENT 19 7 7 19 13 24 13 25 26 34 82 53 52 64
REMARK Flexibility Score: inf
ROOT
ATOM      1  C   UNL A   1      34.065  28.901  25.766  1.00  0.00     0.002 C 
ENDROOT
BRANCH   1   2
ATOM      2  C   UNL A   1      32.826  27.997  25.783  1.00  0.00     0.021 C 
BRANCH   2   3
ATOM      3  C   UNL A   1      33.035  26.610  26.389  1.00  0.00     0.116 C 
BRANCH   3   4
ATOM      4  N   UNL A   1      31.778  25.930  26.596  1.00  0.00    -0.351 N 
ATOM      5  C   UNL A   1      31.351  24.673  26.315  1.00  0.00     0.281 C 
ATOM      6  O   UNL A   1      30.125  24.545  26.402  1.00  0.00    -0.268 OA
ATOM      7  H   UNL A   1      31.092  26.490  27.025  1.00  0.00     0.163 HD
BRANCH   5   8
ATOM      8  C   UNL A   1      32.327  23.534  25.832  1.00  0.00     0.181 C 
ATOM      9  C   UNL A   1      32.955  20.994  26.169  1.00  0.00     0.190 C 
ATOM     10  C   UNL A   1      33.982  21.370  27.235  1.00  0.00     0.065 C 
ATOM     11  C   UNL A   1      31.858  22.096  26.173  1.00  0.00     0.144 C 
ATOM     12  C   UNL A   1      34.610  22.740  27.051  1.00  0.00     0.013 C 
ATOM     13  C   UNL A   1      33.704  23.864  26.520  1.00  0.00     0.079 C 
BRANCH   9  14
ATOM     14  N   UNL A   1      33.435  20.561  24.832  1.00  0.00    -0.332 N 
ATOM     15  C   UNL A   1      33.881  18.280  24.039  1.00  0.00     0.076 C 
ATOM     16  C   UNL A   1      32.394  18.592  23.959  1.00  0.00     0.073 C 
ATOM     17  C   UNL A   1      34.466  19.519  24.709  1.00  0.00     0.268 C 
ATOM     18  C   UNL A   1      32.347  20.113  23.943  1.00  0.00     0.263 C 
ATOM     19  H   UNL A   1      33.875  21.444  24.570  1.00  0.00     0.348 HD
BRANCH  15  20
ATOM     20  C   UNL A   1      34.216  16.993  24.802  1.00  0.00     0.169 C 
BRANCH  20  21
ATOM     21  O   UNL A   1      33.147  16.550  25.640  1.00  0.00    -0.384 OA
ATOM     22  C   UNL A   1      32.768  15.201  25.426  1.00  0.00     0.194 C 
ENDBRANCH  20  21
ENDBRANCH  15  20
ENDBRANCH   9  14
BRANCH   8  23
ATOM     23  N   UNL A   1      32.531  23.582  24.345  1.00  0.00    -0.331 N 
ATOM     24  H   UNL A   1      31.732  24.086  23.962  1.00  0.00     0.347 HD
ATOM     25  H   UNL A   1      32.650  22.596  24.111  1.00  0.00     0.347 HD
BRANCH  23  26
ATOM     26  C   UNL A   1      33.731  24.194  23.748  1.00  0.00     0.176 C 
ATOM     27  C   UNL A   1      34.330  23.129  22.817  1.00  0.00     0.075 C 
ATOM     28  C   UNL A   1      33.484  25.465  22.935  1.00  0.00     0.075 C 
ENDBRANCH  23  26
ENDBRANCH   8  23
ENDBRANCH   5   8
ENDBRANCH   3   4
ENDBRANCH   2   3
ENDBRANCH   1   2
BRANCH   1  29
ATOM     29  C   UNL A   1      34.438  29.539  27.107  1.00  0.00     0.002 C 
BRANCH  29  30
ATOM     30  C   UNL A   1      34.335  31.062  27.159  1.00  0.00     0.021 C 
BRANCH  30  31
ATOM     31  C   UNL A   1      33.101  31.600  27.871  1.00  0.00     0.116 C 
BRANCH  31  32
ATOM     32  N   UNL A   1      33.009  33.046  27.797  1.00  0.00    -0.352 N 
ATOM     33  C   UNL A   1      33.739  33.995  28.461  1.00  0.00     0.251 C 
ATOM     34  H   UNL A   1      32.324  33.395  27.182  1.00  0.00     0.163 HD
ATOM     35  O   UNL A   1      33.396  35.177  28.403  1.00  0.00    -0.269 OA
BRANCH  33  36
ATOM     36  C   UNL A   1      34.917  33.603  29.263  1.00  0.00     0.039 A 
ATOM     37  C   UNL A   1      34.735  32.722  30.329  1.00  0.00     0.014 A 
ATOM     38  C   UNL A   1      36.192  34.109  28.981  1.00  0.00     0.014 A 
ATOM     39  C   UNL A   1      35.834  32.320  31.088  1.00  0.00     0.010 A 
ATOM     40  C   UNL A   1      37.298  33.642  29.685  1.00  0.00     0.010 A 
ATOM     41  C   UNL A   1      37.129  32.756  30.757  1.00  0.00    -0.014 A 
BRANCH  41  42
ATOM     42  C   UNL A   1      38.301  32.279  31.535  1.00  0.00     0.031 A 
ATOM     43  C   UNL A   1      39.277  31.305  30.935  1.00  0.00     0.074 A 
ATOM     44  C   UNL A   1      38.479  32.724  32.795  1.00  0.00     0.049 A 
ATOM     45  N   UNL A   1      40.403  30.858  31.431  1.00  0.00    -0.248 NA
ATOM     46  C   UNL A   1      38.936  30.740  29.619  1.00  0.00     0.031 C 
ATOM     47  C   UNL A   1      37.573  33.627  33.507  1.00  0.00     0.029 A 
ATOM     48  N   UNL A   1      39.492  32.494  33.690  1.00  0.00    -0.354 N 
ATOM     49  C   UNL A   1      40.900  29.959  30.494  1.00  0.00     0.074 A 
ATOM     50  C   UNL A   1      39.923  29.877  29.431  1.00  0.00     0.031 C 
ATOM     51  C   UNL A   1      38.101  33.926  34.703  1.00  0.00     0.029 A 
ATOM     52  C   UNL A   1      39.364  33.209  34.858  1.00  0.00     0.049 A 
ATOM     53  H   UNL A   1      40.239  31.877  33.515  1.00  0.00     0.167 HD
ATOM     54  C   UNL A   1      42.072  29.278  30.506  1.00  0.00     0.031 A 
ATOM     55  C   UNL A   1      40.180  33.299  35.924  1.00  0.00     0.031 A 
ATOM     56  C   UNL A   1      43.037  29.359  31.572  1.00  0.00     0.049 A 
ATOM     57  C   UNL A   1      41.479  32.544  35.916  1.00  0.00     0.074 A 
ATOM     58  C   UNL A   1      44.279  28.756  31.658  1.00  0.00     0.029 A 
ATOM     59  N   UNL A   1      42.863  30.080  32.745  1.00  0.00    -0.354 N 
ATOM     60  N   UNL A   1      41.973  31.761  34.984  1.00  0.00    -0.248 NA
ATOM     61  C   UNL A   1      42.342  32.700  37.095  1.00  0.00     0.031 C 
ATOM     62  C   UNL A   1      44.831  29.066  32.907  1.00  0.00     0.029 A 
ATOM     63  C   UNL A   1      43.961  29.917  33.571  1.00  0.00     0.049 A 
ATOM     64  H   UNL A   1      42.073  30.630  32.957  1.00  0.00     0.167 HD
ATOM     65  C   UNL A   1      43.217  31.356  35.452  1.00  0.00     0.074 A 
ATOM     66  C   UNL A   1      43.404  31.990  36.742  1.00  0.00     0.031 C 
ATOM     67  C   UNL A   1      44.127  30.540  34.861  1.00  0.00     0.031 A 
BRANCH  54  68
ATOM     68  C   UNL A   1      42.355  28.370  29.336  1.00  0.00    -0.014 A 
ATOM     69  C   UNL A   1      43.080  28.823  28.216  1.00  0.00     0.010 A 
ATOM     70  C   UNL A   1      41.889  27.042  29.353  1.00  0.00     0.010 A 
ATOM     71  C   UNL A   1      43.272  27.990  27.111  1.00  0.00     0.020 A 
ATOM     72  C   UNL A   1      42.110  26.195  28.263  1.00  0.00     0.020 A 
ATOM     73  C   UNL A   1      42.777  26.683  27.137  1.00  0.00     0.054 A 
BRANCH  73  74
ATOM     74  S   UNL A   1      43.021  25.629  25.682  1.00  0.00     0.124 S 
ATOM     75  O   UNL A   1      43.063  24.297  26.280  1.00  0.00    -0.237 OA
ATOM     76  O   UNL A   1      41.838  25.916  24.875  1.00  0.00    -0.237 OA
ATOM     77  O   UNL A   1      44.285  26.099  25.120  1.00  0.00    -0.744 OA
ENDBRANCH  73  74
ENDBRANCH  54  68
BRANCH  55  78
ATOM     78  C   UNL A   1      39.814  34.193  37.056  1.00  0.00    -0.014 A 
ATOM     79  C   UNL A   1      39.119  33.683  38.167  1.00  0.00     0.010 A 
ATOM     80  C   UNL A   1      40.206  35.544  37.054  1.00  0.00     0.010 A 
ATOM     81  C   UNL A   1      38.821  34.507  39.255  1.00  0.00     0.020 A 
ATOM     82  C   UNL A   1      39.933  36.364  38.152  1.00  0.00     0.020 A 
ATOM     83  C   UNL A   1      39.238  35.841  39.245  1.00  0.00     0.054 A 
BRANCH  83  84
ATOM     84  S   UNL A   1      38.914  36.869  40.705  1.00  0.00     0.124 S 
ATOM     85  O   UNL A   1      38.323  38.063  40.111  1.00  0.00    -0.237 OA
ATOM     86  O   UNL A   1      38.006  36.031  41.483  1.00  0.00    -0.237 OA
ATOM     87  O   UNL A   1      40.239  37.052  41.294  1.00  0.00    -0.744 OA
ENDBRANCH  83  84
ENDBRANCH  55  78
BRANCH  67  88
ATOM     88  C   UNL A   1      45.423  30.311  35.595  1.00  0.00    -0.014 A 
ATOM     89  C   UNL A   1      46.530  31.159  35.412  1.00  0.00     0.010 A 
ATOM     90  C   UNL A   1      45.524  29.241  36.502  1.00  0.00     0.010 A 
ATOM     91  C   UNL A   1      47.729  30.911  36.087  1.00  0.00     0.020 A 
ATOM     92  C   UNL A   1      46.709  29.008  37.202  1.00  0.00     0.020 A 
ATOM     93  C   UNL A   1      47.812  29.833  36.975  1.00  0.00     0.054 A 
BRANCH  93  94
ATOM     94  S   UNL A   1      49.373  29.540  37.850  1.00  0.00     0.124 S 
ATOM     95  O   UNL A   1      50.228  29.030  36.783  1.00  0.00    -0.237 OA
ATOM     96  O   UNL A   1      49.716  30.870  38.349  1.00  0.00    -0.237 OA
ATOM     97  O   UNL A   1      49.015  28.568  38.881  1.00  0.00    -0.744 OA
ENDBRANCH  93  94
ENDBRANCH  67  88
ENDBRANCH  41  42
ENDBRANCH  33  36
ENDBRANCH  31  32
ENDBRANCH  30  31
ENDBRANCH  29  30
ENDBRANCH   1  29
TORSDOF 21
ENDMDL
MODEL 3
REMARK VINA RESULT:      -9.4      6.414     11.095
REMARK SMILES COC[C@H]1CC[N@@H+]([C@H]2CCC[C@]([NH2+]C(C)C)(C(=O)NCCCCCCNC(=O)c3ccc(-c4c5nc(c(-c6ccc(S(=O)(=O)[O-])cc6)c6ccc([nH]6)c(-c6ccc(S(=O)(=O)[O-])cc6)c6nc(c(-c7ccc(S(=O)(=O)[O-])cc7)c7ccc4[nH]7)C=C6)C=C5)cc3)C2)C1
REMARK SMILES IDX 22 1 21 2 20 3 19 4 17 5 18 6 12 8 8 9 9 10 89 11 10 12
REMARK SMILES IDX 11 13 7 14 4 15 5 16 90 17 6 18 3 20 2 21 1 22 13 23 14 26
REMARK SMILES IDX 15 27 16 28 23 29 24 30 25 31 26 32 27 33 28 35 29 36 30 37
REMARK SMILES IDX 88 38 31 39 87 40 32 41 33 42 34 43 81 44 35 45 86 46 80 47
REMARK SMILES IDX 82 48 36 49 85 50 79 51 78 52 37 54 67 55 48 56 66 57 49 58
REMARK SMILES IDX 52 59 65 60 83 61 50 62 51 63 64 65 84 66 53 67 38 68 39 69
REMARK SMILES IDX 47 70 40 71 46 72 41 73 42 74 43 75 44 76 45 77 68 78 69 79
REMARK SMILES IDX 77 80 70 81 76 82 71 83 72 84 73 85 74 86 75 87 54 88 55 89
REMARK SMILES IDX 63 90 56 91 62 92 57 93 58 94 59 95 60 96 61 97
REMARK H PARENT 19 7 7 19 13 24 13 25 26 34 82 53 52 64
REMARK Flexibility Score: inf
ROOT
ATOM      1  C   UNL A   1      40.613  35.270  35.980  1.00  0.00     0.002 C 
ENDROOT
BRANCH   1   2
ATOM      2  C   UNL A   1      39.745  35.012  34.743  1.00  0.00     0.021 C 
BRANCH   2   3
ATOM      3  C   UNL A   1      38.370  34.407  35.023  1.00  0.00     0.116 C 
BRANCH   3   4
ATOM      4  N   UNL A   1      38.450  32.976  35.208  1.00  0.00    -0.351 N 
ATOM      5  C   UNL A   1      37.833  31.931  34.602  1.00  0.00     0.281 C 
ATOM      6  O   UNL A   1      37.965  30.867  35.216  1.00  0.00    -0.268 OA
ATOM      7  H   UNL A   1      39.077  32.705  35.916  1.00  0.00     0.163 HD
BRANCH   5   8
ATOM      8  C   UNL A   1      36.960  32.099  33.301  1.00  0.00     0.181 C 
ATOM      9  C   UNL A   1      36.749  33.453  31.048  1.00  0.00     0.190 C 
ATOM     10  C   UNL A   1      35.862  34.490  31.731  1.00  0.00     0.065 C 
ATOM     11  C   UNL A   1      37.671  32.839  32.139  1.00  0.00     0.144 C 
ATOM     12  C   UNL A   1      35.030  33.949  32.880  1.00  0.00     0.013 C 
ATOM     13  C   UNL A   1      35.677  32.878  33.775  1.00  0.00     0.079 C 
BRANCH   9  14
ATOM     14  N   UNL A   1      36.129  32.488  30.104  1.00  0.00    -0.332 N 
ATOM     15  C   UNL A   1      34.418  32.914  28.395  1.00  0.00     0.076 C 
ATOM     16  C   UNL A   1      35.797  33.301  27.879  1.00  0.00     0.073 C 
ATOM     17  C   UNL A   1      34.682  32.521  29.845  1.00  0.00     0.268 C 
ATOM     18  C   UNL A   1      36.746  32.509  28.765  1.00  0.00     0.263 C 
ATOM     19  H   UNL A   1      36.311  31.648  30.654  1.00  0.00     0.348 HD
BRANCH  15  20
ATOM     20  C   UNL A   1      33.365  34.022  28.274  1.00  0.00     0.169 C 
BRANCH  20  21
ATOM     21  O   UNL A   1      33.803  35.267  28.820  1.00  0.00    -0.384 OA
ATOM     22  C   UNL A   1      32.933  35.804  29.802  1.00  0.00     0.194 C 
ENDBRANCH  20  21
ENDBRANCH  15  20
ENDBRANCH   9  14
BRANCH   8  23
ATOM     23  N   UNL A   1      36.519  30.768  32.763  1.00  0.00    -0.331 N 
ATOM     24  H   UNL A   1      35.692  30.948  32.194  1.00  0.00     0.347 HD
ATOM     25  H   UNL A   1      36.422  30.212  33.612  1.00  0.00     0.347 HD
BRANCH  23  26
ATOM     26  C   UNL A   1      37.413  29.932  31.941  1.00  0.00     0.176 C 
ATOM     27  C   UNL A   1      37.793  28.730  32.819  1.00  0.00     0.075 C 
ATOM     28  C   UNL A   1      36.807  29.409  30.638  1.00  0.00     0.075 C 
ENDBRANCH  23  26
ENDBRANCH   8  23
ENDBRANCH   5   8
ENDBRANCH   3   4
ENDBRANCH   2   3
ENDBRANCH   1   2
BRANCH   1  29
ATOM     29  C   UNL A   1      39.958  36.098  37.089  1.00  0.00     0.002 C 
BRANCH  29  30
ATOM     30  C   UNL A   1      40.037  35.495  38.490  1.00  0.00     0.021 C 
BRANCH  30  31
ATOM     31  C   UNL A   1      41.448  35.242  39.003  1.00  0.00     0.116 C 
BRANCH  31  32
ATOM     32  N   UNL A   1      41.511  34.104  39.901  1.00  0.00    -0.352 N 
ATOM     33  C   UNL A   1      41.702  32.779  39.609  1.00  0.00     0.251 C 
ATOM     34  H   UNL A   1      41.401  34.312  40.857  1.00  0.00     0.163 HD
ATOM     35  O   UNL A   1      41.547  31.934  40.491  1.00  0.00    -0.269 OA
BRANCH  33  36
ATOM     36  C   UNL A   1      42.067  32.363  38.239  1.00  0.00     0.039 A 
ATOM     37  C   UNL A   1      43.410  32.414  37.862  1.00  0.00     0.014 A 
ATOM     38  C   UNL A   1      41.097  31.940  37.323  1.00  0.00     0.014 A 
ATOM     39  C   UNL A   1      43.783  32.006  36.582  1.00  0.00     0.010 A 
ATOM     40  C   UNL A   1      41.482  31.455  36.075  1.00  0.00     0.010 A 
ATOM     41  C   UNL A   1      42.827  31.500  35.685  1.00  0.00    -0.014 A 
BRANCH  41  42
ATOM     42  C   UNL A   1      43.240  31.015  34.344  1.00  0.00     0.031 A 
ATOM     43  C   UNL A   1      43.276  31.949  33.165  1.00  0.00     0.074 A 
ATOM     44  C   UNL A   1      43.578  29.719  34.189  1.00  0.00     0.049 A 
ATOM     45  N   UNL A   1      43.703  31.722  31.949  1.00  0.00    -0.248 NA
ATOM     46  C   UNL A   1      42.744  33.306  33.371  1.00  0.00     0.031 C 
ATOM     47  C   UNL A   1      43.532  28.703  35.243  1.00  0.00     0.029 A 
ATOM     48  N   UNL A   1      44.047  29.041  33.093  1.00  0.00    -0.354 N 
ATOM     49  C   UNL A   1      43.485  32.901  31.244  1.00  0.00     0.074 A 
ATOM     50  C   UNL A   1      42.832  33.817  32.153  1.00  0.00     0.031 C 
ATOM     51  C   UNL A   1      44.015  27.548  34.760  1.00  0.00     0.029 A 
ATOM     52  C   UNL A   1      44.372  27.731  33.357  1.00  0.00     0.049 A 
ATOM     53  H   UNL A   1      44.143  29.452  32.204  1.00  0.00     0.167 HD
ATOM     54  C   UNL A   1      43.817  33.200  29.965  1.00  0.00     0.031 A 
ATOM     55  C   UNL A   1      44.918  26.788  32.566  1.00  0.00     0.031 A 
ATOM     56  C   UNL A   1      44.459  32.279  29.064  1.00  0.00     0.049 A 
ATOM     57  C   UNL A   1      45.286  27.142  31.153  1.00  0.00     0.074 A 
ATOM     58  C   UNL A   1      44.889  32.499  27.768  1.00  0.00     0.029 A 
ATOM     59  N   UNL A   1      44.756  30.957  29.363  1.00  0.00    -0.354 N 
ATOM     60  N   UNL A   1      45.149  28.288  30.527  1.00  0.00    -0.248 NA
ATOM     61  C   UNL A   1      45.903  26.081  30.346  1.00  0.00     0.031 C 
ATOM     62  C   UNL A   1      45.392  31.294  27.263  1.00  0.00     0.029 A 
ATOM     63  C   UNL A   1      45.338  30.341  28.269  1.00  0.00     0.049 A 
ATOM     64  H   UNL A   1      44.579  30.521  30.229  1.00  0.00     0.167 HD
ATOM     65  C   UNL A   1      45.690  28.093  29.262  1.00  0.00     0.074 A 
ATOM     66  C   UNL A   1      46.166  26.725  29.218  1.00  0.00     0.031 C 
ATOM     67  C   UNL A   1      45.792  28.972  28.232  1.00  0.00     0.031 A 
BRANCH  54  68
ATOM     68  C   UNL A   1      43.462  34.579  29.466  1.00  0.00    -0.014 A 
ATOM     69  C   UNL A   1      42.193  34.856  28.922  1.00  0.00     0.010 A 
ATOM     70  C   UNL A   1      44.411  35.615  29.540  1.00  0.00     0.010 A 
ATOM     71  C   UNL A   1      41.905  36.121  28.401  1.00  0.00     0.020 A 
ATOM     72  C   UNL A   1      44.115  36.891  29.050  1.00  0.00     0.020 A 
ATOM     73  C   UNL A   1      42.872  37.128  28.459  1.00  0.00     0.054 A 
BRANCH  73  74
ATOM     74  S   UNL A   1      42.483  38.753  27.756  1.00  0.00     0.124 S 
ATOM     75  O   UNL A   1      41.925  38.392  26.455  1.00  0.00    -0.237 OA
ATOM     76  O   UNL A   1      41.528  39.299  28.718  1.00  0.00    -0.237 OA
ATOM     77  O   UNL A   1      43.775  39.432  27.713  1.00  0.00    -0.744 OA
ENDBRANCH  73  74
ENDBRANCH  54  68
BRANCH  55  78
ATOM     78  C   UNL A   1      45.206  25.439  33.125  1.00  0.00    -0.014 A 
ATOM     79  C   UNL A   1      46.437  25.179  33.753  1.00  0.00     0.010 A 
ATOM     80  C   UNL A   1      44.231  24.426  33.083  1.00  0.00     0.010 A 
ATOM     81  C   UNL A   1      46.689  23.930  34.326  1.00  0.00     0.020 A 
ATOM     82  C   UNL A   1      44.470  23.185  33.679  1.00  0.00     0.020 A 
ATOM     83  C   UNL A   1      45.700  22.943  34.294  1.00  0.00     0.054 A 
BRANCH  83  84
ATOM     84  S   UNL A   1      46.019  21.359  35.119  1.00  0.00     0.124 S 
ATOM     85  O   UNL A   1      47.248  20.919  34.469  1.00  0.00    -0.237 OA
ATOM     86  O   UNL A   1      46.147  21.755  36.519  1.00  0.00    -0.237 OA
ATOM     87  O   UNL A   1      44.829  20.569  34.810  1.00  0.00    -0.744 OA
ENDBRANCH  83  84
ENDBRANCH  55  78
BRANCH  67  88
ATOM     88  C   UNL A   1      46.473  28.487  26.979  1.00  0.00    -0.014 A 
ATOM     89  C   UNL A   1      45.737  27.987  25.889  1.00  0.00     0.010 A 
ATOM     90  C   UNL A   1      47.875  28.557  26.883  1.00  0.00     0.010 A 
ATOM     91  C   UNL A   1      46.394  27.521  24.747  1.00  0.00     0.020 A 
ATOM     92  C   UNL A   1      48.533  28.122  25.731  1.00  0.00     0.020 A 
ATOM     93  C   UNL A   1      47.790  27.587  24.678  1.00  0.00     0.054 A 
BRANCH  93  94
ATOM     94  S   UNL A   1      48.620  26.990  23.180  1.00  0.00     0.124 S 
ATOM     95  O   UNL A   1      48.103  27.902  22.163  1.00  0.00    -0.237 OA
ATOM     96  O   UNL A   1      50.034  27.153  23.509  1.00  0.00    -0.237 OA
ATOM     97  O   UNL A   1      48.168  25.605  23.063  1.00  0.00    -0.744 OA
ENDBRANCH  93  94
ENDBRANCH  67  88
ENDBRANCH  41  42
ENDBRANCH  33  36
ENDBRANCH  31  32
ENDBRANCH  30  31
ENDBRANCH  29  30
ENDBRANCH   1  29
TORSDOF 21
ENDMDL
