MODEL 1
REMARK VINA RESULT:     -10.7      0.000      0.000
REMARK SMILES CCCCc1nc(C[N@H+]2CC[NH2+][C@H](C(=O)NCCCCCCNC(=O)c3ccc(-c4c5nc(c(-c6ccc(S(=O)(=O)[O-])cc6)c6ccc([nH]6)c(-c6ccc(S(=O)(=O)[O-])cc6)c6nc(c(-c7ccc(S(=O)(=O)[O-])cc7)c7ccc4[nH]7)C=C6)C=C5)cc3)C2)c(Cl)[nH]1
REMARK SMILES IDX 18 1 17 2 16 3 14 4 15 5 13 7 9 8 10 9 86 10 11 12 12 13
REMARK SMILES IDX 8 16 7 17 5 18 6 19 89 20 87 21 88 23 4 24 3 25 2 26 1 27
REMARK SMILES IDX 19 28 20 29 21 30 22 31 23 32 24 33 25 35 26 36 27 37 85 38
REMARK SMILES IDX 28 39 84 40 29 41 30 42 31 43 78 44 32 45 83 46 77 47 79 48
REMARK SMILES IDX 33 49 82 50 76 51 75 52 34 54 64 55 45 56 63 57 46 58 49 59
REMARK SMILES IDX 62 60 80 61 47 62 48 63 61 65 81 66 50 67 35 68 36 69 44 70
REMARK SMILES IDX 37 71 43 72 38 73 39 74 40 75 41 76 42 77 65 78 66 79 74 80
REMARK SMILES IDX 67 81 73 82 68 83 69 84 70 85 71 86 72 87 51 88 52 89 60 90
REMARK SMILES IDX 53 91 59 92 54 93 55 94 56 95 57 96 58 97
REMARK H PARENT 16 6 9 11 12 14 12 15 89 22 23 34 79 53 49 64
REMARK Flexibility Score: inf
ROOT
ATOM      1  C   UNL A   1      38.762  23.396  26.533  1.00  0.00     0.021 C 
ENDROOT
BRANCH   1   2
ATOM      2  C   UNL A   1      37.505  23.890  25.825  1.00  0.00     0.116 C 
BRANCH   2   3
ATOM      3  N   UNL A   1      37.437  23.500  24.426  1.00  0.00    -0.351 N 
ATOM      4  C   UNL A   1      36.291  23.261  23.697  1.00  0.00     0.284 C 
ATOM      5  O   UNL A   1      36.378  23.112  22.477  1.00  0.00    -0.268 OA
ATOM      6  H   UNL A   1      38.294  23.395  23.953  1.00  0.00     0.163 HD
BRANCH   4   7
ATOM      7  C   UNL A   1      34.960  23.180  24.465  1.00  0.00     0.328 C 
ATOM      8  N   UNL A   1      33.186  24.519  25.729  1.00  0.00    -0.320 N 
ATOM      9  C   UNL A   1      33.122  23.381  26.657  1.00  0.00     0.324 C 
ATOM     10  C   UNL A   1      34.455  24.555  24.964  1.00  0.00     0.339 C 
ATOM     11  H   UNL A   1      33.200  25.350  26.320  1.00  0.00     0.348 HD
ATOM     12  C   UNL A   1      33.723  22.047  26.158  1.00  0.00     0.323 C 
ATOM     13  N   UNL A   1      35.074  22.200  25.587  1.00  0.00    -0.327 N 
ATOM     14  H   UNL A   1      35.410  21.303  25.238  1.00  0.00     0.347 HD
ATOM     15  H   UNL A   1      35.734  22.526  26.294  1.00  0.00     0.347 HD
BRANCH   8  16
ATOM     16  C   UNL A   1      31.968  24.728  24.914  1.00  0.00     0.323 C 
BRANCH  16  17
ATOM     17  C   UNL A   1      31.628  26.155  24.630  1.00  0.00     0.132 A 
ATOM     18  C   UNL A   1      30.530  27.765  23.705  1.00  0.00     0.107 A 
ATOM     19  N   UNL A   1      30.837  26.490  23.549  1.00  0.00    -0.231 NA
ATOM     20  N   UNL A   1      31.284  28.326  24.706  1.00  0.00    -0.333 N 
ATOM     21  C   UNL A   1      31.932  27.298  25.323  1.00  0.00     0.135 A 
ATOM     22  H   UNL A   1      31.346  29.282  24.933  1.00  0.00     0.169 HD
ATOM     23  Cl  UNL A   1      32.795  27.615  26.744  1.00  0.00    -0.062 Cl
BRANCH  18  24
ATOM     24  C   UNL A   1      29.354  28.434  23.087  1.00  0.00     0.075 C 
BRANCH  24  25
ATOM     25  C   UNL A   1      29.650  29.474  22.021  1.00  0.00     0.008 C 
BRANCH  25  26
ATOM     26  C   UNL A   1      29.021  30.846  22.268  1.00  0.00    -0.003 C 
ATOM     27  C   UNL A   1      28.085  30.891  23.469  1.00  0.00     0.004 C 
ENDBRANCH  25  26
ENDBRANCH  24  25
ENDBRANCH  18  24
ENDBRANCH  16  17
ENDBRANCH   8  16
ENDBRANCH   4   7
ENDBRANCH   2   3
ENDBRANCH   1   2
BRANCH   1  28
ATOM     28  C   UNL A   1      39.325  22.070  26.032  1.00  0.00     0.002 C 
BRANCH  28  29
ATOM     29  C   UNL A   1      40.140  21.260  27.045  1.00  0.00     0.002 C 
BRANCH  29  30
ATOM     30  C   UNL A   1      41.273  20.387  26.485  1.00  0.00     0.021 C 
BRANCH  30  31
ATOM     31  C   UNL A   1      42.672  20.889  26.802  1.00  0.00     0.116 C 
BRANCH  31  32
ATOM     32  N   UNL A   1      43.390  21.363  25.624  1.00  0.00    -0.352 N 
ATOM     33  C   UNL A   1      43.459  22.656  25.135  1.00  0.00     0.251 C 
ATOM     34  H   UNL A   1      43.886  20.681  25.115  1.00  0.00     0.163 HD
ATOM     35  O   UNL A   1      43.776  22.869  23.976  1.00  0.00    -0.269 OA
BRANCH  33  36
ATOM     36  C   UNL A   1      43.154  23.773  26.052  1.00  0.00     0.039 A 
ATOM     37  C   UNL A   1      43.923  24.009  27.195  1.00  0.00     0.014 A 
ATOM     38  C   UNL A   1      42.071  24.593  25.743  1.00  0.00     0.014 A 
ATOM     39  C   UNL A   1      43.625  25.118  27.986  1.00  0.00     0.010 A 
ATOM     40  C   UNL A   1      41.880  25.766  26.427  1.00  0.00     0.010 A 
ATOM     41  C   UNL A   1      42.607  26.000  27.585  1.00  0.00    -0.014 A 
BRANCH  41  42
ATOM     42  C   UNL A   1      42.371  27.255  28.289  1.00  0.00     0.031 A 
ATOM     43  C   UNL A   1      43.427  28.274  28.051  1.00  0.00     0.074 A 
ATOM     44  C   UNL A   1      41.202  27.556  28.896  1.00  0.00     0.049 A 
ATOM     45  N   UNL A   1      44.320  28.687  28.887  1.00  0.00    -0.248 NA
ATOM     46  C   UNL A   1      43.631  28.761  26.675  1.00  0.00     0.031 C 
ATOM     47  C   UNL A   1      39.963  26.766  28.927  1.00  0.00     0.029 A 
ATOM     48  N   UNL A   1      40.827  28.703  29.524  1.00  0.00    -0.354 N 
ATOM     49  C   UNL A   1      45.031  29.677  28.219  1.00  0.00     0.074 A 
ATOM     50  C   UNL A   1      44.720  29.519  26.821  1.00  0.00     0.031 C 
ATOM     51  C   UNL A   1      38.931  27.549  29.318  1.00  0.00     0.029 A 
ATOM     52  C   UNL A   1      39.456  28.837  29.731  1.00  0.00     0.049 A 
ATOM     53  H   UNL A   1      41.477  29.385  29.811  1.00  0.00     0.167 HD
ATOM     54  C   UNL A   1      45.580  30.726  28.895  1.00  0.00     0.031 A 
ATOM     55  C   UNL A   1      38.801  29.936  30.188  1.00  0.00     0.031 A 
ATOM     56  C   UNL A   1      45.617  30.475  30.314  1.00  0.00     0.049 A 
ATOM     57  C   UNL A   1      39.806  30.773  30.886  1.00  0.00     0.074 A 
ATOM     58  C   UNL A   1      46.176  29.499  31.115  1.00  0.00     0.029 A 
ATOM     59  N   UNL A   1      44.637  31.072  31.075  1.00  0.00    -0.354 N 
ATOM     60  N   UNL A   1      40.412  30.397  31.976  1.00  0.00    -0.248 NA
ATOM     61  C   UNL A   1      40.487  31.801  30.116  1.00  0.00     0.031 C 
ATOM     62  C   UNL A   1      45.190  29.234  32.112  1.00  0.00     0.029 A 
ATOM     63  C   UNL A   1      44.131  30.125  31.926  1.00  0.00     0.049 A 
ATOM     64  H   UNL A   1      44.351  32.013  31.017  1.00  0.00     0.167 HD
ATOM     65  C   UNL A   1      41.732  30.788  31.799  1.00  0.00     0.074 A 
ATOM     66  C   UNL A   1      41.697  31.729  30.679  1.00  0.00     0.031 C 
ATOM     67  C   UNL A   1      42.756  30.101  32.386  1.00  0.00     0.031 A 
BRANCH  54  68
ATOM     68  C   UNL A   1      45.663  32.124  28.329  1.00  0.00    -0.014 A 
ATOM     69  C   UNL A   1      46.887  32.819  28.413  1.00  0.00     0.010 A 
ATOM     70  C   UNL A   1      44.526  32.880  27.974  1.00  0.00     0.010 A 
ATOM     71  C   UNL A   1      46.953  34.205  28.219  1.00  0.00     0.020 A 
ATOM     72  C   UNL A   1      44.588  34.253  27.735  1.00  0.00     0.020 A 
ATOM     73  C   UNL A   1      45.798  34.914  27.891  1.00  0.00     0.054 A 
BRANCH  73  74
ATOM     74  S   UNL A   1      45.874  36.713  27.723  1.00  0.00     0.124 S 
ATOM     75  O   UNL A   1      46.256  36.867  26.324  1.00  0.00    -0.237 OA
ATOM     76  O   UNL A   1      44.508  37.109  28.058  1.00  0.00    -0.237 OA
ATOM     77  O   UNL A   1      46.888  37.103  28.700  1.00  0.00    -0.744 OA
ENDBRANCH  73  74
ENDBRANCH  54  68
BRANCH  55  78
ATOM     78  C   UNL A   1      37.468  30.466  29.791  1.00  0.00    -0.014 A 
ATOM     79  C   UNL A   1      36.612  31.068  30.736  1.00  0.00     0.010 A 
ATOM     80  C   UNL A   1      37.169  30.660  28.427  1.00  0.00     0.010 A 
ATOM     81  C   UNL A   1      35.546  31.895  30.331  1.00  0.00     0.020 A 
ATOM     82  C   UNL A   1      36.107  31.478  28.017  1.00  0.00     0.020 A 
ATOM     83  C   UNL A   1      35.316  32.115  28.972  1.00  0.00     0.054 A 
BRANCH  83  84
ATOM     84  S   UNL A   1      34.075  33.341  28.454  1.00  0.00     0.124 S 
ATOM     85  O   UNL A   1      34.840  34.197  27.554  1.00  0.00    -0.237 OA
ATOM     86  O   UNL A   1      33.052  32.512  27.824  1.00  0.00    -0.237 OA
ATOM     87  O   UNL A   1      33.670  33.966  29.712  1.00  0.00    -0.744 OA
ENDBRANCH  83  84
ENDBRANCH  55  78
BRANCH  67  88
ATOM     88  C   UNL A   1      42.422  29.096  33.468  1.00  0.00    -0.014 A 
ATOM     89  C   UNL A   1      42.055  27.755  33.232  1.00  0.00     0.010 A 
ATOM     90  C   UNL A   1      42.611  29.507  34.799  1.00  0.00     0.010 A 
ATOM     91  C   UNL A   1      41.842  26.868  34.301  1.00  0.00     0.020 A 
ATOM     92  C   UNL A   1      42.423  28.627  35.865  1.00  0.00     0.020 A 
ATOM     93  C   UNL A   1      42.023  27.315  35.614  1.00  0.00     0.054 A 
BRANCH  93  94
ATOM     94  S   UNL A   1      41.752  26.173  37.000  1.00  0.00     0.124 S 
ATOM     95  O   UNL A   1      42.923  26.408  37.839  1.00  0.00    -0.237 OA
ATOM     96  O   UNL A   1      40.479  26.629  37.551  1.00  0.00    -0.237 OA
ATOM     97  O   UNL A   1      41.704  24.857  36.361  1.00  0.00    -0.744 OA
ENDBRANCH  93  94
ENDBRANCH  67  88
ENDBRANCH  41  42
ENDBRANCH  33  36
ENDBRANCH  31  32
ENDBRANCH  30  31
ENDBRANCH  29  30
ENDBRANCH  28  29
ENDBRANCH   1  28
TORSDOF 21
ENDMDL
MODEL 2
REMARK VINA RESULT:     -10.6      3.256      8.217
REMARK SMILES CCCCc1nc(C[N@H+]2CC[NH2+][C@H](C(=O)NCCCCCCNC(=O)c3ccc(-c4c5nc(c(-c6ccc(S(=O)(=O)[O-])cc6)c6ccc([nH]6)c(-c6ccc(S(=O)(=O)[O-])cc6)c6nc(c(-c7ccc(S(=O)(=O)[O-])cc7)c7ccc4[nH]7)C=C6)C=C5)cc3)C2)c(Cl)[nH]1
REMARK SMILES IDX 18 1 17 2 16 3 14 4 15 5 13 7 9 8 10 9 86 10 11 12 12 13
REMARK SMILES IDX 8 16 7 17 5 18 6 19 89 20 87 21 88 23 4 24 3 25 2 26 1 27
REMARK SMILES IDX 19 28 20 29 21 30 22 31 23 32 24 33 25 35 26 36 27 37 85 38
REMARK SMILES IDX 28 39 84 40 29 41 30 42 31 43 78 44 32 45 83 46 77 47 79 48
REMARK SMILES IDX 33 49 82 50 76 51 75 52 34 54 64 55 45 56 63 57 46 58 49 59
REMARK SMILES IDX 62 60 80 61 47 62 48 63 61 65 81 66 50 67 35 68 36 69 44 70
REMARK SMILES IDX 37 71 43 72 38 73 39 74 40 75 41 76 42 77 65 78 66 79 74 80
REMARK SMILES IDX 67 81 73 82 68 83 69 84 70 85 71 86 72 87 51 88 52 89 60 90
REMARK SMILES IDX 53 91 59 92 54 93 55 94 56 95 57 96 58 97
REMARK H PARENT 16 6 9 11 12 14 12 15 89 22 23 34 79 53 49 64
REMARK Flexibility Score: inf
ROOT
ATOM      1  C   UNL A   1      36.549  22.975  25.944  1.00  0.00     0.021 C 
ENDROOT
BRANCH   1   2
ATOM      2  C   UNL A   1      35.830  24.236  25.477  1.00  0.00     0.116 C 
BRANCH   2   3
ATOM      3  N   UNL A   1      35.477  24.212  24.067  1.00  0.00    -0.351 N 
ATOM      4  C   UNL A   1      34.225  24.433  23.531  1.00  0.00     0.284 C 
ATOM      5  O   UNL A   1      34.110  24.557  22.312  1.00  0.00    -0.268 OA
ATOM      6  H   UNL A   1      36.204  24.020  23.431  1.00  0.00     0.163 HD
BRANCH   4   7
ATOM      7  C   UNL A   1      33.034  24.494  24.504  1.00  0.00     0.328 C 
ATOM      8  N   UNL A   1      30.671  23.639  24.979  1.00  0.00    -0.320 N 
ATOM      9  C   UNL A   1      30.373  25.001  25.444  1.00  0.00     0.324 C 
ATOM     10  C   UNL A   1      31.849  23.594  24.080  1.00  0.00     0.339 C 
ATOM     11  H   UNL A   1      29.876  23.371  24.400  1.00  0.00     0.348 HD
ATOM     12  C   UNL A   1      31.587  25.903  25.768  1.00  0.00     0.323 C 
ATOM     13  N   UNL A   1      32.602  25.911  24.699  1.00  0.00    -0.327 N 
ATOM     14  H   UNL A   1      33.397  26.486  24.975  1.00  0.00     0.347 HD
ATOM     15  H   UNL A   1      32.221  26.300  23.836  1.00  0.00     0.347 HD
BRANCH   8  16
ATOM     16  C   UNL A   1      30.661  22.603  26.036  1.00  0.00     0.323 C 
BRANCH  16  17
ATOM     17  C   UNL A   1      31.794  21.632  25.987  1.00  0.00     0.132 A 
ATOM     18  C   UNL A   1      32.976  20.034  25.148  1.00  0.00     0.107 A 
ATOM     19  N   UNL A   1      31.762  20.551  25.128  1.00  0.00    -0.231 NA
ATOM     20  N   UNL A   1      33.720  20.583  26.164  1.00  0.00    -0.333 N 
ATOM     21  C   UNL A   1      32.993  21.627  26.653  1.00  0.00     0.135 A 
ATOM     22  H   UNL A   1      34.603  20.282  26.477  1.00  0.00     0.169 HD
ATOM     23  Cl  UNL A   1      33.711  22.659  27.785  1.00  0.00    -0.062 Cl
BRANCH  18  24
ATOM     24  C   UNL A   1      33.554  19.187  24.070  1.00  0.00     0.075 C 
BRANCH  24  25
ATOM     25  C   UNL A   1      34.590  18.162  24.497  1.00  0.00     0.008 C 
BRANCH  25  26
ATOM     26  C   UNL A   1      34.015  16.845  25.021  1.00  0.00    -0.003 C 
ATOM     27  C   UNL A   1      35.047  15.734  25.168  1.00  0.00     0.004 C 
ENDBRANCH  25  26
ENDBRANCH  24  25
ENDBRANCH  18  24
ENDBRANCH  16  17
ENDBRANCH   8  16
ENDBRANCH   4   7
ENDBRANCH   2   3
ENDBRANCH   1   2
BRANCH   1  28
ATOM     28  C   UNL A   1      37.502  22.344  24.934  1.00  0.00     0.002 C 
BRANCH  28  29
ATOM     29  C   UNL A   1      37.092  20.973  24.387  1.00  0.00     0.002 C 
BRANCH  29  30
ATOM     30  C   UNL A   1      37.907  19.763  24.865  1.00  0.00     0.021 C 
BRANCH  30  31
ATOM     31  C   UNL A   1      38.992  20.092  25.877  1.00  0.00     0.116 C 
BRANCH  31  32
ATOM     32  N   UNL A   1      40.122  19.172  25.824  1.00  0.00    -0.352 N 
ATOM     33  C   UNL A   1      41.470  19.476  25.912  1.00  0.00     0.251 C 
ATOM     34  H   UNL A   1      39.901  18.219  25.712  1.00  0.00     0.163 HD
ATOM     35  O   UNL A   1      42.314  18.696  25.502  1.00  0.00    -0.269 OA
BRANCH  33  36
ATOM     36  C   UNL A   1      41.863  20.760  26.527  1.00  0.00     0.039 A 
ATOM     37  C   UNL A   1      42.446  21.783  25.772  1.00  0.00     0.014 A 
ATOM     38  C   UNL A   1      41.636  20.927  27.891  1.00  0.00     0.014 A 
ATOM     39  C   UNL A   1      42.735  22.994  26.397  1.00  0.00     0.010 A 
ATOM     40  C   UNL A   1      41.772  22.164  28.465  1.00  0.00     0.010 A 
ATOM     41  C   UNL A   1      42.382  23.181  27.744  1.00  0.00    -0.014 A 
BRANCH  41  42
ATOM     42  C   UNL A   1      42.515  24.481  28.390  1.00  0.00     0.031 A 
ATOM     43  C   UNL A   1      41.388  25.405  28.097  1.00  0.00     0.074 A 
ATOM     44  C   UNL A   1      43.432  24.743  29.347  1.00  0.00     0.049 A 
ATOM     45  N   UNL A   1      41.413  26.461  27.354  1.00  0.00    -0.248 NA
ATOM     46  C   UNL A   1      40.034  25.017  28.532  1.00  0.00     0.031 C 
ATOM     47  C   UNL A   1      44.398  23.820  29.959  1.00  0.00     0.029 A 
ATOM     48  N   UNL A   1      43.621  25.878  30.072  1.00  0.00    -0.354 N 
ATOM     49  C   UNL A   1      40.139  27.012  27.442  1.00  0.00     0.074 A 
ATOM     50  C   UNL A   1      39.293  25.979  27.980  1.00  0.00     0.031 C 
ATOM     51  C   UNL A   1      44.881  24.356  31.103  1.00  0.00     0.029 A 
ATOM     52  C   UNL A   1      44.402  25.721  31.215  1.00  0.00     0.049 A 
ATOM     53  H   UNL A   1      43.235  26.745  29.807  1.00  0.00     0.167 HD
ATOM     54  C   UNL A   1      39.948  28.358  27.345  1.00  0.00     0.031 A 
ATOM     55  C   UNL A   1      44.619  26.641  32.191  1.00  0.00     0.031 A 
ATOM     56  C   UNL A   1      41.117  29.019  26.820  1.00  0.00     0.049 A 
ATOM     57  C   UNL A   1      44.307  27.967  31.605  1.00  0.00     0.074 A 
ATOM     58  C   UNL A   1      41.857  28.909  25.659  1.00  0.00     0.029 A 
ATOM     59  N   UNL A   1      41.935  29.648  27.731  1.00  0.00    -0.354 N 
ATOM     60  N   UNL A   1      44.995  28.496  30.634  1.00  0.00    -0.248 NA
ATOM     61  C   UNL A   1      42.955  28.479  31.764  1.00  0.00     0.031 C 
ATOM     62  C   UNL A   1      43.216  29.025  26.078  1.00  0.00     0.029 A 
ATOM     63  C   UNL A   1      43.229  29.295  27.449  1.00  0.00     0.049 A 
ATOM     64  H   UNL A   1      41.642  30.246  28.456  1.00  0.00     0.167 HD
ATOM     65  C   UNL A   1      44.044  29.054  29.791  1.00  0.00     0.074 A 
ATOM     66  C   UNL A   1      42.816  29.093  30.585  1.00  0.00     0.031 C 
ATOM     67  C   UNL A   1      44.270  29.167  28.448  1.00  0.00     0.031 A 
BRANCH  54  68
ATOM     68  C   UNL A   1      38.895  29.105  28.130  1.00  0.00    -0.014 A 
ATOM     69  C   UNL A   1      37.838  29.722  27.430  1.00  0.00     0.010 A 
ATOM     70  C   UNL A   1      39.051  29.457  29.486  1.00  0.00     0.010 A 
ATOM     71  C   UNL A   1      37.028  30.691  28.040  1.00  0.00     0.020 A 
ATOM     72  C   UNL A   1      38.223  30.386  30.116  1.00  0.00     0.020 A 
ATOM     73  C   UNL A   1      37.235  31.022  29.379  1.00  0.00     0.054 A 
BRANCH  73  74
ATOM     74  S   UNL A   1      36.241  32.330  30.136  1.00  0.00     0.124 S 
ATOM     75  O   UNL A   1      34.918  31.715  30.176  1.00  0.00    -0.237 OA
ATOM     76  O   UNL A   1      36.901  32.506  31.427  1.00  0.00    -0.237 OA
ATOM     77  O   UNL A   1      36.387  33.448  29.208  1.00  0.00    -0.744 OA
ENDBRANCH  73  74
ENDBRANCH  54  68
BRANCH  55  78
ATOM     78  C   UNL A   1      44.756  26.436  33.658  1.00  0.00    -0.014 A 
ATOM     79  C   UNL A   1      46.001  26.589  34.302  1.00  0.00     0.010 A 
ATOM     80  C   UNL A   1      43.604  26.396  34.471  1.00  0.00     0.010 A 
ATOM     81  C   UNL A   1      46.083  26.773  35.696  1.00  0.00     0.020 A 
ATOM     82  C   UNL A   1      43.679  26.574  35.860  1.00  0.00     0.020 A 
ATOM     83  C   UNL A   1      44.917  26.789  36.463  1.00  0.00     0.054 A 
BRANCH  83  84
ATOM     84  S   UNL A   1      45.003  27.231  38.227  1.00  0.00     0.124 S 
ATOM     85  O   UNL A   1      44.359  28.540  38.253  1.00  0.00    -0.237 OA
ATOM     86  O   UNL A   1      44.262  26.146  38.864  1.00  0.00    -0.237 OA
ATOM     87  O   UNL A   1      46.439  27.239  38.505  1.00  0.00    -0.744 OA
ENDBRANCH  83  84
ENDBRANCH  55  78
BRANCH  67  88
ATOM     88  C   UNL A   1      45.679  28.953  27.935  1.00  0.00    -0.014 A 
ATOM     89  C   UNL A   1      46.632  29.977  27.755  1.00  0.00     0.010 A 
ATOM     90  C   UNL A   1      46.091  27.623  27.743  1.00  0.00     0.010 A 
ATOM     91  C   UNL A   1      47.944  29.676  27.352  1.00  0.00     0.020 A 
ATOM     92  C   UNL A   1      47.397  27.314  27.363  1.00  0.00     0.020 A 
ATOM     93  C   UNL A   1      48.316  28.343  27.153  1.00  0.00     0.054 A 
BRANCH  93  94
ATOM     94  S   UNL A   1      50.011  27.948  26.634  1.00  0.00     0.124 S 
ATOM     95  O   UNL A   1      50.399  26.909  27.583  1.00  0.00    -0.237 OA
ATOM     96  O   UNL A   1      49.832  27.506  25.254  1.00  0.00    -0.237 OA
ATOM     97  O   UNL A   1      50.724  29.217  26.782  1.00  0.00    -0.744 OA
ENDBRANCH  93  94
ENDBRANCH  67  88
ENDBRANCH  41  42
ENDBRANCH  33  36
ENDBRANCH  31  32
ENDBRANCH  30  31
ENDBRANCH  29  30
ENDBRANCH  28  29
ENDBRANCH   1  28
TORSDOF 21
ENDMDL
MODEL 3
REMARK VINA RESULT:     -10.3      2.810      9.601
REMARK SMILES CCCCc1nc(C[N@H+]2CC[NH2+][C@H](C(=O)NCCCCCCNC(=O)c3ccc(-c4c5nc(c(-c6ccc(S(=O)(=O)[O-])cc6)c6ccc([nH]6)c(-c6ccc(S(=O)(=O)[O-])cc6)c6nc(c(-c7ccc(S(=O)(=O)[O-])cc7)c7ccc4[nH]7)C=C6)C=C5)cc3)C2)c(Cl)[nH]1
REMARK SMILES IDX 18 1 17 2 16 3 14 4 15 5 13 7 9 8 10 9 86 10 11 12 12 13
REMARK SMILES IDX 8 16 7 17 5 18 6 19 89 20 87 21 88 23 4 24 3 25 2 26 1 27
REMARK SMILES IDX 19 28 20 29 21 30 22 31 23 32 24 33 25 35 26 36 27 37 85 38
REMARK SMILES IDX 28 39 84 40 29 41 30 42 31 43 78 44 32 45 83 46 77 47 79 48
REMARK SMILES IDX 33 49 82 50 76 51 75 52 34 54 64 55 45 56 63 57 46 58 49 59
REMARK SMILES IDX 62 60 80 61 47 62 48 63 61 65 81 66 50 67 35 68 36 69 44 70
REMARK SMILES IDX 37 71 43 72 38 73 39 74 40 75 41 76 42 77 65 78 66 79 74 80
REMARK SMILES IDX 67 81 73 82 68 83 69 84 70 85 71 86 72 87 51 88 52 89 60 90
REMARK SMILES IDX 53 91 59 92 54 93 55 94 56 95 57 96 58 97
REMARK H PARENT 16 6 9 11 12 14 12 15 89 22 23 34 79 53 49 64
REMARK Flexibility Score: inf
ROOT
ATOM      1  C   UNL A   1      35.260  29.750  28.288  1.00  0.00     0.021 C 
ENDROOT
BRANCH   1   2
ATOM      2  C   UNL A   1      33.921  29.495  27.606  1.00  0.00     0.116 C 
BRANCH   2   3
ATOM      3  N   UNL A   1      33.150  30.705  27.375  1.00  0.00    -0.351 N 
ATOM      4  C   UNL A   1      32.057  30.835  26.543  1.00  0.00     0.284 C 
ATOM      5  O   UNL A   1      31.396  31.873  26.582  1.00  0.00    -0.268 OA
ATOM      6  H   UNL A   1      33.436  31.513  27.861  1.00  0.00     0.163 HD
BRANCH   4   7
ATOM      7  C   UNL A   1      31.741  29.665  25.594  1.00  0.00     0.328 C 
ATOM      8  N   UNL A   1      32.746  27.821  24.135  1.00  0.00    -0.320 N 
ATOM      9  C   UNL A   1      31.675  28.127  23.175  1.00  0.00     0.324 C 
ATOM     10  C   UNL A   1      33.004  28.942  25.070  1.00  0.00     0.339 C 
ATOM     11  H   UNL A   1      33.593  27.731  23.575  1.00  0.00     0.348 HD
ATOM     12  C   UNL A   1      30.472  28.934  23.715  1.00  0.00     0.323 C 
ATOM     13  N   UNL A   1      30.874  30.133  24.472  1.00  0.00    -0.327 N 
ATOM     14  H   UNL A   1      30.049  30.609  24.839  1.00  0.00     0.347 HD
ATOM     15  H   UNL A   1      31.372  30.793  23.874  1.00  0.00     0.347 HD
BRANCH   8  16
ATOM     16  C   UNL A   1      32.645  26.492  24.778  1.00  0.00     0.323 C 
BRANCH  16  17
ATOM     17  C   UNL A   1      33.674  25.497  24.350  1.00  0.00     0.132 A 
ATOM     18  C   UNL A   1      35.284  24.091  24.638  1.00  0.00     0.107 A 
ATOM     19  N   UNL A   1      34.699  25.132  25.201  1.00  0.00    -0.231 NA
ATOM     20  N   UNL A   1      34.838  23.921  23.351  1.00  0.00    -0.333 N 
ATOM     21  C   UNL A   1      33.785  24.772  23.192  1.00  0.00     0.135 A 
ATOM     22  H   UNL A   1      35.206  23.307  22.675  1.00  0.00     0.169 HD
ATOM     23  Cl  UNL A   1      32.863  24.671  21.777  1.00  0.00    -0.062 Cl
BRANCH  18  24
ATOM     24  C   UNL A   1      36.098  23.081  25.367  1.00  0.00     0.075 C 
BRANCH  24  25
ATOM     25  C   UNL A   1      36.302  21.747  24.671  1.00  0.00     0.008 C 
BRANCH  25  26
ATOM     26  C   UNL A   1      35.234  20.694  24.973  1.00  0.00    -0.003 C 
ATOM     27  C   UNL A   1      34.245  21.106  26.056  1.00  0.00     0.004 C 
ENDBRANCH  25  26
ENDBRANCH  24  25
ENDBRANCH  18  24
ENDBRANCH  16  17
ENDBRANCH   8  16
ENDBRANCH   4   7
ENDBRANCH   2   3
ENDBRANCH   1   2
BRANCH   1  28
ATOM     28  C   UNL A   1      36.105  30.871  27.692  1.00  0.00     0.002 C 
BRANCH  28  29
ATOM     29  C   UNL A   1      36.976  31.656  28.678  1.00  0.00     0.002 C 
BRANCH  29  30
ATOM     30  C   UNL A   1      36.316  32.842  29.396  1.00  0.00     0.021 C 
BRANCH  30  31
ATOM     31  C   UNL A   1      35.005  32.510  30.090  1.00  0.00     0.116 C 
BRANCH  31  32
ATOM     32  N   UNL A   1      34.942  33.004  31.461  1.00  0.00    -0.352 N 
ATOM     33  C   UNL A   1      35.575  32.489  32.579  1.00  0.00     0.251 C 
ATOM     34  H   UNL A   1      34.382  33.799  31.610  1.00  0.00     0.163 HD
ATOM     35  O   UNL A   1      35.174  32.753  33.701  1.00  0.00    -0.269 OA
BRANCH  33  36
ATOM     36  C   UNL A   1      36.757  31.624  32.384  1.00  0.00     0.039 A 
ATOM     37  C   UNL A   1      36.626  30.249  32.164  1.00  0.00     0.014 A 
ATOM     38  C   UNL A   1      38.015  32.219  32.424  1.00  0.00     0.014 A 
ATOM     39  C   UNL A   1      37.775  29.498  31.923  1.00  0.00     0.010 A 
ATOM     40  C   UNL A   1      39.123  31.514  32.030  1.00  0.00     0.010 A 
ATOM     41  C   UNL A   1      39.021  30.143  31.845  1.00  0.00    -0.014 A 
BRANCH  41  42
ATOM     42  C   UNL A   1      40.222  29.426  31.433  1.00  0.00     0.031 A 
ATOM     43  C   UNL A   1      41.159  29.148  32.552  1.00  0.00     0.074 A 
ATOM     44  C   UNL A   1      40.364  28.857  30.215  1.00  0.00     0.049 A 
ATOM     45  N   UNL A   1      42.307  29.697  32.768  1.00  0.00    -0.248 NA
ATOM     46  C   UNL A   1      40.692  28.294  33.659  1.00  0.00     0.031 C 
ATOM     47  C   UNL A   1      39.380  28.781  29.126  1.00  0.00     0.029 A 
ATOM     48  N   UNL A   1      41.391  28.110  29.728  1.00  0.00    -0.354 N 
ATOM     49  C   UNL A   1      42.820  29.065  33.896  1.00  0.00     0.074 A 
ATOM     50  C   UNL A   1      41.709  28.392  34.517  1.00  0.00     0.031 C 
ATOM     51  C   UNL A   1      39.762  27.841  28.230  1.00  0.00     0.029 A 
ATOM     52  C   UNL A   1      41.090  27.376  28.583  1.00  0.00     0.049 A 
ATOM     53  H   UNL A   1      42.280  28.092  30.152  1.00  0.00     0.167 HD
ATOM     54  C   UNL A   1      44.163  28.901  34.059  1.00  0.00     0.031 A 
ATOM     55  C   UNL A   1      41.870  26.439  27.983  1.00  0.00     0.031 A 
ATOM     56  C   UNL A   1      44.910  29.733  33.148  1.00  0.00     0.049 A 
ATOM     57  C   UNL A   1      43.259  26.681  28.442  1.00  0.00     0.074 A 
ATOM     58  C   UNL A   1      44.974  31.090  32.899  1.00  0.00     0.029 A 
ATOM     59  N   UNL A   1      45.420  29.119  32.026  1.00  0.00    -0.354 N 
ATOM     60  N   UNL A   1      43.928  27.759  28.147  1.00  0.00    -0.248 NA
ATOM     61  C   UNL A   1      43.721  25.960  29.617  1.00  0.00     0.031 C 
ATOM     62  C   UNL A   1      45.053  31.199  31.479  1.00  0.00     0.029 A 
ATOM     63  C   UNL A   1      45.130  29.911  30.945  1.00  0.00     0.049 A 
ATOM     64  H   UNL A   1      45.907  28.264  32.004  1.00  0.00     0.167 HD
ATOM     65  C   UNL A   1      44.582  28.101  29.323  1.00  0.00     0.074 A 
ATOM     66  C   UNL A   1      44.490  26.906  30.164  1.00  0.00     0.031 C 
ATOM     67  C   UNL A   1      44.882  29.402  29.611  1.00  0.00     0.031 A 
BRANCH  54  68
ATOM     68  C   UNL A   1      44.777  27.686  34.714  1.00  0.00    -0.014 A 
ATOM     69  C   UNL A   1      44.593  26.425  34.113  1.00  0.00     0.010 A 
ATOM     70  C   UNL A   1      45.287  27.696  36.030  1.00  0.00     0.010 A 
ATOM     71  C   UNL A   1      44.839  25.238  34.819  1.00  0.00     0.020 A 
ATOM     72  C   UNL A   1      45.577  26.522  36.726  1.00  0.00     0.020 A 
ATOM     73  C   UNL A   1      45.321  25.298  36.126  1.00  0.00     0.054 A 
BRANCH  73  74
ATOM     74  S   UNL A   1      45.559  23.766  37.058  1.00  0.00     0.124 S 
ATOM     75  O   UNL A   1      44.922  24.089  38.330  1.00  0.00    -0.237 OA
ATOM     76  O   UNL A   1      44.860  22.791  36.226  1.00  0.00    -0.237 OA
ATOM     77  O   UNL A   1      47.011  23.617  37.101  1.00  0.00    -0.744 OA
ENDBRANCH  73  74
ENDBRANCH  54  68
BRANCH  55  78
ATOM     78  C   UNL A   1      41.466  25.171  27.315  1.00  0.00    -0.014 A 
ATOM     79  C   UNL A   1      42.377  24.443  26.523  1.00  0.00     0.010 A 
ATOM     80  C   UNL A   1      40.281  24.518  27.710  1.00  0.00     0.010 A 
ATOM     81  C   UNL A   1      42.148  23.090  26.205  1.00  0.00     0.020 A 
ATOM     82  C   UNL A   1      40.043  23.173  27.393  1.00  0.00     0.020 A 
ATOM     83  C   UNL A   1      40.992  22.457  26.665  1.00  0.00     0.054 A 
BRANCH  83  84
ATOM     84  S   UNL A   1      40.794  20.662  26.431  1.00  0.00     0.124 S 
ATOM     85  O   UNL A   1      40.825  20.164  27.803  1.00  0.00    -0.237 OA
ATOM     86  O   UNL A   1      39.505  20.570  25.752  1.00  0.00    -0.237 OA
ATOM     87  O   UNL A   1      41.948  20.297  25.611  1.00  0.00    -0.744 OA
ENDBRANCH  83  84
ENDBRANCH  55  78
BRANCH  67  88
ATOM     88  C   UNL A   1      44.765  30.430  28.505  1.00  0.00    -0.014 A 
ATOM     89  C   UNL A   1      43.562  31.054  28.114  1.00  0.00     0.010 A 
ATOM     90  C   UNL A   1      45.963  30.870  27.917  1.00  0.00     0.010 A 
ATOM     91  C   UNL A   1      43.560  32.059  27.132  1.00  0.00     0.020 A 
ATOM     92  C   UNL A   1      45.972  31.882  26.956  1.00  0.00     0.020 A 
ATOM     93  C   UNL A   1      44.768  32.462  26.555  1.00  0.00     0.054 A 
BRANCH  93  94
ATOM     94  S   UNL A   1      44.772  33.762  25.286  1.00  0.00     0.124 S 
ATOM     95  O   UNL A   1      43.854  34.751  25.843  1.00  0.00    -0.237 OA
ATOM     96  O   UNL A   1      46.175  34.162  25.235  1.00  0.00    -0.237 OA
ATOM     97  O   UNL A   1      44.288  33.077  24.086  1.00  0.00    -0.744 OA
ENDBRANCH  93  94
ENDBRANCH  67  88
ENDBRANCH  41  42
ENDBRANCH  33  36
ENDBRANCH  31  32
ENDBRANCH  30  31
ENDBRANCH  29  30
ENDBRANCH  28  29
ENDBRANCH   1  28
TORSDOF 21
ENDMDL
