MODEL 1
REMARK VINA RESULT:     -11.4      0.000      0.000
REMARK SMILES CCSc1ccc(-c2cc(Cl)cc3c2O[C@H](C(F)(F)F)C(C(=O)NCCCCCCNC(=O)c2ccc(-c4c5nc(c(-c6ccc(S(=O)(=O)[O-])cc6)c6ccc([nH]6)c(-c6ccc(S(=O)(=O)[O-])cc6)c6nc(c(-c7ccc(S(=O)(=O)[O-])cc7)c7ccc4[nH]7)C=C6)C=C5)cc2)=C3)cc1
REMARK SMILES IDX 27 1 26 2 25 3 24 4 22 5 23 6 21 8 8 9 9 10 14 11 10 12
REMARK SMILES IDX 13 13 15 14 11 15 12 16 94 17 16 18 7 19 4 20 5 21 96 22
REMARK SMILES IDX 6 23 95 24 3 25 2 26 1 27 17 28 18 29 19 30 20 31 28 32
REMARK SMILES IDX 29 33 30 34 31 35 32 36 33 38 34 39 35 40 93 41 36 42 92 43
REMARK SMILES IDX 37 44 38 45 39 46 86 47 40 48 91 49 85 50 87 51 41 52 90 53
REMARK SMILES IDX 84 54 83 55 42 57 72 58 53 59 71 60 54 61 57 62 70 63 88 64
REMARK SMILES IDX 55 65 56 66 69 68 89 69 58 70 43 71 44 72 52 73 45 74 51 75
REMARK SMILES IDX 46 76 47 77 48 78 49 79 50 80 73 81 74 82 82 83 75 84 81 85
REMARK SMILES IDX 76 86 77 87 78 88 79 89 80 90 59 91 60 92 68 93 61 94 67 95
REMARK SMILES IDX 62 96 63 97 64 98 65 99 66 100
REMARK H PARENT 24 7 31 37 87 56 57 67
REMARK Flexibility Score: inf
ROOT
ATOM      1  C   UNL A   1      32.435  30.069  26.021  1.00  0.00     0.002 C 
ENDROOT
BRANCH   1   2
ATOM      2  C   UNL A   1      32.233  28.895  25.049  1.00  0.00     0.021 C 
BRANCH   2   3
ATOM      3  C   UNL A   1      33.395  28.665  24.074  1.00  0.00     0.116 C 
BRANCH   3   4
ATOM      4  N   UNL A   1      34.130  27.479  24.464  1.00  0.00    -0.352 N 
ATOM      5  C   UNL A   1      33.567  26.281  24.749  1.00  0.00     0.251 C 
ATOM      6  O   UNL A   1      33.852  25.696  25.787  1.00  0.00    -0.270 OA
ATOM      7  H   UNL A   1      35.110  27.549  24.526  1.00  0.00     0.163 HD
BRANCH   5   8
ATOM      8  C   UNL A   1      32.748  25.670  23.662  1.00  0.00     0.067 C 
ATOM      9  C   UNL A   1      33.515  21.779  24.470  1.00  0.00     0.026 A 
ATOM     10  C   UNL A   1      34.912  21.682  24.709  1.00  0.00     0.033 A 
ATOM     11  C   UNL A   1      33.065  22.972  23.884  1.00  0.00     0.135 A 
ATOM     12  C   UNL A   1      35.822  22.620  24.228  1.00  0.00     0.042 A 
ATOM     13  C   UNL A   1      34.011  23.849  23.297  1.00  0.00     0.019 A 
ATOM     14  O   UNL A   1      31.735  23.373  23.901  1.00  0.00    -0.475 OA
ATOM     15  Cl  UNL A   1      37.495  22.445  24.578  1.00  0.00    -0.084 Cl
ATOM     16  C   UNL A   1      35.383  23.671  23.450  1.00  0.00     0.032 A 
ATOM     17  C   UNL A   1      33.503  25.103  22.701  1.00  0.00     0.025 C 
ATOM     18  C   UNL A   1      31.566  24.841  24.139  1.00  0.00     0.314 C 
BRANCH   9  19
ATOM     19  C   UNL A   1      32.768  20.505  24.642  1.00  0.00    -0.015 A 
ATOM     20  C   UNL A   1      32.578  17.675  24.766  1.00  0.00     0.007 A 
ATOM     21  C   UNL A   1      32.741  18.426  25.931  1.00  0.00     0.015 A 
ATOM     22  C   UNL A   1      32.375  18.345  23.557  1.00  0.00     0.015 A 
ATOM     23  C   UNL A   1      32.801  19.825  25.876  1.00  0.00     0.010 A 
ATOM     24  C   UNL A   1      32.452  19.748  23.499  1.00  0.00     0.010 A 
BRANCH  20  25
ATOM     25  S   UNL A   1      32.819  15.907  24.867  1.00  0.00    -0.126 SA
BRANCH  25  26
ATOM     26  C   UNL A   1      34.551  15.786  25.408  1.00  0.00     0.071 C 
ATOM     27  C   UNL A   1      35.427  16.808  24.707  1.00  0.00     0.016 C 
ENDBRANCH  25  26
ENDBRANCH  20  25
ENDBRANCH   9  19
BRANCH  18  28
ATOM     28  C   UNL A   1      30.292  25.400  23.465  1.00  0.00     0.429 C 
ATOM     29  F   UNL A   1      29.551  24.437  22.872  1.00  0.00    -0.167 F 
ATOM     30  F   UNL A   1      29.501  26.035  24.362  1.00  0.00    -0.167 F 
ATOM     31  F   UNL A   1      30.577  26.315  22.500  1.00  0.00    -0.167 F 
ENDBRANCH  18  28
ENDBRANCH   5   8
ENDBRANCH   3   4
ENDBRANCH   2   3
ENDBRANCH   1   2
BRANCH   1  32
ATOM     32  C   UNL A   1      32.999  29.678  27.388  1.00  0.00     0.002 C 
BRANCH  32  33
ATOM     33  C   UNL A   1      34.465  29.247  27.366  1.00  0.00     0.021 C 
BRANCH  33  34
ATOM     34  C   UNL A   1      35.451  30.352  27.723  1.00  0.00     0.116 C 
BRANCH  34  35
ATOM     35  N   UNL A   1      35.409  30.690  29.136  1.00  0.00    -0.352 N 
ATOM     36  C   UNL A   1      36.394  30.564  30.078  1.00  0.00     0.251 C 
ATOM     37  H   UNL A   1      34.556  31.060  29.459  1.00  0.00     0.163 HD
ATOM     38  O   UNL A   1      36.124  30.728  31.271  1.00  0.00    -0.269 OA
BRANCH  36  39
ATOM     39  C   UNL A   1      37.770  30.217  29.670  1.00  0.00     0.039 A 
ATOM     40  C   UNL A   1      38.744  30.051  30.655  1.00  0.00     0.014 A 
ATOM     41  C   UNL A   1      38.105  30.072  28.319  1.00  0.00     0.014 A 
ATOM     42  C   UNL A   1      40.047  29.712  30.288  1.00  0.00     0.010 A 
ATOM     43  C   UNL A   1      39.382  29.649  27.962  1.00  0.00     0.010 A 
ATOM     44  C   UNL A   1      40.374  29.491  28.940  1.00  0.00    -0.014 A 
BRANCH  44  45
ATOM     45  C   UNL A   1      41.759  29.135  28.542  1.00  0.00     0.031 A 
ATOM     46  C   UNL A   1      42.091  27.721  28.140  1.00  0.00     0.074 A 
ATOM     47  C   UNL A   1      42.722  30.076  28.562  1.00  0.00     0.049 A 
ATOM     48  N   UNL A   1      43.237  27.223  27.752  1.00  0.00    -0.248 NA
ATOM     49  C   UNL A   1      41.001  26.734  28.205  1.00  0.00     0.031 C 
ATOM     50  C   UNL A   1      42.537  31.470  28.978  1.00  0.00     0.029 A 
ATOM     51  N   UNL A   1      44.048  30.007  28.220  1.00  0.00    -0.354 N 
ATOM     52  C   UNL A   1      43.006  25.869  27.535  1.00  0.00     0.074 A 
ATOM     53  C   UNL A   1      41.631  25.610  27.899  1.00  0.00     0.031 C 
ATOM     54  C   UNL A   1      43.697  32.130  28.832  1.00  0.00     0.029 A 
ATOM     55  C   UNL A   1      44.715  31.203  28.349  1.00  0.00     0.049 A 
ATOM     56  H   UNL A   1      44.483  29.179  27.910  1.00  0.00     0.167 HD
ATOM     57  C   UNL A   1      43.852  24.928  27.050  1.00  0.00     0.031 A 
ATOM     58  C   UNL A   1      46.002  31.520  28.105  1.00  0.00     0.031 A 
ATOM     59  C   UNL A   1      45.219  25.191  26.686  1.00  0.00     0.049 A 
ATOM     60  C   UNL A   1      46.925  30.459  27.570  1.00  0.00     0.074 A 
ATOM     61  C   UNL A   1      46.149  24.320  26.146  1.00  0.00     0.029 A 
ATOM     62  N   UNL A   1      45.854  26.417  26.825  1.00  0.00    -0.354 N 
ATOM     63  N   UNL A   1      46.671  29.198  27.310  1.00  0.00    -0.248 NA
ATOM     64  C   UNL A   1      48.304  30.870  27.274  1.00  0.00     0.031 C 
ATOM     65  C   UNL A   1      47.362  25.003  26.011  1.00  0.00     0.029 A 
ATOM     66  C   UNL A   1      47.168  26.320  26.400  1.00  0.00     0.049 A 
ATOM     67  H   UNL A   1      45.432  27.234  27.175  1.00  0.00     0.167 HD
ATOM     68  C   UNL A   1      47.850  28.672  26.792  1.00  0.00     0.074 A 
ATOM     69  C   UNL A   1      48.810  29.758  26.758  1.00  0.00     0.031 C 
ATOM     70  C   UNL A   1      48.114  27.408  26.378  1.00  0.00     0.031 A 
BRANCH  57  71
ATOM     71  C   UNL A   1      43.318  23.527  26.891  1.00  0.00    -0.014 A 
ATOM     72  C   UNL A   1      43.246  22.647  27.987  1.00  0.00     0.010 A 
ATOM     73  C   UNL A   1      42.854  23.091  25.636  1.00  0.00     0.010 A 
ATOM     74  C   UNL A   1      42.768  21.344  27.822  1.00  0.00     0.020 A 
ATOM     75  C   UNL A   1      42.344  21.800  25.474  1.00  0.00     0.020 A 
ATOM     76  C   UNL A   1      42.321  20.928  26.565  1.00  0.00     0.054 A 
BRANCH  76  77
ATOM     77  S   UNL A   1      41.690  19.238  26.385  1.00  0.00     0.124 S 
ATOM     78  O   UNL A   1      42.658  18.652  25.461  1.00  0.00    -0.237 OA
ATOM     79  O   UNL A   1      41.740  18.730  27.754  1.00  0.00    -0.237 OA
ATOM     80  O   UNL A   1      40.347  19.424  25.841  1.00  0.00    -0.744 OA
ENDBRANCH  76  77
ENDBRANCH  57  71
BRANCH  58  81
ATOM     81  C   UNL A   1      46.482  32.908  28.347  1.00  0.00    -0.014 A 
ATOM     82  C   UNL A   1      46.971  33.292  29.608  1.00  0.00     0.010 A 
ATOM     83  C   UNL A   1      46.467  33.853  27.305  1.00  0.00     0.010 A 
ATOM     84  C   UNL A   1      47.418  34.599  29.828  1.00  0.00     0.020 A 
ATOM     85  C   UNL A   1      46.941  35.152  27.511  1.00  0.00     0.020 A 
ATOM     86  C   UNL A   1      47.402  35.520  28.775  1.00  0.00     0.054 A 
BRANCH  86  87
ATOM     87  S   UNL A   1      48.036  37.195  29.069  1.00  0.00     0.124 S 
ATOM     88  O   UNL A   1      49.359  36.926  29.624  1.00  0.00    -0.237 OA
ATOM     89  O   UNL A   1      48.017  37.778  27.731  1.00  0.00    -0.237 OA
ATOM     90  O   UNL A   1      47.069  37.766  30.003  1.00  0.00    -0.744 OA
ENDBRANCH  86  87
ENDBRANCH  58  81
BRANCH  70  91
ATOM     91  C   UNL A   1      49.483  27.138  25.811  1.00  0.00    -0.014 A 
ATOM     92  C   UNL A   1      50.542  26.692  26.624  1.00  0.00     0.010 A 
ATOM     93  C   UNL A   1      49.703  27.300  24.431  1.00  0.00     0.010 A 
ATOM     94  C   UNL A   1      51.806  26.463  26.074  1.00  0.00     0.020 A 
ATOM     95  C   UNL A   1      50.956  27.039  23.872  1.00  0.00     0.020 A 
ATOM     96  C   UNL A   1      52.006  26.641  24.702  1.00  0.00     0.054 A 
BRANCH  96  97
ATOM     97  S   UNL A   1      53.650  26.318  24.010  1.00  0.00     0.124 S 
ATOM     98  O   UNL A   1      53.343  26.064  22.604  1.00  0.00    -0.237 OA
ATOM     99  O   UNL A   1      54.364  27.563  24.282  1.00  0.00    -0.237 OA
ATOM    100  O   UNL A   1      54.122  25.158  24.762  1.00  0.00    -0.744 OA
ENDBRANCH  96  97
ENDBRANCH  70  91
ENDBRANCH  44  45
ENDBRANCH  36  39
ENDBRANCH  34  35
ENDBRANCH  33  34
ENDBRANCH  32  33
ENDBRANCH   1  32
TORSDOF 20
ENDMDL
MODEL 2
REMARK VINA RESULT:     -11.0      5.651      7.896
REMARK SMILES CCSc1ccc(-c2cc(Cl)cc3c2O[C@H](C(F)(F)F)C(C(=O)NCCCCCCNC(=O)c2ccc(-c4c5nc(c(-c6ccc(S(=O)(=O)[O-])cc6)c6ccc([nH]6)c(-c6ccc(S(=O)(=O)[O-])cc6)c6nc(c(-c7ccc(S(=O)(=O)[O-])cc7)c7ccc4[nH]7)C=C6)C=C5)cc2)=C3)cc1
REMARK SMILES IDX 27 1 26 2 25 3 24 4 22 5 23 6 21 8 8 9 9 10 14 11 10 12
REMARK SMILES IDX 13 13 15 14 11 15 12 16 94 17 16 18 7 19 4 20 5 21 96 22
REMARK SMILES IDX 6 23 95 24 3 25 2 26 1 27 17 28 18 29 19 30 20 31 28 32
REMARK SMILES IDX 29 33 30 34 31 35 32 36 33 38 34 39 35 40 93 41 36 42 92 43
REMARK SMILES IDX 37 44 38 45 39 46 86 47 40 48 91 49 85 50 87 51 41 52 90 53
REMARK SMILES IDX 84 54 83 55 42 57 72 58 53 59 71 60 54 61 57 62 70 63 88 64
REMARK SMILES IDX 55 65 56 66 69 68 89 69 58 70 43 71 44 72 52 73 45 74 51 75
REMARK SMILES IDX 46 76 47 77 48 78 49 79 50 80 73 81 74 82 82 83 75 84 81 85
REMARK SMILES IDX 76 86 77 87 78 88 79 89 80 90 59 91 60 92 68 93 61 94 67 95
REMARK SMILES IDX 62 96 63 97 64 98 65 99 66 100
REMARK H PARENT 24 7 31 37 87 56 57 67
REMARK Flexibility Score: inf
ROOT
ATOM      1  C   UNL A   1      31.056  30.454  25.190  1.00  0.00     0.002 C 
ENDROOT
BRANCH   1   2
ATOM      2  C   UNL A   1      32.456  29.826  25.086  1.00  0.00     0.021 C 
BRANCH   2   3
ATOM      3  C   UNL A   1      32.718  28.682  26.074  1.00  0.00     0.116 C 
BRANCH   3   4
ATOM      4  N   UNL A   1      33.700  27.773  25.517  1.00  0.00    -0.352 N 
ATOM      5  C   UNL A   1      33.534  26.434  25.401  1.00  0.00     0.251 C 
ATOM      6  O   UNL A   1      34.393  25.667  25.818  1.00  0.00    -0.270 OA
ATOM      7  H   UNL A   1      34.548  28.157  25.199  1.00  0.00     0.163 HD
BRANCH   5   8
ATOM      8  C   UNL A   1      32.358  25.989  24.597  1.00  0.00     0.067 C 
ATOM      9  C   UNL A   1      33.266  22.052  24.365  1.00  0.00     0.026 A 
ATOM     10  C   UNL A   1      34.651  21.972  24.058  1.00  0.00     0.033 A 
ATOM     11  C   UNL A   1      32.664  23.309  24.205  1.00  0.00     0.135 A 
ATOM     12  C   UNL A   1      35.346  23.017  23.453  1.00  0.00     0.042 A 
ATOM     13  C   UNL A   1      33.353  24.314  23.479  1.00  0.00     0.019 A 
ATOM     14  O   UNL A   1      31.443  23.647  24.776  1.00  0.00    -0.475 OA
ATOM     15  Cl  UNL A   1      37.026  22.851  23.133  1.00  0.00    -0.084 Cl
ATOM     16  C   UNL A   1      34.680  24.168  23.088  1.00  0.00     0.032 A 
ATOM     17  C   UNL A   1      32.695  25.631  23.343  1.00  0.00     0.025 C 
ATOM     18  C   UNL A   1      31.411  25.042  25.316  1.00  0.00     0.314 C 
BRANCH   9  19
ATOM     19  C   UNL A   1      32.600  20.738  24.568  1.00  0.00    -0.015 A 
ATOM     20  C   UNL A   1      32.573  17.901  24.678  1.00  0.00     0.007 A 
ATOM     21  C   UNL A   1      32.759  18.654  25.839  1.00  0.00     0.015 A 
ATOM     22  C   UNL A   1      32.266  18.565  23.488  1.00  0.00     0.015 A 
ATOM     23  C   UNL A   1      32.740  20.054  25.792  1.00  0.00     0.010 A 
ATOM     24  C   UNL A   1      32.262  19.970  23.438  1.00  0.00     0.010 A 
BRANCH  20  25
ATOM     25  S   UNL A   1      32.915  16.149  24.751  1.00  0.00    -0.126 SA
BRANCH  25  26
ATOM     26  C   UNL A   1      34.666  16.079  24.265  1.00  0.00     0.071 C 
ATOM     27  C   UNL A   1      35.572  15.899  25.469  1.00  0.00     0.016 C 
ENDBRANCH  25  26
ENDBRANCH  20  25
ENDBRANCH   9  19
BRANCH  18  28
ATOM     28  C   UNL A   1      29.994  25.657  25.263  1.00  0.00     0.429 C 
ATOM     29  F   UNL A   1      29.220  25.272  26.302  1.00  0.00    -0.167 F 
ATOM     30  F   UNL A   1      30.047  27.010  25.268  1.00  0.00    -0.167 F 
ATOM     31  F   UNL A   1      29.322  25.311  24.133  1.00  0.00    -0.167 F 
ENDBRANCH  18  28
ENDBRANCH   5   8
ENDBRANCH   3   4
ENDBRANCH   2   3
ENDBRANCH   1   2
BRANCH   1  32
ATOM     32  C   UNL A   1      31.004  31.776  25.958  1.00  0.00     0.002 C 
BRANCH  32  33
ATOM     33  C   UNL A   1      31.798  31.777  27.264  1.00  0.00     0.021 C 
BRANCH  33  34
ATOM     34  C   UNL A   1      33.038  32.661  27.246  1.00  0.00     0.116 C 
BRANCH  34  35
ATOM     35  N   UNL A   1      32.758  34.011  27.709  1.00  0.00    -0.352 N 
ATOM     36  C   UNL A   1      33.275  34.672  28.790  1.00  0.00     0.251 C 
ATOM     37  H   UNL A   1      32.107  34.517  27.172  1.00  0.00     0.163 HD
ATOM     38  O   UNL A   1      32.784  35.748  29.140  1.00  0.00    -0.269 OA
BRANCH  36  39
ATOM     39  C   UNL A   1      34.404  34.091  29.543  1.00  0.00     0.039 A 
ATOM     40  C   UNL A   1      35.707  34.383  29.136  1.00  0.00     0.014 A 
ATOM     41  C   UNL A   1      34.182  33.247  30.636  1.00  0.00     0.014 A 
ATOM     42  C   UNL A   1      36.786  33.851  29.843  1.00  0.00     0.010 A 
ATOM     43  C   UNL A   1      35.259  32.789  31.390  1.00  0.00     0.010 A 
ATOM     44  C   UNL A   1      36.572  33.064  30.987  1.00  0.00    -0.014 A 
BRANCH  44  45
ATOM     45  C   UNL A   1      37.716  32.490  31.740  1.00  0.00     0.031 A 
ATOM     46  C   UNL A   1      38.463  31.302  31.190  1.00  0.00     0.074 A 
ATOM     47  C   UNL A   1      38.070  33.023  32.925  1.00  0.00     0.049 A 
ATOM     48  N   UNL A   1      39.491  30.671  31.695  1.00  0.00    -0.248 NA
ATOM     49  C   UNL A   1      37.978  30.735  29.921  1.00  0.00     0.031 C 
ATOM     50  C   UNL A   1      37.396  34.144  33.586  1.00  0.00     0.029 A 
ATOM     51  N   UNL A   1      39.088  32.696  33.784  1.00  0.00    -0.354 N 
ATOM     52  C   UNL A   1      39.769  29.632  30.813  1.00  0.00     0.074 A 
ATOM     53  C   UNL A   1      38.761  29.677  29.777  1.00  0.00     0.031 C 
ATOM     54  C   UNL A   1      38.040  34.433  34.727  1.00  0.00     0.029 A 
ATOM     55  C   UNL A   1      39.148  33.499  34.899  1.00  0.00     0.049 A 
ATOM     56  H   UNL A   1      39.717  31.958  33.618  1.00  0.00     0.167 HD
ATOM     57  C   UNL A   1      40.786  28.739  30.842  1.00  0.00     0.031 A 
ATOM     58  C   UNL A   1      40.000  33.487  35.944  1.00  0.00     0.031 A 
ATOM     59  C   UNL A   1      41.790  28.700  31.874  1.00  0.00     0.049 A 
ATOM     60  C   UNL A   1      41.121  32.483  35.958  1.00  0.00     0.074 A 
ATOM     61  C   UNL A   1      42.887  27.863  31.976  1.00  0.00     0.029 A 
ATOM     62  N   UNL A   1      41.819  29.535  32.981  1.00  0.00    -0.354 N 
ATOM     63  N   UNL A   1      41.404  31.550  35.081  1.00  0.00    -0.248 NA
ATOM     64  C   UNL A   1      42.050  32.546  37.095  1.00  0.00     0.031 C 
ATOM     65  C   UNL A   1      43.547  28.153  33.175  1.00  0.00     0.029 A 
ATOM     66  C   UNL A   1      42.903  29.219  33.783  1.00  0.00     0.049 A 
ATOM     67  H   UNL A   1      41.165  30.246  33.170  1.00  0.00     0.167 HD
ATOM     68  C   UNL A   1      42.562  30.934  35.543  1.00  0.00     0.074 A 
ATOM     69  C   UNL A   1      42.935  31.614  36.768  1.00  0.00     0.031 C 
ATOM     70  C   UNL A   1      43.257  29.902  35.003  1.00  0.00     0.031 A 
BRANCH  57  71
ATOM     71  C   UNL A   1      40.858  27.728  29.726  1.00  0.00    -0.014 A 
ATOM     72  C   UNL A   1      41.987  27.648  28.888  1.00  0.00     0.010 A 
ATOM     73  C   UNL A   1      39.798  26.825  29.528  1.00  0.00     0.010 A 
ATOM     74  C   UNL A   1      42.032  26.721  27.844  1.00  0.00     0.020 A 
ATOM     75  C   UNL A   1      39.854  25.872  28.506  1.00  0.00     0.020 A 
ATOM     76  C   UNL A   1      40.964  25.839  27.659  1.00  0.00     0.054 A 
BRANCH  76  77
ATOM     77  S   UNL A   1      41.059  24.634  26.307  1.00  0.00     0.124 S 
ATOM     78  O   UNL A   1      39.683  24.147  26.241  1.00  0.00    -0.237 OA
ATOM     79  O   UNL A   1      41.491  25.453  25.178  1.00  0.00    -0.237 OA
ATOM     80  O   UNL A   1      42.040  23.659  26.778  1.00  0.00    -0.744 OA
ENDBRANCH  76  77
ENDBRANCH  57  71
BRANCH  58  81
ATOM     81  C   UNL A   1      39.832  34.471  37.048  1.00  0.00    -0.014 A 
ATOM     82  C   UNL A   1      40.405  35.752  36.965  1.00  0.00     0.010 A 
ATOM     83  C   UNL A   1      39.080  34.134  38.188  1.00  0.00     0.010 A 
ATOM     84  C   UNL A   1      40.245  36.671  38.007  1.00  0.00     0.020 A 
ATOM     85  C   UNL A   1      38.891  35.059  39.219  1.00  0.00     0.020 A 
ATOM     86  C   UNL A   1      39.486  36.318  39.127  1.00  0.00     0.054 A 
BRANCH  86  87
ATOM     87  S   UNL A   1      39.247  37.543  40.444  1.00  0.00     0.124 S 
ATOM     88  O   UNL A   1      38.928  36.700  41.590  1.00  0.00    -0.237 OA
ATOM     89  O   UNL A   1      40.544  38.212  40.490  1.00  0.00    -0.237 OA
ATOM     90  O   UNL A   1      38.148  38.368  39.947  1.00  0.00    -0.744 OA
ENDBRANCH  86  87
ENDBRANCH  58  81
BRANCH  70  91
ATOM     91  C   UNL A   1      44.517  29.471  35.709  1.00  0.00    -0.014 A 
ATOM     92  C   UNL A   1      44.528  28.375  36.591  1.00  0.00     0.010 A 
ATOM     93  C   UNL A   1      45.718  30.158  35.456  1.00  0.00     0.010 A 
ATOM     94  C   UNL A   1      45.708  28.007  37.244  1.00  0.00     0.020 A 
ATOM     95  C   UNL A   1      46.907  29.770  36.078  1.00  0.00     0.020 A 
ATOM     96  C   UNL A   1      46.889  28.709  36.985  1.00  0.00     0.054 A 
BRANCH  96  97
ATOM     97  S   UNL A   1      48.411  28.198  37.829  1.00  0.00     0.124 S 
ATOM     98  O   UNL A   1      48.381  29.023  39.034  1.00  0.00    -0.237 OA
ATOM     99  O   UNL A   1      48.196  26.769  38.040  1.00  0.00    -0.237 OA
ATOM    100  O   UNL A   1      49.466  28.530  36.875  1.00  0.00    -0.744 OA
ENDBRANCH  96  97
ENDBRANCH  70  91
ENDBRANCH  44  45
ENDBRANCH  36  39
ENDBRANCH  34  35
ENDBRANCH  33  34
ENDBRANCH  32  33
ENDBRANCH   1  32
TORSDOF 20
ENDMDL
MODEL 3
REMARK VINA RESULT:     -10.9      5.871      9.816
REMARK SMILES CCSc1ccc(-c2cc(Cl)cc3c2O[C@H](C(F)(F)F)C(C(=O)NCCCCCCNC(=O)c2ccc(-c4c5nc(c(-c6ccc(S(=O)(=O)[O-])cc6)c6ccc([nH]6)c(-c6ccc(S(=O)(=O)[O-])cc6)c6nc(c(-c7ccc(S(=O)(=O)[O-])cc7)c7ccc4[nH]7)C=C6)C=C5)cc2)=C3)cc1
REMARK SMILES IDX 27 1 26 2 25 3 24 4 22 5 23 6 21 8 8 9 9 10 14 11 10 12
REMARK SMILES IDX 13 13 15 14 11 15 12 16 94 17 16 18 7 19 4 20 5 21 96 22
REMARK SMILES IDX 6 23 95 24 3 25 2 26 1 27 17 28 18 29 19 30 20 31 28 32
REMARK SMILES IDX 29 33 30 34 31 35 32 36 33 38 34 39 35 40 93 41 36 42 92 43
REMARK SMILES IDX 37 44 38 45 39 46 86 47 40 48 91 49 85 50 87 51 41 52 90 53
REMARK SMILES IDX 84 54 83 55 42 57 72 58 53 59 71 60 54 61 57 62 70 63 88 64
REMARK SMILES IDX 55 65 56 66 69 68 89 69 58 70 43 71 44 72 52 73 45 74 51 75
REMARK SMILES IDX 46 76 47 77 48 78 49 79 50 80 73 81 74 82 82 83 75 84 81 85
REMARK SMILES IDX 76 86 77 87 78 88 79 89 80 90 59 91 60 92 68 93 61 94 67 95
REMARK SMILES IDX 62 96 63 97 64 98 65 99 66 100
REMARK H PARENT 24 7 31 37 87 56 57 67
REMARK Flexibility Score: inf
ROOT
ATOM      1  C   UNL A   1      31.509  30.591  25.617  1.00  0.00     0.002 C 
ENDROOT
BRANCH   1   2
ATOM      2  C   UNL A   1      32.282  29.266  25.732  1.00  0.00     0.021 C 
BRANCH   2   3
ATOM      3  C   UNL A   1      33.120  28.907  24.498  1.00  0.00     0.116 C 
BRANCH   3   4
ATOM      4  N   UNL A   1      33.941  27.748  24.788  1.00  0.00    -0.352 N 
ATOM      5  C   UNL A   1      33.464  26.498  24.996  1.00  0.00     0.251 C 
ATOM      6  O   UNL A   1      33.810  25.861  25.984  1.00  0.00    -0.270 OA
ATOM      7  H   UNL A   1      34.914  27.879  24.837  1.00  0.00     0.163 HD
BRANCH   5   8
ATOM      8  C   UNL A   1      32.661  25.911  23.883  1.00  0.00     0.067 C 
ATOM      9  C   UNL A   1      33.478  22.007  24.568  1.00  0.00     0.026 A 
ATOM     10  C   UNL A   1      34.875  21.922  24.815  1.00  0.00     0.033 A 
ATOM     11  C   UNL A   1      33.015  23.212  24.019  1.00  0.00     0.135 A 
ATOM     12  C   UNL A   1      35.774  22.888  24.372  1.00  0.00     0.042 A 
ATOM     13  C   UNL A   1      33.953  24.122  23.468  1.00  0.00     0.019 A 
ATOM     14  O   UNL A   1      31.679  23.594  24.038  1.00  0.00    -0.475 OA
ATOM     15  Cl  UNL A   1      37.447  22.725  24.729  1.00  0.00    -0.084 Cl
ATOM     16  C   UNL A   1      35.326  23.958  23.625  1.00  0.00     0.032 A 
ATOM     17  C   UNL A   1      33.431  25.388  22.910  1.00  0.00     0.025 C 
ATOM     18  C   UNL A   1      31.487  25.050  24.324  1.00  0.00     0.314 C 
BRANCH   9  19
ATOM     19  C   UNL A   1      32.748  20.718  24.692  1.00  0.00    -0.015 A 
ATOM     20  C   UNL A   1      32.597  17.883  24.711  1.00  0.00     0.007 A 
ATOM     21  C   UNL A   1      32.748  18.593  25.904  1.00  0.00     0.015 A 
ATOM     22  C   UNL A   1      32.385  18.594  23.528  1.00  0.00     0.015 A 
ATOM     23  C   UNL A   1      32.790  19.993  25.900  1.00  0.00     0.010 A 
ATOM     24  C   UNL A   1      32.444  19.999  23.522  1.00  0.00     0.010 A 
BRANCH  20  25
ATOM     25  S   UNL A   1      32.862  16.116  24.747  1.00  0.00    -0.126 SA
BRANCH  25  26
ATOM     26  C   UNL A   1      34.627  16.000  25.166  1.00  0.00     0.071 C 
ATOM     27  C   UNL A   1      35.416  17.156  24.581  1.00  0.00     0.016 C 
ENDBRANCH  25  26
ENDBRANCH  20  25
ENDBRANCH   9  19
BRANCH  18  28
ATOM     28  C   UNL A   1      30.211  25.613  23.659  1.00  0.00     0.429 C 
ATOM     29  F   UNL A   1      30.482  26.383  22.581  1.00  0.00    -0.167 F 
ATOM     30  F   UNL A   1      29.387  24.617  23.258  1.00  0.00    -0.167 F 
ATOM     31  F   UNL A   1      29.482  26.386  24.509  1.00  0.00    -0.167 F 
ENDBRANCH  18  28
ENDBRANCH   5   8
ENDBRANCH   3   4
ENDBRANCH   2   3
ENDBRANCH   1   2
BRANCH   1  32
ATOM     32  C   UNL A   1      31.617  31.502  26.841  1.00  0.00     0.002 C 
BRANCH  32  33
ATOM     33  C   UNL A   1      32.986  31.486  27.520  1.00  0.00     0.021 C 
BRANCH  33  34
ATOM     34  C   UNL A   1      33.749  32.801  27.428  1.00  0.00     0.116 C 
BRANCH  34  35
ATOM     35  N   UNL A   1      33.150  33.843  28.247  1.00  0.00    -0.352 N 
ATOM     36  C   UNL A   1      33.485  34.240  29.513  1.00  0.00     0.251 C 
ATOM     37  H   UNL A   1      32.399  34.328  27.834  1.00  0.00     0.163 HD
ATOM     38  O   UNL A   1      32.748  35.016  30.126  1.00  0.00    -0.269 OA
BRANCH  36  39
ATOM     39  C   UNL A   1      34.717  33.727  30.147  1.00  0.00     0.039 A 
ATOM     40  C   UNL A   1      34.623  32.644  31.022  1.00  0.00     0.014 A 
ATOM     41  C   UNL A   1      35.957  34.322  29.896  1.00  0.00     0.014 A 
ATOM     42  C   UNL A   1      35.778  32.140  31.622  1.00  0.00     0.010 A 
ATOM     43  C   UNL A   1      37.116  33.764  30.427  1.00  0.00     0.010 A 
ATOM     44  C   UNL A   1      37.036  32.683  31.317  1.00  0.00    -0.014 A 
BRANCH  44  45
ATOM     45  C   UNL A   1      38.268  32.155  31.956  1.00  0.00     0.031 A 
ATOM     46  C   UNL A   1      38.661  32.618  33.336  1.00  0.00     0.074 A 
ATOM     47  C   UNL A   1      39.043  31.278  31.291  1.00  0.00     0.049 A 
ATOM     48  N   UNL A   1      39.691  32.263  34.060  1.00  0.00    -0.248 NA
ATOM     49  C   UNL A   1      37.799  33.627  33.974  1.00  0.00     0.031 C 
ATOM     50  C   UNL A   1      38.795  30.790  29.931  1.00  0.00     0.029 A 
ATOM     51  N   UNL A   1      40.195  30.636  31.667  1.00  0.00    -0.354 N 
ATOM     52  C   UNL A   1      39.604  33.009  35.231  1.00  0.00     0.074 A 
ATOM     53  C   UNL A   1      38.461  33.883  35.093  1.00  0.00     0.031 C 
ATOM     54  C   UNL A   1      39.745  29.900  29.603  1.00  0.00     0.029 A 
ATOM     55  C   UNL A   1      40.688  29.779  30.711  1.00  0.00     0.049 A 
ATOM     56  H   UNL A   1      40.627  30.774  32.541  1.00  0.00     0.167 HD
ATOM     57  C   UNL A   1      40.385  32.952  36.336  1.00  0.00     0.031 A 
ATOM     58  C   UNL A   1      41.776  28.986  30.723  1.00  0.00     0.031 A 
ATOM     59  C   UNL A   1      41.521  32.078  36.472  1.00  0.00     0.049 A 
ATOM     60  C   UNL A   1      42.633  28.941  31.959  1.00  0.00     0.074 A 
ATOM     61  C   UNL A   1      42.355  31.912  37.564  1.00  0.00     0.029 A 
ATOM     62  N   UNL A   1      41.982  31.221  35.483  1.00  0.00    -0.354 N 
ATOM     63  N   UNL A   1      42.497  29.607  33.081  1.00  0.00    -0.248 NA
ATOM     64  C   UNL A   1      43.779  28.021  31.936  1.00  0.00     0.031 C 
ATOM     65  C   UNL A   1      43.354  30.998  37.215  1.00  0.00     0.029 A 
ATOM     66  C   UNL A   1      43.101  30.540  35.932  1.00  0.00     0.049 A 
ATOM     67  H   UNL A   1      41.576  31.114  34.593  1.00  0.00     0.167 HD
ATOM     68  C   UNL A   1      43.522  29.164  33.911  1.00  0.00     0.074 A 
ATOM     69  C   UNL A   1      44.256  28.160  33.166  1.00  0.00     0.031 C 
ATOM     70  C   UNL A   1      43.825  29.549  35.176  1.00  0.00     0.031 A 
BRANCH  57  71
ATOM     71  C   UNL A   1      40.038  33.868  37.483  1.00  0.00    -0.014 A 
ATOM     72  C   UNL A   1      39.044  33.519  38.417  1.00  0.00     0.010 A 
ATOM     73  C   UNL A   1      40.732  35.080  37.648  1.00  0.00     0.010 A 
ATOM     74  C   UNL A   1      38.717  34.385  39.463  1.00  0.00     0.020 A 
ATOM     75  C   UNL A   1      40.431  35.934  38.713  1.00  0.00     0.020 A 
ATOM     76  C   UNL A   1      39.412  35.589  39.604  1.00  0.00     0.054 A 
BRANCH  76  77
ATOM     77  S   UNL A   1      38.979  36.685  40.982  1.00  0.00     0.124 S 
ATOM     78  O   UNL A   1      38.072  35.845  41.761  1.00  0.00    -0.237 OA
ATOM     79  O   UNL A   1      40.275  36.950  41.600  1.00  0.00    -0.237 OA
ATOM     80  O   UNL A   1      38.356  37.834  40.330  1.00  0.00    -0.744 OA
ENDBRANCH  76  77
ENDBRANCH  57  71
BRANCH  58  81
ATOM     81  C   UNL A   1      42.101  28.156  29.530  1.00  0.00    -0.014 A 
ATOM     82  C   UNL A   1      41.478  26.911  29.326  1.00  0.00     0.010 A 
ATOM     83  C   UNL A   1      43.028  28.617  28.578  1.00  0.00     0.010 A 
ATOM     84  C   UNL A   1      41.790  26.137  28.205  1.00  0.00     0.020 A 
ATOM     85  C   UNL A   1      43.321  27.861  27.440  1.00  0.00     0.020 A 
ATOM     86  C   UNL A   1      42.708  26.620  27.266  1.00  0.00     0.054 A 
BRANCH  86  87
ATOM     87  S   UNL A   1      43.058  25.621  25.792  1.00  0.00     0.124 S 
ATOM     88  O   UNL A   1      44.516  25.656  25.740  1.00  0.00    -0.237 OA
ATOM     89  O   UNL A   1      42.467  24.332  26.137  1.00  0.00    -0.237 OA
ATOM     90  O   UNL A   1      42.375  26.345  24.721  1.00  0.00    -0.744 OA
ENDBRANCH  86  87
ENDBRANCH  58  81
BRANCH  70  91
ATOM     91  C   UNL A   1      44.978  28.852  35.852  1.00  0.00    -0.014 A 
ATOM     92  C   UNL A   1      44.800  27.642  36.549  1.00  0.00     0.010 A 
ATOM     93  C   UNL A   1      46.269  29.403  35.757  1.00  0.00     0.010 A 
ATOM     94  C   UNL A   1      45.884  27.025  37.179  1.00  0.00     0.020 A 
ATOM     95  C   UNL A   1      47.360  28.770  36.356  1.00  0.00     0.020 A 
ATOM     96  C   UNL A   1      47.157  27.595  37.081  1.00  0.00     0.054 A 
BRANCH  96  97
ATOM     97  S   UNL A   1      48.550  26.763  37.890  1.00  0.00     0.124 S 
ATOM     98  O   UNL A   1      48.955  25.794  36.875  1.00  0.00    -0.237 OA
ATOM     99  O   UNL A   1      49.487  27.859  38.123  1.00  0.00    -0.237 OA
ATOM    100  O   UNL A   1      47.959  26.189  39.097  1.00  0.00    -0.744 OA
ENDBRANCH  96  97
ENDBRANCH  70  91
ENDBRANCH  44  45
ENDBRANCH  36  39
ENDBRANCH  34  35
ENDBRANCH  33  34
ENDBRANCH  32  33
ENDBRANCH   1  32
TORSDOF 20
ENDMDL
