MODEL 1
REMARK VINA RESULT:     -10.1      0.000      0.000
REMARK SMILES C[C@H](C(=O)NCCCCCCNC(=O)c1ccc(-c2c3nc(c(-c4ccc(S(=O)(=O)[O-])cc4)c4ccc([nH]4)c(-c4ccc(S(=O)(=O)[O-])cc4)c4nc(c(-c5ccc(S(=O)(=O)[O-])cc5)c5ccc2[nH]5)C=C4)C=C3)cc1)[C@@H](C)[NH2+]Cc1ccc(F)c(F)c1
REMARK SMILES IDX 8 1 7 2 6 3 5 4 3 5 4 6 2 8 1 9 75 10 76 11 77 12 78 15
REMARK SMILES IDX 79 16 80 17 86 18 81 19 84 20 82 21 85 22 83 23 9 24 10 25
REMARK SMILES IDX 11 26 12 27 13 28 14 30 15 31 16 32 74 33 17 34 73 35 18 36
REMARK SMILES IDX 19 37 20 38 67 39 21 40 72 41 66 42 68 43 22 44 71 45 65 46
REMARK SMILES IDX 64 47 23 49 53 50 34 51 52 52 35 53 38 54 51 55 69 56 36 57
REMARK SMILES IDX 37 58 50 60 70 61 39 62 24 63 25 64 33 65 26 66 32 67 27 68
REMARK SMILES IDX 28 69 29 70 30 71 31 72 54 73 55 74 63 75 56 76 62 77 57 78
REMARK SMILES IDX 58 79 59 80 60 81 61 82 40 83 41 84 49 85 42 86 48 87 43 88
REMARK SMILES IDX 44 89 45 90 46 91 47 92
REMARK H PARENT 5 7 77 13 77 14 12 29 68 48 38 59
REMARK Flexibility Score: inf
ROOT
ATOM      1  C   UNL A   1      40.209  22.278  27.232  1.00  0.00     0.002 C 
ENDROOT
BRANCH   1   2
ATOM      2  C   UNL A   1      39.046  22.905  26.464  1.00  0.00     0.021 C 
BRANCH   2   3
ATOM      3  C   UNL A   1      38.118  21.913  25.752  1.00  0.00     0.116 C 
BRANCH   3   4
ATOM      4  N   UNL A   1      37.644  22.442  24.480  1.00  0.00    -0.356 N 
ATOM      5  C   UNL A   1      36.409  22.888  24.096  1.00  0.00     0.228 C 
ATOM      6  O   UNL A   1      36.257  23.196  22.912  1.00  0.00    -0.275 OA
ATOM      7  H   UNL A   1      38.331  22.486  23.776  1.00  0.00     0.163 HD
BRANCH   5   8
ATOM      8  C   UNL A   1      35.267  22.995  25.113  1.00  0.00     0.133 C 
ATOM      9  C   UNL A   1      34.711  24.431  25.076  1.00  0.00     0.024 C 
BRANCH   8  10
ATOM     10  C   UNL A   1      34.102  21.978  24.886  1.00  0.00     0.191 C 
ATOM     11  C   UNL A   1      34.579  20.537  24.757  1.00  0.00     0.076 C 
BRANCH  10  12
ATOM     12  N   UNL A   1      33.064  22.199  25.922  1.00  0.00    -0.340 N 
ATOM     13  H   UNL A   1      33.222  23.127  26.314  1.00  0.00     0.346 HD
ATOM     14  H   UNL A   1      33.180  21.413  26.562  1.00  0.00     0.346 HD
BRANCH  12  15
ATOM     15  C   UNL A   1      31.653  22.132  25.524  1.00  0.00     0.297 C 
BRANCH  15  16
ATOM     16  C   UNL A   1      31.057  23.482  25.164  1.00  0.00     0.009 A 
ATOM     17  C   UNL A   1      30.453  24.281  26.154  1.00  0.00     0.013 A 
ATOM     18  C   UNL A   1      31.169  23.995  23.861  1.00  0.00     0.052 A 
ATOM     19  C   UNL A   1      30.077  25.598  25.876  1.00  0.00     0.043 A 
ATOM     20  C   UNL A   1      30.790  25.309  23.593  1.00  0.00     0.159 A 
ATOM     21  C   UNL A   1      30.269  26.112  24.600  1.00  0.00     0.158 A 
ATOM     22  F   UNL A   1      30.978  25.804  22.363  1.00  0.00    -0.204 F 
ATOM     23  F   UNL A   1      29.973  27.395  24.356  1.00  0.00    -0.204 F 
ENDBRANCH  15  16
ENDBRANCH  12  15
ENDBRANCH  10  12
ENDBRANCH   8  10
ENDBRANCH   5   8
ENDBRANCH   3   4
ENDBRANCH   2   3
ENDBRANCH   1   2
BRANCH   1  24
ATOM     24  C   UNL A   1      41.380  21.812  26.367  1.00  0.00     0.002 C 
BRANCH  24  25
ATOM     25  C   UNL A   1      42.771  22.036  26.969  1.00  0.00     0.021 C 
BRANCH  25  26
ATOM     26  C   UNL A   1      43.254  23.487  26.965  1.00  0.00     0.116 C 
BRANCH  26  27
ATOM     27  N   UNL A   1      42.638  24.264  25.900  1.00  0.00    -0.352 N 
ATOM     28  C   UNL A   1      41.890  25.413  25.985  1.00  0.00     0.251 C 
ATOM     29  H   UNL A   1      42.776  23.918  24.989  1.00  0.00     0.163 HD
ATOM     30  O   UNL A   1      41.248  25.805  25.011  1.00  0.00    -0.269 OA
BRANCH  28  31
ATOM     31  C   UNL A   1      41.842  26.166  27.255  1.00  0.00     0.039 A 
ATOM     32  C   UNL A   1      42.809  27.143  27.503  1.00  0.00     0.014 A 
ATOM     33  C   UNL A   1      40.837  25.915  28.194  1.00  0.00     0.014 A 
ATOM     34  C   UNL A   1      42.718  27.929  28.654  1.00  0.00     0.010 A 
ATOM     35  C   UNL A   1      40.711  26.741  29.310  1.00  0.00     0.010 A 
ATOM     36  C   UNL A   1      41.641  27.766  29.543  1.00  0.00    -0.014 A 
BRANCH  36  37
ATOM     37  C   UNL A   1      41.433  28.705  30.677  1.00  0.00     0.031 A 
ATOM     38  C   UNL A   1      42.234  28.567  31.943  1.00  0.00     0.074 A 
ATOM     39  C   UNL A   1      40.459  29.634  30.588  1.00  0.00     0.049 A 
ATOM     40  N   UNL A   1      42.137  29.254  33.053  1.00  0.00    -0.248 NA
ATOM     41  C   UNL A   1      43.261  27.514  31.979  1.00  0.00     0.031 C 
ATOM     42  C   UNL A   1      39.583  29.834  29.429  1.00  0.00     0.029 A 
ATOM     43  N   UNL A   1      40.026  30.575  31.490  1.00  0.00    -0.354 N 
ATOM     44  C   UNL A   1      43.072  28.707  33.923  1.00  0.00     0.074 A 
ATOM     45  C   UNL A   1      43.711  27.614  33.223  1.00  0.00     0.031 C 
ATOM     46  C   UNL A   1      38.731  30.839  29.687  1.00  0.00     0.029 A 
ATOM     47  C   UNL A   1      38.962  31.323  31.043  1.00  0.00     0.049 A 
ATOM     48  H   UNL A   1      40.440  30.701  32.375  1.00  0.00     0.167 HD
ATOM     49  C   UNL A   1      43.375  29.089  35.186  1.00  0.00     0.031 A 
ATOM     50  C   UNL A   1      38.234  32.274  31.660  1.00  0.00     0.031 A 
ATOM     51  C   UNL A   1      42.746  30.188  35.871  1.00  0.00     0.049 A 
ATOM     52  C   UNL A   1      38.582  32.660  33.073  1.00  0.00     0.074 A 
ATOM     53  C   UNL A   1      43.051  30.705  37.119  1.00  0.00     0.029 A 
ATOM     54  N   UNL A   1      41.681  30.927  35.381  1.00  0.00    -0.354 N 
ATOM     55  N   UNL A   1      39.549  32.206  33.835  1.00  0.00    -0.248 NA
ATOM     56  C   UNL A   1      37.746  33.687  33.709  1.00  0.00     0.031 C 
ATOM     57  C   UNL A   1      42.121  31.707  37.414  1.00  0.00     0.029 A 
ATOM     58  C   UNL A   1      41.282  31.862  36.322  1.00  0.00     0.049 A 
ATOM     59  H   UNL A   1      41.269  30.806  34.494  1.00  0.00     0.167 HD
ATOM     60  C   UNL A   1      39.444  32.903  35.033  1.00  0.00     0.074 A 
ATOM     61  C   UNL A   1      38.343  33.832  34.884  1.00  0.00     0.031 C 
ATOM     62  C   UNL A   1      40.185  32.780  36.161  1.00  0.00     0.031 A 
BRANCH  49  63
ATOM     63  C   UNL A   1      44.428  28.316  35.936  1.00  0.00    -0.014 A 
ATOM     64  C   UNL A   1      44.102  27.169  36.679  1.00  0.00     0.010 A 
ATOM     65  C   UNL A   1      45.783  28.677  35.793  1.00  0.00     0.010 A 
ATOM     66  C   UNL A   1      45.108  26.399  37.270  1.00  0.00     0.020 A 
ATOM     67  C   UNL A   1      46.792  27.896  36.361  1.00  0.00     0.020 A 
ATOM     68  C   UNL A   1      46.448  26.763  37.100  1.00  0.00     0.054 A 
BRANCH  68  69
ATOM     69  S   UNL A   1      47.733  25.697  37.809  1.00  0.00     0.124 S 
ATOM     70  O   UNL A   1      46.953  24.556  38.282  1.00  0.00    -0.237 OA
ATOM     71  O   UNL A   1      48.598  25.434  36.662  1.00  0.00    -0.237 OA
ATOM     72  O   UNL A   1      48.329  26.520  38.859  1.00  0.00    -0.744 OA
ENDBRANCH  68  69
ENDBRANCH  49  63
BRANCH  50  73
ATOM     73  C   UNL A   1      37.072  32.904  30.969  1.00  0.00    -0.014 A 
ATOM     74  C   UNL A   1      35.754  32.611  31.361  1.00  0.00     0.010 A 
ATOM     75  C   UNL A   1      37.282  33.775  29.885  1.00  0.00     0.010 A 
ATOM     76  C   UNL A   1      34.670  33.141  30.654  1.00  0.00     0.020 A 
ATOM     77  C   UNL A   1      36.202  34.336  29.198  1.00  0.00     0.020 A 
ATOM     78  C   UNL A   1      34.902  33.997  29.574  1.00  0.00     0.054 A 
BRANCH  78  79
ATOM     79  S   UNL A   1      33.483  34.678  28.673  1.00  0.00     0.124 S 
ATOM     80  O   UNL A   1      34.052  35.879  28.071  1.00  0.00    -0.237 OA
ATOM     81  O   UNL A   1      33.151  33.599  27.745  1.00  0.00    -0.237 OA
ATOM     82  O   UNL A   1      32.492  34.912  29.722  1.00  0.00    -0.744 OA
ENDBRANCH  78  79
ENDBRANCH  50  73
BRANCH  62  83
ATOM     83  C   UNL A   1      39.843  33.676  37.320  1.00  0.00    -0.014 A 
ATOM     84  C   UNL A   1      38.871  33.299  38.264  1.00  0.00     0.010 A 
ATOM     85  C   UNL A   1      40.548  34.879  37.507  1.00  0.00     0.010 A 
ATOM     86  C   UNL A   1      38.593  34.120  39.359  1.00  0.00     0.020 A 
ATOM     87  C   UNL A   1      40.296  35.687  38.617  1.00  0.00     0.020 A 
ATOM     88  C   UNL A   1      39.311  35.307  39.531  1.00  0.00     0.054 A 
BRANCH  88  89
ATOM     89  S   UNL A   1      38.971  36.325  40.995  1.00  0.00     0.124 S 
ATOM     90  O   UNL A   1      38.563  37.592  40.396  1.00  0.00    -0.237 OA
ATOM     91  O   UNL A   1      37.910  35.575  41.664  1.00  0.00    -0.237 OA
ATOM     92  O   UNL A   1      40.248  36.353  41.703  1.00  0.00    -0.744 OA
ENDBRANCH  88  89
ENDBRANCH  62  83
ENDBRANCH  36  37
ENDBRANCH  28  31
ENDBRANCH  26  27
ENDBRANCH  25  26
ENDBRANCH  24  25
ENDBRANCH   1  24
TORSDOF 20
ENDMDL
MODEL 2
REMARK VINA RESULT:     -10.1      1.964      2.658
REMARK SMILES C[C@H](C(=O)NCCCCCCNC(=O)c1ccc(-c2c3nc(c(-c4ccc(S(=O)(=O)[O-])cc4)c4ccc([nH]4)c(-c4ccc(S(=O)(=O)[O-])cc4)c4nc(c(-c5ccc(S(=O)(=O)[O-])cc5)c5ccc2[nH]5)C=C4)C=C3)cc1)[C@@H](C)[NH2+]Cc1ccc(F)c(F)c1
REMARK SMILES IDX 8 1 7 2 6 3 5 4 3 5 4 6 2 8 1 9 75 10 76 11 77 12 78 15
REMARK SMILES IDX 79 16 80 17 86 18 81 19 84 20 82 21 85 22 83 23 9 24 10 25
REMARK SMILES IDX 11 26 12 27 13 28 14 30 15 31 16 32 74 33 17 34 73 35 18 36
REMARK SMILES IDX 19 37 20 38 67 39 21 40 72 41 66 42 68 43 22 44 71 45 65 46
REMARK SMILES IDX 64 47 23 49 53 50 34 51 52 52 35 53 38 54 51 55 69 56 36 57
REMARK SMILES IDX 37 58 50 60 70 61 39 62 24 63 25 64 33 65 26 66 32 67 27 68
REMARK SMILES IDX 28 69 29 70 30 71 31 72 54 73 55 74 63 75 56 76 62 77 57 78
REMARK SMILES IDX 58 79 59 80 60 81 61 82 40 83 41 84 49 85 42 86 48 87 43 88
REMARK SMILES IDX 44 89 45 90 46 91 47 92
REMARK H PARENT 5 7 77 13 77 14 12 29 68 48 38 59
REMARK Flexibility Score: inf
ROOT
ATOM      1  C   UNL A   1      40.059  22.242  27.066  1.00  0.00     0.002 C 
ENDROOT
BRANCH   1   2
ATOM      2  C   UNL A   1      38.978  22.978  26.274  1.00  0.00     0.021 C 
BRANCH   2   3
ATOM      3  C   UNL A   1      37.958  22.080  25.564  1.00  0.00     0.116 C 
BRANCH   3   4
ATOM      4  N   UNL A   1      37.298  22.781  24.470  1.00  0.00    -0.356 N 
ATOM      5  C   UNL A   1      36.116  23.467  24.426  1.00  0.00     0.228 C 
ATOM      6  O   UNL A   1      35.741  23.888  23.329  1.00  0.00    -0.275 OA
ATOM      7  H   UNL A   1      37.788  22.756  23.617  1.00  0.00     0.163 HD
BRANCH   5   8
ATOM      8  C   UNL A   1      35.297  23.697  25.702  1.00  0.00     0.133 C 
ATOM      9  C   UNL A   1      34.351  24.890  25.469  1.00  0.00     0.024 C 
BRANCH   8  10
ATOM     10  C   UNL A   1      34.470  22.457  26.171  1.00  0.00     0.191 C 
ATOM     11  C   UNL A   1      34.263  22.409  27.680  1.00  0.00     0.076 C 
BRANCH  10  12
ATOM     12  N   UNL A   1      33.225  22.380  25.369  1.00  0.00    -0.340 N 
ATOM     13  H   UNL A   1      32.890  23.335  25.240  1.00  0.00     0.346 HD
ATOM     14  H   UNL A   1      32.620  21.760  25.908  1.00  0.00     0.346 HD
BRANCH  12  15
ATOM     15  C   UNL A   1      33.284  21.759  24.041  1.00  0.00     0.297 C 
BRANCH  15  16
ATOM     16  C   UNL A   1      33.332  20.242  24.080  1.00  0.00     0.009 A 
ATOM     17  C   UNL A   1      32.258  19.482  23.577  1.00  0.00     0.013 A 
ATOM     18  C   UNL A   1      34.477  19.567  24.539  1.00  0.00     0.052 A 
ATOM     19  C   UNL A   1      32.371  18.097  23.431  1.00  0.00     0.043 A 
ATOM     20  C   UNL A   1      34.580  18.186  24.391  1.00  0.00     0.159 A 
ATOM     21  C   UNL A   1      33.543  17.459  23.819  1.00  0.00     0.158 A 
ATOM     22  F   UNL A   1      35.710  17.573  24.763  1.00  0.00    -0.204 F 
ATOM     23  F   UNL A   1      33.675  16.142  23.613  1.00  0.00    -0.204 F 
ENDBRANCH  15  16
ENDBRANCH  12  15
ENDBRANCH  10  12
ENDBRANCH   8  10
ENDBRANCH   5   8
ENDBRANCH   3   4
ENDBRANCH   2   3
ENDBRANCH   1   2
BRANCH   1  24
ATOM     24  C   UNL A   1      41.252  21.761  26.240  1.00  0.00     0.002 C 
BRANCH  24  25
ATOM     25  C   UNL A   1      42.623  21.951  26.895  1.00  0.00     0.021 C 
BRANCH  25  26
ATOM     26  C   UNL A   1      43.103  23.400  26.990  1.00  0.00     0.116 C 
BRANCH  26  27
ATOM     27  N   UNL A   1      42.573  24.221  25.911  1.00  0.00    -0.352 N 
ATOM     28  C   UNL A   1      41.887  25.409  25.981  1.00  0.00     0.251 C 
ATOM     29  H   UNL A   1      42.728  23.876  25.002  1.00  0.00     0.163 HD
ATOM     30  O   UNL A   1      41.308  25.845  24.987  1.00  0.00    -0.269 OA
BRANCH  28  31
ATOM     31  C   UNL A   1      41.831  26.150  27.257  1.00  0.00     0.039 A 
ATOM     32  C   UNL A   1      42.804  27.115  27.526  1.00  0.00     0.014 A 
ATOM     33  C   UNL A   1      40.811  25.902  28.181  1.00  0.00     0.014 A 
ATOM     34  C   UNL A   1      42.707  27.891  28.684  1.00  0.00     0.010 A 
ATOM     35  C   UNL A   1      40.680  26.718  29.302  1.00  0.00     0.010 A 
ATOM     36  C   UNL A   1      41.617  27.731  29.557  1.00  0.00    -0.014 A 
BRANCH  36  37
ATOM     37  C   UNL A   1      41.404  28.662  30.697  1.00  0.00     0.031 A 
ATOM     38  C   UNL A   1      42.205  28.520  31.962  1.00  0.00     0.074 A 
ATOM     39  C   UNL A   1      40.425  29.587  30.614  1.00  0.00     0.049 A 
ATOM     40  N   UNL A   1      42.105  29.199  33.077  1.00  0.00    -0.248 NA
ATOM     41  C   UNL A   1      43.238  27.472  31.991  1.00  0.00     0.031 C 
ATOM     42  C   UNL A   1      39.548  29.790  29.456  1.00  0.00     0.029 A 
ATOM     43  N   UNL A   1      39.988  30.520  31.522  1.00  0.00    -0.354 N 
ATOM     44  C   UNL A   1      43.043  28.652  33.943  1.00  0.00     0.074 A 
ATOM     45  C   UNL A   1      43.687  27.566  33.236  1.00  0.00     0.031 C 
ATOM     46  C   UNL A   1      38.691  30.789  29.720  1.00  0.00     0.029 A 
ATOM     47  C   UNL A   1      38.920  31.265  31.079  1.00  0.00     0.049 A 
ATOM     48  H   UNL A   1      40.401  30.643  32.407  1.00  0.00     0.167 HD
ATOM     49  C   UNL A   1      43.343  29.027  35.209  1.00  0.00     0.031 A 
ATOM     50  C   UNL A   1      38.187  32.209  31.702  1.00  0.00     0.031 A 
ATOM     51  C   UNL A   1      42.709  30.118  35.900  1.00  0.00     0.049 A 
ATOM     52  C   UNL A   1      38.534  32.588  33.117  1.00  0.00     0.074 A 
ATOM     53  C   UNL A   1      43.011  30.629  37.151  1.00  0.00     0.029 A 
ATOM     54  N   UNL A   1      41.640  30.855  35.415  1.00  0.00    -0.354 N 
ATOM     55  N   UNL A   1      39.502  32.134  33.877  1.00  0.00    -0.248 NA
ATOM     56  C   UNL A   1      37.692  33.607  33.760  1.00  0.00     0.031 C 
ATOM     57  C   UNL A   1      42.077  31.625  37.453  1.00  0.00     0.029 A 
ATOM     58  C   UNL A   1      41.237  31.782  36.362  1.00  0.00     0.049 A 
ATOM     59  H   UNL A   1      41.229  30.738  34.527  1.00  0.00     0.167 HD
ATOM     60  C   UNL A   1      39.394  32.823  35.079  1.00  0.00     0.074 A 
ATOM     61  C   UNL A   1      38.288  33.747  34.936  1.00  0.00     0.031 C 
ATOM     62  C   UNL A   1      40.135  32.696  36.206  1.00  0.00     0.031 A 
BRANCH  49  63
ATOM     63  C   UNL A   1      44.400  28.255  35.954  1.00  0.00    -0.014 A 
ATOM     64  C   UNL A   1      45.755  28.625  35.892  1.00  0.00     0.010 A 
ATOM     65  C   UNL A   1      44.014  27.218  36.825  1.00  0.00     0.010 A 
ATOM     66  C   UNL A   1      46.704  27.970  36.681  1.00  0.00     0.020 A 
ATOM     67  C   UNL A   1      44.956  26.578  37.635  1.00  0.00     0.020 A 
ATOM     68  C   UNL A   1      46.297  26.956  37.555  1.00  0.00     0.054 A 
BRANCH  68  69
ATOM     69  S   UNL A   1      47.540  26.183  38.627  1.00  0.00     0.124 S 
ATOM     70  O   UNL A   1      46.895  24.920  38.976  1.00  0.00    -0.237 OA
ATOM     71  O   UNL A   1      48.698  26.074  37.744  1.00  0.00    -0.237 OA
ATOM     72  O   UNL A   1      47.687  27.131  39.729  1.00  0.00    -0.744 OA
ENDBRANCH  68  69
ENDBRANCH  49  63
BRANCH  50  73
ATOM     73  C   UNL A   1      37.022  32.837  31.015  1.00  0.00    -0.014 A 
ATOM     74  C   UNL A   1      35.711  32.401  31.272  1.00  0.00     0.010 A 
ATOM     75  C   UNL A   1      37.227  33.856  30.066  1.00  0.00     0.010 A 
ATOM     76  C   UNL A   1      34.633  32.939  30.563  1.00  0.00     0.020 A 
ATOM     77  C   UNL A   1      36.149  34.422  29.380  1.00  0.00     0.020 A 
ATOM     78  C   UNL A   1      34.860  33.943  29.618  1.00  0.00     0.054 A 
BRANCH  78  79
ATOM     79  S   UNL A   1      33.448  34.630  28.711  1.00  0.00     0.124 S 
ATOM     80  O   UNL A   1      32.481  34.857  29.780  1.00  0.00    -0.237 OA
ATOM     81  O   UNL A   1      34.016  35.832  28.104  1.00  0.00    -0.237 OA
ATOM     82  O   UNL A   1      33.100  33.570  27.766  1.00  0.00    -0.744 OA
ENDBRANCH  78  79
ENDBRANCH  50  73
BRANCH  62  83
ATOM     83  C   UNL A   1      39.789  33.583  37.371  1.00  0.00    -0.014 A 
ATOM     84  C   UNL A   1      38.996  33.108  38.432  1.00  0.00     0.010 A 
ATOM     85  C   UNL A   1      40.316  34.885  37.441  1.00  0.00     0.010 A 
ATOM     86  C   UNL A   1      38.716  33.927  39.527  1.00  0.00     0.020 A 
ATOM     87  C   UNL A   1      40.066  35.697  38.549  1.00  0.00     0.020 A 
ATOM     88  C   UNL A   1      39.258  35.216  39.582  1.00  0.00     0.054 A 
BRANCH  88  89
ATOM     89  S   UNL A   1      38.927  36.237  41.044  1.00  0.00     0.124 S 
ATOM     90  O   UNL A   1      38.674  37.546  40.451  1.00  0.00    -0.237 OA
ATOM     91  O   UNL A   1      37.765  35.578  41.636  1.00  0.00    -0.237 OA
ATOM     92  O   UNL A   1      40.158  36.135  41.825  1.00  0.00    -0.744 OA
ENDBRANCH  88  89
ENDBRANCH  62  83
ENDBRANCH  36  37
ENDBRANCH  28  31
ENDBRANCH  26  27
ENDBRANCH  25  26
ENDBRANCH  24  25
ENDBRANCH   1  24
TORSDOF 20
ENDMDL
MODEL 3
REMARK VINA RESULT:      -9.7      6.383     11.075
REMARK SMILES C[C@H](C(=O)NCCCCCCNC(=O)c1ccc(-c2c3nc(c(-c4ccc(S(=O)(=O)[O-])cc4)c4ccc([nH]4)c(-c4ccc(S(=O)(=O)[O-])cc4)c4nc(c(-c5ccc(S(=O)(=O)[O-])cc5)c5ccc2[nH]5)C=C4)C=C3)cc1)[C@@H](C)[NH2+]Cc1ccc(F)c(F)c1
REMARK SMILES IDX 8 1 7 2 6 3 5 4 3 5 4 6 2 8 1 9 75 10 76 11 77 12 78 15
REMARK SMILES IDX 79 16 80 17 86 18 81 19 84 20 82 21 85 22 83 23 9 24 10 25
REMARK SMILES IDX 11 26 12 27 13 28 14 30 15 31 16 32 74 33 17 34 73 35 18 36
REMARK SMILES IDX 19 37 20 38 67 39 21 40 72 41 66 42 68 43 22 44 71 45 65 46
REMARK SMILES IDX 64 47 23 49 53 50 34 51 52 52 35 53 38 54 51 55 69 56 36 57
REMARK SMILES IDX 37 58 50 60 70 61 39 62 24 63 25 64 33 65 26 66 32 67 27 68
REMARK SMILES IDX 28 69 29 70 30 71 31 72 54 73 55 74 63 75 56 76 62 77 57 78
REMARK SMILES IDX 58 79 59 80 60 81 61 82 40 83 41 84 49 85 42 86 48 87 43 88
REMARK SMILES IDX 44 89 45 90 46 91 47 92
REMARK H PARENT 5 7 77 13 77 14 12 29 68 48 38 59
REMARK Flexibility Score: inf
ROOT
ATOM      1  C   UNL A   1      37.444  23.288  25.295  1.00  0.00     0.002 C 
ENDROOT
BRANCH   1   2
ATOM      2  C   UNL A   1      36.312  23.804  26.182  1.00  0.00     0.021 C 
BRANCH   2   3
ATOM      3  C   UNL A   1      34.926  23.837  25.528  1.00  0.00     0.116 C 
BRANCH   3   4
ATOM      4  N   UNL A   1      33.900  23.314  26.420  1.00  0.00    -0.356 N 
ATOM      5  C   UNL A   1      32.639  23.764  26.702  1.00  0.00     0.228 C 
ATOM      6  O   UNL A   1      32.008  23.177  27.584  1.00  0.00    -0.275 OA
ATOM      7  H   UNL A   1      34.158  22.496  26.903  1.00  0.00     0.163 HD
BRANCH   5   8
ATOM      8  C   UNL A   1      32.047  24.956  25.941  1.00  0.00     0.133 C 
ATOM      9  C   UNL A   1      33.092  26.088  25.915  1.00  0.00     0.024 C 
BRANCH   8  10
ATOM     10  C   UNL A   1      31.593  24.631  24.482  1.00  0.00     0.191 C 
ATOM     11  C   UNL A   1      32.475  25.273  23.420  1.00  0.00     0.076 C 
BRANCH  10  12
ATOM     12  N   UNL A   1      31.426  23.163  24.348  1.00  0.00    -0.340 N 
ATOM     13  H   UNL A   1      30.434  22.960  24.470  1.00  0.00     0.346 HD
ATOM     14  H   UNL A   1      32.054  22.775  25.053  1.00  0.00     0.346 HD
BRANCH  12  15
ATOM     15  C   UNL A   1      31.849  22.521  23.099  1.00  0.00     0.297 C 
BRANCH  15  16
ATOM     16  C   UNL A   1      32.382  21.112  23.289  1.00  0.00     0.009 A 
ATOM     17  C   UNL A   1      33.159  20.790  24.418  1.00  0.00     0.013 A 
ATOM     18  C   UNL A   1      32.043  20.085  22.391  1.00  0.00     0.052 A 
ATOM     19  C   UNL A   1      33.490  19.462  24.702  1.00  0.00     0.043 A 
ATOM     20  C   UNL A   1      32.379  18.765  22.681  1.00  0.00     0.159 A 
ATOM     21  C   UNL A   1      33.078  18.453  23.841  1.00  0.00     0.158 A 
ATOM     22  F   UNL A   1      31.978  17.792  21.852  1.00  0.00    -0.204 F 
ATOM     23  F   UNL A   1      33.336  17.177  24.153  1.00  0.00    -0.204 F 
ENDBRANCH  15  16
ENDBRANCH  12  15
ENDBRANCH  10  12
ENDBRANCH   8  10
ENDBRANCH   5   8
ENDBRANCH   3   4
ENDBRANCH   2   3
ENDBRANCH   1   2
BRANCH   1  24
ATOM     24  C   UNL A   1      37.132  22.001  24.532  1.00  0.00     0.002 C 
BRANCH  24  25
ATOM     25  C   UNL A   1      37.879  20.754  25.016  1.00  0.00     0.021 C 
BRANCH  25  26
ATOM     26  C   UNL A   1      39.141  21.029  25.834  1.00  0.00     0.116 C 
BRANCH  26  27
ATOM     27  N   UNL A   1      39.968  19.840  25.977  1.00  0.00    -0.352 N 
ATOM     28  C   UNL A   1      41.328  19.743  26.142  1.00  0.00     0.251 C 
ATOM     29  H   UNL A   1      39.484  18.983  25.952  1.00  0.00     0.163 HD
ATOM     30  O   UNL A   1      41.889  18.657  26.008  1.00  0.00    -0.269 OA
BRANCH  28  31
ATOM     31  C   UNL A   1      42.116  20.950  26.461  1.00  0.00     0.039 A 
ATOM     32  C   UNL A   1      42.632  21.721  25.417  1.00  0.00     0.014 A 
ATOM     33  C   UNL A   1      42.335  21.327  27.790  1.00  0.00     0.014 A 
ATOM     34  C   UNL A   1      43.296  22.917  25.703  1.00  0.00     0.010 A 
ATOM     35  C   UNL A   1      42.940  22.551  28.071  1.00  0.00     0.010 A 
ATOM     36  C   UNL A   1      43.412  23.365  27.031  1.00  0.00    -0.014 A 
BRANCH  36  37
ATOM     37  C   UNL A   1      43.958  24.713  27.340  1.00  0.00     0.031 A 
ATOM     38  C   UNL A   1      43.041  25.841  27.728  1.00  0.00     0.074 A 
ATOM     39  C   UNL A   1      45.280  24.935  27.188  1.00  0.00     0.049 A 
ATOM     40  N   UNL A   1      43.338  27.094  27.965  1.00  0.00    -0.248 NA
ATOM     41  C   UNL A   1      41.607  25.532  27.849  1.00  0.00     0.031 C 
ATOM     42  C   UNL A   1      46.265  23.933  26.769  1.00  0.00     0.029 A 
ATOM     43  N   UNL A   1      46.026  26.077  27.351  1.00  0.00    -0.354 N 
ATOM     44  C   UNL A   1      42.131  27.725  28.243  1.00  0.00     0.074 A 
ATOM     45  C   UNL A   1      41.093  26.725  28.119  1.00  0.00     0.031 C 
ATOM     46  C   UNL A   1      47.481  24.499  26.721  1.00  0.00     0.029 A 
ATOM     47  C   UNL A   1      47.360  25.913  27.056  1.00  0.00     0.049 A 
ATOM     48  H   UNL A   1      45.642  26.932  27.651  1.00  0.00     0.167 HD
ATOM     49  C   UNL A   1      41.913  29.018  28.577  1.00  0.00     0.031 A 
ATOM     50  C   UNL A   1      48.371  26.804  27.029  1.00  0.00     0.031 A 
ATOM     51  C   UNL A   1      42.953  30.005  28.713  1.00  0.00     0.049 A 
ATOM     52  C   UNL A   1      48.090  28.240  27.385  1.00  0.00     0.074 A 
ATOM     53  C   UNL A   1      42.836  31.318  29.137  1.00  0.00     0.029 A 
ATOM     54  N   UNL A   1      44.290  29.798  28.416  1.00  0.00    -0.354 N 
ATOM     55  N   UNL A   1      46.958  28.789  27.756  1.00  0.00    -0.248 NA
ATOM     56  C   UNL A   1      49.221  29.176  27.322  1.00  0.00     0.031 C 
ATOM     57  C   UNL A   1      44.089  31.926  29.023  1.00  0.00     0.029 A 
ATOM     58  C   UNL A   1      45.001  30.974  28.597  1.00  0.00     0.049 A 
ATOM     59  H   UNL A   1      44.678  28.942  28.121  1.00  0.00     0.167 HD
ATOM     60  C   UNL A   1      47.246  30.129  27.985  1.00  0.00     0.074 A 
ATOM     61  C   UNL A   1      48.663  30.302  27.742  1.00  0.00     0.031 C 
ATOM     62  C   UNL A   1      46.411  31.131  28.352  1.00  0.00     0.031 A 
BRANCH  49  63
ATOM     63  C   UNL A   1      40.495  29.468  28.816  1.00  0.00    -0.014 A 
ATOM     64  C   UNL A   1      39.556  29.507  27.770  1.00  0.00     0.010 A 
ATOM     65  C   UNL A   1      40.067  29.737  30.131  1.00  0.00     0.010 A 
ATOM     66  C   UNL A   1      38.218  29.813  28.033  1.00  0.00     0.020 A 
ATOM     67  C   UNL A   1      38.726  30.019  30.400  1.00  0.00     0.020 A 
ATOM     68  C   UNL A   1      37.809  30.059  29.349  1.00  0.00     0.054 A 
BRANCH  68  69
ATOM     69  S   UNL A   1      36.051  30.371  29.667  1.00  0.00     0.124 S 
ATOM     70  O   UNL A   1      35.995  31.830  29.655  1.00  0.00    -0.237 OA
ATOM     71  O   UNL A   1      35.400  29.709  28.540  1.00  0.00    -0.237 OA
ATOM     72  O   UNL A   1      35.817  29.750  30.969  1.00  0.00    -0.744 OA
ENDBRANCH  68  69
ENDBRANCH  49  63
BRANCH  50  73
ATOM     73  C   UNL A   1      49.739  26.383  26.611  1.00  0.00    -0.014 A 
ATOM     74  C   UNL A   1      50.128  26.433  25.261  1.00  0.00     0.010 A 
ATOM     75  C   UNL A   1      50.649  25.890  27.564  1.00  0.00     0.010 A 
ATOM     76  C   UNL A   1      51.383  25.958  24.867  1.00  0.00     0.020 A 
ATOM     77  C   UNL A   1      51.918  25.449  27.180  1.00  0.00     0.020 A 
ATOM     78  C   UNL A   1      52.268  25.465  25.830  1.00  0.00     0.054 A 
BRANCH  78  79
ATOM     79  S   UNL A   1      53.893  24.857  25.298  1.00  0.00     0.124 S 
ATOM     80  O   UNL A   1      54.719  25.139  26.468  1.00  0.00    -0.237 OA
ATOM     81  O   UNL A   1      53.630  23.445  25.032  1.00  0.00    -0.237 OA
ATOM     82  O   UNL A   1      54.188  25.662  24.114  1.00  0.00    -0.744 OA
ENDBRANCH  78  79
ENDBRANCH  50  73
BRANCH  62  83
ATOM     83  C   UNL A   1      47.004  32.503  28.527  1.00  0.00    -0.014 A 
ATOM     84  C   UNL A   1      47.557  32.901  29.758  1.00  0.00     0.010 A 
ATOM     85  C   UNL A   1      47.071  33.382  27.431  1.00  0.00     0.010 A 
ATOM     86  C   UNL A   1      48.142  34.161  29.897  1.00  0.00     0.020 A 
ATOM     87  C   UNL A   1      47.684  34.631  27.556  1.00  0.00     0.020 A 
ATOM     88  C   UNL A   1      48.207  35.016  28.792  1.00  0.00     0.054 A 
BRANCH  88  89
ATOM     89  S   UNL A   1      49.027  36.624  28.985  1.00  0.00     0.124 S 
ATOM     90  O   UNL A   1      50.170  36.492  28.087  1.00  0.00    -0.237 OA
ATOM     91  O   UNL A   1      47.992  37.562  28.554  1.00  0.00    -0.237 OA
ATOM     92  O   UNL A   1      49.355  36.678  30.408  1.00  0.00    -0.744 OA
ENDBRANCH  88  89
ENDBRANCH  62  83
ENDBRANCH  36  37
ENDBRANCH  28  31
ENDBRANCH  26  27
ENDBRANCH  25  26
ENDBRANCH  24  25
ENDBRANCH   1  24
TORSDOF 20
ENDMDL
