MODEL 1
REMARK VINA RESULT:      -8.9      0.000      0.000
REMARK SMILES CCOc1ccc(Br)cc1/C=C/C(=O)NCCC(=O)NCCCCCCNC(=O)c1ccc(-c2c3nc(c(-c4ccc(S(=O)(=O)[O-])cc4)c4ccc([nH]4)c(-c4ccc(S(=O)(=O)[O-])cc4)c4nc(c(-c5ccc(S(=O)(=O)[O-])cc5)c5ccc2[nH]5)C=C4)C=C3)cc1
REMARK SMILES IDX 22 1 21 2 20 3 18 4 19 5 17 7 16 8 15 9 13 10 14 11 12 13
REMARK SMILES IDX 11 14 10 15 4 16 5 17 6 18 9 19 7 20 8 21 3 22 2 23 1 24
REMARK SMILES IDX 23 25 24 26 25 27 26 28 27 29 28 30 29 32 30 33 31 34 89 35
REMARK SMILES IDX 32 36 88 37 33 38 34 39 35 40 82 41 36 42 87 43 81 44 83 45
REMARK SMILES IDX 37 46 86 47 80 48 79 49 38 51 68 52 49 53 67 54 50 55 53 56
REMARK SMILES IDX 66 57 84 58 51 59 52 60 65 62 85 63 54 64 39 65 40 66 48 67
REMARK SMILES IDX 41 68 47 69 42 70 43 71 44 72 45 73 46 74 69 75 70 76 78 77
REMARK SMILES IDX 71 78 77 79 72 80 73 81 74 82 75 83 76 84 55 85 56 86 64 87
REMARK SMILES IDX 57 88 63 89 58 90 59 91 60 92 61 93 62 94
REMARK H PARENT 20 6 15 12 27 31 83 50 53 61
REMARK Flexibility Score: inf
ROOT
ATOM      1  C   UNL A   1      35.752  24.094  25.195  1.00  0.00     0.021 C 
ENDROOT
BRANCH   1   2
ATOM      2  C   UNL A   1      36.359  22.973  26.041  1.00  0.00     0.116 C 
BRANCH   2   3
ATOM      3  N   UNL A   1      36.278  21.701  25.346  1.00  0.00    -0.356 N 
ATOM      4  C   UNL A   1      35.258  20.800  25.309  1.00  0.00     0.221 C 
ATOM      5  O   UNL A   1      35.435  19.734  24.715  1.00  0.00    -0.275 OA
ATOM      6  H   UNL A   1      37.076  21.454  24.827  1.00  0.00     0.163 HD
BRANCH   4   7
ATOM      7  C   UNL A   1      33.938  21.095  25.993  1.00  0.00     0.121 C 
BRANCH   7   8
ATOM      8  C   UNL A   1      32.803  20.255  25.415  1.00  0.00     0.126 C 
BRANCH   8   9
ATOM      9  N   UNL A   1      32.694  20.377  23.971  1.00  0.00    -0.352 N 
ATOM     10  C   UNL A   1      32.240  21.322  23.117  1.00  0.00     0.244 C 
ATOM     11  O   UNL A   1      32.044  20.978  21.950  1.00  0.00    -0.270 OA
ATOM     12  H   UNL A   1      33.032  19.580  23.501  1.00  0.00     0.163 HD
BRANCH  10  13
ATOM     13  C   UNL A   1      32.054  22.752  23.457  1.00  0.00     0.072 C 
ATOM     14  C   UNL A   1      31.487  23.733  22.745  1.00  0.00     0.017 C 
BRANCH  14  15
ATOM     15  C   UNL A   1      31.098  25.060  23.272  1.00  0.00     0.018 A 
ATOM     16  C   UNL A   1      30.479  25.144  24.538  1.00  0.00     0.126 A 
ATOM     17  C   UNL A   1      30.200  26.381  25.127  1.00  0.00     0.048 A 
ATOM     18  C   UNL A   1      30.498  27.558  24.448  1.00  0.00     0.019 A 
ATOM     19  C   UNL A   1      31.373  26.258  22.593  1.00  0.00     0.027 A 
ATOM     20  C   UNL A   1      31.082  27.492  23.186  1.00  0.00     0.018 A 
ATOM     21  Br  UNL A   1      31.537  29.095  22.292  1.00  0.00    -0.051 Br
BRANCH  16  22
ATOM     22  O   UNL A   1      30.290  24.014  25.296  1.00  0.00    -0.493 OA
BRANCH  22  23
ATOM     23  C   UNL A   1      30.998  24.060  26.541  1.00  0.00     0.226 C 
ATOM     24  C   UNL A   1      30.806  22.766  27.310  1.00  0.00     0.049 C 
ENDBRANCH  22  23
ENDBRANCH  16  22
ENDBRANCH  14  15
ENDBRANCH  10  13
ENDBRANCH   8   9
ENDBRANCH   7   8
ENDBRANCH   4   7
ENDBRANCH   2   3
ENDBRANCH   1   2
BRANCH   1  25
ATOM     25  C   UNL A   1      34.518  24.761  25.805  1.00  0.00     0.002 C 
BRANCH  25  26
ATOM     26  C   UNL A   1      34.050  26.031  25.094  1.00  0.00     0.002 C 
BRANCH  26  27
ATOM     27  C   UNL A   1      33.720  27.209  26.016  1.00  0.00     0.021 C 
BRANCH  27  28
ATOM     28  C   UNL A   1      34.597  28.442  25.818  1.00  0.00     0.116 C 
BRANCH  28  29
ATOM     29  N   UNL A   1      33.922  29.659  26.241  1.00  0.00    -0.352 N 
ATOM     30  C   UNL A   1      34.181  30.470  27.318  1.00  0.00     0.251 C 
ATOM     31  H   UNL A   1      33.172  29.943  25.671  1.00  0.00     0.163 HD
ATOM     32  O   UNL A   1      33.366  31.323  27.652  1.00  0.00    -0.269 OA
BRANCH  30  33
ATOM     33  C   UNL A   1      35.437  30.301  28.080  1.00  0.00     0.039 A 
ATOM     34  C   UNL A   1      35.428  29.518  29.236  1.00  0.00     0.014 A 
ATOM     35  C   UNL A   1      36.615  30.926  27.661  1.00  0.00     0.014 A 
ATOM     36  C   UNL A   1      36.616  29.317  29.942  1.00  0.00     0.010 A 
ATOM     37  C   UNL A   1      37.811  30.666  28.324  1.00  0.00     0.010 A 
ATOM     38  C   UNL A   1      37.823  29.865  29.475  1.00  0.00    -0.014 A 
BRANCH  38  39
ATOM     39  C   UNL A   1      39.106  29.613  30.178  1.00  0.00     0.031 A 
ATOM     40  C   UNL A   1      40.043  28.543  29.684  1.00  0.00     0.074 A 
ATOM     41  C   UNL A   1      39.402  30.309  31.295  1.00  0.00     0.049 A 
ATOM     42  N   UNL A   1      41.186  28.151  30.187  1.00  0.00    -0.248 NA
ATOM     43  C   UNL A   1      39.632  27.803  28.481  1.00  0.00     0.031 C 
ATOM     44  C   UNL A   1      38.559  31.346  31.894  1.00  0.00     0.029 A 
ATOM     45  N   UNL A   1      40.490  30.244  32.127  1.00  0.00    -0.354 N 
ATOM     46  C   UNL A   1      41.620  27.110  29.374  1.00  0.00     0.074 A 
ATOM     47  C   UNL A   1      40.595  26.898  28.376  1.00  0.00     0.031 C 
ATOM     48  C   UNL A   1      39.179  31.844  32.976  1.00  0.00     0.029 A 
ATOM     49  C   UNL A   1      40.436  31.132  33.177  1.00  0.00     0.049 A 
ATOM     50  H   UNL A   1      41.240  29.621  31.987  1.00  0.00     0.167 HD
ATOM     51  C   UNL A   1      42.777  26.407  29.440  1.00  0.00     0.031 A 
ATOM     52  C   UNL A   1      41.300  31.346  34.189  1.00  0.00     0.031 A 
ATOM     53  C   UNL A   1      43.794  26.623  30.434  1.00  0.00     0.049 A 
ATOM     54  C   UNL A   1      42.564  30.533  34.256  1.00  0.00     0.074 A 
ATOM     55  C   UNL A   1      45.024  26.001  30.555  1.00  0.00     0.029 A 
ATOM     56  N   UNL A   1      43.698  27.527  31.483  1.00  0.00    -0.354 N 
ATOM     57  N   UNL A   1      42.990  29.602  33.436  1.00  0.00    -0.248 NA
ATOM     58  C   UNL A   1      43.469  30.809  35.381  1.00  0.00     0.031 C 
ATOM     59  C   UNL A   1      45.646  26.485  31.711  1.00  0.00     0.029 A 
ATOM     60  C   UNL A   1      44.834  27.458  32.273  1.00  0.00     0.049 A 
ATOM     61  H   UNL A   1      42.934  28.127  31.641  1.00  0.00     0.167 HD
ATOM     62  C   UNL A   1      44.228  29.203  33.929  1.00  0.00     0.074 A 
ATOM     63  C   UNL A   1      44.486  30.003  35.108  1.00  0.00     0.031 C 
ATOM     64  C   UNL A   1      45.076  28.261  33.446  1.00  0.00     0.031 A 
BRANCH  51  65
ATOM     65  C   UNL A   1      42.992  25.326  28.412  1.00  0.00    -0.014 A 
ATOM     66  C   UNL A   1      42.408  24.053  28.558  1.00  0.00     0.010 A 
ATOM     67  C   UNL A   1      43.768  25.592  27.269  1.00  0.00     0.010 A 
ATOM     68  C   UNL A   1      42.640  23.053  27.609  1.00  0.00     0.020 A 
ATOM     69  C   UNL A   1      43.976  24.605  26.300  1.00  0.00     0.020 A 
ATOM     70  C   UNL A   1      43.427  23.335  26.488  1.00  0.00     0.054 A 
BRANCH  70  71
ATOM     71  S   UNL A   1      43.704  22.021  25.269  1.00  0.00     0.124 S 
ATOM     72  O   UNL A   1      43.459  22.720  24.010  1.00  0.00    -0.237 OA
ATOM     73  O   UNL A   1      45.093  21.642  25.517  1.00  0.00    -0.237 OA
ATOM     74  O   UNL A   1      42.712  21.006  25.620  1.00  0.00    -0.744 OA
ENDBRANCH  70  71
ENDBRANCH  51  65
BRANCH  52  75
ATOM     75  C   UNL A   1      41.006  32.391  35.209  1.00  0.00    -0.014 A 
ATOM     76  C   UNL A   1      40.325  32.059  36.392  1.00  0.00     0.010 A 
ATOM     77  C   UNL A   1      41.416  33.722  35.007  1.00  0.00     0.010 A 
ATOM     78  C   UNL A   1      40.042  33.040  37.347  1.00  0.00     0.020 A 
ATOM     79  C   UNL A   1      41.161  34.700  35.972  1.00  0.00     0.020 A 
ATOM     80  C   UNL A   1      40.464  34.355  37.132  1.00  0.00     0.054 A 
BRANCH  80  81
ATOM     81  S   UNL A   1      40.128  35.601  38.407  1.00  0.00     0.124 S 
ATOM     82  O   UNL A   1      38.981  35.024  39.099  1.00  0.00    -0.237 OA
ATOM     83  O   UNL A   1      41.378  35.625  39.162  1.00  0.00    -0.237 OA
ATOM     84  O   UNL A   1      39.852  36.812  37.637  1.00  0.00    -0.744 OA
ENDBRANCH  80  81
ENDBRANCH  52  75
BRANCH  64  85
ATOM     85  C   UNL A   1      46.384  28.068  34.169  1.00  0.00    -0.014 A 
ATOM     86  C   UNL A   1      46.517  27.122  35.201  1.00  0.00     0.010 A 
ATOM     87  C   UNL A   1      47.510  28.810  33.769  1.00  0.00     0.010 A 
ATOM     88  C   UNL A   1      47.746  26.946  35.842  1.00  0.00     0.020 A 
ATOM     89  C   UNL A   1      48.748  28.615  34.386  1.00  0.00     0.020 A 
ATOM     90  C   UNL A   1      48.855  27.693  35.430  1.00  0.00     0.054 A 
BRANCH  90  91
ATOM     91  S   UNL A   1      50.450  27.413  36.247  1.00  0.00     0.124 S 
ATOM     92  O   UNL A   1      50.096  26.441  37.278  1.00  0.00    -0.237 OA
ATOM     93  O   UNL A   1      51.281  26.901  35.160  1.00  0.00    -0.237 OA
ATOM     94  O   UNL A   1      50.824  28.736  36.741  1.00  0.00    -0.744 OA
ENDBRANCH  90  91
ENDBRANCH  64  85
ENDBRANCH  38  39
ENDBRANCH  30  33
ENDBRANCH  28  29
ENDBRANCH  27  28
ENDBRANCH  26  27
ENDBRANCH  25  26
ENDBRANCH   1  25
TORSDOF 22
ENDMDL
MODEL 2
REMARK VINA RESULT:      -8.9      5.424     10.068
REMARK SMILES CCOc1ccc(Br)cc1/C=C/C(=O)NCCC(=O)NCCCCCCNC(=O)c1ccc(-c2c3nc(c(-c4ccc(S(=O)(=O)[O-])cc4)c4ccc([nH]4)c(-c4ccc(S(=O)(=O)[O-])cc4)c4nc(c(-c5ccc(S(=O)(=O)[O-])cc5)c5ccc2[nH]5)C=C4)C=C3)cc1
REMARK SMILES IDX 22 1 21 2 20 3 18 4 19 5 17 7 16 8 15 9 13 10 14 11 12 13
REMARK SMILES IDX 11 14 10 15 4 16 5 17 6 18 9 19 7 20 8 21 3 22 2 23 1 24
REMARK SMILES IDX 23 25 24 26 25 27 26 28 27 29 28 30 29 32 30 33 31 34 89 35
REMARK SMILES IDX 32 36 88 37 33 38 34 39 35 40 82 41 36 42 87 43 81 44 83 45
REMARK SMILES IDX 37 46 86 47 80 48 79 49 38 51 68 52 49 53 67 54 50 55 53 56
REMARK SMILES IDX 66 57 84 58 51 59 52 60 65 62 85 63 54 64 39 65 40 66 48 67
REMARK SMILES IDX 41 68 47 69 42 70 43 71 44 72 45 73 46 74 69 75 70 76 78 77
REMARK SMILES IDX 71 78 77 79 72 80 73 81 74 82 75 83 76 84 55 85 56 86 64 87
REMARK SMILES IDX 57 88 63 89 58 90 59 91 60 92 61 93 62 94
REMARK H PARENT 20 6 15 12 27 31 83 50 53 61
REMARK Flexibility Score: inf
ROOT
ATOM      1  C   UNL A   1      38.529  24.107  26.777  1.00  0.00     0.021 C 
ENDROOT
BRANCH   1   2
ATOM      2  C   UNL A   1      37.408  23.727  25.809  1.00  0.00     0.116 C 
BRANCH   2   3
ATOM      3  N   UNL A   1      36.480  22.800  26.431  1.00  0.00    -0.356 N 
ATOM      4  C   UNL A   1      35.132  22.687  26.270  1.00  0.00     0.221 C 
ATOM      5  O   UNL A   1      34.522  21.873  26.967  1.00  0.00    -0.275 OA
ATOM      6  H   UNL A   1      36.883  22.161  27.061  1.00  0.00     0.163 HD
BRANCH   4   7
ATOM      7  C   UNL A   1      34.397  23.550  25.265  1.00  0.00     0.121 C 
BRANCH   7   8
ATOM      8  C   UNL A   1      33.100  22.894  24.799  1.00  0.00     0.126 C 
BRANCH   8   9
ATOM      9  N   UNL A   1      32.109  22.797  25.857  1.00  0.00    -0.352 N 
ATOM     10  C   UNL A   1      31.394  23.681  26.591  1.00  0.00     0.244 C 
ATOM     11  O   UNL A   1      30.838  23.252  27.604  1.00  0.00    -0.270 OA
ATOM     12  H   UNL A   1      31.909  21.864  26.099  1.00  0.00     0.163 HD
BRANCH  10  13
ATOM     13  C   UNL A   1      31.156  25.094  26.217  1.00  0.00     0.072 C 
ATOM     14  C   UNL A   1      32.023  26.109  26.114  1.00  0.00     0.017 C 
BRANCH  14  15
ATOM     15  C   UNL A   1      31.745  27.412  25.470  1.00  0.00     0.018 A 
ATOM     16  C   UNL A   1      31.343  27.441  24.117  1.00  0.00     0.126 A 
ATOM     17  C   UNL A   1      30.957  28.634  23.501  1.00  0.00     0.048 A 
ATOM     18  C   UNL A   1      31.002  29.830  24.211  1.00  0.00     0.019 A 
ATOM     19  C   UNL A   1      31.804  28.631  26.165  1.00  0.00     0.027 A 
ATOM     20  C   UNL A   1      31.425  29.823  25.537  1.00  0.00     0.018 A 
ATOM     21  Br  UNL A   1      31.430  31.442  26.516  1.00  0.00    -0.051 Br
BRANCH  16  22
ATOM     22  O   UNL A   1      31.157  26.270  23.422  1.00  0.00    -0.493 OA
BRANCH  22  23
ATOM     23  C   UNL A   1      31.986  26.183  22.257  1.00  0.00     0.226 C 
ATOM     24  C   UNL A   1      33.446  26.042  22.651  1.00  0.00     0.049 C 
ENDBRANCH  22  23
ENDBRANCH  16  22
ENDBRANCH  14  15
ENDBRANCH  10  13
ENDBRANCH   8   9
ENDBRANCH   7   8
ENDBRANCH   4   7
ENDBRANCH   2   3
ENDBRANCH   1   2
BRANCH   1  25
ATOM     25  C   UNL A   1      39.588  23.023  26.987  1.00  0.00     0.002 C 
BRANCH  25  26
ATOM     26  C   UNL A   1      39.800  22.086  25.797  1.00  0.00     0.002 C 
BRANCH  26  27
ATOM     27  C   UNL A   1      39.584  20.599  26.092  1.00  0.00     0.021 C 
BRANCH  27  28
ATOM     28  C   UNL A   1      40.603  19.980  27.045  1.00  0.00     0.116 C 
BRANCH  28  29
ATOM     29  N   UNL A   1      41.678  19.313  26.328  1.00  0.00    -0.352 N 
ATOM     30  C   UNL A   1      42.805  19.845  25.754  1.00  0.00     0.251 C 
ATOM     31  H   UNL A   1      41.583  18.336  26.243  1.00  0.00     0.163 HD
ATOM     32  O   UNL A   1      43.484  19.165  24.991  1.00  0.00    -0.269 OA
BRANCH  30  33
ATOM     33  C   UNL A   1      43.191  21.241  26.050  1.00  0.00     0.039 A 
ATOM     34  C   UNL A   1      43.424  21.613  27.376  1.00  0.00     0.014 A 
ATOM     35  C   UNL A   1      43.309  22.182  25.023  1.00  0.00     0.014 A 
ATOM     36  C   UNL A   1      43.828  22.918  27.665  1.00  0.00     0.010 A 
ATOM     37  C   UNL A   1      43.783  23.460  25.306  1.00  0.00     0.010 A 
ATOM     38  C   UNL A   1      44.040  23.844  26.630  1.00  0.00    -0.014 A 
BRANCH  38  39
ATOM     39  C   UNL A   1      44.528  25.218  26.913  1.00  0.00     0.031 A 
ATOM     40  C   UNL A   1      43.577  26.271  27.413  1.00  0.00     0.074 A 
ATOM     41  C   UNL A   1      45.816  25.531  26.665  1.00  0.00     0.049 A 
ATOM     42  N   UNL A   1      43.807  27.533  27.677  1.00  0.00    -0.248 NA
ATOM     43  C   UNL A   1      42.179  25.860  27.624  1.00  0.00     0.031 C 
ATOM     44  C   UNL A   1      46.827  24.608  26.145  1.00  0.00     0.029 A 
ATOM     45  N   UNL A   1      46.493  26.715  26.812  1.00  0.00    -0.354 N 
ATOM     46  C   UNL A   1      42.585  28.067  28.067  1.00  0.00     0.074 A 
ATOM     47  C   UNL A   1      41.606  27.008  27.956  1.00  0.00     0.031 C 
ATOM     48  C   UNL A   1      48.002  25.251  26.051  1.00  0.00     0.029 A 
ATOM     49  C   UNL A   1      47.820  26.640  26.456  1.00  0.00     0.049 A 
ATOM     50  H   UNL A   1      46.069  27.541  27.142  1.00  0.00     0.167 HD
ATOM     51  C   UNL A   1      42.305  29.322  28.496  1.00  0.00     0.031 A 
ATOM     52  C   UNL A   1      48.780  27.585  26.452  1.00  0.00     0.031 A 
ATOM     53  C   UNL A   1      43.283  30.372  28.605  1.00  0.00     0.049 A 
ATOM     54  C   UNL A   1      48.439  28.977  26.907  1.00  0.00     0.074 A 
ATOM     55  C   UNL A   1      43.112  31.660  29.079  1.00  0.00     0.029 A 
ATOM     56  N   UNL A   1      44.614  30.257  28.229  1.00  0.00    -0.354 N 
ATOM     57  N   UNL A   1      47.292  29.446  27.340  1.00  0.00    -0.248 NA
ATOM     58  C   UNL A   1      49.525  29.967  26.883  1.00  0.00     0.031 C 
ATOM     59  C   UNL A   1      44.325  32.343  28.934  1.00  0.00     0.029 A 
ATOM     60  C   UNL A   1      45.269  31.461  28.432  1.00  0.00     0.049 A 
ATOM     61  H   UNL A   1      45.030  29.441  27.870  1.00  0.00     0.167 HD
ATOM     62  C   UNL A   1      47.528  30.776  27.669  1.00  0.00     0.074 A 
ATOM     63  C   UNL A   1      48.927  31.033  27.398  1.00  0.00     0.031 C 
ATOM     64  C   UNL A   1      46.663  31.701  28.156  1.00  0.00     0.031 A 
BRANCH  51  65
ATOM     65  C   UNL A   1      40.875  29.628  28.865  1.00  0.00    -0.014 A 
ATOM     66  C   UNL A   1      40.524  29.999  30.177  1.00  0.00     0.010 A 
ATOM     67  C   UNL A   1      39.871  29.568  27.882  1.00  0.00     0.010 A 
ATOM     68  C   UNL A   1      39.190  30.252  30.509  1.00  0.00     0.020 A 
ATOM     69  C   UNL A   1      38.540  29.853  28.202  1.00  0.00     0.020 A 
ATOM     70  C   UNL A   1      38.205  30.173  29.519  1.00  0.00     0.054 A 
BRANCH  70  71
ATOM     71  S   UNL A   1      36.484  30.514  29.977  1.00  0.00     0.124 S 
ATOM     72  O   UNL A   1      36.149  29.343  30.785  1.00  0.00    -0.237 OA
ATOM     73  O   UNL A   1      36.591  31.772  30.711  1.00  0.00    -0.237 OA
ATOM     74  O   UNL A   1      35.793  30.602  28.693  1.00  0.00    -0.744 OA
ENDBRANCH  70  71
ENDBRANCH  51  65
BRANCH  52  75
ATOM     75  C   UNL A   1      50.164  27.238  26.023  1.00  0.00    -0.014 A 
ATOM     76  C   UNL A   1      50.526  27.307  24.667  1.00  0.00     0.010 A 
ATOM     77  C   UNL A   1      51.129  26.845  26.969  1.00  0.00     0.010 A 
ATOM     78  C   UNL A   1      51.823  26.975  24.261  1.00  0.00     0.020 A 
ATOM     79  C   UNL A   1      52.433  26.539  26.571  1.00  0.00     0.020 A 
ATOM     80  C   UNL A   1      52.769  26.595  25.217  1.00  0.00     0.054 A 
BRANCH  80  81
ATOM     81  S   UNL A   1      54.457  26.214  24.672  1.00  0.00     0.124 S 
ATOM     82  O   UNL A   1      54.437  26.669  23.285  1.00  0.00    -0.237 OA
ATOM     83  O   UNL A   1      55.271  27.008  25.588  1.00  0.00    -0.237 OA
ATOM     84  O   UNL A   1      54.557  24.768  24.856  1.00  0.00    -0.744 OA
ENDBRANCH  80  81
ENDBRANCH  52  75
BRANCH  64  85
ATOM     85  C   UNL A   1      47.213  33.070  28.465  1.00  0.00    -0.014 A 
ATOM     86  C   UNL A   1      47.861  33.341  29.683  1.00  0.00     0.010 A 
ATOM     87  C   UNL A   1      47.124  34.085  27.494  1.00  0.00     0.010 A 
ATOM     88  C   UNL A   1      48.381  34.613  29.937  1.00  0.00     0.020 A 
ATOM     89  C   UNL A   1      47.671  35.348  27.732  1.00  0.00     0.020 A 
ATOM     90  C   UNL A   1      48.284  35.609  28.959  1.00  0.00     0.054 A 
BRANCH  90  91
ATOM     91  S   UNL A   1      49.009  37.237  29.296  1.00  0.00     0.124 S 
ATOM     92  O   UNL A   1      50.362  37.082  28.768  1.00  0.00    -0.237 OA
ATOM     93  O   UNL A   1      48.139  38.136  28.541  1.00  0.00    -0.237 OA
ATOM     94  O   UNL A   1      48.918  37.364  30.749  1.00  0.00    -0.744 OA
ENDBRANCH  90  91
ENDBRANCH  64  85
ENDBRANCH  38  39
ENDBRANCH  30  33
ENDBRANCH  28  29
ENDBRANCH  27  28
ENDBRANCH  26  27
ENDBRANCH  25  26
ENDBRANCH   1  25
TORSDOF 22
ENDMDL
MODEL 3
REMARK VINA RESULT:      -8.8      5.289      8.099
REMARK SMILES CCOc1ccc(Br)cc1/C=C/C(=O)NCCC(=O)NCCCCCCNC(=O)c1ccc(-c2c3nc(c(-c4ccc(S(=O)(=O)[O-])cc4)c4ccc([nH]4)c(-c4ccc(S(=O)(=O)[O-])cc4)c4nc(c(-c5ccc(S(=O)(=O)[O-])cc5)c5ccc2[nH]5)C=C4)C=C3)cc1
REMARK SMILES IDX 22 1 21 2 20 3 18 4 19 5 17 7 16 8 15 9 13 10 14 11 12 13
REMARK SMILES IDX 11 14 10 15 4 16 5 17 6 18 9 19 7 20 8 21 3 22 2 23 1 24
REMARK SMILES IDX 23 25 24 26 25 27 26 28 27 29 28 30 29 32 30 33 31 34 89 35
REMARK SMILES IDX 32 36 88 37 33 38 34 39 35 40 82 41 36 42 87 43 81 44 83 45
REMARK SMILES IDX 37 46 86 47 80 48 79 49 38 51 68 52 49 53 67 54 50 55 53 56
REMARK SMILES IDX 66 57 84 58 51 59 52 60 65 62 85 63 54 64 39 65 40 66 48 67
REMARK SMILES IDX 41 68 47 69 42 70 43 71 44 72 45 73 46 74 69 75 70 76 78 77
REMARK SMILES IDX 71 78 77 79 72 80 73 81 74 82 75 83 76 84 55 85 56 86 64 87
REMARK SMILES IDX 57 88 63 89 58 90 59 91 60 92 61 93 62 94
REMARK H PARENT 20 6 15 12 27 31 83 50 53 61
REMARK Flexibility Score: inf
ROOT
ATOM      1  C   UNL A   1      38.474  23.937  26.836  1.00  0.00     0.021 C 
ENDROOT
BRANCH   1   2
ATOM      2  C   UNL A   1      37.408  23.564  25.805  1.00  0.00     0.116 C 
BRANCH   2   3
ATOM      3  N   UNL A   1      36.619  22.435  26.264  1.00  0.00    -0.356 N 
ATOM      4  C   UNL A   1      35.393  22.012  25.851  1.00  0.00     0.221 C 
ATOM      5  O   UNL A   1      34.866  21.065  26.439  1.00  0.00    -0.275 OA
ATOM      6  H   UNL A   1      37.031  21.896  26.977  1.00  0.00     0.163 HD
BRANCH   4   7
ATOM      7  C   UNL A   1      34.684  22.698  24.699  1.00  0.00     0.121 C 
BRANCH   7   8
ATOM      8  C   UNL A   1      33.289  22.122  24.471  1.00  0.00     0.126 C 
BRANCH   8   9
ATOM      9  N   UNL A   1      32.443  22.219  25.648  1.00  0.00    -0.352 N 
ATOM     10  C   UNL A   1      32.041  23.220  26.465  1.00  0.00     0.244 C 
ATOM     11  O   UNL A   1      31.536  22.900  27.542  1.00  0.00    -0.270 OA
ATOM     12  H   UNL A   1      32.072  21.348  25.917  1.00  0.00     0.163 HD
BRANCH  10  13
ATOM     13  C   UNL A   1      32.078  24.661  26.119  1.00  0.00     0.072 C 
ATOM     14  C   UNL A   1      33.045  25.563  26.319  1.00  0.00     0.017 C 
BRANCH  14  15
ATOM     15  C   UNL A   1      33.108  26.905  25.698  1.00  0.00     0.018 A 
ATOM     16  C   UNL A   1      33.591  27.031  24.378  1.00  0.00     0.126 A 
ATOM     17  C   UNL A   1      33.560  28.258  23.709  1.00  0.00     0.048 A 
ATOM     18  C   UNL A   1      33.083  29.392  24.359  1.00  0.00     0.019 A 
ATOM     19  C   UNL A   1      32.650  28.064  26.345  1.00  0.00     0.027 A 
ATOM     20  C   UNL A   1      32.631  29.290  25.671  1.00  0.00     0.018 A 
ATOM     21  Br  UNL A   1      31.930  30.823  26.530  1.00  0.00    -0.051 Br
BRANCH  16  22
ATOM     22  O   UNL A   1      33.946  25.916  23.658  1.00  0.00    -0.493 OA
BRANCH  22  23
ATOM     23  C   UNL A   1      33.571  26.007  22.278  1.00  0.00     0.226 C 
ATOM     24  C   UNL A   1      32.313  25.199  22.013  1.00  0.00     0.049 C 
ENDBRANCH  22  23
ENDBRANCH  16  22
ENDBRANCH  14  15
ENDBRANCH  10  13
ENDBRANCH   8   9
ENDBRANCH   7   8
ENDBRANCH   4   7
ENDBRANCH   2   3
ENDBRANCH   1   2
BRANCH   1  25
ATOM     25  C   UNL A   1      39.652  22.965  26.919  1.00  0.00     0.002 C 
BRANCH  25  26
ATOM     26  C   UNL A   1      39.777  21.996  25.742  1.00  0.00     0.002 C 
BRANCH  26  27
ATOM     27  C   UNL A   1      39.726  20.512  26.111  1.00  0.00     0.021 C 
BRANCH  27  28
ATOM     28  C   UNL A   1      40.890  20.025  26.970  1.00  0.00     0.116 C 
BRANCH  28  29
ATOM     29  N   UNL A   1      41.975  19.494  26.160  1.00  0.00    -0.352 N 
ATOM     30  C   UNL A   1      43.022  20.153  25.566  1.00  0.00     0.251 C 
ATOM     31  H   UNL A   1      41.955  18.520  26.017  1.00  0.00     0.163 HD
ATOM     32  O   UNL A   1      43.711  19.580  24.728  1.00  0.00    -0.269 OA
BRANCH  30  33
ATOM     33  C   UNL A   1      43.308  21.557  25.931  1.00  0.00     0.039 A 
ATOM     34  C   UNL A   1      43.654  21.857  27.250  1.00  0.00     0.014 A 
ATOM     35  C   UNL A   1      43.221  22.574  24.976  1.00  0.00     0.014 A 
ATOM     36  C   UNL A   1      43.967  23.173  27.599  1.00  0.00     0.010 A 
ATOM     37  C   UNL A   1      43.603  23.871  25.309  1.00  0.00     0.010 A 
ATOM     38  C   UNL A   1      43.973  24.185  26.625  1.00  0.00    -0.014 A 
BRANCH  38  39
ATOM     39  C   UNL A   1      44.361  25.578  26.964  1.00  0.00     0.031 A 
ATOM     40  C   UNL A   1      45.787  26.029  26.794  1.00  0.00     0.074 A 
ATOM     41  C   UNL A   1      43.441  26.419  27.477  1.00  0.00     0.049 A 
ATOM     42  N   UNL A   1      46.324  27.190  27.074  1.00  0.00    -0.248 NA
ATOM     43  C   UNL A   1      46.739  25.040  26.263  1.00  0.00     0.031 C 
ATOM     44  C   UNL A   1      42.035  26.090  27.723  1.00  0.00     0.029 A 
ATOM     45  N   UNL A   1      43.552  27.723  27.890  1.00  0.00    -0.354 N 
ATOM     46  C   UNL A   1      47.674  27.066  26.769  1.00  0.00     0.074 A 
ATOM     47  C   UNL A   1      47.885  25.703  26.332  1.00  0.00     0.031 C 
ATOM     48  C   UNL A   1      41.409  27.173  28.210  1.00  0.00     0.029 A 
ATOM     49  C   UNL A   1      42.374  28.257  28.356  1.00  0.00     0.049 A 
ATOM     50  H   UNL A   1      44.397  28.229  27.856  1.00  0.00     0.167 HD
ATOM     51  C   UNL A   1      48.649  28.006  26.829  1.00  0.00     0.031 A 
ATOM     52  C   UNL A   1      42.101  29.481  28.851  1.00  0.00     0.031 A 
ATOM     53  C   UNL A   1      48.433  29.361  27.262  1.00  0.00     0.049 A 
ATOM     54  C   UNL A   1      43.205  30.499  28.932  1.00  0.00     0.074 A 
ATOM     55  C   UNL A   1      49.341  30.404  27.309  1.00  0.00     0.029 A 
ATOM     56  N   UNL A   1      47.226  29.860  27.732  1.00  0.00    -0.354 N 
ATOM     57  N   UNL A   1      44.462  30.384  28.572  1.00  0.00    -0.248 NA
ATOM     58  C   UNL A   1      42.851  31.817  29.479  1.00  0.00     0.031 C 
ATOM     59  C   UNL A   1      48.699  31.517  27.863  1.00  0.00     0.029 A 
ATOM     60  C   UNL A   1      47.373  31.188  28.099  1.00  0.00     0.049 A 
ATOM     61  H   UNL A   1      46.390  29.345  27.797  1.00  0.00     0.167 HD
ATOM     62  C   UNL A   1      45.040  31.625  28.819  1.00  0.00     0.074 A 
ATOM     63  C   UNL A   1      43.994  32.477  29.346  1.00  0.00     0.031 C 
ATOM     64  C   UNL A   1      46.322  32.023  28.624  1.00  0.00     0.031 A 
BRANCH  51  65
ATOM     65  C   UNL A   1      50.041  27.591  26.426  1.00  0.00    -0.014 A 
ATOM     66  C   UNL A   1      50.479  27.702  25.093  1.00  0.00     0.010 A 
ATOM     67  C   UNL A   1      50.934  27.106  27.399  1.00  0.00     0.010 A 
ATOM     68  C   UNL A   1      51.764  27.287  24.732  1.00  0.00     0.020 A 
ATOM     69  C   UNL A   1      52.232  26.721  27.049  1.00  0.00     0.020 A 
ATOM     70  C   UNL A   1      52.631  26.795  25.713  1.00  0.00     0.054 A 
BRANCH  70  71
ATOM     71  S   UNL A   1      54.295  26.271  25.217  1.00  0.00     0.124 S 
ATOM     72  O   UNL A   1      54.854  25.804  26.483  1.00  0.00    -0.237 OA
ATOM     73  O   UNL A   1      54.022  25.229  24.229  1.00  0.00    -0.237 OA
ATOM     74  O   UNL A   1      54.899  27.489  24.682  1.00  0.00    -0.744 OA
ENDBRANCH  70  71
ENDBRANCH  51  65
BRANCH  52  75
ATOM     75  C   UNL A   1      40.717  29.816  29.285  1.00  0.00    -0.014 A 
ATOM     76  C   UNL A   1      39.674  29.888  28.346  1.00  0.00     0.010 A 
ATOM     77  C   UNL A   1      40.431  30.057  30.642  1.00  0.00     0.010 A 
ATOM     78  C   UNL A   1      38.375  30.210  28.751  1.00  0.00     0.020 A 
ATOM     79  C   UNL A   1      39.129  30.351  31.056  1.00  0.00     0.020 A 
ATOM     80  C   UNL A   1      38.110  30.437  30.105  1.00  0.00     0.054 A 
BRANCH  80  81
ATOM     81  S   UNL A   1      36.408  30.806  30.612  1.00  0.00     0.124 S 
ATOM     82  O   UNL A   1      35.709  30.831  29.332  1.00  0.00    -0.237 OA
ATOM     83  O   UNL A   1      36.089  29.682  31.488  1.00  0.00    -0.237 OA
ATOM     84  O   UNL A   1      36.525  32.097  31.287  1.00  0.00    -0.744 OA
ENDBRANCH  80  81
ENDBRANCH  52  75
BRANCH  64  85
ATOM     85  C   UNL A   1      46.660  33.456  28.944  1.00  0.00    -0.014 A 
ATOM     86  C   UNL A   1      46.541  34.471  27.978  1.00  0.00     0.010 A 
ATOM     87  C   UNL A   1      47.052  33.798  30.252  1.00  0.00     0.010 A 
ATOM     88  C   UNL A   1      46.839  35.796  28.306  1.00  0.00     0.020 A 
ATOM     89  C   UNL A   1      47.321  35.125  30.591  1.00  0.00     0.020 A 
ATOM     90  C   UNL A   1      47.227  36.115  29.611  1.00  0.00     0.054 A 
BRANCH  90  91
ATOM     91  S   UNL A   1      47.564  37.850  30.023  1.00  0.00     0.124 S 
ATOM     92  O   UNL A   1      48.783  38.110  29.262  1.00  0.00    -0.237 OA
ATOM     93  O   UNL A   1      46.365  38.531  29.542  1.00  0.00    -0.237 OA
ATOM     94  O   UNL A   1      47.727  37.837  31.474  1.00  0.00    -0.744 OA
ENDBRANCH  90  91
ENDBRANCH  64  85
ENDBRANCH  38  39
ENDBRANCH  30  33
ENDBRANCH  28  29
ENDBRANCH  27  28
ENDBRANCH  26  27
ENDBRANCH  25  26
ENDBRANCH   1  25
TORSDOF 22
ENDMDL
