MODEL 1
REMARK VINA RESULT:     -10.6      0.000      0.000
REMARK SMILES Cc1ccc(F)c(-c2ncccc2C(=O)NCCCCCCNC(=O)c2ccc(-c3c4nc(c(-c5ccc(S(=O)(=O)[O-])cc5)c5ccc([nH]5)c(-c5ccc(S(=O)(=O)[O-])cc5)c5nc(c(-c6ccc(S(=O)(=O)[O-])cc6)c6ccc3[nH]6)C=C5)C=C4)cc2)c1
REMARK SMILES IDX 20 1 19 2 18 3 17 4 16 5 14 6 15 7 13 9 8 10 9 11 10 12
REMARK SMILES IDX 12 13 11 14 7 15 1 16 2 17 3 18 86 19 4 20 5 21 6 22 21 23
REMARK SMILES IDX 22 24 23 25 24 26 25 28 26 29 27 30 85 31 28 32 84 33 29 34
REMARK SMILES IDX 30 35 31 36 78 37 32 38 83 39 77 40 79 41 33 42 82 43 76 44
REMARK SMILES IDX 75 45 34 47 64 48 45 49 63 50 46 51 49 52 62 53 80 54 47 55
REMARK SMILES IDX 48 56 61 58 81 59 50 60 35 61 36 62 44 63 37 64 43 65 38 66
REMARK SMILES IDX 39 67 40 68 41 69 42 70 65 71 66 72 74 73 67 74 73 75 68 76
REMARK SMILES IDX 69 77 70 78 71 79 72 80 51 81 52 82 60 83 53 84 59 85 54 86
REMARK SMILES IDX 55 87 56 88 57 89 58 90
REMARK H PARENT 16 8 23 27 79 46 49 57
REMARK Flexibility Score: inf
ROOT
ATOM      1  C   UNL A   1      31.545  28.175  25.656  1.00  0.00     0.002 C 
ENDROOT
BRANCH   1   2
ATOM      2  C   UNL A   1      31.221  27.310  24.430  1.00  0.00     0.002 C 
BRANCH   2   3
ATOM      3  C   UNL A   1      32.175  27.485  23.238  1.00  0.00     0.021 C 
BRANCH   3   4
ATOM      4  C   UNL A   1      33.496  26.737  23.406  1.00  0.00     0.116 C 
BRANCH   4   5
ATOM      5  N   UNL A   1      33.415  25.425  22.803  1.00  0.00    -0.352 N 
ATOM      6  C   UNL A   1      33.024  24.168  23.171  1.00  0.00     0.253 C 
ATOM      7  O   UNL A   1      33.142  23.350  22.256  1.00  0.00    -0.269 OA
ATOM      8  H   UNL A   1      33.727  25.442  21.870  1.00  0.00     0.163 HD
BRANCH   6   9
ATOM      9  C   UNL A   1      32.460  23.756  24.503  1.00  0.00     0.066 A 
ATOM     10  C   UNL A   1      33.270  23.082  25.444  1.00  0.00     0.086 A 
ATOM     11  N   UNL A   1      32.779  22.559  26.612  1.00  0.00    -0.255 NA
ATOM     12  C   UNL A   1      31.470  22.703  26.876  1.00  0.00     0.112 A 
ATOM     13  C   UNL A   1      31.129  23.963  24.886  1.00  0.00     0.018 A 
ATOM     14  C   UNL A   1      30.618  23.413  26.063  1.00  0.00     0.021 A 
BRANCH  10  15
ATOM     15  C   UNL A   1      34.730  22.933  25.355  1.00  0.00     0.037 A 
ATOM     16  C   UNL A   1      37.298  20.154  24.801  1.00  0.00     0.044 C 
ATOM     17  C   UNL A   1      36.701  21.512  25.023  1.00  0.00    -0.050 A 
ATOM     18  C   UNL A   1      37.529  22.616  25.257  1.00  0.00     0.006 A 
ATOM     19  C   UNL A   1      35.310  21.688  25.039  1.00  0.00     0.016 A 
ATOM     20  C   UNL A   1      36.972  23.866  25.527  1.00  0.00     0.040 A 
ATOM     21  C   UNL A   1      35.587  24.013  25.583  1.00  0.00     0.132 A 
ATOM     22  F   UNL A   1      35.093  25.224  25.889  1.00  0.00    -0.206 F 
ENDBRANCH  10  15
ENDBRANCH   6   9
ENDBRANCH   4   5
ENDBRANCH   3   4
ENDBRANCH   2   3
ENDBRANCH   1   2
BRANCH   1  23
ATOM     23  C   UNL A   1      32.436  27.500  26.703  1.00  0.00     0.021 C 
BRANCH  23  24
ATOM     24  C   UNL A   1      33.773  28.196  26.922  1.00  0.00     0.116 C 
BRANCH  24  25
ATOM     25  N   UNL A   1      33.594  29.600  27.252  1.00  0.00    -0.352 N 
ATOM     26  C   UNL A   1      34.426  30.432  27.959  1.00  0.00     0.251 C 
ATOM     27  H   UNL A   1      32.763  30.012  26.922  1.00  0.00     0.163 HD
ATOM     28  O   UNL A   1      34.017  31.518  28.358  1.00  0.00    -0.269 OA
BRANCH  26  29
ATOM     29  C   UNL A   1      35.811  30.004  28.244  1.00  0.00     0.039 A 
ATOM     30  C   UNL A   1      36.790  30.169  27.262  1.00  0.00     0.014 A 
ATOM     31  C   UNL A   1      36.139  29.434  29.478  1.00  0.00     0.014 A 
ATOM     32  C   UNL A   1      38.110  29.805  27.535  1.00  0.00     0.010 A 
ATOM     33  C   UNL A   1      37.466  29.143  29.774  1.00  0.00     0.010 A 
ATOM     34  C   UNL A   1      38.463  29.313  28.803  1.00  0.00    -0.014 A 
BRANCH  34  35
ATOM     35  C   UNL A   1      39.866  28.953  29.128  1.00  0.00     0.031 A 
ATOM     36  C   UNL A   1      40.770  29.967  29.776  1.00  0.00     0.074 A 
ATOM     37  C   UNL A   1      40.341  27.739  28.789  1.00  0.00     0.049 A 
ATOM     38  N   UNL A   1      42.040  29.865  30.076  1.00  0.00    -0.248 NA
ATOM     39  C   UNL A   1      40.178  31.274  30.106  1.00  0.00     0.031 C 
ATOM     40  C   UNL A   1      39.571  26.680  28.130  1.00  0.00     0.029 A 
ATOM     41  N   UNL A   1      41.588  27.188  28.948  1.00  0.00    -0.354 N 
ATOM     42  C   UNL A   1      42.400  31.096  30.615  1.00  0.00     0.074 A 
ATOM     43  C   UNL A   1      41.231  31.945  30.550  1.00  0.00     0.031 C 
ATOM     44  C   UNL A   1      40.355  25.602  27.968  1.00  0.00     0.029 A 
ATOM     45  C   UNL A   1      41.692  25.905  28.468  1.00  0.00     0.049 A 
ATOM     46  H   UNL A   1      42.338  27.669  29.367  1.00  0.00     0.167 HD
ATOM     47  C   UNL A   1      43.589  31.478  31.138  1.00  0.00     0.031 A 
ATOM     48  C   UNL A   1      42.746  25.067  28.426  1.00  0.00     0.031 A 
ATOM     49  C   UNL A   1      44.747  30.627  31.209  1.00  0.00     0.049 A 
ATOM     50  C   UNL A   1      44.065  25.523  28.990  1.00  0.00     0.074 A 
ATOM     51  C   UNL A   1      45.985  30.903  31.760  1.00  0.00     0.029 A 
ATOM     52  N   UNL A   1      44.809  29.333  30.714  1.00  0.00    -0.354 N 
ATOM     53  N   UNL A   1      44.370  26.673  29.547  1.00  0.00    -0.248 NA
ATOM     54  C   UNL A   1      45.179  24.566  28.933  1.00  0.00     0.031 C 
ATOM     55  C   UNL A   1      46.814  29.797  31.548  1.00  0.00     0.029 A 
ATOM     56  C   UNL A   1      46.072  28.806  30.925  1.00  0.00     0.049 A 
ATOM     57  H   UNL A   1      44.065  28.859  30.275  1.00  0.00     0.167 HD
ATOM     58  C   UNL A   1      45.701  26.562  29.936  1.00  0.00     0.074 A 
ATOM     59  C   UNL A   1      46.137  25.232  29.562  1.00  0.00     0.031 C 
ATOM     60  C   UNL A   1      46.489  27.478  30.550  1.00  0.00     0.031 A 
BRANCH  47  61
ATOM     61  C   UNL A   1      43.698  32.883  31.672  1.00  0.00    -0.014 A 
ATOM     62  C   UNL A   1      44.055  33.956  30.833  1.00  0.00     0.010 A 
ATOM     63  C   UNL A   1      43.402  33.144  33.023  1.00  0.00     0.010 A 
ATOM     64  C   UNL A   1      44.155  35.252  31.343  1.00  0.00     0.020 A 
ATOM     65  C   UNL A   1      43.471  34.445  33.529  1.00  0.00     0.020 A 
ATOM     66  C   UNL A   1      43.864  35.488  32.689  1.00  0.00     0.054 A 
BRANCH  66  67
ATOM     67  S   UNL A   1      43.981  37.186  33.317  1.00  0.00     0.124 S 
ATOM     68  O   UNL A   1      44.057  37.960  32.080  1.00  0.00    -0.237 OA
ATOM     69  O   UNL A   1      42.742  37.333  34.074  1.00  0.00    -0.237 OA
ATOM     70  O   UNL A   1      45.202  37.176  34.120  1.00  0.00    -0.744 OA
ENDBRANCH  66  67
ENDBRANCH  47  61
BRANCH  48  71
ATOM     71  C   UNL A   1      42.597  23.706  27.839  1.00  0.00    -0.014 A 
ATOM     72  C   UNL A   1      42.170  22.628  28.636  1.00  0.00     0.010 A 
ATOM     73  C   UNL A   1      42.876  23.482  26.479  1.00  0.00     0.010 A 
ATOM     74  C   UNL A   1      42.049  21.348  28.089  1.00  0.00     0.020 A 
ATOM     75  C   UNL A   1      42.726  22.209  25.922  1.00  0.00     0.020 A 
ATOM     76  C   UNL A   1      42.327  21.146  26.734  1.00  0.00     0.054 A 
BRANCH  76  77
ATOM     77  S   UNL A   1      42.123  19.484  26.036  1.00  0.00     0.124 S 
ATOM     78  O   UNL A   1      40.682  19.422  25.814  1.00  0.00    -0.237 OA
ATOM     79  O   UNL A   1      42.949  19.545  24.832  1.00  0.00    -0.237 OA
ATOM     80  O   UNL A   1      42.633  18.608  27.089  1.00  0.00    -0.744 OA
ENDBRANCH  76  77
ENDBRANCH  48  71
BRANCH  60  81
ATOM     81  C   UNL A   1      47.894  27.064  30.901  1.00  0.00    -0.014 A 
ATOM     82  C   UNL A   1      48.164  26.262  32.025  1.00  0.00     0.010 A 
ATOM     83  C   UNL A   1      48.954  27.435  30.054  1.00  0.00     0.010 A 
ATOM     84  C   UNL A   1      49.472  25.866  32.311  1.00  0.00     0.020 A 
ATOM     85  C   UNL A   1      50.259  27.015  30.319  1.00  0.00     0.020 A 
ATOM     86  C   UNL A   1      50.512  26.244  31.454  1.00  0.00     0.054 A 
BRANCH  86  87
ATOM     87  S   UNL A   1      52.195  25.674  31.822  1.00  0.00     0.124 S 
ATOM     88  O   UNL A   1      51.974  24.271  32.160  1.00  0.00    -0.237 OA
ATOM     89  O   UNL A   1      52.896  25.915  30.563  1.00  0.00    -0.237 OA
ATOM     90  O   UNL A   1      52.614  26.524  32.933  1.00  0.00    -0.744 OA
ENDBRANCH  86  87
ENDBRANCH  60  81
ENDBRANCH  34  35
ENDBRANCH  26  29
ENDBRANCH  24  25
ENDBRANCH  23  24
ENDBRANCH   1  23
TORSDOF 17
ENDMDL
MODEL 2
REMARK VINA RESULT:     -10.5      2.512      9.163
REMARK SMILES Cc1ccc(F)c(-c2ncccc2C(=O)NCCCCCCNC(=O)c2ccc(-c3c4nc(c(-c5ccc(S(=O)(=O)[O-])cc5)c5ccc([nH]5)c(-c5ccc(S(=O)(=O)[O-])cc5)c5nc(c(-c6ccc(S(=O)(=O)[O-])cc6)c6ccc3[nH]6)C=C5)C=C4)cc2)c1
REMARK SMILES IDX 20 1 19 2 18 3 17 4 16 5 14 6 15 7 13 9 8 10 9 11 10 12
REMARK SMILES IDX 12 13 11 14 7 15 1 16 2 17 3 18 86 19 4 20 5 21 6 22 21 23
REMARK SMILES IDX 22 24 23 25 24 26 25 28 26 29 27 30 85 31 28 32 84 33 29 34
REMARK SMILES IDX 30 35 31 36 78 37 32 38 83 39 77 40 79 41 33 42 82 43 76 44
REMARK SMILES IDX 75 45 34 47 64 48 45 49 63 50 46 51 49 52 62 53 80 54 47 55
REMARK SMILES IDX 48 56 61 58 81 59 50 60 35 61 36 62 44 63 37 64 43 65 38 66
REMARK SMILES IDX 39 67 40 68 41 69 42 70 65 71 66 72 74 73 67 74 73 75 68 76
REMARK SMILES IDX 69 77 70 78 71 79 72 80 51 81 52 82 60 83 53 84 59 85 54 86
REMARK SMILES IDX 55 87 56 88 57 89 58 90
REMARK H PARENT 16 8 23 27 79 46 49 57
REMARK Flexibility Score: inf
ROOT
ATOM      1  C   UNL A   1      34.606  22.588  24.394  1.00  0.00     0.002 C 
ENDROOT
BRANCH   1   2
ATOM      2  C   UNL A   1      33.948  22.274  25.746  1.00  0.00     0.002 C 
BRANCH   2   3
ATOM      3  C   UNL A   1      32.465  22.666  25.854  1.00  0.00     0.021 C 
BRANCH   3   4
ATOM      4  C   UNL A   1      32.212  23.808  26.836  1.00  0.00     0.116 C 
BRANCH   4   5
ATOM      5  N   UNL A   1      31.116  24.634  26.379  1.00  0.00    -0.352 N 
ATOM      6  C   UNL A   1      30.836  25.440  25.311  1.00  0.00     0.253 C 
ATOM      7  O   UNL A   1      29.712  25.941  25.379  1.00  0.00    -0.269 OA
ATOM      8  H   UNL A   1      30.362  24.609  27.012  1.00  0.00     0.163 HD
BRANCH   6   9
ATOM      9  C   UNL A   1      31.724  25.701  24.126  1.00  0.00     0.066 A 
ATOM     10  C   UNL A   1      32.469  26.899  24.042  1.00  0.00     0.086 A 
ATOM     11  N   UNL A   1      33.183  27.257  22.928  1.00  0.00    -0.255 NA
ATOM     12  C   UNL A   1      33.182  26.424  21.874  1.00  0.00     0.112 A 
ATOM     13  C   UNL A   1      31.848  24.832  23.036  1.00  0.00     0.018 A 
ATOM     14  C   UNL A   1      32.555  25.201  21.890  1.00  0.00     0.021 A 
BRANCH  10  15
ATOM     15  C   UNL A   1      32.658  27.859  25.139  1.00  0.00     0.037 A 
ATOM     16  C   UNL A   1      31.357  31.298  26.192  1.00  0.00     0.044 C 
ATOM     17  C   UNL A   1      32.106  29.998  26.205  1.00  0.00    -0.050 A 
ATOM     18  C   UNL A   1      33.064  29.746  27.194  1.00  0.00     0.006 A 
ATOM     19  C   UNL A   1      31.887  29.038  25.208  1.00  0.00     0.016 A 
ATOM     20  C   UNL A   1      33.806  28.565  27.167  1.00  0.00     0.040 A 
ATOM     21  C   UNL A   1      33.606  27.641  26.143  1.00  0.00     0.132 A 
ATOM     22  F   UNL A   1      34.371  26.537  26.130  1.00  0.00    -0.206 F 
ENDBRANCH  10  15
ENDBRANCH   6   9
ENDBRANCH   4   5
ENDBRANCH   3   4
ENDBRANCH   2   3
ENDBRANCH   1   2
BRANCH   1  23
ATOM     23  C   UNL A   1      35.671  23.687  24.437  1.00  0.00     0.021 C 
BRANCH  23  24
ATOM     24  C   UNL A   1      36.406  23.788  25.767  1.00  0.00     0.116 C 
BRANCH  24  25
ATOM     25  N   UNL A   1      37.463  22.795  25.868  1.00  0.00    -0.352 N 
ATOM     26  C   UNL A   1      38.773  22.965  26.241  1.00  0.00     0.251 C 
ATOM     27  H   UNL A   1      37.203  21.873  25.638  1.00  0.00     0.163 HD
ATOM     28  O   UNL A   1      39.591  22.074  26.039  1.00  0.00    -0.269 OA
BRANCH  26  29
ATOM     29  C   UNL A   1      39.188  24.231  26.879  1.00  0.00     0.039 A 
ATOM     30  C   UNL A   1      38.840  24.469  28.210  1.00  0.00     0.014 A 
ATOM     31  C   UNL A   1      39.914  25.184  26.158  1.00  0.00     0.014 A 
ATOM     32  C   UNL A   1      39.263  25.645  28.833  1.00  0.00     0.010 A 
ATOM     33  C   UNL A   1      40.397  26.318  26.802  1.00  0.00     0.010 A 
ATOM     34  C   UNL A   1      40.067  26.567  28.142  1.00  0.00    -0.014 A 
BRANCH  34  35
ATOM     35  C   UNL A   1      40.557  27.806  28.795  1.00  0.00     0.031 A 
ATOM     36  C   UNL A   1      41.954  27.860  29.352  1.00  0.00     0.074 A 
ATOM     37  C   UNL A   1      39.729  28.860  28.938  1.00  0.00     0.049 A 
ATOM     38  N   UNL A   1      42.541  28.824  30.014  1.00  0.00    -0.248 NA
ATOM     39  C   UNL A   1      42.793  26.664  29.163  1.00  0.00     0.031 C 
ATOM     40  C   UNL A   1      38.342  28.920  28.468  1.00  0.00     0.029 A 
ATOM     41  N   UNL A   1      39.930  30.084  29.526  1.00  0.00    -0.354 N 
ATOM     42  C   UNL A   1      43.808  28.347  30.332  1.00  0.00     0.074 A 
ATOM     43  C   UNL A   1      43.884  26.989  29.839  1.00  0.00     0.031 C 
ATOM     44  C   UNL A   1      37.830  30.126  28.760  1.00  0.00     0.029 A 
ATOM     45  C   UNL A   1      38.831  30.908  29.476  1.00  0.00     0.049 A 
ATOM     46  H   UNL A   1      40.782  30.347  29.943  1.00  0.00     0.167 HD
ATOM     47  C   UNL A   1      44.824  28.988  30.957  1.00  0.00     0.031 A 
ATOM     48  C   UNL A   1      38.647  32.152  29.961  1.00  0.00     0.031 A 
ATOM     49  C   UNL A   1      44.746  30.342  31.437  1.00  0.00     0.049 A 
ATOM     50  C   UNL A   1      39.783  32.835  30.675  1.00  0.00     0.074 A 
ATOM     51  C   UNL A   1      45.733  31.097  32.043  1.00  0.00     0.029 A 
ATOM     52  N   UNL A   1      43.616  31.142  31.365  1.00  0.00    -0.354 N 
ATOM     53  N   UNL A   1      40.993  32.386  30.916  1.00  0.00    -0.248 NA
ATOM     54  C   UNL A   1      39.533  34.195  31.170  1.00  0.00     0.031 C 
ATOM     55  C   UNL A   1      45.184  32.336  32.390  1.00  0.00     0.029 A 
ATOM     56  C   UNL A   1      43.874  32.376  31.938  1.00  0.00     0.049 A 
ATOM     57  H   UNL A   1      42.757  30.873  30.967  1.00  0.00     0.167 HD
ATOM     58  C   UNL A   1      41.658  33.424  31.561  1.00  0.00     0.074 A 
ATOM     59  C   UNL A   1      40.720  34.524  31.662  1.00  0.00     0.031 C 
ATOM     60  C   UNL A   1      42.931  33.462  32.025  1.00  0.00     0.031 A 
BRANCH  47  61
ATOM     61  C   UNL A   1      46.109  28.227  31.161  1.00  0.00    -0.014 A 
ATOM     62  C   UNL A   1      47.136  28.260  30.199  1.00  0.00     0.010 A 
ATOM     63  C   UNL A   1      46.311  27.499  32.349  1.00  0.00     0.010 A 
ATOM     64  C   UNL A   1      48.320  27.546  30.401  1.00  0.00     0.020 A 
ATOM     65  C   UNL A   1      47.506  26.810  32.568  1.00  0.00     0.020 A 
ATOM     66  C   UNL A   1      48.497  26.824  31.585  1.00  0.00     0.054 A 
BRANCH  66  67
ATOM     67  S   UNL A   1      50.054  25.927  31.827  1.00  0.00     0.124 S 
ATOM     68  O   UNL A   1      49.612  24.756  32.583  1.00  0.00    -0.237 OA
ATOM     69  O   UNL A   1      50.488  25.663  30.459  1.00  0.00    -0.237 OA
ATOM     70  O   UNL A   1      50.886  26.869  32.572  1.00  0.00    -0.744 OA
ENDBRANCH  66  67
ENDBRANCH  47  61
BRANCH  48  71
ATOM     71  C   UNL A   1      37.338  32.839  29.777  1.00  0.00    -0.014 A 
ATOM     72  C   UNL A   1      36.422  32.927  30.840  1.00  0.00     0.010 A 
ATOM     73  C   UNL A   1      37.002  33.412  28.537  1.00  0.00     0.010 A 
ATOM     74  C   UNL A   1      35.186  33.554  30.661  1.00  0.00     0.020 A 
ATOM     75  C   UNL A   1      35.780  34.067  28.362  1.00  0.00     0.020 A 
ATOM     76  C   UNL A   1      34.873  34.122  29.422  1.00  0.00     0.054 A 
BRANCH  76  77
ATOM     77  S   UNL A   1      33.280  34.966  29.223  1.00  0.00     0.124 S 
ATOM     78  O   UNL A   1      33.691  36.280  28.739  1.00  0.00    -0.237 OA
ATOM     79  O   UNL A   1      32.593  34.118  28.252  1.00  0.00    -0.237 OA
ATOM     80  O   UNL A   1      32.712  34.944  30.570  1.00  0.00    -0.744 OA
ENDBRANCH  76  77
ENDBRANCH  48  71
BRANCH  60  81
ATOM     81  C   UNL A   1      43.406  34.750  32.646  1.00  0.00    -0.014 A 
ATOM     82  C   UNL A   1      43.382  34.946  34.038  1.00  0.00     0.010 A 
ATOM     83  C   UNL A   1      43.941  35.757  31.821  1.00  0.00     0.010 A 
ATOM     84  C   UNL A   1      43.857  36.138  34.592  1.00  0.00     0.020 A 
ATOM     85  C   UNL A   1      44.445  36.937  32.373  1.00  0.00     0.020 A 
ATOM     86  C   UNL A   1      44.387  37.126  33.754  1.00  0.00     0.054 A 
BRANCH  86  87
ATOM     87  S   UNL A   1      45.042  38.642  34.502  1.00  0.00     0.124 S 
ATOM     88  O   UNL A   1      45.499  38.166  35.805  1.00  0.00    -0.237 OA
ATOM     89  O   UNL A   1      46.098  39.029  33.569  1.00  0.00    -0.237 OA
ATOM     90  O   UNL A   1      43.890  39.539  34.536  1.00  0.00    -0.744 OA
ENDBRANCH  86  87
ENDBRANCH  60  81
ENDBRANCH  34  35
ENDBRANCH  26  29
ENDBRANCH  24  25
ENDBRANCH  23  24
ENDBRANCH   1  23
TORSDOF 17
ENDMDL
MODEL 3
REMARK VINA RESULT:     -10.3      4.816      6.515
REMARK SMILES Cc1ccc(F)c(-c2ncccc2C(=O)NCCCCCCNC(=O)c2ccc(-c3c4nc(c(-c5ccc(S(=O)(=O)[O-])cc5)c5ccc([nH]5)c(-c5ccc(S(=O)(=O)[O-])cc5)c5nc(c(-c6ccc(S(=O)(=O)[O-])cc6)c6ccc3[nH]6)C=C5)C=C4)cc2)c1
REMARK SMILES IDX 20 1 19 2 18 3 17 4 16 5 14 6 15 7 13 9 8 10 9 11 10 12
REMARK SMILES IDX 12 13 11 14 7 15 1 16 2 17 3 18 86 19 4 20 5 21 6 22 21 23
REMARK SMILES IDX 22 24 23 25 24 26 25 28 26 29 27 30 85 31 28 32 84 33 29 34
REMARK SMILES IDX 30 35 31 36 78 37 32 38 83 39 77 40 79 41 33 42 82 43 76 44
REMARK SMILES IDX 75 45 34 47 64 48 45 49 63 50 46 51 49 52 62 53 80 54 47 55
REMARK SMILES IDX 48 56 61 58 81 59 50 60 35 61 36 62 44 63 37 64 43 65 38 66
REMARK SMILES IDX 39 67 40 68 41 69 42 70 65 71 66 72 74 73 67 74 73 75 68 76
REMARK SMILES IDX 69 77 70 78 71 79 72 80 51 81 52 82 60 83 53 84 59 85 54 86
REMARK SMILES IDX 55 87 56 88 57 89 58 90
REMARK H PARENT 16 8 23 27 79 46 49 57
REMARK Flexibility Score: inf
ROOT
ATOM      1  C   UNL A   1      35.482  33.211  28.033  1.00  0.00     0.002 C 
ENDROOT
BRANCH   1   2
ATOM      2  C   UNL A   1      35.502  31.684  27.869  1.00  0.00     0.002 C 
BRANCH   2   3
ATOM      3  C   UNL A   1      34.121  31.029  27.705  1.00  0.00     0.021 C 
BRANCH   3   4
ATOM      4  C   UNL A   1      34.194  29.550  27.330  1.00  0.00     0.116 C 
BRANCH   4   5
ATOM      5  N   UNL A   1      32.991  28.863  27.746  1.00  0.00    -0.352 N 
ATOM      6  C   UNL A   1      31.901  28.288  27.154  1.00  0.00     0.253 C 
ATOM      7  O   UNL A   1      31.119  27.805  27.975  1.00  0.00    -0.269 OA
ATOM      8  H   UNL A   1      32.944  28.789  28.726  1.00  0.00     0.163 HD
BRANCH   6   9
ATOM      9  C   UNL A   1      31.636  28.174  25.679  1.00  0.00     0.066 A 
ATOM     10  C   UNL A   1      31.826  26.943  25.012  1.00  0.00     0.086 A 
ATOM     11  N   UNL A   1      31.737  26.810  23.651  1.00  0.00    -0.255 NA
ATOM     12  C   UNL A   1      31.446  27.899  22.920  1.00  0.00     0.112 A 
ATOM     13  C   UNL A   1      31.234  29.245  24.872  1.00  0.00     0.018 A 
ATOM     14  C   UNL A   1      31.164  29.122  23.483  1.00  0.00     0.021 A 
BRANCH  10  15
ATOM     15  C   UNL A   1      32.045  25.647  25.670  1.00  0.00     0.037 A 
ATOM     16  C   UNL A   1      34.948  23.275  26.432  1.00  0.00     0.044 C 
ATOM     17  C   UNL A   1      33.567  23.860  26.384  1.00  0.00    -0.050 A 
ATOM     18  C   UNL A   1      32.474  23.127  26.860  1.00  0.00     0.006 A 
ATOM     19  C   UNL A   1      33.347  25.127  25.825  1.00  0.00     0.016 A 
ATOM     20  C   UNL A   1      31.183  23.645  26.755  1.00  0.00     0.040 A 
ATOM     21  C   UNL A   1      30.978  24.887  26.157  1.00  0.00     0.132 A 
ATOM     22  F   UNL A   1      29.715  25.330  26.037  1.00  0.00    -0.206 F 
ENDBRANCH  10  15
ENDBRANCH   6   9
ENDBRANCH   4   5
ENDBRANCH   3   4
ENDBRANCH   2   3
ENDBRANCH   1   2
BRANCH   1  23
ATOM     23  C   UNL A   1      34.088  33.823  28.193  1.00  0.00     0.021 C 
BRANCH  23  24
ATOM     24  C   UNL A   1      34.099  35.290  28.604  1.00  0.00     0.116 C 
BRANCH  24  25
ATOM     25  N   UNL A   1      33.140  35.552  29.665  1.00  0.00    -0.352 N 
ATOM     26  C   UNL A   1      33.144  35.101  30.961  1.00  0.00     0.251 C 
ATOM     27  H   UNL A   1      32.385  36.135  29.420  1.00  0.00     0.163 HD
ATOM     28  O   UNL A   1      32.139  35.214  31.655  1.00  0.00    -0.269 OA
BRANCH  26  29
ATOM     29  C   UNL A   1      34.363  34.471  31.508  1.00  0.00     0.039 A 
ATOM     30  C   UNL A   1      34.399  33.085  31.671  1.00  0.00     0.014 A 
ATOM     31  C   UNL A   1      35.467  35.252  31.865  1.00  0.00     0.014 A 
ATOM     32  C   UNL A   1      35.561  32.476  32.149  1.00  0.00     0.010 A 
ATOM     33  C   UNL A   1      36.647  34.637  32.269  1.00  0.00     0.010 A 
ATOM     34  C   UNL A   1      36.703  33.245  32.427  1.00  0.00    -0.014 A 
BRANCH  34  35
ATOM     35  C   UNL A   1      37.961  32.616  32.902  1.00  0.00     0.031 A 
ATOM     36  C   UNL A   1      38.449  32.877  34.302  1.00  0.00     0.074 A 
ATOM     37  C   UNL A   1      38.690  31.858  32.060  1.00  0.00     0.049 A 
ATOM     38  N   UNL A   1      39.553  32.475  34.878  1.00  0.00    -0.248 NA
ATOM     39  C   UNL A   1      37.599  33.723  35.157  1.00  0.00     0.031 C 
ATOM     40  C   UNL A   1      38.338  31.555  30.670  1.00  0.00     0.029 A 
ATOM     41  N   UNL A   1      39.884  31.208  32.246  1.00  0.00    -0.354 N 
ATOM     42  C   UNL A   1      39.537  33.028  36.154  1.00  0.00     0.074 A 
ATOM     43  C   UNL A   1      38.342  33.839  36.247  1.00  0.00     0.031 C 
ATOM     44  C   UNL A   1      39.279  30.757  30.141  1.00  0.00     0.029 A 
ATOM     45  C   UNL A   1      40.322  30.527  31.135  1.00  0.00     0.049 A 
ATOM     46  H   UNL A   1      40.380  31.226  33.096  1.00  0.00     0.167 HD
ATOM     47  C   UNL A   1      40.423  32.860  37.163  1.00  0.00     0.031 A 
ATOM     48  C   UNL A   1      41.443  29.806  30.935  1.00  0.00     0.031 A 
ATOM     49  C   UNL A   1      41.605  32.045  37.068  1.00  0.00     0.049 A 
ATOM     50  C   UNL A   1      42.426  29.654  32.064  1.00  0.00     0.074 A 
ATOM     51  C   UNL A   1      42.543  31.773  38.047  1.00  0.00     0.029 A 
ATOM     52  N   UNL A   1      42.011  31.371  35.926  1.00  0.00    -0.354 N 
ATOM     53  N   UNL A   1      42.364  30.140  33.282  1.00  0.00    -0.248 NA
ATOM     54  C   UNL A   1      43.624  28.845  31.797  1.00  0.00     0.031 C 
ATOM     55  C   UNL A   1      43.547  30.980  37.481  1.00  0.00     0.029 A 
ATOM     56  C   UNL A   1      43.199  30.703  36.168  1.00  0.00     0.049 A 
ATOM     57  H   UNL A   1      41.526  31.369  35.068  1.00  0.00     0.167 HD
ATOM     58  C   UNL A   1      43.497  29.667  33.935  1.00  0.00     0.074 A 
ATOM     59  C   UNL A   1      44.219  28.849  32.982  1.00  0.00     0.031 C 
ATOM     60  C   UNL A   1      43.902  29.888  35.210  1.00  0.00     0.031 A 
BRANCH  47  61
ATOM     61  C   UNL A   1      40.148  33.576  38.460  1.00  0.00    -0.014 A 
ATOM     62  C   UNL A   1      40.605  34.890  38.678  1.00  0.00     0.010 A 
ATOM     63  C   UNL A   1      39.390  32.943  39.463  1.00  0.00     0.010 A 
ATOM     64  C   UNL A   1      40.345  35.539  39.887  1.00  0.00     0.020 A 
ATOM     65  C   UNL A   1      39.101  33.602  40.661  1.00  0.00     0.020 A 
ATOM     66  C   UNL A   1      39.596  34.890  40.872  1.00  0.00     0.054 A 
BRANCH  66  67
ATOM     67  S   UNL A   1      39.256  35.768  42.423  1.00  0.00     0.124 S 
ATOM     68  O   UNL A   1      39.558  37.150  42.058  1.00  0.00    -0.237 OA
ATOM     69  O   UNL A   1      37.845  35.473  42.655  1.00  0.00    -0.237 OA
ATOM     70  O   UNL A   1      40.183  35.160  43.376  1.00  0.00    -0.744 OA
ENDBRANCH  66  67
ENDBRANCH  47  61
BRANCH  48  71
ATOM     71  C   UNL A   1      41.690  29.162  29.615  1.00  0.00    -0.014 A 
ATOM     72  C   UNL A   1      41.239  27.853  29.363  1.00  0.00     0.010 A 
ATOM     73  C   UNL A   1      42.374  29.855  28.600  1.00  0.00     0.010 A 
ATOM     74  C   UNL A   1      41.489  27.242  28.131  1.00  0.00     0.020 A 
ATOM     75  C   UNL A   1      42.599  29.258  27.356  1.00  0.00     0.020 A 
ATOM     76  C   UNL A   1      42.167  27.950  27.134  1.00  0.00     0.054 A 
BRANCH  76  77
ATOM     77  S   UNL A   1      42.444  27.152  25.529  1.00  0.00     0.124 S 
ATOM     78  O   UNL A   1      41.296  26.256  25.433  1.00  0.00    -0.237 OA
ATOM     79  O   UNL A   1      42.442  28.287  24.608  1.00  0.00    -0.237 OA
ATOM     80  O   UNL A   1      43.739  26.495  25.693  1.00  0.00    -0.744 OA
ENDBRANCH  76  77
ENDBRANCH  48  71
BRANCH  60  81
ATOM     81  C   UNL A   1      45.161  29.201  35.669  1.00  0.00    -0.014 A 
ATOM     82  C   UNL A   1      45.128  27.920  36.249  1.00  0.00     0.010 A 
ATOM     83  C   UNL A   1      46.404  29.827  35.459  1.00  0.00     0.010 A 
ATOM     84  C   UNL A   1      46.314  27.291  36.639  1.00  0.00     0.020 A 
ATOM     85  C   UNL A   1      47.593  29.188  35.819  1.00  0.00     0.020 A 
ATOM     86  C   UNL A   1      47.539  27.930  36.419  1.00  0.00     0.054 A 
BRANCH  86  87
ATOM     87  S   UNL A   1      49.066  27.070  36.889  1.00  0.00     0.124 S 
ATOM     88  O   UNL A   1      48.555  25.799  37.396  1.00  0.00    -0.237 OA
ATOM     89  O   UNL A   1      49.793  26.996  35.624  1.00  0.00    -0.237 OA
ATOM     90  O   UNL A   1      49.663  27.947  37.894  1.00  0.00    -0.744 OA
ENDBRANCH  86  87
ENDBRANCH  60  81
ENDBRANCH  34  35
ENDBRANCH  26  29
ENDBRANCH  24  25
ENDBRANCH  23  24
ENDBRANCH   1  23
TORSDOF 17
ENDMDL
