MODEL 1
REMARK VINA RESULT:      -8.0      0.000      0.000
REMARK SMILES CCCc1cc(OC(F)(F)F)cc2c1O[C@H](C(F)(F)F)C(C(=O)NCCCCCCNC(=O)c1ccc(-c3c4nc(c(-c5ccc(S(=O)(=O)[O-])cc5)c5ccc([nH]5)c(-c5ccc(S(=O)(=O)[O-])cc5)c5nc(c(-c6ccc(S(=O)(=O)[O-])cc6)c6ccc3[nH]6)C=C5)C=C4)cc1)=C2
REMARK SMILES IDX 28 1 27 2 26 3 25 4 24 5 22 6 23 7 21 9 4 10 5 11 14 12 6 13
REMARK SMILES IDX 13 14 15 15 12 16 94 17 16 18 3 19 2 20 1 21 7 22 8 23 9 24
REMARK SMILES IDX 10 25 11 26 17 27 18 28 19 29 20 30 29 31 30 32 31 33 32 34
REMARK SMILES IDX 33 36 34 37 35 38 93 39 36 40 92 41 37 42 38 43 39 44 86 45
REMARK SMILES IDX 40 46 91 47 85 48 87 49 41 50 90 51 84 52 83 53 42 55 72 56
REMARK SMILES IDX 53 57 71 58 54 59 57 60 70 61 88 62 55 63 56 64 69 66 89 67
REMARK SMILES IDX 58 68 43 69 44 70 52 71 45 72 51 73 46 74 47 75 48 76 49 77
REMARK SMILES IDX 50 78 73 79 74 80 82 81 75 82 81 83 76 84 77 85 78 86 79 87
REMARK SMILES IDX 80 88 59 89 60 90 68 91 61 92 67 93 62 94 63 95 64 96 65 97
REMARK SMILES IDX 66 98
REMARK H PARENT 24 8 31 35 87 54 57 65
REMARK Flexibility Score: inf
ROOT
ATOM      1  C   UNL A   1      51.362  20.768  34.564  1.00  0.00     0.002 C 
ENDROOT
BRANCH   1   2
ATOM      2  C   UNL A   1      50.169  19.889  34.961  1.00  0.00     0.002 C 
BRANCH   2   3
ATOM      3  C   UNL A   1      49.239  19.519  33.798  1.00  0.00     0.021 C 
BRANCH   3   4
ATOM      4  C   UNL A   1      47.875  20.210  33.893  1.00  0.00     0.116 C 
BRANCH   4   5
ATOM      5  N   UNL A   1      46.991  19.429  34.736  1.00  0.00    -0.352 N 
ATOM      6  C   UNL A   1      46.195  19.759  35.784  1.00  0.00     0.251 C 
ATOM      7  O   UNL A   1      45.600  18.851  36.364  1.00  0.00    -0.270 OA
ATOM      8  H   UNL A   1      46.963  18.473  34.504  1.00  0.00     0.163 HD
BRANCH   6   9
ATOM      9  C   UNL A   1      45.911  21.167  36.172  1.00  0.00     0.067 C 
ATOM     10  C   UNL A   1      44.711  24.733  38.036  1.00  0.00    -0.002 A 
ATOM     11  C   UNL A   1      43.932  25.639  37.292  1.00  0.00     0.054 A 
ATOM     12  C   UNL A   1      45.181  23.571  37.405  1.00  0.00     0.131 A 
ATOM     13  C   UNL A   1      43.695  25.445  35.934  1.00  0.00     0.130 A 
ATOM     14  C   UNL A   1      44.918  23.350  36.050  1.00  0.00     0.021 A 
ATOM     15  O   UNL A   1      45.814  22.643  38.183  1.00  0.00    -0.475 OA
ATOM     16  C   UNL A   1      44.189  24.295  35.318  1.00  0.00     0.058 A 
ATOM     17  C   UNL A   1      45.287  22.087  35.426  1.00  0.00     0.025 C 
ATOM     18  C   UNL A   1      46.503  21.555  37.514  1.00  0.00     0.314 C 
BRANCH  10  19
ATOM     19  C   UNL A   1      45.012  25.048  39.486  1.00  0.00     0.039 C 
BRANCH  19  20
ATOM     20  C   UNL A   1      44.938  26.544  39.826  1.00  0.00     0.001 C 
ATOM     21  C   UNL A   1      46.153  27.083  40.574  1.00  0.00     0.004 C 
ENDBRANCH  19  20
ENDBRANCH  10  19
BRANCH  13  22
ATOM     22  O   UNL A   1      42.986  26.275  35.116  1.00  0.00    -0.406 OA
BRANCH  22  23
ATOM     23  C   UNL A   1      41.588  26.367  35.340  1.00  0.00     0.573 C 
ATOM     24  F   UNL A   1      40.958  26.884  34.264  1.00  0.00    -0.132 F 
ATOM     25  F   UNL A   1      41.059  25.156  35.628  1.00  0.00    -0.132 F 
ATOM     26  F   UNL A   1      41.367  27.182  36.393  1.00  0.00    -0.132 F 
ENDBRANCH  22  23
ENDBRANCH  13  22
BRANCH  18  27
ATOM     27  C   UNL A   1      48.016  21.859  37.402  1.00  0.00     0.429 C 
ATOM     28  F   UNL A   1      48.793  20.792  37.708  1.00  0.00    -0.167 F 
ATOM     29  F   UNL A   1      48.361  22.233  36.142  1.00  0.00    -0.167 F 
ATOM     30  F   UNL A   1      48.387  22.879  38.213  1.00  0.00    -0.167 F 
ENDBRANCH  18  27
ENDBRANCH   6   9
ENDBRANCH   4   5
ENDBRANCH   3   4
ENDBRANCH   2   3
ENDBRANCH   1   2
BRANCH   1  31
ATOM     31  C   UNL A   1      51.182  21.531  33.250  1.00  0.00     0.021 C 
BRANCH  31  32
ATOM     32  C   UNL A   1      50.762  22.983  33.438  1.00  0.00     0.116 C 
BRANCH  32  33
ATOM     33  N   UNL A   1      51.323  23.540  34.661  1.00  0.00    -0.352 N 
ATOM     34  C   UNL A   1      50.985  24.706  35.304  1.00  0.00     0.251 C 
ATOM     35  H   UNL A   1      52.038  23.010  35.083  1.00  0.00     0.163 HD
ATOM     36  O   UNL A   1      51.713  25.171  36.169  1.00  0.00    -0.269 OA
BRANCH  34  37
ATOM     37  C   UNL A   1      49.732  25.389  34.925  1.00  0.00     0.039 A 
ATOM     38  C   UNL A   1      49.752  26.355  33.916  1.00  0.00     0.014 A 
ATOM     39  C   UNL A   1      48.537  25.056  35.568  1.00  0.00     0.014 A 
ATOM     40  C   UNL A   1      48.556  26.954  33.516  1.00  0.00     0.010 A 
ATOM     41  C   UNL A   1      47.341  25.595  35.115  1.00  0.00     0.010 A 
ATOM     42  C   UNL A   1      47.339  26.560  34.096  1.00  0.00    -0.014 A 
BRANCH  42  43
ATOM     43  C   UNL A   1      46.043  27.164  33.698  1.00  0.00     0.031 A 
ATOM     44  C   UNL A   1      45.335  26.643  32.477  1.00  0.00     0.074 A 
ATOM     45  C   UNL A   1      45.558  28.229  34.366  1.00  0.00     0.049 A 
ATOM     46  N   UNL A   1      44.285  27.122  31.863  1.00  0.00    -0.248 NA
ATOM     47  C   UNL A   1      45.903  25.439  31.845  1.00  0.00     0.031 C 
ATOM     48  C   UNL A   1      46.163  28.835  35.554  1.00  0.00     0.029 A 
ATOM     49  N   UNL A   1      44.451  29.002  34.126  1.00  0.00    -0.354 N 
ATOM     50  C   UNL A   1      44.089  26.302  30.759  1.00  0.00     0.074 A 
ATOM     51  C   UNL A   1      45.153  25.324  30.760  1.00  0.00     0.031 C 
ATOM     52  C   UNL A   1      45.413  29.878  35.945  1.00  0.00     0.029 A 
ATOM     53  C   UNL A   1      44.305  30.048  35.009  1.00  0.00     0.049 A 
ATOM     54  H   UNL A   1      43.819  28.827  33.392  1.00  0.00     0.167 HD
ATOM     55  C   UNL A   1      43.100  26.349  29.835  1.00  0.00     0.031 A 
ATOM     56  C   UNL A   1      43.395  31.041  35.048  1.00  0.00     0.031 A 
ATOM     57  C   UNL A   1      42.036  27.315  29.852  1.00  0.00     0.049 A 
ATOM     58  C   UNL A   1      42.316  31.088  33.998  1.00  0.00     0.074 A 
ATOM     59  C   UNL A   1      40.958  27.420  28.992  1.00  0.00     0.029 A 
ATOM     60  N   UNL A   1      41.914  28.341  30.779  1.00  0.00    -0.354 N 
ATOM     61  N   UNL A   1      42.120  30.278  32.984  1.00  0.00    -0.248 NA
ATOM     62  C   UNL A   1      41.332  32.174  34.099  1.00  0.00     0.031 C 
ATOM     63  C   UNL A   1      40.215  28.543  29.364  1.00  0.00     0.029 A 
ATOM     64  C   UNL A   1      40.788  29.094  30.499  1.00  0.00     0.049 A 
ATOM     65  H   UNL A   1      42.536  28.507  31.523  1.00  0.00     0.167 HD
ATOM     66  C   UNL A   1      40.964  30.730  32.357  1.00  0.00     0.074 A 
ATOM     67  C   UNL A   1      40.508  31.886  33.100  1.00  0.00     0.031 C 
ATOM     68  C   UNL A   1      40.333  30.226  31.267  1.00  0.00     0.031 A 
BRANCH  55  69
ATOM     69  C   UNL A   1      43.133  25.334  28.723  1.00  0.00    -0.014 A 
ATOM     70  C   UNL A   1      43.709  25.635  27.475  1.00  0.00     0.010 A 
ATOM     71  C   UNL A   1      42.613  24.045  28.942  1.00  0.00     0.010 A 
ATOM     72  C   UNL A   1      43.724  24.683  26.453  1.00  0.00     0.020 A 
ATOM     73  C   UNL A   1      42.656  23.078  27.933  1.00  0.00     0.020 A 
ATOM     74  C   UNL A   1      43.195  23.410  26.689  1.00  0.00     0.054 A 
BRANCH  74  75
ATOM     75  S   UNL A   1      43.248  22.188  25.350  1.00  0.00     0.124 S 
ATOM     76  O   UNL A   1      44.464  21.445  25.670  1.00  0.00    -0.237 OA
ATOM     77  O   UNL A   1      41.998  21.457  25.535  1.00  0.00    -0.237 OA
ATOM     78  O   UNL A   1      43.318  23.003  24.139  1.00  0.00    -0.744 OA
ENDBRANCH  74  75
ENDBRANCH  55  69
BRANCH  56  79
ATOM     79  C   UNL A   1      43.460  32.069  36.124  1.00  0.00    -0.014 A 
ATOM     80  C   UNL A   1      42.818  31.854  37.357  1.00  0.00     0.010 A 
ATOM     81  C   UNL A   1      44.175  33.265  35.928  1.00  0.00     0.010 A 
ATOM     82  C   UNL A   1      42.872  32.821  38.364  1.00  0.00     0.020 A 
ATOM     83  C   UNL A   1      44.257  34.222  36.943  1.00  0.00     0.020 A 
ATOM     84  C   UNL A   1      43.594  33.999  38.151  1.00  0.00     0.054 A 
BRANCH  84  85
ATOM     85  S   UNL A   1      43.689  35.220  39.491  1.00  0.00     0.124 S 
ATOM     86  O   UNL A   1      44.860  36.003  39.104  1.00  0.00    -0.237 OA
ATOM     87  O   UNL A   1      42.405  35.906  39.382  1.00  0.00    -0.237 OA
ATOM     88  O   UNL A   1      43.851  34.401  40.689  1.00  0.00    -0.744 OA
ENDBRANCH  84  85
ENDBRANCH  56  79
BRANCH  68  89
ATOM     89  C   UNL A   1      39.037  30.862  30.843  1.00  0.00    -0.014 A 
ATOM     90  C   UNL A   1      39.009  31.992  30.009  1.00  0.00     0.010 A 
ATOM     91  C   UNL A   1      37.826  30.237  31.196  1.00  0.00     0.010 A 
ATOM     92  C   UNL A   1      37.789  32.488  29.538  1.00  0.00     0.020 A 
ATOM     93  C   UNL A   1      36.609  30.714  30.706  1.00  0.00     0.020 A 
ATOM     94  C   UNL A   1      36.598  31.840  29.882  1.00  0.00     0.054 A 
BRANCH  94  95
ATOM     95  S   UNL A   1      35.040  32.447  29.181  1.00  0.00     0.124 S 
ATOM     96  O   UNL A   1      35.484  33.600  28.403  1.00  0.00    -0.237 OA
ATOM     97  O   UNL A   1      34.574  31.303  28.401  1.00  0.00    -0.237 OA
ATOM     98  O   UNL A   1      34.229  32.764  30.355  1.00  0.00    -0.744 OA
ENDBRANCH  94  95
ENDBRANCH  68  89
ENDBRANCH  42  43
ENDBRANCH  34  37
ENDBRANCH  32  33
ENDBRANCH  31  32
ENDBRANCH   1  31
TORSDOF 21
ENDMDL
MODEL 2
REMARK VINA RESULT:      -7.9      4.449     10.157
REMARK SMILES CCCc1cc(OC(F)(F)F)cc2c1O[C@H](C(F)(F)F)C(C(=O)NCCCCCCNC(=O)c1ccc(-c3c4nc(c(-c5ccc(S(=O)(=O)[O-])cc5)c5ccc([nH]5)c(-c5ccc(S(=O)(=O)[O-])cc5)c5nc(c(-c6ccc(S(=O)(=O)[O-])cc6)c6ccc3[nH]6)C=C5)C=C4)cc1)=C2
REMARK SMILES IDX 28 1 27 2 26 3 25 4 24 5 22 6 23 7 21 9 4 10 5 11 14 12 6 13
REMARK SMILES IDX 13 14 15 15 12 16 94 17 16 18 3 19 2 20 1 21 7 22 8 23 9 24
REMARK SMILES IDX 10 25 11 26 17 27 18 28 19 29 20 30 29 31 30 32 31 33 32 34
REMARK SMILES IDX 33 36 34 37 35 38 93 39 36 40 92 41 37 42 38 43 39 44 86 45
REMARK SMILES IDX 40 46 91 47 85 48 87 49 41 50 90 51 84 52 83 53 42 55 72 56
REMARK SMILES IDX 53 57 71 58 54 59 57 60 70 61 88 62 55 63 56 64 69 66 89 67
REMARK SMILES IDX 58 68 43 69 44 70 52 71 45 72 51 73 46 74 47 75 48 76 49 77
REMARK SMILES IDX 50 78 73 79 74 80 82 81 75 82 81 83 76 84 77 85 78 86 79 87
REMARK SMILES IDX 80 88 59 89 60 90 68 91 61 92 67 93 62 94 63 95 64 96 65 97
REMARK SMILES IDX 66 98
REMARK H PARENT 24 8 31 35 87 54 57 65
REMARK Flexibility Score: inf
ROOT
ATOM      1  C   UNL A   1      46.059  21.285  24.991  1.00  0.00     0.002 C 
ENDROOT
BRANCH   1   2
ATOM      2  C   UNL A   1      45.699  22.283  26.099  1.00  0.00     0.002 C 
BRANCH   2   3
ATOM      3  C   UNL A   1      45.545  23.733  25.622  1.00  0.00     0.021 C 
BRANCH   3   4
ATOM      4  C   UNL A   1      46.791  24.578  25.900  1.00  0.00     0.116 C 
BRANCH   4   5
ATOM      5  N   UNL A   1      46.995  25.517  24.813  1.00  0.00    -0.352 N 
ATOM      6  C   UNL A   1      46.749  26.845  24.691  1.00  0.00     0.251 C 
ATOM      7  O   UNL A   1      46.963  27.373  23.600  1.00  0.00    -0.270 OA
ATOM      8  H   UNL A   1      47.388  25.112  24.007  1.00  0.00     0.163 HD
BRANCH   6   9
ATOM      9  C   UNL A   1      46.363  27.706  25.842  1.00  0.00     0.067 C 
ATOM     10  C   UNL A   1      45.244  30.823  28.424  1.00  0.00    -0.002 A 
ATOM     11  C   UNL A   1      46.031  31.048  29.568  1.00  0.00     0.054 A 
ATOM     12  C   UNL A   1      45.562  29.740  27.590  1.00  0.00     0.131 A 
ATOM     13  C   UNL A   1      47.054  30.174  29.928  1.00  0.00     0.130 A 
ATOM     14  C   UNL A   1      46.610  28.877  27.924  1.00  0.00     0.021 A 
ATOM     15  O   UNL A   1      44.873  29.625  26.414  1.00  0.00    -0.475 OA
ATOM     16  C   UNL A   1      47.341  29.090  29.099  1.00  0.00     0.058 A 
ATOM     17  C   UNL A   1      47.028  27.835  26.996  1.00  0.00     0.025 C 
ATOM     18  C   UNL A   1      45.025  28.397  25.658  1.00  0.00     0.314 C 
BRANCH  10  19
ATOM     19  C   UNL A   1      44.086  31.755  28.138  1.00  0.00     0.039 C 
BRANCH  19  20
ATOM     20  C   UNL A   1      43.589  32.526  29.371  1.00  0.00     0.001 C 
ATOM     21  C   UNL A   1      42.771  33.772  29.049  1.00  0.00     0.004 C 
ENDBRANCH  19  20
ENDBRANCH  10  19
BRANCH  13  22
ATOM     22  O   UNL A   1      47.850  30.280  31.030  1.00  0.00    -0.406 OA
BRANCH  22  23
ATOM     23  C   UNL A   1      48.365  31.566  31.336  1.00  0.00     0.573 C 
ATOM     24  F   UNL A   1      49.254  31.503  32.351  1.00  0.00    -0.132 F 
ATOM     25  F   UNL A   1      48.959  32.123  30.257  1.00  0.00    -0.132 F 
ATOM     26  F   UNL A   1      47.346  32.367  31.714  1.00  0.00    -0.132 F 
ENDBRANCH  22  23
ENDBRANCH  13  22
BRANCH  18  27
ATOM     27  C   UNL A   1      43.846  27.436  25.942  1.00  0.00     0.429 C 
ATOM     28  F   UNL A   1      44.228  26.307  26.587  1.00  0.00    -0.167 F 
ATOM     29  F   UNL A   1      42.899  28.019  26.722  1.00  0.00    -0.167 F 
ATOM     30  F   UNL A   1      43.216  27.060  24.803  1.00  0.00    -0.167 F 
ENDBRANCH  18  27
ENDBRANCH   6   9
ENDBRANCH   4   5
ENDBRANCH   3   4
ENDBRANCH   2   3
ENDBRANCH   1   2
BRANCH   1  31
ATOM     31  C   UNL A   1      44.897  20.405  24.524  1.00  0.00     0.021 C 
BRANCH  31  32
ATOM     32  C   UNL A   1      44.256  19.595  25.643  1.00  0.00     0.116 C 
BRANCH  32  33
ATOM     33  N   UNL A   1      42.877  19.252  25.322  1.00  0.00    -0.352 N 
ATOM     34  C   UNL A   1      41.721  19.812  25.807  1.00  0.00     0.251 C 
ATOM     35  H   UNL A   1      42.759  18.522  24.671  1.00  0.00     0.163 HD
ATOM     36  O   UNL A   1      40.645  19.253  25.648  1.00  0.00    -0.269 OA
BRANCH  34  37
ATOM     37  C   UNL A   1      41.803  21.096  26.531  1.00  0.00     0.039 A 
ATOM     38  C   UNL A   1      41.700  21.111  27.924  1.00  0.00     0.014 A 
ATOM     39  C   UNL A   1      41.996  22.283  25.820  1.00  0.00     0.014 A 
ATOM     40  C   UNL A   1      41.841  22.319  28.611  1.00  0.00     0.010 A 
ATOM     41  C   UNL A   1      42.213  23.469  26.509  1.00  0.00     0.010 A 
ATOM     42  C   UNL A   1      42.123  23.502  27.909  1.00  0.00    -0.014 A 
BRANCH  42  43
ATOM     43  C   UNL A   1      42.287  24.807  28.596  1.00  0.00     0.031 A 
ATOM     44  C   UNL A   1      43.519  25.049  29.426  1.00  0.00     0.074 A 
ATOM     45  C   UNL A   1      41.301  25.724  28.556  1.00  0.00     0.049 A 
ATOM     46  N   UNL A   1      43.790  26.041  30.232  1.00  0.00    -0.248 NA
ATOM     47  C   UNL A   1      44.572  24.020  29.364  1.00  0.00     0.031 C 
ATOM     48  C   UNL A   1      40.053  25.596  27.800  1.00  0.00     0.029 A 
ATOM     49  N   UNL A   1      41.186  26.938  29.183  1.00  0.00    -0.354 N 
ATOM     50  C   UNL A   1      45.024  25.741  30.796  1.00  0.00     0.074 A 
ATOM     51  C   UNL A   1      45.427  24.454  30.277  1.00  0.00     0.031 C 
ATOM     52  C   UNL A   1      39.305  26.694  27.999  1.00  0.00     0.029 A 
ATOM     53  C   UNL A   1      39.994  27.579  28.935  1.00  0.00     0.049 A 
ATOM     54  H   UNL A   1      41.891  27.316  29.757  1.00  0.00     0.167 HD
ATOM     55  C   UNL A   1      45.764  26.480  31.657  1.00  0.00     0.031 A 
ATOM     56  C   UNL A   1      39.503  28.735  29.420  1.00  0.00     0.031 A 
ATOM     57  C   UNL A   1      45.362  27.767  32.153  1.00  0.00     0.049 A 
ATOM     58  C   UNL A   1      40.333  29.531  30.394  1.00  0.00     0.074 A 
ATOM     59  C   UNL A   1      46.059  28.620  32.990  1.00  0.00     0.029 A 
ATOM     60  N   UNL A   1      44.158  28.389  31.856  1.00  0.00    -0.354 N 
ATOM     61  N   UNL A   1      41.518  29.253  30.884  1.00  0.00    -0.248 NA
ATOM     62  C   UNL A   1      39.767  30.799  30.874  1.00  0.00     0.031 C 
ATOM     63  C   UNL A   1      45.252  29.732  33.245  1.00  0.00     0.029 A 
ATOM     64  C   UNL A   1      44.085  29.607  32.509  1.00  0.00     0.049 A 
ATOM     65  H   UNL A   1      43.460  28.018  31.269  1.00  0.00     0.167 HD
ATOM     66  C   UNL A   1      41.857  30.334  31.692  1.00  0.00     0.074 A 
ATOM     67  C   UNL A   1      40.752  31.266  31.629  1.00  0.00     0.031 C 
ATOM     68  C   UNL A   1      42.987  30.536  32.413  1.00  0.00     0.031 A 
BRANCH  55  69
ATOM     69  C   UNL A   1      47.076  25.906  32.123  1.00  0.00    -0.014 A 
ATOM     70  C   UNL A   1      48.261  26.100  31.390  1.00  0.00     0.010 A 
ATOM     71  C   UNL A   1      47.132  25.193  33.335  1.00  0.00     0.010 A 
ATOM     72  C   UNL A   1      49.467  25.555  31.834  1.00  0.00     0.020 A 
ATOM     73  C   UNL A   1      48.344  24.673  33.801  1.00  0.00     0.020 A 
ATOM     74  C   UNL A   1      49.500  24.843  33.037  1.00  0.00     0.054 A 
BRANCH  74  75
ATOM     75  S   UNL A   1      51.085  24.165  33.600  1.00  0.00     0.124 S 
ATOM     76  O   UNL A   1      50.662  22.956  34.303  1.00  0.00    -0.237 OA
ATOM     77  O   UNL A   1      51.801  23.944  32.346  1.00  0.00    -0.237 OA
ATOM     78  O   UNL A   1      51.631  25.219  34.450  1.00  0.00    -0.744 OA
ENDBRANCH  74  75
ENDBRANCH  55  69
BRANCH  56  79
ATOM     79  C   UNL A   1      38.162  29.216  28.988  1.00  0.00    -0.014 A 
ATOM     80  C   UNL A   1      37.952  29.658  27.670  1.00  0.00     0.010 A 
ATOM     81  C   UNL A   1      37.080  29.222  29.889  1.00  0.00     0.010 A 
ATOM     82  C   UNL A   1      36.695  30.116  27.266  1.00  0.00     0.020 A 
ATOM     83  C   UNL A   1      35.814  29.651  29.481  1.00  0.00     0.020 A 
ATOM     84  C   UNL A   1      35.632  30.107  28.174  1.00  0.00     0.054 A 
BRANCH  84  85
ATOM     85  S   UNL A   1      33.998  30.662  27.614  1.00  0.00     0.124 S 
ATOM     86  O   UNL A   1      33.838  31.917  28.342  1.00  0.00    -0.237 OA
ATOM     87  O   UNL A   1      34.186  30.786  26.171  1.00  0.00    -0.237 OA
ATOM     88  O   UNL A   1      33.109  29.579  28.028  1.00  0.00    -0.744 OA
ENDBRANCH  84  85
ENDBRANCH  56  79
BRANCH  68  89
ATOM     89  C   UNL A   1      43.137  31.846  33.140  1.00  0.00    -0.014 A 
ATOM     90  C   UNL A   1      43.806  32.937  32.561  1.00  0.00     0.010 A 
ATOM     91  C   UNL A   1      42.489  32.014  34.379  1.00  0.00     0.010 A 
ATOM     92  C   UNL A   1      43.826  34.175  33.212  1.00  0.00     0.020 A 
ATOM     93  C   UNL A   1      42.485  33.254  35.018  1.00  0.00     0.020 A 
ATOM     94  C   UNL A   1      43.157  34.327  34.431  1.00  0.00     0.054 A 
BRANCH  94  95
ATOM     95  S   UNL A   1      43.119  35.966  35.207  1.00  0.00     0.124 S 
ATOM     96  O   UNL A   1      44.536  36.221  35.452  1.00  0.00    -0.237 OA
ATOM     97  O   UNL A   1      42.501  36.794  34.174  1.00  0.00    -0.237 OA
ATOM     98  O   UNL A   1      42.306  35.766  36.405  1.00  0.00    -0.744 OA
ENDBRANCH  94  95
ENDBRANCH  68  89
ENDBRANCH  42  43
ENDBRANCH  34  37
ENDBRANCH  32  33
ENDBRANCH  31  32
ENDBRANCH   1  31
TORSDOF 21
ENDMDL
MODEL 3
REMARK VINA RESULT:      -7.7     11.323     18.025
REMARK SMILES CCCc1cc(OC(F)(F)F)cc2c1O[C@H](C(F)(F)F)C(C(=O)NCCCCCCNC(=O)c1ccc(-c3c4nc(c(-c5ccc(S(=O)(=O)[O-])cc5)c5ccc([nH]5)c(-c5ccc(S(=O)(=O)[O-])cc5)c5nc(c(-c6ccc(S(=O)(=O)[O-])cc6)c6ccc3[nH]6)C=C5)C=C4)cc1)=C2
REMARK SMILES IDX 28 1 27 2 26 3 25 4 24 5 22 6 23 7 21 9 4 10 5 11 14 12 6 13
REMARK SMILES IDX 13 14 15 15 12 16 94 17 16 18 3 19 2 20 1 21 7 22 8 23 9 24
REMARK SMILES IDX 10 25 11 26 17 27 18 28 19 29 20 30 29 31 30 32 31 33 32 34
REMARK SMILES IDX 33 36 34 37 35 38 93 39 36 40 92 41 37 42 38 43 39 44 86 45
REMARK SMILES IDX 40 46 91 47 85 48 87 49 41 50 90 51 84 52 83 53 42 55 72 56
REMARK SMILES IDX 53 57 71 58 54 59 57 60 70 61 88 62 55 63 56 64 69 66 89 67
REMARK SMILES IDX 58 68 43 69 44 70 52 71 45 72 51 73 46 74 47 75 48 76 49 77
REMARK SMILES IDX 50 78 73 79 74 80 82 81 75 82 81 83 76 84 77 85 78 86 79 87
REMARK SMILES IDX 80 88 59 89 60 90 68 91 61 92 67 93 62 94 63 95 64 96 65 97
REMARK SMILES IDX 66 98
REMARK H PARENT 24 8 31 35 87 54 57 65
REMARK Flexibility Score: inf
ROOT
ATOM      1  C   UNL A   1      46.362  40.252  27.002  1.00  0.00     0.002 C 
ENDROOT
BRANCH   1   2
ATOM      2  C   UNL A   1      45.680  41.408  26.258  1.00  0.00     0.002 C 
BRANCH   2   3
ATOM      3  C   UNL A   1      46.648  42.388  25.584  1.00  0.00     0.021 C 
BRANCH   3   4
ATOM      4  C   UNL A   1      46.099  42.945  24.267  1.00  0.00     0.116 C 
BRANCH   4   5
ATOM      5  N   UNL A   1      46.356  42.001  23.195  1.00  0.00    -0.352 N 
ATOM      6  C   UNL A   1      46.003  41.984  21.886  1.00  0.00     0.251 C 
ATOM      7  O   UNL A   1      46.308  40.996  21.219  1.00  0.00    -0.270 OA
ATOM      8  H   UNL A   1      46.888  41.221  23.472  1.00  0.00     0.163 HD
BRANCH   6   9
ATOM      9  C   UNL A   1      45.389  43.152  21.198  1.00  0.00     0.067 C 
ATOM     10  C   UNL A   1      43.429  45.797  18.591  1.00  0.00    -0.002 A 
ATOM     11  C   UNL A   1      44.120  46.951  18.178  1.00  0.00     0.054 A 
ATOM     12  C   UNL A   1      44.042  44.941  19.518  1.00  0.00     0.131 A 
ATOM     13  C   UNL A   1      45.349  47.297  18.732  1.00  0.00     0.130 A 
ATOM     14  C   UNL A   1      45.293  45.262  20.055  1.00  0.00     0.021 A 
ATOM     15  O   UNL A   1      43.414  43.759  19.797  1.00  0.00    -0.475 OA
ATOM     16  C   UNL A   1      45.933  46.446  19.669  1.00  0.00     0.058 A 
ATOM     17  C   UNL A   1      45.990  44.313  20.912  1.00  0.00     0.025 C 
ATOM     18  C   UNL A   1      43.909  42.976  20.913  1.00  0.00     0.314 C 
BRANCH  10  19
ATOM     19  C   UNL A   1      42.053  45.525  18.020  1.00  0.00     0.039 C 
BRANCH  19  20
ATOM     20  C   UNL A   1      42.063  45.117  16.539  1.00  0.00     0.001 C 
ATOM     21  C   UNL A   1      43.186  44.159  16.155  1.00  0.00     0.004 C 
ENDBRANCH  19  20
ENDBRANCH  10  19
BRANCH  13  22
ATOM     22  O   UNL A   1      46.083  48.407  18.430  1.00  0.00    -0.406 OA
BRANCH  22  23
ATOM     23  C   UNL A   1      46.050  49.479  19.358  1.00  0.00     0.573 C 
ATOM     24  F   UNL A   1      44.950  49.411  20.138  1.00  0.00    -0.132 F 
ATOM     25  F   UNL A   1      47.153  49.481  20.141  1.00  0.00    -0.132 F 
ATOM     26  F   UNL A   1      46.016  50.646  18.679  1.00  0.00    -0.132 F 
ENDBRANCH  22  23
ENDBRANCH  13  22
BRANCH  18  27
ATOM     27  C   UNL A   1      43.052  43.231  22.176  1.00  0.00     0.429 C 
ATOM     28  F   UNL A   1      41.819  43.714  21.889  1.00  0.00    -0.167 F 
ATOM     29  F   UNL A   1      42.858  42.091  22.890  1.00  0.00    -0.167 F 
ATOM     30  F   UNL A   1      43.646  44.108  23.020  1.00  0.00    -0.167 F 
ENDBRANCH  18  27
ENDBRANCH   6   9
ENDBRANCH   4   5
ENDBRANCH   3   4
ENDBRANCH   2   3
ENDBRANCH   1   2
BRANCH   1  31
ATOM     31  C   UNL A   1      45.595  38.929  26.963  1.00  0.00     0.021 C 
BRANCH  31  32
ATOM     32  C   UNL A   1      45.794  38.069  28.204  1.00  0.00     0.116 C 
BRANCH  32  33
ATOM     33  N   UNL A   1      47.178  38.108  28.656  1.00  0.00    -0.352 N 
ATOM     34  C   UNL A   1      47.963  37.072  29.099  1.00  0.00     0.251 C 
ATOM     35  H   UNL A   1      47.607  38.994  28.641  1.00  0.00     0.163 HD
ATOM     36  O   UNL A   1      49.012  37.294  29.687  1.00  0.00    -0.269 OA
BRANCH  34  37
ATOM     37  C   UNL A   1      47.513  35.686  28.860  1.00  0.00     0.039 A 
ATOM     38  C   UNL A   1      47.325  34.825  29.944  1.00  0.00     0.014 A 
ATOM     39  C   UNL A   1      47.266  35.251  27.555  1.00  0.00     0.014 A 
ATOM     40  C   UNL A   1      46.838  33.536  29.720  1.00  0.00     0.010 A 
ATOM     41  C   UNL A   1      46.710  33.997  27.343  1.00  0.00     0.010 A 
ATOM     42  C   UNL A   1      46.504  33.121  28.421  1.00  0.00    -0.014 A 
BRANCH  42  43
ATOM     43  C   UNL A   1      45.978  31.764  28.136  1.00  0.00     0.031 A 
ATOM     44  C   UNL A   1      44.546  31.447  28.470  1.00  0.00     0.074 A 
ATOM     45  C   UNL A   1      46.801  30.800  27.675  1.00  0.00     0.049 A 
ATOM     46  N   UNL A   1      43.929  30.294  28.455  1.00  0.00    -0.248 NA
ATOM     47  C   UNL A   1      43.704  32.572  28.911  1.00  0.00     0.031 C 
ATOM     48  C   UNL A   1      48.213  30.982  27.331  1.00  0.00     0.029 A 
ATOM     49  N   UNL A   1      46.569  29.470  27.436  1.00  0.00    -0.354 N 
ATOM     50  C   UNL A   1      42.643  30.550  28.913  1.00  0.00     0.074 A 
ATOM     51  C   UNL A   1      42.580  31.956  29.243  1.00  0.00     0.031 C 
ATOM     52  C   UNL A   1      48.716  29.809  26.913  1.00  0.00     0.029 A 
ATOM     53  C   UNL A   1      47.682  28.783  27.010  1.00  0.00     0.049 A 
ATOM     54  H   UNL A   1      45.689  29.045  27.558  1.00  0.00     0.167 HD
ATOM     55  C   UNL A   1      41.601  29.693  29.033  1.00  0.00     0.031 A 
ATOM     56  C   UNL A   1      47.855  27.473  26.746  1.00  0.00     0.031 A 
ATOM     57  C   UNL A   1      41.668  28.300  28.686  1.00  0.00     0.049 A 
ATOM     58  C   UNL A   1      46.689  26.533  26.907  1.00  0.00     0.074 A 
ATOM     59  C   UNL A   1      40.658  27.356  28.723  1.00  0.00     0.029 A 
ATOM     60  N   UNL A   1      42.809  27.652  28.235  1.00  0.00    -0.354 N 
ATOM     61  N   UNL A   1      45.467  26.800  27.301  1.00  0.00    -0.248 NA
ATOM     62  C   UNL A   1      46.920  25.119  26.581  1.00  0.00     0.031 C 
ATOM     63  C   UNL A   1      41.201  26.125  28.349  1.00  0.00     0.029 A 
ATOM     64  C   UNL A   1      42.531  26.316  28.008  1.00  0.00     0.049 A 
ATOM     65  H   UNL A   1      43.685  28.079  28.097  1.00  0.00     0.167 HD
ATOM     66  C   UNL A   1      44.772  25.597  27.224  1.00  0.00     0.074 A 
ATOM     67  C   UNL A   1      45.712  24.601  26.752  1.00  0.00     0.031 C 
ATOM     68  C   UNL A   1      43.472  25.344  27.511  1.00  0.00     0.031 A 
BRANCH  55  69
ATOM     69  C   UNL A   1      40.305  30.239  29.573  1.00  0.00    -0.014 A 
ATOM     70  C   UNL A   1      39.248  30.594  28.715  1.00  0.00     0.010 A 
ATOM     71  C   UNL A   1      40.126  30.361  30.963  1.00  0.00     0.010 A 
ATOM     72  C   UNL A   1      38.056  31.104  29.233  1.00  0.00     0.020 A 
ATOM     73  C   UNL A   1      38.922  30.840  31.488  1.00  0.00     0.020 A 
ATOM     74  C   UNL A   1      37.902  31.226  30.617  1.00  0.00     0.054 A 
BRANCH  74  75
ATOM     75  S   UNL A   1      36.334  31.872  31.261  1.00  0.00     0.124 S 
ATOM     76  O   UNL A   1      36.129  31.039  32.444  1.00  0.00    -0.237 OA
ATOM     77  O   UNL A   1      36.651  33.272  31.527  1.00  0.00    -0.237 OA
ATOM     78  O   UNL A   1      35.391  31.644  30.170  1.00  0.00    -0.744 OA
ENDBRANCH  74  75
ENDBRANCH  55  69
BRANCH  56  79
ATOM     79  C   UNL A   1      49.184  26.973  26.294  1.00  0.00    -0.014 A 
ATOM     80  C   UNL A   1      50.109  26.465  27.222  1.00  0.00     0.010 A 
ATOM     81  C   UNL A   1      49.527  26.990  24.929  1.00  0.00     0.010 A 
ATOM     82  C   UNL A   1      51.359  26.002  26.799  1.00  0.00     0.020 A 
ATOM     83  C   UNL A   1      50.763  26.501  24.498  1.00  0.00     0.020 A 
ATOM     84  C   UNL A   1      51.676  26.021  25.438  1.00  0.00     0.054 A 
BRANCH  84  85
ATOM     85  S   UNL A   1      53.286  25.372  24.907  1.00  0.00     0.124 S 
ATOM     86  O   UNL A   1      53.270  25.657  23.475  1.00  0.00    -0.237 OA
ATOM     87  O   UNL A   1      54.221  26.164  25.701  1.00  0.00    -0.237 OA
ATOM     88  O   UNL A   1      53.219  23.957  25.265  1.00  0.00    -0.744 OA
ENDBRANCH  84  85
ENDBRANCH  56  79
BRANCH  68  89
ATOM     89  C   UNL A   1      42.948  23.956  27.256  1.00  0.00    -0.014 A 
ATOM     90  C   UNL A   1      42.578  23.533  25.968  1.00  0.00     0.010 A 
ATOM     91  C   UNL A   1      42.942  23.027  28.314  1.00  0.00     0.010 A 
ATOM     92  C   UNL A   1      42.207  22.203  25.745  1.00  0.00     0.020 A 
ATOM     93  C   UNL A   1      42.598  21.693  28.088  1.00  0.00     0.020 A 
ATOM     94  C   UNL A   1      42.229  21.290  26.804  1.00  0.00     0.054 A 
BRANCH  94  95
ATOM     95  S   UNL A   1      41.836  19.552  26.467  1.00  0.00     0.124 S 
ATOM     96  O   UNL A   1      42.394  18.881  27.638  1.00  0.00    -0.237 OA
ATOM     97  O   UNL A   1      40.378  19.565  26.385  1.00  0.00    -0.237 OA
ATOM     98  O   UNL A   1      42.522  19.277  25.207  1.00  0.00    -0.744 OA
ENDBRANCH  94  95
ENDBRANCH  68  89
ENDBRANCH  42  43
ENDBRANCH  34  37
ENDBRANCH  32  33
ENDBRANCH  31  32
ENDBRANCH   1  31
TORSDOF 21
ENDMDL
