MODEL 1
REMARK VINA RESULT:     -12.9      0.000      0.000
REMARK SMILES Cc1ccc(C(=O)NC2(CC(=O)NCCCCCCNC(=O)c3ccc(-c4c5nc(c(-c6ccc(S(=O)(=O)[O-])cc6)c6ccc([nH]6)c(-c6ccc(S(=O)(=O)[O-])cc6)c6nc(c(-c7ccc(S(=O)(=O)[O-])cc7)c7ccc4[nH]7)C=C6)C=C5)cc3)CCC2)cc1
REMARK SMILES IDX 16 1 15 2 14 3 13 4 11 5 12 6 10 8 9 9 83 10 85 11 84 12
REMARK SMILES IDX 8 13 6 14 7 15 5 17 1 18 2 19 3 20 87 21 4 22 86 23 17 24
REMARK SMILES IDX 18 25 19 26 20 27 21 28 22 30 23 31 24 32 82 33 25 34 81 35
REMARK SMILES IDX 26 36 27 37 28 38 75 39 29 40 80 41 74 42 76 43 30 44 79 45
REMARK SMILES IDX 73 46 72 47 31 49 61 50 42 51 60 52 43 53 46 54 59 55 77 56
REMARK SMILES IDX 44 57 45 58 58 60 78 61 47 62 32 63 33 64 41 65 34 66 40 67
REMARK SMILES IDX 35 68 36 69 37 70 38 71 39 72 62 73 63 74 71 75 64 76 70 77
REMARK SMILES IDX 65 78 66 79 67 80 68 81 69 82 48 83 49 84 57 85 50 86 56 87
REMARK SMILES IDX 51 88 52 89 53 90 54 91 55 92
REMARK H PARENT 13 7 8 16 20 29 76 48 46 59
REMARK Flexibility Score: inf
ROOT
ATOM      1  C   UNL A   1      35.139  21.096  25.623  1.00  0.00     0.002 C 
ENDROOT
BRANCH   1   2
ATOM      2  C   UNL A   1      33.703  20.939  26.079  1.00  0.00     0.021 C 
BRANCH   2   3
ATOM      3  C   UNL A   1      32.797  20.425  24.988  1.00  0.00     0.116 C 
BRANCH   3   4
ATOM      4  N   UNL A   1      33.028  21.125  23.510  1.00  0.00    -0.356 N 
ATOM      5  C   UNL A   1      33.118  22.935  22.725  1.00  0.00     0.222 C 
ATOM      6  O   UNL A   1      33.646  23.348  21.656  1.00  0.00    -0.275 OA
ATOM      7  H   UNL A   1      33.160  20.439  22.818  1.00  0.00     0.163 HD
BRANCH   5   8
ATOM      8  C   UNL A   1      32.312  24.455  23.525  1.00  0.00     0.128 C 
BRANCH   8   9
ATOM      9  C   UNL A   1      31.305  24.427  24.878  1.00  0.00     0.049 C 
ATOM     10  C   UNL A   1      31.885  25.009  26.214  1.00  0.00     0.029 C 
ATOM     11  C   UNL A   1      30.712  23.256  25.953  1.00  0.00     0.029 C 
ATOM     12  C   UNL A   1      31.889  23.581  26.844  1.00  0.00     0.005 C 
BRANCH   9  13
ATOM     13  N   UNL A   1      30.033  24.917  24.375  1.00  0.00    -0.346 N 
ATOM     14  C   UNL A   1      29.941  26.280  24.330  1.00  0.00     0.251 C 
ATOM     15  O   UNL A   1      29.008  26.873  23.815  1.00  0.00    -0.269 OA
ATOM     16  H   UNL A   1      29.302  24.322  24.093  1.00  0.00     0.164 HD
BRANCH  14  17
ATOM     17  C   UNL A   1      30.985  26.955  25.172  1.00  0.00     0.039 A 
ATOM     18  C   UNL A   1      34.260  30.379  26.918  1.00  0.00     0.044 C 
ATOM     19  C   UNL A   1      32.993  29.734  26.403  1.00  0.00    -0.051 A 
ATOM     20  C   UNL A   1      32.981  29.325  24.643  1.00  0.00     0.004 A 
ATOM     21  C   UNL A   1      31.961  28.854  27.585  1.00  0.00     0.004 A 
ATOM     22  C   UNL A   1      31.991  27.957  24.037  1.00  0.00     0.014 A 
ATOM     23  C   UNL A   1      30.963  27.426  27.013  1.00  0.00     0.014 A 
ENDBRANCH  14  17
ENDBRANCH   9  13
ENDBRANCH   8   9
ENDBRANCH   5   8
ENDBRANCH   3   4
ENDBRANCH   2   3
ENDBRANCH   1   2
BRANCH   1  24
ATOM     24  C   UNL A   1      35.772  22.478  25.875  1.00  0.00     0.002 C 
BRANCH  24  25
ATOM     25  C   UNL A   1      37.292  22.627  25.714  1.00  0.00     0.021 C 
BRANCH  25  26
ATOM     26  C   UNL A   1      37.833  23.906  26.274  1.00  0.00     0.116 C 
BRANCH  26  27
ATOM     27  N   UNL A   1      38.641  23.672  27.446  1.00  0.00    -0.352 N 
ATOM     28  C   UNL A   1      39.694  24.490  27.815  1.00  0.00     0.251 C 
ATOM     29  H   UNL A   1      38.433  22.892  28.010  1.00  0.00     0.163 HD
ATOM     30  O   UNL A   1      40.821  24.096  28.072  1.00  0.00    -0.269 OA
BRANCH  28  31
ATOM     31  C   UNL A   1      39.322  25.907  27.987  1.00  0.00     0.039 A 
ATOM     32  C   UNL A   1      39.822  26.815  27.049  1.00  0.00     0.014 A 
ATOM     33  C   UNL A   1      38.916  26.307  29.256  1.00  0.00     0.014 A 
ATOM     34  C   UNL A   1      40.118  28.101  27.462  1.00  0.00     0.010 A 
ATOM     35  C   UNL A   1      39.419  27.483  29.724  1.00  0.00     0.010 A 
ATOM     36  C   UNL A   1      40.018  28.366  28.822  1.00  0.00    -0.014 A 
BRANCH  36  37
ATOM     37  C   UNL A   1      40.281  29.639  29.439  1.00  0.00     0.031 A 
ATOM     38  C   UNL A   1      39.169  30.599  29.280  1.00  0.00     0.074 A 
ATOM     39  C   UNL A   1      41.335  29.688  30.284  1.00  0.00     0.049 A 
ATOM     40  N   UNL A   1      39.268  31.858  29.464  1.00  0.00    -0.248 NA
ATOM     41  C   UNL A   1      37.820  30.216  28.826  1.00  0.00     0.031 C 
ATOM     42  C   UNL A   1      41.651  30.639  31.339  1.00  0.00     0.029 A 
ATOM     43  N   UNL A   1      42.489  28.908  30.194  1.00  0.00    -0.354 N 
ATOM     44  C   UNL A   1      37.982  32.359  29.542  1.00  0.00     0.074 A 
ATOM     45  C   UNL A   1      37.126  31.345  28.999  1.00  0.00     0.031 C 
ATOM     46  C   UNL A   1      42.978  30.597  31.583  1.00  0.00     0.029 A 
ATOM     47  C   UNL A   1      43.576  29.696  30.604  1.00  0.00     0.049 A 
ATOM     48  H   UNL A   1      42.532  27.971  29.895  1.00  0.00     0.167 HD
ATOM     49  C   UNL A   1      37.800  33.505  30.247  1.00  0.00     0.031 A 
ATOM     50  C   UNL A   1      44.490  30.083  29.658  1.00  0.00     0.031 A 
ATOM     51  C   UNL A   1      39.101  33.984  30.704  1.00  0.00     0.049 A 
ATOM     52  C   UNL A   1      44.319  31.554  29.332  1.00  0.00     0.074 A 
ATOM     53  C   UNL A   1      39.786  33.785  31.890  1.00  0.00     0.029 A 
ATOM     54  N   UNL A   1      40.038  34.348  29.749  1.00  0.00    -0.354 N 
ATOM     55  N   UNL A   1      43.184  32.196  29.426  1.00  0.00    -0.248 NA
ATOM     56  C   UNL A   1      45.436  32.432  28.988  1.00  0.00     0.031 C 
ATOM     57  C   UNL A   1      41.173  33.919  31.603  1.00  0.00     0.029 A 
ATOM     58  C   UNL A   1      41.316  34.204  30.254  1.00  0.00     0.049 A 
ATOM     59  H   UNL A   1      39.824  34.662  28.841  1.00  0.00     0.167 HD
ATOM     60  C   UNL A   1      43.408  33.534  29.248  1.00  0.00     0.074 A 
ATOM     61  C   UNL A   1      44.826  33.629  28.947  1.00  0.00     0.031 C 
ATOM     62  C   UNL A   1      42.455  34.497  29.403  1.00  0.00     0.031 A 
BRANCH  49  63
ATOM     63  C   UNL A   1      36.504  34.057  30.775  1.00  0.00    -0.014 A 
ATOM     64  C   UNL A   1      35.511  34.379  29.824  1.00  0.00     0.010 A 
ATOM     65  C   UNL A   1      36.188  34.317  32.122  1.00  0.00     0.010 A 
ATOM     66  C   UNL A   1      34.289  34.952  30.177  1.00  0.00     0.020 A 
ATOM     67  C   UNL A   1      34.956  34.894  32.494  1.00  0.00     0.020 A 
ATOM     68  C   UNL A   1      34.016  35.209  31.514  1.00  0.00     0.054 A 
BRANCH  68  69
ATOM     69  S   UNL A   1      32.411  35.940  31.924  1.00  0.00     0.124 S 
ATOM     70  O   UNL A   1      31.842  36.203  30.605  1.00  0.00    -0.237 OA
ATOM     71  O   UNL A   1      31.767  34.874  32.686  1.00  0.00    -0.237 OA
ATOM     72  O   UNL A   1      32.758  37.131  32.697  1.00  0.00    -0.744 OA
ENDBRANCH  68  69
ENDBRANCH  49  63
BRANCH  50  73
ATOM     73  C   UNL A   1      44.777  28.979  28.679  1.00  0.00    -0.014 A 
ATOM     74  C   UNL A   1      44.155  29.081  27.411  1.00  0.00     0.010 A 
ATOM     75  C   UNL A   1      45.955  28.217  28.784  1.00  0.00     0.010 A 
ATOM     76  C   UNL A   1      44.804  28.633  26.254  1.00  0.00     0.020 A 
ATOM     77  C   UNL A   1      46.595  27.748  27.624  1.00  0.00     0.020 A 
ATOM     78  C   UNL A   1      46.054  28.028  26.365  1.00  0.00     0.054 A 
BRANCH  78  79
ATOM     79  S   UNL A   1      47.036  27.787  24.854  1.00  0.00     0.124 S 
ATOM     80  O   UNL A   1      46.503  26.535  24.328  1.00  0.00    -0.237 OA
ATOM     81  O   UNL A   1      46.717  28.988  24.078  1.00  0.00    -0.237 OA
ATOM     82  O   UNL A   1      48.409  27.731  25.341  1.00  0.00    -0.744 OA
ENDBRANCH  78  79
ENDBRANCH  50  73
BRANCH  62  83
ATOM     83  C   UNL A   1      42.554  35.876  28.811  1.00  0.00    -0.014 A 
ATOM     84  C   UNL A   1      43.201  36.936  29.458  1.00  0.00     0.010 A 
ATOM     85  C   UNL A   1      42.124  36.092  27.479  1.00  0.00     0.010 A 
ATOM     86  C   UNL A   1      43.308  38.188  28.852  1.00  0.00     0.020 A 
ATOM     87  C   UNL A   1      42.302  37.311  26.834  1.00  0.00     0.020 A 
ATOM     88  C   UNL A   1      42.846  38.368  27.548  1.00  0.00     0.054 A 
BRANCH  88  89
ATOM     89  S   UNL A   1      42.968  40.003  26.800  1.00  0.00     0.124 S 
ATOM     90  O   UNL A   1      44.111  39.830  25.906  1.00  0.00    -0.237 OA
ATOM     91  O   UNL A   1      41.672  40.152  26.141  1.00  0.00    -0.237 OA
ATOM     92  O   UNL A   1      43.189  40.890  27.937  1.00  0.00    -0.744 OA
ENDBRANCH  88  89
ENDBRANCH  62  83
ENDBRANCH  36  37
ENDBRANCH  28  31
ENDBRANCH  26  27
ENDBRANCH  25  26
ENDBRANCH  24  25
ENDBRANCH   1  24
TORSDOF 19
ENDMDL
MODEL 2
REMARK VINA RESULT:     -12.8      1.994      3.230
REMARK SMILES Cc1ccc(C(=O)NC2(CC(=O)NCCCCCCNC(=O)c3ccc(-c4c5nc(c(-c6ccc(S(=O)(=O)[O-])cc6)c6ccc([nH]6)c(-c6ccc(S(=O)(=O)[O-])cc6)c6nc(c(-c7ccc(S(=O)(=O)[O-])cc7)c7ccc4[nH]7)C=C6)C=C5)cc3)CCC2)cc1
REMARK SMILES IDX 16 1 15 2 14 3 13 4 11 5 12 6 10 8 9 9 83 10 85 11 84 12
REMARK SMILES IDX 8 13 6 14 7 15 5 17 1 18 2 19 3 20 87 21 4 22 86 23 17 24
REMARK SMILES IDX 18 25 19 26 20 27 21 28 22 30 23 31 24 32 82 33 25 34 81 35
REMARK SMILES IDX 26 36 27 37 28 38 75 39 29 40 80 41 74 42 76 43 30 44 79 45
REMARK SMILES IDX 73 46 72 47 31 49 61 50 42 51 60 52 43 53 46 54 59 55 77 56
REMARK SMILES IDX 44 57 45 58 58 60 78 61 47 62 32 63 33 64 41 65 34 66 40 67
REMARK SMILES IDX 35 68 36 69 37 70 38 71 39 72 62 73 63 74 71 75 64 76 70 77
REMARK SMILES IDX 65 78 66 79 67 80 68 81 69 82 48 83 49 84 57 85 50 86 56 87
REMARK SMILES IDX 51 88 52 89 53 90 54 91 55 92
REMARK H PARENT 13 7 8 16 20 29 76 48 46 59
REMARK Flexibility Score: inf
ROOT
ATOM      1  C   UNL A   1      34.927  22.906  23.679  1.00  0.00     0.002 C 
ENDROOT
BRANCH   1   2
ATOM      2  C   UNL A   1      33.935  22.983  22.536  1.00  0.00     0.021 C 
BRANCH   2   3
ATOM      3  C   UNL A   1      32.939  24.103  22.701  1.00  0.00     0.116 C 
BRANCH   3   4
ATOM      4  N   UNL A   1      33.311  25.486  21.879  1.00  0.00    -0.356 N 
ATOM      5  C   UNL A   1      33.643  27.394  22.263  1.00  0.00     0.222 C 
ATOM      6  O   UNL A   1      34.260  28.276  21.603  1.00  0.00    -0.275 OA
ATOM      7  H   UNL A   1      33.392  25.306  20.915  1.00  0.00     0.163 HD
BRANCH   5   8
ATOM      8  C   UNL A   1      32.987  28.272  23.811  1.00  0.00     0.128 C 
BRANCH   8   9
ATOM      9  C   UNL A   1      31.362  28.591  24.138  1.00  0.00     0.049 C 
ATOM     10  C   UNL A   1      30.335  27.443  23.845  1.00  0.00     0.029 C 
ATOM     11  C   UNL A   1      30.123  29.520  23.446  1.00  0.00     0.029 C 
ATOM     12  C   UNL A   1      29.718  28.280  22.680  1.00  0.00     0.005 C 
BRANCH   9  13
ATOM     13  N   UNL A   1      31.387  29.214  25.450  1.00  0.00    -0.346 N 
ATOM     14  C   UNL A   1      31.704  28.356  26.466  1.00  0.00     0.251 C 
ATOM     15  O   UNL A   1      31.904  28.720  27.613  1.00  0.00    -0.269 OA
ATOM     16  H   UNL A   1      31.193  30.167  25.595  1.00  0.00     0.164 HD
BRANCH  14  17
ATOM     17  C   UNL A   1      31.555  26.915  26.070  1.00  0.00     0.039 A 
ATOM     18  C   UNL A   1      32.215  21.915  25.833  1.00  0.00     0.044 C 
ATOM     19  C   UNL A   1      31.995  23.312  26.368  1.00  0.00    -0.051 A 
ATOM     20  C   UNL A   1      33.432  24.406  26.319  1.00  0.00     0.004 A 
ATOM     21  C   UNL A   1      30.315  23.956  26.360  1.00  0.00     0.004 A 
ATOM     22  C   UNL A   1      33.215  26.181  26.174  1.00  0.00     0.014 A 
ATOM     23  C   UNL A   1      30.049  25.760  26.175  1.00  0.00     0.014 A 
ENDBRANCH  14  17
ENDBRANCH   9  13
ENDBRANCH   8   9
ENDBRANCH   5   8
ENDBRANCH   3   4
ENDBRANCH   2   3
ENDBRANCH   1   2
BRANCH   1  24
ATOM     24  C   UNL A   1      36.381  22.585  23.281  1.00  0.00     0.002 C 
BRANCH  24  25
ATOM     25  C   UNL A   1      37.308  21.965  24.337  1.00  0.00     0.021 C 
BRANCH  25  26
ATOM     26  C   UNL A   1      37.343  22.727  25.626  1.00  0.00     0.116 C 
BRANCH  26  27
ATOM     27  N   UNL A   1      38.472  22.343  26.438  1.00  0.00    -0.352 N 
ATOM     28  C   UNL A   1      39.679  23.019  26.425  1.00  0.00     0.251 C 
ATOM     29  H   UNL A   1      38.379  21.562  27.030  1.00  0.00     0.163 HD
ATOM     30  O   UNL A   1      40.768  22.490  26.266  1.00  0.00    -0.269 OA
BRANCH  28  31
ATOM     31  C   UNL A   1      39.566  24.457  26.732  1.00  0.00     0.039 A 
ATOM     32  C   UNL A   1      40.416  25.325  26.040  1.00  0.00     0.014 A 
ATOM     33  C   UNL A   1      38.995  24.802  27.952  1.00  0.00     0.014 A 
ATOM     34  C   UNL A   1      40.867  26.463  26.683  1.00  0.00     0.010 A 
ATOM     35  C   UNL A   1      39.612  25.782  28.669  1.00  0.00     0.010 A 
ATOM     36  C   UNL A   1      40.545  26.600  28.027  1.00  0.00    -0.014 A 
BRANCH  36  37
ATOM     37  C   UNL A   1      40.921  27.711  28.860  1.00  0.00     0.031 A 
ATOM     38  C   UNL A   1      39.911  28.790  28.875  1.00  0.00     0.074 A 
ATOM     39  C   UNL A   1      41.961  27.506  29.699  1.00  0.00     0.049 A 
ATOM     40  N   UNL A   1      40.129  29.980  29.280  1.00  0.00    -0.248 NA
ATOM     41  C   UNL A   1      38.538  28.628  28.362  1.00  0.00     0.031 C 
ATOM     42  C   UNL A   1      42.351  28.220  30.905  1.00  0.00     0.029 A 
ATOM     43  N   UNL A   1      43.034  26.644  29.470  1.00  0.00    -0.354 N 
ATOM     44  C   UNL A   1      38.896  30.584  29.447  1.00  0.00     0.074 A 
ATOM     45  C   UNL A   1      37.955  29.771  28.733  1.00  0.00     0.031 C 
ATOM     46  C   UNL A   1      43.663  28.004  31.137  1.00  0.00     0.029 A 
ATOM     47  C   UNL A   1      44.186  27.236  30.012  1.00  0.00     0.049 A 
ATOM     48  H   UNL A   1      42.991  25.775  29.010  1.00  0.00     0.167 HD
ATOM     49  C   UNL A   1      38.816  31.600  30.345  1.00  0.00     0.031 A 
ATOM     50  C   UNL A   1      45.149  27.692  29.149  1.00  0.00     0.031 A 
ATOM     51  C   UNL A   1      40.150  31.859  30.877  1.00  0.00     0.049 A 
ATOM     52  C   UNL A   1      45.127  29.207  29.089  1.00  0.00     0.074 A 
ATOM     53  C   UNL A   1      40.793  31.387  32.008  1.00  0.00     0.029 A 
ATOM     54  N   UNL A   1      41.133  32.292  30.002  1.00  0.00    -0.354 N 
ATOM     55  N   UNL A   1      44.059  29.931  29.297  1.00  0.00    -0.248 NA
ATOM     56  C   UNL A   1      46.330  30.016  28.905  1.00  0.00     0.031 C 
ATOM     57  C   UNL A   1      42.190  31.432  31.748  1.00  0.00     0.029 A 
ATOM     58  C   UNL A   1      42.382  31.936  30.471  1.00  0.00     0.049 A 
ATOM     59  H   UNL A   1      40.965  32.781  29.164  1.00  0.00     0.167 HD
ATOM     60  C   UNL A   1      44.415  31.250  29.360  1.00  0.00     0.074 A 
ATOM     61  C   UNL A   1      45.840  31.257  29.078  1.00  0.00     0.031 C 
ATOM     62  C   UNL A   1      43.558  32.261  29.685  1.00  0.00     0.031 A 
BRANCH  49  63
ATOM     63  C   UNL A   1      37.571  32.175  30.964  1.00  0.00    -0.014 A 
ATOM     64  C   UNL A   1      37.297  33.535  30.703  1.00  0.00     0.010 A 
ATOM     65  C   UNL A   1      36.664  31.505  31.806  1.00  0.00     0.010 A 
ATOM     66  C   UNL A   1      36.209  34.204  31.263  1.00  0.00     0.020 A 
ATOM     67  C   UNL A   1      35.558  32.168  32.378  1.00  0.00     0.020 A 
ATOM     68  C   UNL A   1      35.342  33.517  32.102  1.00  0.00     0.054 A 
BRANCH  68  69
ATOM     69  S   UNL A   1      33.935  34.424  32.793  1.00  0.00     0.124 S 
ATOM     70  O   UNL A   1      34.571  35.254  33.813  1.00  0.00    -0.237 OA
ATOM     71  O   UNL A   1      33.423  35.140  31.629  1.00  0.00    -0.237 OA
ATOM     72  O   UNL A   1      33.062  33.371  33.308  1.00  0.00    -0.744 OA
ENDBRANCH  68  69
ENDBRANCH  49  63
BRANCH  50  73
ATOM     73  C   UNL A   1      45.343  26.755  27.989  1.00  0.00    -0.014 A 
ATOM     74  C   UNL A   1      44.974  27.245  26.712  1.00  0.00     0.010 A 
ATOM     75  C   UNL A   1      46.291  25.718  28.056  1.00  0.00     0.010 A 
ATOM     76  C   UNL A   1      45.690  26.875  25.567  1.00  0.00     0.020 A 
ATOM     77  C   UNL A   1      46.994  25.331  26.902  1.00  0.00     0.020 A 
ATOM     78  C   UNL A   1      46.741  25.968  25.684  1.00  0.00     0.054 A 
BRANCH  78  79
ATOM     79  S   UNL A   1      47.880  25.779  24.279  1.00  0.00     0.124 S 
ATOM     80  O   UNL A   1      47.478  24.494  23.718  1.00  0.00    -0.237 OA
ATOM     81  O   UNL A   1      47.568  26.954  23.461  1.00  0.00    -0.237 OA
ATOM     82  O   UNL A   1      49.199  25.810  24.899  1.00  0.00    -0.744 OA
ENDBRANCH  78  79
ENDBRANCH  50  73
BRANCH  62  83
ATOM     83  C   UNL A   1      43.800  33.705  29.346  1.00  0.00    -0.014 A 
ATOM     84  C   UNL A   1      43.823  34.183  28.030  1.00  0.00     0.010 A 
ATOM     85  C   UNL A   1      43.849  34.664  30.387  1.00  0.00     0.010 A 
ATOM     86  C   UNL A   1      44.008  35.540  27.762  1.00  0.00     0.020 A 
ATOM     87  C   UNL A   1      43.948  36.027  30.131  1.00  0.00     0.020 A 
ATOM     88  C   UNL A   1      44.081  36.450  28.818  1.00  0.00     0.054 A 
BRANCH  88  89
ATOM     89  S   UNL A   1      44.351  38.193  28.447  1.00  0.00     0.124 S 
ATOM     90  O   UNL A   1      45.792  38.315  28.651  1.00  0.00    -0.237 OA
ATOM     91  O   UNL A   1      43.901  38.299  27.060  1.00  0.00    -0.237 OA
ATOM     92  O   UNL A   1      43.517  38.889  29.423  1.00  0.00    -0.744 OA
ENDBRANCH  88  89
ENDBRANCH  62  83
ENDBRANCH  36  37
ENDBRANCH  28  31
ENDBRANCH  26  27
ENDBRANCH  25  26
ENDBRANCH  24  25
ENDBRANCH   1  24
TORSDOF 19
ENDMDL
MODEL 3
REMARK VINA RESULT:     -12.5      1.897      2.404
REMARK SMILES Cc1ccc(C(=O)NC2(CC(=O)NCCCCCCNC(=O)c3ccc(-c4c5nc(c(-c6ccc(S(=O)(=O)[O-])cc6)c6ccc([nH]6)c(-c6ccc(S(=O)(=O)[O-])cc6)c6nc(c(-c7ccc(S(=O)(=O)[O-])cc7)c7ccc4[nH]7)C=C6)C=C5)cc3)CCC2)cc1
REMARK SMILES IDX 16 1 15 2 14 3 13 4 11 5 12 6 10 8 9 9 83 10 85 11 84 12
REMARK SMILES IDX 8 13 6 14 7 15 5 17 1 18 2 19 3 20 87 21 4 22 86 23 17 24
REMARK SMILES IDX 18 25 19 26 20 27 21 28 22 30 23 31 24 32 82 33 25 34 81 35
REMARK SMILES IDX 26 36 27 37 28 38 75 39 29 40 80 41 74 42 76 43 30 44 79 45
REMARK SMILES IDX 73 46 72 47 31 49 61 50 42 51 60 52 43 53 46 54 59 55 77 56
REMARK SMILES IDX 44 57 45 58 58 60 78 61 47 62 32 63 33 64 41 65 34 66 40 67
REMARK SMILES IDX 35 68 36 69 37 70 38 71 39 72 62 73 63 74 71 75 64 76 70 77
REMARK SMILES IDX 65 78 66 79 67 80 68 81 69 82 48 83 49 84 57 85 50 86 56 87
REMARK SMILES IDX 51 88 52 89 53 90 54 91 55 92
REMARK H PARENT 13 7 8 16 20 29 76 48 46 59
REMARK Flexibility Score: inf
ROOT
ATOM      1  C   UNL A   1      34.808  20.206  24.865  1.00  0.00     0.002 C 
ENDROOT
BRANCH   1   2
ATOM      2  C   UNL A   1      33.405  20.244  25.438  1.00  0.00     0.021 C 
BRANCH   2   3
ATOM      3  C   UNL A   1      32.341  20.030  24.391  1.00  0.00     0.116 C 
BRANCH   3   4
ATOM      4  N   UNL A   1      32.532  20.924  23.017  1.00  0.00    -0.356 N 
ATOM      5  C   UNL A   1      32.841  22.806  22.504  1.00  0.00     0.222 C 
ATOM      6  O   UNL A   1      33.317  23.309  21.449  1.00  0.00    -0.275 OA
ATOM      7  H   UNL A   1      32.476  20.352  22.219  1.00  0.00     0.163 HD
BRANCH   5   8
ATOM      8  C   UNL A   1      32.386  24.274  23.617  1.00  0.00     0.128 C 
BRANCH   8   9
ATOM      9  C   UNL A   1      31.324  24.214  24.926  1.00  0.00     0.049 C 
ATOM     10  C   UNL A   1      31.884  24.652  26.323  1.00  0.00     0.029 C 
ATOM     11  C   UNL A   1      30.611  23.008  25.884  1.00  0.00     0.029 C 
ATOM     12  C   UNL A   1      31.768  23.184  26.841  1.00  0.00     0.005 C 
BRANCH   9  13
ATOM     13  N   UNL A   1      30.108  24.826  24.416  1.00  0.00    -0.346 N 
ATOM     14  C   UNL A   1      30.145  26.192  24.386  1.00  0.00     0.251 C 
ATOM     15  O   UNL A   1      29.278  26.875  23.868  1.00  0.00    -0.269 OA
ATOM     16  H   UNL A   1      29.328  24.304  24.120  1.00  0.00     0.164 HD
BRANCH  14  17
ATOM     17  C   UNL A   1      31.239  26.757  25.245  1.00  0.00     0.039 A 
ATOM     18  C   UNL A   1      34.914  29.759  26.972  1.00  0.00     0.044 C 
ATOM     19  C   UNL A   1      33.590  29.278  26.423  1.00  0.00    -0.051 A 
ATOM     20  C   UNL A   1      33.600  28.758  24.693  1.00  0.00     0.004 A 
ATOM     21  C   UNL A   1      32.378  28.646  27.594  1.00  0.00     0.004 A 
ATOM     22  C   UNL A   1      32.441  27.517  24.112  1.00  0.00     0.014 A 
ATOM     23  C   UNL A   1      31.201  27.349  27.051  1.00  0.00     0.014 A 
ENDBRANCH  14  17
ENDBRANCH   9  13
ENDBRANCH   8   9
ENDBRANCH   5   8
ENDBRANCH   3   4
ENDBRANCH   2   3
ENDBRANCH   1   2
BRANCH   1  24
ATOM     24  C   UNL A   1      35.540  21.560  24.804  1.00  0.00     0.002 C 
BRANCH  24  25
ATOM     25  C   UNL A   1      37.073  21.567  24.906  1.00  0.00     0.021 C 
BRANCH  25  26
ATOM     26  C   UNL A   1      37.622  22.768  25.614  1.00  0.00     0.116 C 
BRANCH  26  27
ATOM     27  N   UNL A   1      38.701  22.411  26.502  1.00  0.00    -0.352 N 
ATOM     28  C   UNL A   1      39.886  23.122  26.577  1.00  0.00     0.251 C 
ATOM     29  H   UNL A   1      38.589  21.624  27.083  1.00  0.00     0.163 HD
ATOM     30  O   UNL A   1      40.998  22.626  26.493  1.00  0.00    -0.269 OA
BRANCH  28  31
ATOM     31  C   UNL A   1      39.708  24.554  26.882  1.00  0.00     0.039 A 
ATOM     32  C   UNL A   1      40.408  25.466  26.086  1.00  0.00     0.014 A 
ATOM     33  C   UNL A   1      39.262  24.881  28.158  1.00  0.00     0.014 A 
ATOM     34  C   UNL A   1      40.851  26.644  26.660  1.00  0.00     0.010 A 
ATOM     35  C   UNL A   1      39.889  25.913  28.787  1.00  0.00     0.010 A 
ATOM     36  C   UNL A   1      40.680  26.782  28.031  1.00  0.00    -0.014 A 
BRANCH  36  37
ATOM     37  C   UNL A   1      41.072  27.931  28.803  1.00  0.00     0.031 A 
ATOM     38  C   UNL A   1      40.031  28.979  28.849  1.00  0.00     0.074 A 
ATOM     39  C   UNL A   1      42.169  27.785  29.580  1.00  0.00     0.049 A 
ATOM     40  N   UNL A   1      40.236  30.188  29.201  1.00  0.00    -0.248 NA
ATOM     41  C   UNL A   1      38.635  28.759  28.430  1.00  0.00     0.031 C 
ATOM     42  C   UNL A   1      42.611  28.550  30.736  1.00  0.00     0.029 A 
ATOM     43  N   UNL A   1      43.252  26.948  29.310  1.00  0.00    -0.354 N 
ATOM     44  C   UNL A   1      38.999  30.760  29.429  1.00  0.00     0.074 A 
ATOM     45  C   UNL A   1      38.040  29.897  28.802  1.00  0.00     0.031 C 
ATOM     46  C   UNL A   1      43.942  28.381  30.889  1.00  0.00     0.029 A 
ATOM     47  C   UNL A   1      44.417  27.592  29.758  1.00  0.00     0.049 A 
ATOM     48  H   UNL A   1      43.208  26.063  28.881  1.00  0.00     0.167 HD
ATOM     49  C   UNL A   1      38.942  31.803  30.297  1.00  0.00     0.031 A 
ATOM     50  C   UNL A   1      45.309  28.047  28.821  1.00  0.00     0.031 A 
ATOM     51  C   UNL A   1      40.299  32.120  30.735  1.00  0.00     0.049 A 
ATOM     52  C   UNL A   1      45.235  29.558  28.715  1.00  0.00     0.074 A 
ATOM     53  C   UNL A   1      41.026  31.704  31.836  1.00  0.00     0.029 A 
ATOM     54  N   UNL A   1      41.210  32.551  29.784  1.00  0.00    -0.354 N 
ATOM     55  N   UNL A   1      44.159  30.257  28.968  1.00  0.00    -0.248 NA
ATOM     56  C   UNL A   1      46.397  30.397  28.429  1.00  0.00     0.031 C 
ATOM     57  C   UNL A   1      42.402  31.783  31.486  1.00  0.00     0.029 A 
ATOM     58  C   UNL A   1      42.497  32.249  30.184  1.00  0.00     0.049 A 
ATOM     59  H   UNL A   1      40.975  33.007  28.944  1.00  0.00     0.167 HD
ATOM     60  C   UNL A   1      44.477  31.587  28.966  1.00  0.00     0.074 A 
ATOM     61  C   UNL A   1      45.880  31.627  28.594  1.00  0.00     0.031 C 
ATOM     62  C   UNL A   1      43.610  32.582  29.314  1.00  0.00     0.031 A 
BRANCH  49  63
ATOM     63  C   UNL A   1      37.722  32.361  30.977  1.00  0.00    -0.014 A 
ATOM     64  C   UNL A   1      36.866  33.166  30.194  1.00  0.00     0.010 A 
ATOM     65  C   UNL A   1      37.358  32.190  32.326  1.00  0.00     0.010 A 
ATOM     66  C   UNL A   1      35.734  33.791  30.717  1.00  0.00     0.020 A 
ATOM     67  C   UNL A   1      36.216  32.814  32.868  1.00  0.00     0.020 A 
ATOM     68  C   UNL A   1      35.413  33.614  32.057  1.00  0.00     0.054 A 
BRANCH  68  69
ATOM     69  S   UNL A   1      33.927  34.433  32.687  1.00  0.00     0.124 S 
ATOM     70  O   UNL A   1      34.480  35.403  33.627  1.00  0.00    -0.237 OA
ATOM     71  O   UNL A   1      33.342  34.997  31.473  1.00  0.00    -0.237 OA
ATOM     72  O   UNL A   1      33.162  33.346  33.296  1.00  0.00    -0.744 OA
ENDBRANCH  68  69
ENDBRANCH  49  63
BRANCH  50  73
ATOM     73  C   UNL A   1      45.459  27.079  27.680  1.00  0.00    -0.014 A 
ATOM     74  C   UNL A   1      46.428  26.058  27.841  1.00  0.00     0.010 A 
ATOM     75  C   UNL A   1      44.396  26.854  26.787  1.00  0.00     0.010 A 
ATOM     76  C   UNL A   1      46.219  24.781  27.307  1.00  0.00     0.020 A 
ATOM     77  C   UNL A   1      44.200  25.578  26.234  1.00  0.00     0.020 A 
ATOM     78  C   UNL A   1      45.069  24.533  26.562  1.00  0.00     0.054 A 
BRANCH  78  79
ATOM     79  S   UNL A   1      44.634  22.806  26.192  1.00  0.00     0.124 S 
ATOM     80  O   UNL A   1      43.875  22.412  27.374  1.00  0.00    -0.237 OA
ATOM     81  O   UNL A   1      43.860  22.935  24.954  1.00  0.00    -0.237 OA
ATOM     82  O   UNL A   1      45.927  22.153  26.028  1.00  0.00    -0.744 OA
ENDBRANCH  78  79
ENDBRANCH  50  73
BRANCH  62  83
ATOM     83  C   UNL A   1      43.785  34.021  28.915  1.00  0.00    -0.014 A 
ATOM     84  C   UNL A   1      44.113  35.028  29.832  1.00  0.00     0.010 A 
ATOM     85  C   UNL A   1      43.781  34.367  27.542  1.00  0.00     0.010 A 
ATOM     86  C   UNL A   1      44.308  36.344  29.411  1.00  0.00     0.020 A 
ATOM     87  C   UNL A   1      44.058  35.658  27.105  1.00  0.00     0.020 A 
ATOM     88  C   UNL A   1      44.268  36.650  28.051  1.00  0.00     0.054 A 
BRANCH  88  89
ATOM     89  S   UNL A   1      44.493  38.362  27.536  1.00  0.00     0.124 S 
ATOM     90  O   UNL A   1      45.637  38.248  26.634  1.00  0.00    -0.237 OA
ATOM     91  O   UNL A   1      43.217  38.676  26.897  1.00  0.00    -0.237 OA
ATOM     92  O   UNL A   1      44.750  39.070  28.787  1.00  0.00    -0.744 OA
ENDBRANCH  88  89
ENDBRANCH  62  83
ENDBRANCH  36  37
ENDBRANCH  28  31
ENDBRANCH  26  27
ENDBRANCH  25  26
ENDBRANCH  24  25
ENDBRANCH   1  24
TORSDOF 19
ENDMDL
