MODEL 1
REMARK VINA RESULT:     -10.8      0.000      0.000
REMARK SMILES O=C(NCCCCCCNC(=O)[C@@H]1CCCN(C(=O)Nc2ccccc2)C1)c1ccc(-c2c3nc(c(-c4ccc(S(=O)(=O)[O-])cc4)c4ccc([nH]4)c(-c4ccc(S(=O)(=O)[O-])cc4)c4nc(c(-c5ccc(S(=O)(=O)[O-])cc5)c5ccc2[nH]5)C=C4)C=C3)cc1
REMARK SMILES IDX 6 1 5 2 4 3 3 4 1 5 2 6 28 8 29 9 87 10 30 11 86 12 31 13
REMARK SMILES IDX 32 14 33 15 80 16 34 17 85 18 79 19 81 20 35 21 84 22 78 23
REMARK SMILES IDX 77 24 36 26 66 27 47 28 65 29 48 30 51 31 64 32 82 33 49 34
REMARK SMILES IDX 50 35 63 37 83 38 52 39 37 40 38 41 46 42 39 43 45 44 40 45
REMARK SMILES IDX 41 46 42 47 43 48 44 49 67 50 68 51 76 52 69 53 75 54 70 55
REMARK SMILES IDX 71 56 72 57 73 58 74 59 53 60 54 61 62 62 55 63 61 64 56 65
REMARK SMILES IDX 57 66 58 67 59 68 60 69 7 70 8 71 9 72 10 73 11 74 12 76
REMARK SMILES IDX 13 77 14 78 27 79 15 80 17 81 16 82 18 83 19 84 20 85 21 87
REMARK SMILES IDX 22 88 26 89 23 90 25 91 24 92
REMARK H PARENT 3 7 81 25 51 36 10 75 20 86
REMARK Flexibility Score: inf
ROOT
ATOM      1  C   UNL A   1      31.431  27.817  25.701  1.00  0.00     0.002 C 
ENDROOT
BRANCH   1   2
ATOM      2  C   UNL A   1      32.357  27.407  26.850  1.00  0.00     0.021 C 
BRANCH   2   3
ATOM      3  C   UNL A   1      33.654  28.201  26.960  1.00  0.00     0.116 C 
BRANCH   3   4
ATOM      4  N   UNL A   1      33.439  29.584  27.357  1.00  0.00    -0.352 N 
ATOM      5  O   UNL A   1      33.858  31.550  28.374  1.00  0.00    -0.269 OA
ATOM      6  C   UNL A   1      34.284  30.463  27.992  1.00  0.00     0.251 C 
ATOM      7  H   UNL A   1      32.551  29.946  27.135  1.00  0.00     0.163 HD
BRANCH   6   8
ATOM      8  C   UNL A   1      35.697  30.096  28.233  1.00  0.00     0.039 A 
ATOM      9  C   UNL A   1      36.118  29.684  29.497  1.00  0.00     0.014 A 
ATOM     10  C   UNL A   1      36.612  30.141  27.177  1.00  0.00     0.014 A 
ATOM     11  C   UNL A   1      37.471  29.471  29.743  1.00  0.00     0.010 A 
ATOM     12  C   UNL A   1      37.960  29.835  27.404  1.00  0.00     0.010 A 
ATOM     13  C   UNL A   1      38.408  29.528  28.698  1.00  0.00    -0.014 A 
BRANCH  13  14
ATOM     14  C   UNL A   1      39.831  29.201  28.985  1.00  0.00     0.031 A 
ATOM     15  C   UNL A   1      40.412  27.853  28.651  1.00  0.00     0.074 A 
ATOM     16  C   UNL A   1      40.619  30.161  29.512  1.00  0.00     0.049 A 
ATOM     17  N   UNL A   1      41.645  27.433  28.791  1.00  0.00    -0.248 NA
ATOM     18  C   UNL A   1      39.498  26.842  28.095  1.00  0.00     0.031 C 
ATOM     19  C   UNL A   1      40.170  31.501  29.899  1.00  0.00     0.029 A 
ATOM     20  N   UNL A   1      41.963  30.171  29.786  1.00  0.00    -0.354 N 
ATOM     21  C   UNL A   1      41.656  26.115  28.352  1.00  0.00     0.074 A 
ATOM     22  C   UNL A   1      40.299  25.791  27.969  1.00  0.00     0.031 C 
ATOM     23  C   UNL A   1      41.226  32.219  30.307  1.00  0.00     0.029 A 
ATOM     24  C   UNL A   1      42.414  31.376  30.272  1.00  0.00     0.049 A 
ATOM     25  H   UNL A   1      42.548  29.392  29.648  1.00  0.00     0.167 HD
ATOM     26  C   UNL A   1      42.701  25.254  28.270  1.00  0.00     0.031 A 
ATOM     27  C   UNL A   1      43.644  31.763  30.662  1.00  0.00     0.031 A 
ATOM     28  C   UNL A   1      44.051  25.575  28.658  1.00  0.00     0.049 A 
ATOM     29  C   UNL A   1      44.780  30.787  30.567  1.00  0.00     0.074 A 
ATOM     30  C   UNL A   1      45.177  24.770  28.608  1.00  0.00     0.029 A 
ATOM     31  N   UNL A   1      44.461  26.798  29.168  1.00  0.00    -0.354 N 
ATOM     32  N   UNL A   1      44.766  29.549  30.133  1.00  0.00    -0.248 NA
ATOM     33  C   UNL A   1      46.097  31.262  31.010  1.00  0.00     0.031 C 
ATOM     34  C   UNL A   1      46.259  25.493  29.122  1.00  0.00     0.029 A 
ATOM     35  C   UNL A   1      45.819  26.766  29.444  1.00  0.00     0.049 A 
ATOM     36  H   UNL A   1      43.874  27.575  29.311  1.00  0.00     0.167 HD
ATOM     37  C   UNL A   1      46.075  29.097  30.248  1.00  0.00     0.074 A 
ATOM     38  C   UNL A   1      46.857  30.206  30.756  1.00  0.00     0.031 C 
ATOM     39  C   UNL A   1      46.581  27.872  29.965  1.00  0.00     0.031 A 
BRANCH  26  40
ATOM     40  C   UNL A   1      42.427  23.869  27.741  1.00  0.00    -0.014 A 
ATOM     41  C   UNL A   1      42.481  23.598  26.362  1.00  0.00     0.010 A 
ATOM     42  C   UNL A   1      42.177  22.812  28.635  1.00  0.00     0.010 A 
ATOM     43  C   UNL A   1      42.259  22.303  25.885  1.00  0.00     0.020 A 
ATOM     44  C   UNL A   1      41.978  21.510  28.164  1.00  0.00     0.020 A 
ATOM     45  C   UNL A   1      42.007  21.267  26.790  1.00  0.00     0.054 A 
BRANCH  45  46
ATOM     46  S   UNL A   1      41.754  19.590  26.143  1.00  0.00     0.124 S 
ATOM     47  O   UNL A   1      42.666  19.567  25.002  1.00  0.00    -0.237 OA
ATOM     48  O   UNL A   1      42.142  18.750  27.273  1.00  0.00    -0.237 OA
ATOM     49  O   UNL A   1      40.333  19.559  25.806  1.00  0.00    -0.744 OA
ENDBRANCH  45  46
ENDBRANCH  26  40
BRANCH  27  50
ATOM     50  C   UNL A   1      43.849  33.133  31.201  1.00  0.00    -0.014 A 
ATOM     51  C   UNL A   1      44.186  34.201  30.353  1.00  0.00     0.010 A 
ATOM     52  C   UNL A   1      43.686  33.375  32.578  1.00  0.00     0.010 A 
ATOM     53  C   UNL A   1      44.376  35.485  30.876  1.00  0.00     0.020 A 
ATOM     54  C   UNL A   1      43.844  34.661  33.099  1.00  0.00     0.020 A 
ATOM     55  C   UNL A   1      44.203  35.705  32.246  1.00  0.00     0.054 A 
BRANCH  55  56
ATOM     56  S   UNL A   1      44.406  37.385  32.899  1.00  0.00     0.124 S 
ATOM     57  O   UNL A   1      45.707  37.300  33.553  1.00  0.00    -0.237 OA
ATOM     58  O   UNL A   1      44.356  38.205  31.690  1.00  0.00    -0.237 OA
ATOM     59  O   UNL A   1      43.261  37.542  33.793  1.00  0.00    -0.744 OA
ENDBRANCH  55  56
ENDBRANCH  27  50
BRANCH  39  60
ATOM     60  C   UNL A   1      48.056  27.679  30.188  1.00  0.00    -0.014 A 
ATOM     61  C   UNL A   1      48.549  27.216  31.421  1.00  0.00     0.010 A 
ATOM     62  C   UNL A   1      48.960  27.956  29.146  1.00  0.00     0.010 A 
ATOM     63  C   UNL A   1      49.925  27.080  31.625  1.00  0.00     0.020 A 
ATOM     64  C   UNL A   1      50.335  27.795  29.338  1.00  0.00     0.020 A 
ATOM     65  C   UNL A   1      50.809  27.378  30.583  1.00  0.00     0.054 A 
BRANCH  65  66
ATOM     66  S   UNL A   1      52.590  27.183  30.866  1.00  0.00     0.124 S 
ATOM     67  O   UNL A   1      52.994  28.548  31.195  1.00  0.00    -0.237 OA
ATOM     68  O   UNL A   1      52.640  26.229  31.972  1.00  0.00    -0.237 OA
ATOM     69  O   UNL A   1      53.088  26.676  29.590  1.00  0.00    -0.744 OA
ENDBRANCH  65  66
ENDBRANCH  39  60
ENDBRANCH  13  14
ENDBRANCH   6   8
ENDBRANCH   3   4
ENDBRANCH   2   3
ENDBRANCH   1   2
BRANCH   1  70
ATOM     70  C   UNL A   1      32.095  27.992  24.329  1.00  0.00     0.002 C 
BRANCH  70  71
ATOM     71  C   UNL A   1      32.179  26.735  23.461  1.00  0.00     0.021 C 
BRANCH  71  72
ATOM     72  C   UNL A   1      33.485  25.954  23.573  1.00  0.00     0.116 C 
BRANCH  72  73
ATOM     73  N   UNL A   1      33.352  24.576  23.155  1.00  0.00    -0.356 N 
ATOM     74  C   UNL A   1      34.088  23.469  23.429  1.00  0.00     0.224 C 
ATOM     75  H   UNL A   1      32.586  24.411  22.560  1.00  0.00     0.163 HD
ATOM     76  O   UNL A   1      33.668  22.407  22.952  1.00  0.00    -0.275 OA
BRANCH  74  77
ATOM     77  C   UNL A   1      35.378  23.453  24.258  1.00  0.00     0.098 C 
ATOM     78  C   UNL A   1      36.612  22.829  23.619  1.00  0.00     0.017 C 
ATOM     79  C   UNL A   1      35.162  23.023  25.701  1.00  0.00     0.134 C 
ATOM     80  C   UNL A   1      37.092  21.503  24.204  1.00  0.00     0.022 C 
ATOM     81  N   UNL A   1      35.138  21.576  25.865  1.00  0.00    -0.324 N 
ATOM     82  C   UNL A   1      36.321  20.879  25.374  1.00  0.00     0.121 C 
BRANCH  81  83
ATOM     83  C   UNL A   1      34.048  21.042  26.520  1.00  0.00     0.321 C 
ATOM     84  O   UNL A   1      33.663  21.496  27.604  1.00  0.00    -0.248 OA
ATOM     85  N   UNL A   1      33.226  20.116  25.972  1.00  0.00    -0.308 N 
ATOM     86  H   UNL A   1      32.336  20.118  26.394  1.00  0.00     0.171 HD
BRANCH  85  87
ATOM     87  C   UNL A   1      33.320  19.159  24.961  1.00  0.00     0.042 A 
ATOM     88  C   UNL A   1      32.421  19.270  23.896  1.00  0.00     0.026 A 
ATOM     89  C   UNL A   1      34.224  18.099  24.983  1.00  0.00     0.026 A 
ATOM     90  C   UNL A   1      32.529  18.422  22.795  1.00  0.00     0.002 A 
ATOM     91  C   UNL A   1      34.335  17.250  23.880  1.00  0.00     0.002 A 
ATOM     92  C   UNL A   1      33.504  17.430  22.775  1.00  0.00     0.000 A 
ENDBRANCH  85  87
ENDBRANCH  81  83
ENDBRANCH  74  77
ENDBRANCH  72  73
ENDBRANCH  71  72
ENDBRANCH  70  71
ENDBRANCH   1  70
TORSDOF 18
ENDMDL
MODEL 2
REMARK VINA RESULT:     -10.7      2.928      8.594
REMARK SMILES O=C(NCCCCCCNC(=O)[C@@H]1CCCN(C(=O)Nc2ccccc2)C1)c1ccc(-c2c3nc(c(-c4ccc(S(=O)(=O)[O-])cc4)c4ccc([nH]4)c(-c4ccc(S(=O)(=O)[O-])cc4)c4nc(c(-c5ccc(S(=O)(=O)[O-])cc5)c5ccc2[nH]5)C=C4)C=C3)cc1
REMARK SMILES IDX 6 1 5 2 4 3 3 4 1 5 2 6 28 8 29 9 87 10 30 11 86 12 31 13
REMARK SMILES IDX 32 14 33 15 80 16 34 17 85 18 79 19 81 20 35 21 84 22 78 23
REMARK SMILES IDX 77 24 36 26 66 27 47 28 65 29 48 30 51 31 64 32 82 33 49 34
REMARK SMILES IDX 50 35 63 37 83 38 52 39 37 40 38 41 46 42 39 43 45 44 40 45
REMARK SMILES IDX 41 46 42 47 43 48 44 49 67 50 68 51 76 52 69 53 75 54 70 55
REMARK SMILES IDX 71 56 72 57 73 58 74 59 53 60 54 61 62 62 55 63 61 64 56 65
REMARK SMILES IDX 57 66 58 67 59 68 60 69 7 70 8 71 9 72 10 73 11 74 12 76
REMARK SMILES IDX 13 77 14 78 27 79 15 80 17 81 16 82 18 83 19 84 20 85 21 87
REMARK SMILES IDX 22 88 26 89 23 90 25 91 24 92
REMARK H PARENT 3 7 81 25 51 36 10 75 20 86
REMARK Flexibility Score: inf
ROOT
ATOM      1  C   UNL A   1      34.694  22.299  26.328  1.00  0.00     0.002 C 
ENDROOT
BRANCH   1   2
ATOM      2  C   UNL A   1      35.088  23.778  26.305  1.00  0.00     0.021 C 
BRANCH   2   3
ATOM      3  C   UNL A   1      36.382  24.099  25.567  1.00  0.00     0.116 C 
BRANCH   3   4
ATOM      4  N   UNL A   1      37.350  23.014  25.623  1.00  0.00    -0.352 N 
ATOM      5  O   UNL A   1      39.348  22.017  25.921  1.00  0.00    -0.269 OA
ATOM      6  C   UNL A   1      38.640  23.004  26.100  1.00  0.00     0.251 C 
ATOM      7  H   UNL A   1      37.032  22.155  25.265  1.00  0.00     0.163 HD
BRANCH   6   8
ATOM      8  C   UNL A   1      39.181  24.183  26.811  1.00  0.00     0.039 A 
ATOM      9  C   UNL A   1      38.934  24.368  28.172  1.00  0.00     0.014 A 
ATOM     10  C   UNL A   1      39.967  25.108  26.117  1.00  0.00     0.014 A 
ATOM     11  C   UNL A   1      39.334  25.544  28.797  1.00  0.00     0.010 A 
ATOM     12  C   UNL A   1      40.449  26.249  26.772  1.00  0.00     0.010 A 
ATOM     13  C   UNL A   1      40.109  26.493  28.111  1.00  0.00    -0.014 A 
BRANCH  13  14
ATOM     14  C   UNL A   1      40.596  27.694  28.844  1.00  0.00     0.031 A 
ATOM     15  C   UNL A   1      42.004  27.777  29.371  1.00  0.00     0.074 A 
ATOM     16  C   UNL A   1      39.761  28.744  28.988  1.00  0.00     0.049 A 
ATOM     17  N   UNL A   1      42.593  28.775  29.982  1.00  0.00    -0.248 NA
ATOM     18  C   UNL A   1      42.862  26.594  29.199  1.00  0.00     0.031 C 
ATOM     19  C   UNL A   1      38.366  28.778  28.540  1.00  0.00     0.029 A 
ATOM     20  N   UNL A   1      39.967  29.989  29.523  1.00  0.00    -0.354 N 
ATOM     21  C   UNL A   1      43.881  28.341  30.276  1.00  0.00     0.074 A 
ATOM     22  C   UNL A   1      43.979  26.977  29.802  1.00  0.00     0.031 C 
ATOM     23  C   UNL A   1      37.860  29.998  28.767  1.00  0.00     0.029 A 
ATOM     24  C   UNL A   1      38.868  30.812  29.433  1.00  0.00     0.049 A 
ATOM     25  H   UNL A   1      40.817  30.268  29.932  1.00  0.00     0.167 HD
ATOM     26  C   UNL A   1      44.890  29.017  30.878  1.00  0.00     0.031 A 
ATOM     27  C   UNL A   1      38.682  32.079  29.851  1.00  0.00     0.031 A 
ATOM     28  C   UNL A   1      44.789  30.374  31.355  1.00  0.00     0.049 A 
ATOM     29  C   UNL A   1      39.813  32.801  30.522  1.00  0.00     0.074 A 
ATOM     30  C   UNL A   1      45.758  31.144  31.975  1.00  0.00     0.029 A 
ATOM     31  N   UNL A   1      43.652  31.164  31.266  1.00  0.00    -0.354 N 
ATOM     32  N   UNL A   1      41.028  32.372  30.772  1.00  0.00    -0.248 NA
ATOM     33  C   UNL A   1      39.552  34.178  30.960  1.00  0.00     0.031 C 
ATOM     34  C   UNL A   1      45.197  32.385  32.294  1.00  0.00     0.029 A 
ATOM     35  C   UNL A   1      43.893  32.408  31.827  1.00  0.00     0.049 A 
ATOM     36  H   UNL A   1      42.799  30.883  30.862  1.00  0.00     0.167 HD
ATOM     37  C   UNL A   1      41.677  33.430  31.396  1.00  0.00     0.074 A 
ATOM     38  C   UNL A   1      40.733  34.528  31.450  1.00  0.00     0.031 C 
ATOM     39  C   UNL A   1      42.939  33.485  31.888  1.00  0.00     0.031 A 
BRANCH  26  40
ATOM     40  C   UNL A   1      46.202  28.299  31.062  1.00  0.00    -0.014 A 
ATOM     41  C   UNL A   1      47.195  28.339  30.067  1.00  0.00     0.010 A 
ATOM     42  C   UNL A   1      46.473  27.630  32.270  1.00  0.00     0.010 A 
ATOM     43  C   UNL A   1      48.422  27.697  30.263  1.00  0.00     0.020 A 
ATOM     44  C   UNL A   1      47.708  27.007  32.481  1.00  0.00     0.020 A 
ATOM     45  C   UNL A   1      48.669  27.033  31.468  1.00  0.00     0.054 A 
BRANCH  45  46
ATOM     46  S   UNL A   1      50.282  26.236  31.706  1.00  0.00     0.124 S 
ATOM     47  O   UNL A   1      49.977  24.842  31.396  1.00  0.00    -0.237 OA
ATOM     48  O   UNL A   1      51.126  26.925  30.733  1.00  0.00    -0.237 OA
ATOM     49  O   UNL A   1      50.600  26.508  33.106  1.00  0.00    -0.744 OA
ENDBRANCH  45  46
ENDBRANCH  26  40
BRANCH  27  50
ATOM     50  C   UNL A   1      37.356  32.728  29.666  1.00  0.00    -0.014 A 
ATOM     51  C   UNL A   1      36.417  32.765  30.710  1.00  0.00     0.010 A 
ATOM     52  C   UNL A   1      37.039  33.334  28.436  1.00  0.00     0.010 A 
ATOM     53  C   UNL A   1      35.175  33.379  30.521  1.00  0.00     0.020 A 
ATOM     54  C   UNL A   1      35.813  33.975  28.253  1.00  0.00     0.020 A 
ATOM     55  C   UNL A   1      34.882  33.980  29.293  1.00  0.00     0.054 A 
BRANCH  55  56
ATOM     56  S   UNL A   1      33.285  34.814  29.080  1.00  0.00     0.124 S 
ATOM     57  O   UNL A   1      33.695  36.140  28.630  1.00  0.00    -0.237 OA
ATOM     58  O   UNL A   1      32.620  33.981  28.081  1.00  0.00    -0.237 OA
ATOM     59  O   UNL A   1      32.694  34.759  30.416  1.00  0.00    -0.744 OA
ENDBRANCH  55  56
ENDBRANCH  27  50
BRANCH  39  60
ATOM     60  C   UNL A   1      43.369  34.784  32.512  1.00  0.00    -0.014 A 
ATOM     61  C   UNL A   1      43.246  35.000  33.896  1.00  0.00     0.010 A 
ATOM     62  C   UNL A   1      43.912  35.800  31.704  1.00  0.00     0.010 A 
ATOM     63  C   UNL A   1      43.614  36.227  34.455  1.00  0.00     0.020 A 
ATOM     64  C   UNL A   1      44.305  37.018  32.263  1.00  0.00     0.020 A 
ATOM     65  C   UNL A   1      44.134  37.231  33.632  1.00  0.00     0.054 A 
BRANCH  65  66
ATOM     66  S   UNL A   1      44.615  38.812  34.379  1.00  0.00     0.124 S 
ATOM     67  O   UNL A   1      46.064  38.803  34.198  1.00  0.00    -0.237 OA
ATOM     68  O   UNL A   1      43.887  39.787  33.569  1.00  0.00    -0.237 OA
ATOM     69  O   UNL A   1      44.158  38.693  35.761  1.00  0.00    -0.744 OA
ENDBRANCH  65  66
ENDBRANCH  39  60
ENDBRANCH  13  14
ENDBRANCH   6   8
ENDBRANCH   3   4
ENDBRANCH   2   3
ENDBRANCH   1   2
BRANCH   1  70
ATOM     70  C   UNL A   1      33.503  21.931  27.222  1.00  0.00     0.002 C 
BRANCH  70  71
ATOM     71  C   UNL A   1      32.278  22.841  27.112  1.00  0.00     0.021 C 
BRANCH  71  72
ATOM     72  C   UNL A   1      31.723  23.014  25.701  1.00  0.00     0.116 C 
BRANCH  72  73
ATOM     73  N   UNL A   1      30.666  23.999  25.631  1.00  0.00    -0.356 N 
ATOM     74  C   UNL A   1      30.674  25.350  25.758  1.00  0.00     0.224 C 
ATOM     75  H   UNL A   1      29.775  23.618  25.460  1.00  0.00     0.163 HD
ATOM     76  O   UNL A   1      29.588  25.918  25.584  1.00  0.00    -0.275 OA
BRANCH  74  77
ATOM     77  C   UNL A   1      31.906  26.193  26.107  1.00  0.00     0.098 C 
ATOM     78  C   UNL A   1      31.698  27.385  27.032  1.00  0.00     0.017 C 
ATOM     79  C   UNL A   1      32.782  26.508  24.905  1.00  0.00     0.134 C 
ATOM     80  C   UNL A   1      31.839  28.772  26.408  1.00  0.00     0.022 C 
ATOM     81  N   UNL A   1      32.313  27.660  24.146  1.00  0.00    -0.324 N 
ATOM     82  C   UNL A   1      32.170  28.890  24.915  1.00  0.00     0.121 C 
BRANCH  81  83
ATOM     83  C   UNL A   1      32.127  27.478  22.791  1.00  0.00     0.321 C 
ATOM     84  O   UNL A   1      32.978  26.909  22.095  1.00  0.00    -0.248 OA
ATOM     85  N   UNL A   1      30.963  27.745  22.152  1.00  0.00    -0.308 N 
ATOM     86  H   UNL A   1      30.879  27.237  21.314  1.00  0.00     0.171 HD
BRANCH  85  87
ATOM     87  C   UNL A   1      29.852  28.557  22.384  1.00  0.00     0.042 A 
ATOM     88  C   UNL A   1      29.947  29.892  21.979  1.00  0.00     0.026 A 
ATOM     89  C   UNL A   1      28.694  28.117  23.020  1.00  0.00     0.026 A 
ATOM     90  C   UNL A   1      28.839  30.733  22.072  1.00  0.00     0.002 A 
ATOM     91  C   UNL A   1      27.583  28.958  23.112  1.00  0.00     0.002 A 
ATOM     92  C   UNL A   1      27.648  30.257  22.613  1.00  0.00     0.000 A 
ENDBRANCH  85  87
ENDBRANCH  81  83
ENDBRANCH  74  77
ENDBRANCH  72  73
ENDBRANCH  71  72
ENDBRANCH  70  71
ENDBRANCH   1  70
TORSDOF 18
ENDMDL
MODEL 3
REMARK VINA RESULT:     -10.7      2.993      3.669
REMARK SMILES O=C(NCCCCCCNC(=O)[C@@H]1CCCN(C(=O)Nc2ccccc2)C1)c1ccc(-c2c3nc(c(-c4ccc(S(=O)(=O)[O-])cc4)c4ccc([nH]4)c(-c4ccc(S(=O)(=O)[O-])cc4)c4nc(c(-c5ccc(S(=O)(=O)[O-])cc5)c5ccc2[nH]5)C=C4)C=C3)cc1
REMARK SMILES IDX 6 1 5 2 4 3 3 4 1 5 2 6 28 8 29 9 87 10 30 11 86 12 31 13
REMARK SMILES IDX 32 14 33 15 80 16 34 17 85 18 79 19 81 20 35 21 84 22 78 23
REMARK SMILES IDX 77 24 36 26 66 27 47 28 65 29 48 30 51 31 64 32 82 33 49 34
REMARK SMILES IDX 50 35 63 37 83 38 52 39 37 40 38 41 46 42 39 43 45 44 40 45
REMARK SMILES IDX 41 46 42 47 43 48 44 49 67 50 68 51 76 52 69 53 75 54 70 55
REMARK SMILES IDX 71 56 72 57 73 58 74 59 53 60 54 61 62 62 55 63 61 64 56 65
REMARK SMILES IDX 57 66 58 67 59 68 60 69 7 70 8 71 9 72 10 73 11 74 12 76
REMARK SMILES IDX 13 77 14 78 27 79 15 80 17 81 16 82 18 83 19 84 20 85 21 87
REMARK SMILES IDX 22 88 26 89 23 90 25 91 24 92
REMARK H PARENT 3 7 81 25 51 36 10 75 20 86
REMARK Flexibility Score: inf
ROOT
ATOM      1  C   UNL A   1      31.768  28.346  24.988  1.00  0.00     0.002 C 
ENDROOT
BRANCH   1   2
ATOM      2  C   UNL A   1      33.276  28.127  24.837  1.00  0.00     0.021 C 
BRANCH   2   3
ATOM      3  C   UNL A   1      34.133  28.659  25.980  1.00  0.00     0.116 C 
BRANCH   3   4
ATOM      4  N   UNL A   1      33.726  29.985  26.422  1.00  0.00    -0.352 N 
ATOM      5  O   UNL A   1      33.672  31.821  27.726  1.00  0.00    -0.269 OA
ATOM      6  C   UNL A   1      34.256  30.790  27.402  1.00  0.00     0.251 C 
ATOM      7  H   UNL A   1      32.953  30.362  25.945  1.00  0.00     0.163 HD
BRANCH   6   8
ATOM      8  C   UNL A   1      35.515  30.410  28.079  1.00  0.00     0.039 A 
ATOM      9  C   UNL A   1      35.499  29.561  29.186  1.00  0.00     0.014 A 
ATOM     10  C   UNL A   1      36.735  30.888  27.590  1.00  0.00     0.014 A 
ATOM     11  C   UNL A   1      36.672  29.318  29.894  1.00  0.00     0.010 A 
ATOM     12  C   UNL A   1      37.929  30.566  28.249  1.00  0.00     0.010 A 
ATOM     13  C   UNL A   1      37.904  29.805  29.427  1.00  0.00    -0.014 A 
BRANCH  13  14
ATOM     14  C   UNL A   1      39.148  29.444  30.161  1.00  0.00     0.031 A 
ATOM     15  C   UNL A   1      40.072  28.365  29.662  1.00  0.00     0.074 A 
ATOM     16  C   UNL A   1      39.467  30.141  31.271  1.00  0.00     0.049 A 
ATOM     17  N   UNL A   1      41.219  27.972  30.159  1.00  0.00    -0.248 NA
ATOM     18  C   UNL A   1      39.662  27.628  28.456  1.00  0.00     0.031 C 
ATOM     19  C   UNL A   1      38.643  31.196  31.868  1.00  0.00     0.029 A 
ATOM     20  N   UNL A   1      40.575  30.091  32.077  1.00  0.00    -0.354 N 
ATOM     21  C   UNL A   1      41.661  26.941  29.339  1.00  0.00     0.074 A 
ATOM     22  C   UNL A   1      40.645  26.747  28.327  1.00  0.00     0.031 C 
ATOM     23  C   UNL A   1      39.297  31.730  32.909  1.00  0.00     0.029 A 
ATOM     24  C   UNL A   1      40.554  31.017  33.094  1.00  0.00     0.049 A 
ATOM     25  H   UNL A   1      41.313  29.455  31.941  1.00  0.00     0.167 HD
ATOM     26  C   UNL A   1      42.811  26.226  29.417  1.00  0.00     0.031 A 
ATOM     27  C   UNL A   1      41.439  31.261  34.080  1.00  0.00     0.031 A 
ATOM     28  C   UNL A   1      43.819  26.415  30.430  1.00  0.00     0.049 A 
ATOM     29  C   UNL A   1      42.699  30.449  34.147  1.00  0.00     0.074 A 
ATOM     30  C   UNL A   1      45.018  25.740  30.589  1.00  0.00     0.029 A 
ATOM     31  N   UNL A   1      43.749  27.346  31.456  1.00  0.00    -0.354 N 
ATOM     32  N   UNL A   1      43.102  29.489  33.348  1.00  0.00    -0.248 NA
ATOM     33  C   UNL A   1      43.626  30.756  35.244  1.00  0.00     0.031 C 
ATOM     34  C   UNL A   1      45.655  26.238  31.732  1.00  0.00     0.029 A 
ATOM     35  C   UNL A   1      44.877  27.257  32.256  1.00  0.00     0.049 A 
ATOM     36  H   UNL A   1      43.007  27.978  31.595  1.00  0.00     0.167 HD
ATOM     37  C   UNL A   1      44.332  29.079  33.846  1.00  0.00     0.074 A 
ATOM     38  C   UNL A   1      44.622  29.919  34.990  1.00  0.00     0.031 C 
ATOM     39  C   UNL A   1      45.145  28.090  33.400  1.00  0.00     0.031 A 
BRANCH  26  40
ATOM     40  C   UNL A   1      43.044  25.159  28.378  1.00  0.00    -0.014 A 
ATOM     41  C   UNL A   1      43.737  25.449  27.189  1.00  0.00     0.010 A 
ATOM     42  C   UNL A   1      42.623  23.839  28.619  1.00  0.00     0.010 A 
ATOM     43  C   UNL A   1      43.978  24.444  26.246  1.00  0.00     0.020 A 
ATOM     44  C   UNL A   1      42.883  22.825  27.690  1.00  0.00     0.020 A 
ATOM     45  C   UNL A   1      43.547  23.139  26.502  1.00  0.00     0.054 A 
BRANCH  45  46
ATOM     46  S   UNL A   1      43.902  21.850  25.275  1.00  0.00     0.124 S 
ATOM     47  O   UNL A   1      42.825  20.894  25.524  1.00  0.00    -0.237 OA
ATOM     48  O   UNL A   1      43.814  22.578  24.012  1.00  0.00    -0.237 OA
ATOM     49  O   UNL A   1      45.241  21.389  25.633  1.00  0.00    -0.744 OA
ENDBRANCH  45  46
ENDBRANCH  26  40
BRANCH  27  50
ATOM     50  C   UNL A   1      41.143  32.307  35.094  1.00  0.00    -0.014 A 
ATOM     51  C   UNL A   1      41.494  33.650  34.872  1.00  0.00     0.010 A 
ATOM     52  C   UNL A   1      40.484  31.958  36.288  1.00  0.00     0.010 A 
ATOM     53  C   UNL A   1      41.209  34.622  35.836  1.00  0.00     0.020 A 
ATOM     54  C   UNL A   1      40.170  32.932  37.238  1.00  0.00     0.020 A 
ATOM     55  C   UNL A   1      40.549  34.256  37.013  1.00  0.00     0.054 A 
BRANCH  55  56
ATOM     56  S   UNL A   1      40.144  35.538  38.230  1.00  0.00     0.124 S 
ATOM     57  O   UNL A   1      40.000  36.720  37.387  1.00  0.00    -0.237 OA
ATOM     58  O   UNL A   1      38.911  35.031  38.829  1.00  0.00    -0.237 OA
ATOM     59  O   UNL A   1      41.302  35.538  39.121  1.00  0.00    -0.744 OA
ENDBRANCH  55  56
ENDBRANCH  27  50
BRANCH  39  60
ATOM     60  C   UNL A   1      46.432  27.880  34.149  1.00  0.00    -0.014 A 
ATOM     61  C   UNL A   1      47.602  28.573  33.790  1.00  0.00     0.010 A 
ATOM     62  C   UNL A   1      46.469  26.984  35.233  1.00  0.00     0.010 A 
ATOM     63  C   UNL A   1      48.800  28.337  34.471  1.00  0.00     0.020 A 
ATOM     64  C   UNL A   1      47.659  26.765  35.933  1.00  0.00     0.020 A 
ATOM     65  C   UNL A   1      48.821  27.428  35.534  1.00  0.00     0.054 A 
BRANCH  65  66
ATOM     66  S   UNL A   1      50.383  27.145  36.411  1.00  0.00     0.124 S 
ATOM     67  O   UNL A   1      51.369  27.504  35.395  1.00  0.00    -0.237 OA
ATOM     68  O   UNL A   1      50.287  28.061  37.546  1.00  0.00    -0.237 OA
ATOM     69  O   UNL A   1      50.332  25.727  36.757  1.00  0.00    -0.744 OA
ENDBRANCH  65  66
ENDBRANCH  39  60
ENDBRANCH  13  14
ENDBRANCH   6   8
ENDBRANCH   3   4
ENDBRANCH   2   3
ENDBRANCH   1   2
BRANCH   1  70
ATOM     70  C   UNL A   1      30.895  27.861  23.823  1.00  0.00     0.002 C 
BRANCH  70  71
ATOM     71  C   UNL A   1      29.884  26.763  24.157  1.00  0.00     0.021 C 
BRANCH  71  72
ATOM     72  C   UNL A   1      30.106  26.061  25.494  1.00  0.00     0.116 C 
BRANCH  72  73
ATOM     73  N   UNL A   1      30.201  24.624  25.363  1.00  0.00    -0.356 N 
ATOM     74  C   UNL A   1      31.262  23.796  25.188  1.00  0.00     0.224 C 
ATOM     75  H   UNL A   1      29.334  24.160  25.409  1.00  0.00     0.163 HD
ATOM     76  O   UNL A   1      31.008  22.584  25.172  1.00  0.00    -0.275 OA
BRANCH  74  77
ATOM     77  C   UNL A   1      32.714  24.253  25.002  1.00  0.00     0.098 C 
ATOM     78  C   UNL A   1      33.251  24.309  23.578  1.00  0.00     0.017 C 
ATOM     79  C   UNL A   1      33.679  23.613  25.987  1.00  0.00     0.134 C 
ATOM     80  C   UNL A   1      34.305  23.271  23.200  1.00  0.00     0.022 C 
ATOM     81  N   UNL A   1      34.129  22.293  25.565  1.00  0.00    -0.324 N 
ATOM     82  C   UNL A   1      34.754  22.245  24.249  1.00  0.00     0.121 C 
BRANCH  81  83
ATOM     83  C   UNL A   1      33.981  21.266  26.474  1.00  0.00     0.321 C 
ATOM     84  O   UNL A   1      34.156  21.447  27.685  1.00  0.00    -0.248 OA
ATOM     85  N   UNL A   1      33.481  20.049  26.152  1.00  0.00    -0.308 N 
ATOM     86  H   UNL A   1      33.110  19.585  26.937  1.00  0.00     0.171 HD
BRANCH  85  87
ATOM     87  C   UNL A   1      33.359  19.287  24.990  1.00  0.00     0.042 A 
ATOM     88  C   UNL A   1      34.320  18.293  24.779  1.00  0.00     0.026 A 
ATOM     89  C   UNL A   1      32.368  19.492  24.033  1.00  0.00     0.026 A 
ATOM     90  C   UNL A   1      34.198  17.417  23.701  1.00  0.00     0.002 A 
ATOM     91  C   UNL A   1      32.244  18.614  22.954  1.00  0.00     0.002 A 
ATOM     92  C   UNL A   1      33.144  17.560  22.805  1.00  0.00     0.000 A 
ENDBRANCH  85  87
ENDBRANCH  81  83
ENDBRANCH  74  77
ENDBRANCH  72  73
ENDBRANCH  71  72
ENDBRANCH  70  71
ENDBRANCH   1  70
TORSDOF 18
ENDMDL
