MODEL 1
REMARK VINA RESULT:     -11.7      0.000      0.000
REMARK SMILES CC(C)CSc1cc2c(cc1Cl)C=C(C(=O)NCCCCCCNC(=O)c1ccc(-c3c4nc(c(-c5ccc(S(=O)(=O)[O-])cc5)c5ccc([nH]5)c(-c5ccc(S(=O)(=O)[O-])cc5)c5nc(c(-c6ccc(S(=O)(=O)[O-])cc6)c6ccc3[nH]6)C=C5)C=C4)cc1)[C@@H](C(F)(F)F)O2
REMARK SMILES IDX 20 1 19 2 18 3 17 4 15 5 16 6 14 8 6 9 7 10 11 11 8 12 10 13
REMARK SMILES IDX 12 14 9 15 92 16 13 17 87 18 5 19 4 20 2 21 1 22 3 23 88 24
REMARK SMILES IDX 89 25 90 26 91 27 21 28 22 29 23 30 24 31 25 32 26 34 27 35
REMARK SMILES IDX 28 36 86 37 29 38 85 39 30 40 31 41 32 42 79 43 33 44 84 45
REMARK SMILES IDX 78 46 80 47 34 48 83 49 77 50 76 51 35 53 65 54 46 55 64 56
REMARK SMILES IDX 47 57 50 58 63 59 81 60 48 61 49 62 62 64 82 65 51 66 36 67
REMARK SMILES IDX 37 68 45 69 38 70 44 71 39 72 40 73 41 74 42 75 43 76 66 77
REMARK SMILES IDX 67 78 75 79 68 80 74 81 69 82 70 83 71 84 72 85 73 86 52 87
REMARK SMILES IDX 53 88 61 89 54 90 60 91 55 92 56 93 57 94 58 95 59 96
REMARK H PARENT 17 7 24 33 80 52 50 63
REMARK Flexibility Score: inf
ROOT
ATOM      1  C   UNL A   1      38.407  23.595  26.335  1.00  0.00     0.002 C 
ENDROOT
BRANCH   1   2
ATOM      2  C   UNL A   1      37.129  23.212  25.585  1.00  0.00     0.021 C 
BRANCH   2   3
ATOM      3  C   UNL A   1      36.779  21.729  25.638  1.00  0.00     0.116 C 
BRANCH   3   4
ATOM      4  N   UNL A   1      35.638  21.460  26.496  1.00  0.00    -0.352 N 
ATOM      5  C   UNL A   1      34.357  21.891  26.599  1.00  0.00     0.251 C 
ATOM      6  O   UNL A   1      33.688  21.348  27.485  1.00  0.00    -0.270 OA
ATOM      7  H   UNL A   1      35.850  20.788  27.183  1.00  0.00     0.163 HD
BRANCH   5   8
ATOM      8  C   UNL A   1      33.728  22.949  25.749  1.00  0.00     0.067 C 
ATOM      9  C   UNL A   1      32.009  27.397  24.055  1.00  0.00     0.030 A 
ATOM     10  C   UNL A   1      32.221  26.137  23.492  1.00  0.00     0.063 A 
ATOM     11  C   UNL A   1      32.144  27.519  25.452  1.00  0.00     0.055 A 
ATOM     12  C   UNL A   1      32.693  25.078  24.261  1.00  0.00     0.129 A 
ATOM     13  C   UNL A   1      32.576  26.433  26.232  1.00  0.00     0.033 A 
ATOM     14  Cl  UNL A   1      31.827  29.002  26.293  1.00  0.00    -0.083 Cl
ATOM     15  C   UNL A   1      32.890  25.215  25.629  1.00  0.00     0.019 A 
ATOM     16  O   UNL A   1      33.010  23.957  23.561  1.00  0.00    -0.475 OA
ATOM     17  C   UNL A   1      33.470  24.112  26.380  1.00  0.00     0.025 C 
ATOM     18  C   UNL A   1      33.368  22.764  24.300  1.00  0.00     0.314 C 
BRANCH   9  19
ATOM     19  S   UNL A   1      31.632  28.804  23.006  1.00  0.00    -0.124 SA
BRANCH  19  20
ATOM     20  C   UNL A   1      30.010  29.421  23.626  1.00  0.00     0.078 C 
BRANCH  20  21
ATOM     21  C   UNL A   1      29.274  30.446  22.739  1.00  0.00    -0.007 C 
ATOM     22  C   UNL A   1      28.207  29.852  21.820  1.00  0.00     0.008 C 
ATOM     23  C   UNL A   1      28.604  31.490  23.644  1.00  0.00     0.008 C 
ENDBRANCH  20  21
ENDBRANCH  19  20
ENDBRANCH   9  19
BRANCH  18  24
ATOM     24  C   UNL A   1      32.248  21.736  24.076  1.00  0.00     0.429 C 
ATOM     25  F   UNL A   1      31.302  21.854  25.040  1.00  0.00    -0.167 F 
ATOM     26  F   UNL A   1      31.614  21.895  22.894  1.00  0.00    -0.167 F 
ATOM     27  F   UNL A   1      32.712  20.466  24.111  1.00  0.00    -0.167 F 
ENDBRANCH  18  24
ENDBRANCH   5   8
ENDBRANCH   3   4
ENDBRANCH   2   3
ENDBRANCH   1   2
BRANCH   1  28
ATOM     28  C   UNL A   1      39.535  22.556  26.305  1.00  0.00     0.002 C 
BRANCH  28  29
ATOM     29  C   UNL A   1      40.496  22.575  27.495  1.00  0.00     0.021 C 
BRANCH  29  30
ATOM     30  C   UNL A   1      41.851  23.219  27.228  1.00  0.00     0.116 C 
BRANCH  30  31
ATOM     31  N   UNL A   1      41.830  24.120  26.087  1.00  0.00    -0.352 N 
ATOM     32  C   UNL A   1      41.557  25.465  26.041  1.00  0.00     0.251 C 
ATOM     33  H   UNL A   1      42.044  23.704  25.220  1.00  0.00     0.163 HD
ATOM     34  O   UNL A   1      41.440  26.027  24.954  1.00  0.00    -0.269 OA
BRANCH  32  35
ATOM     35  C   UNL A   1      41.375  26.230  27.295  1.00  0.00     0.039 A 
ATOM     36  C   UNL A   1      40.230  26.064  28.075  1.00  0.00     0.014 A 
ATOM     37  C   UNL A   1      42.371  27.125  27.701  1.00  0.00     0.014 A 
ATOM     38  C   UNL A   1      40.006  26.903  29.160  1.00  0.00     0.010 A 
ATOM     39  C   UNL A   1      42.185  27.905  28.849  1.00  0.00     0.010 A 
ATOM     40  C   UNL A   1      40.982  27.831  29.566  1.00  0.00    -0.014 A 
BRANCH  40  41
ATOM     41  C   UNL A   1      40.717  28.673  30.763  1.00  0.00     0.031 A 
ATOM     42  C   UNL A   1      41.631  28.644  31.958  1.00  0.00     0.074 A 
ATOM     43  C   UNL A   1      39.683  29.538  30.727  1.00  0.00     0.049 A 
ATOM     44  N   UNL A   1      41.612  29.409  33.020  1.00  0.00    -0.248 NA
ATOM     45  C   UNL A   1      42.702  27.634  31.971  1.00  0.00     0.031 C 
ATOM     46  C   UNL A   1      38.725  29.652  29.624  1.00  0.00     0.029 A 
ATOM     47  N   UNL A   1      39.292  30.516  31.608  1.00  0.00    -0.354 N 
ATOM     48  C   UNL A   1      42.656  28.973  33.827  1.00  0.00     0.074 A 
ATOM     49  C   UNL A   1      43.268  27.850  33.150  1.00  0.00     0.031 C 
ATOM     50  C   UNL A   1      37.917  30.696  29.851  1.00  0.00     0.029 A 
ATOM     51  C   UNL A   1      38.251  31.286  31.144  1.00  0.00     0.049 A 
ATOM     52  H   UNL A   1      39.715  30.651  32.487  1.00  0.00     0.167 HD
ATOM     53  C   UNL A   1      43.077  29.474  35.013  1.00  0.00     0.031 A 
ATOM     54  C   UNL A   1      37.635  32.356  31.684  1.00  0.00     0.031 A 
ATOM     55  C   UNL A   1      42.467  30.597  35.679  1.00  0.00     0.049 A 
ATOM     56  C   UNL A   1      38.105  32.877  33.010  1.00  0.00     0.074 A 
ATOM     57  C   UNL A   1      42.841  31.191  36.872  1.00  0.00     0.029 A 
ATOM     58  N   UNL A   1      41.363  31.297  35.215  1.00  0.00    -0.354 N 
ATOM     59  N   UNL A   1      39.110  32.462  33.744  1.00  0.00    -0.248 NA
ATOM     60  C   UNL A   1      37.360  34.005  33.584  1.00  0.00     0.031 C 
ATOM     61  C   UNL A   1      41.927  32.208  37.161  1.00  0.00     0.029 A 
ATOM     62  C   UNL A   1      41.024  32.296  36.114  1.00  0.00     0.049 A 
ATOM     63  H   UNL A   1      40.890  31.112  34.372  1.00  0.00     0.167 HD
ATOM     64  C   UNL A   1      39.114  33.273  34.872  1.00  0.00     0.074 A 
ATOM     65  C   UNL A   1      38.037  34.229  34.703  1.00  0.00     0.031 C 
ATOM     66  C   UNL A   1      39.929  33.222  35.954  1.00  0.00     0.031 A 
BRANCH  53  67
ATOM     67  C   UNL A   1      44.261  28.825  35.684  1.00  0.00    -0.014 A 
ATOM     68  C   UNL A   1      44.079  28.090  36.870  1.00  0.00     0.010 A 
ATOM     69  C   UNL A   1      45.568  29.043  35.211  1.00  0.00     0.010 A 
ATOM     70  C   UNL A   1      45.180  27.611  37.587  1.00  0.00     0.020 A 
ATOM     71  C   UNL A   1      46.671  28.543  35.911  1.00  0.00     0.020 A 
ATOM     72  C   UNL A   1      46.469  27.851  37.108  1.00  0.00     0.054 A 
BRANCH  72  73
ATOM     73  S   UNL A   1      47.888  27.247  38.066  1.00  0.00     0.124 S 
ATOM     74  O   UNL A   1      47.857  25.814  37.791  1.00  0.00    -0.237 OA
ATOM     75  O   UNL A   1      49.007  27.979  37.476  1.00  0.00    -0.237 OA
ATOM     76  O   UNL A   1      47.560  27.631  39.437  1.00  0.00    -0.744 OA
ENDBRANCH  72  73
ENDBRANCH  53  67
BRANCH  54  77
ATOM     77  C   UNL A   1      36.530  33.010  30.932  1.00  0.00    -0.014 A 
ATOM     78  C   UNL A   1      36.815  33.885  29.867  1.00  0.00     0.010 A 
ATOM     79  C   UNL A   1      35.194  32.842  31.339  1.00  0.00     0.010 A 
ATOM     80  C   UNL A   1      35.798  34.631  29.270  1.00  0.00     0.020 A 
ATOM     81  C   UNL A   1      34.168  33.564  30.720  1.00  0.00     0.020 A 
ATOM     82  C   UNL A   1      34.482  34.479  29.713  1.00  0.00     0.054 A 
BRANCH  82  83
ATOM     83  S   UNL A   1      33.186  35.508  28.970  1.00  0.00     0.124 S 
ATOM     84  O   UNL A   1      33.974  36.483  28.220  1.00  0.00    -0.237 OA
ATOM     85  O   UNL A   1      32.437  34.549  28.162  1.00  0.00    -0.237 OA
ATOM     86  O   UNL A   1      32.469  36.040  30.126  1.00  0.00    -0.744 OA
ENDBRANCH  82  83
ENDBRANCH  54  77
BRANCH  66  87
ATOM     87  C   UNL A   1      39.674  34.203  37.066  1.00  0.00    -0.014 A 
ATOM     88  C   UNL A   1      40.203  35.505  36.995  1.00  0.00     0.010 A 
ATOM     89  C   UNL A   1      38.981  33.810  38.225  1.00  0.00     0.010 A 
ATOM     90  C   UNL A   1      40.057  36.390  38.066  1.00  0.00     0.020 A 
ATOM     91  C   UNL A   1      38.805  34.703  39.286  1.00  0.00     0.020 A 
ATOM     92  C   UNL A   1      39.362  35.981  39.207  1.00  0.00     0.054 A 
BRANCH  92  93
ATOM     93  S   UNL A   1      39.168  37.146  40.584  1.00  0.00     0.124 S 
ATOM     94  O   UNL A   1      40.543  37.576  40.817  1.00  0.00    -0.237 OA
ATOM     95  O   UNL A   1      38.276  38.161  40.027  1.00  0.00    -0.237 OA
ATOM     96  O   UNL A   1      38.581  36.327  41.643  1.00  0.00    -0.744 OA
ENDBRANCH  92  93
ENDBRANCH  66  87
ENDBRANCH  40  41
ENDBRANCH  32  35
ENDBRANCH  30  31
ENDBRANCH  29  30
ENDBRANCH  28  29
ENDBRANCH   1  28
TORSDOF 20
ENDMDL
MODEL 2
REMARK VINA RESULT:     -11.2      5.976      8.258
REMARK SMILES CC(C)CSc1cc2c(cc1Cl)C=C(C(=O)NCCCCCCNC(=O)c1ccc(-c3c4nc(c(-c5ccc(S(=O)(=O)[O-])cc5)c5ccc([nH]5)c(-c5ccc(S(=O)(=O)[O-])cc5)c5nc(c(-c6ccc(S(=O)(=O)[O-])cc6)c6ccc3[nH]6)C=C5)C=C4)cc1)[C@@H](C(F)(F)F)O2
REMARK SMILES IDX 20 1 19 2 18 3 17 4 15 5 16 6 14 8 6 9 7 10 11 11 8 12 10 13
REMARK SMILES IDX 12 14 9 15 92 16 13 17 87 18 5 19 4 20 2 21 1 22 3 23 88 24
REMARK SMILES IDX 89 25 90 26 91 27 21 28 22 29 23 30 24 31 25 32 26 34 27 35
REMARK SMILES IDX 28 36 86 37 29 38 85 39 30 40 31 41 32 42 79 43 33 44 84 45
REMARK SMILES IDX 78 46 80 47 34 48 83 49 77 50 76 51 35 53 65 54 46 55 64 56
REMARK SMILES IDX 47 57 50 58 63 59 81 60 48 61 49 62 62 64 82 65 51 66 36 67
REMARK SMILES IDX 37 68 45 69 38 70 44 71 39 72 40 73 41 74 42 75 43 76 66 77
REMARK SMILES IDX 67 78 75 79 68 80 74 81 69 82 70 83 71 84 72 85 73 86 52 87
REMARK SMILES IDX 53 88 61 89 54 90 60 91 55 92 56 93 57 94 58 95 59 96
REMARK H PARENT 17 7 24 33 80 52 50 63
REMARK Flexibility Score: inf
ROOT
ATOM      1  C   UNL A   1      39.602  23.755  26.498  1.00  0.00     0.002 C 
ENDROOT
BRANCH   1   2
ATOM      2  C   UNL A   1      38.121  24.130  26.405  1.00  0.00     0.021 C 
BRANCH   2   3
ATOM      3  C   UNL A   1      37.292  23.230  25.495  1.00  0.00     0.116 C 
BRANCH   3   4
ATOM      4  N   UNL A   1      36.238  22.537  26.214  1.00  0.00    -0.352 N 
ATOM      5  C   UNL A   1      34.883  22.554  26.240  1.00  0.00     0.251 C 
ATOM      6  O   UNL A   1      34.360  21.737  27.004  1.00  0.00    -0.270 OA
ATOM      7  H   UNL A   1      36.603  21.881  26.851  1.00  0.00     0.163 HD
BRANCH   5   8
ATOM      8  C   UNL A   1      34.013  23.472  25.440  1.00  0.00     0.067 C 
ATOM      9  C   UNL A   1      31.551  27.570  23.780  1.00  0.00     0.030 A 
ATOM     10  C   UNL A   1      31.821  26.300  23.267  1.00  0.00     0.063 A 
ATOM     11  C   UNL A   1      31.881  27.812  25.129  1.00  0.00     0.055 A 
ATOM     12  C   UNL A   1      32.524  25.358  24.012  1.00  0.00     0.129 A 
ATOM     13  C   UNL A   1      32.549  26.841  25.893  1.00  0.00     0.033 A 
ATOM     14  Cl  UNL A   1      31.524  29.312  25.920  1.00  0.00    -0.083 Cl
ATOM     15  C   UNL A   1      32.908  25.620  25.320  1.00  0.00     0.019 A 
ATOM     16  O   UNL A   1      32.860  24.228  23.338  1.00  0.00    -0.475 OA
ATOM     17  C   UNL A   1      33.720  24.645  26.033  1.00  0.00     0.025 C 
ATOM     18  C   UNL A   1      33.463  23.139  24.079  1.00  0.00     0.314 C 
BRANCH   9  19
ATOM     19  S   UNL A   1      30.858  28.844  22.724  1.00  0.00    -0.124 SA
BRANCH  19  20
ATOM     20  C   UNL A   1      29.036  28.684  22.940  1.00  0.00     0.078 C 
BRANCH  20  21
ATOM     21  C   UNL A   1      28.204  29.974  22.790  1.00  0.00    -0.007 C 
ATOM     22  C   UNL A   1      28.696  31.157  23.624  1.00  0.00     0.008 C 
ATOM     23  C   UNL A   1      28.204  30.392  21.313  1.00  0.00     0.008 C 
ENDBRANCH  20  21
ENDBRANCH  19  20
ENDBRANCH   9  19
BRANCH  18  24
ATOM     24  C   UNL A   1      32.449  21.985  24.097  1.00  0.00     0.429 C 
ATOM     25  F   UNL A   1      33.094  20.792  24.104  1.00  0.00    -0.167 F 
ATOM     26  F   UNL A   1      31.653  21.997  25.189  1.00  0.00    -0.167 F 
ATOM     27  F   UNL A   1      31.639  22.005  23.014  1.00  0.00    -0.167 F 
ENDBRANCH  18  24
ENDBRANCH   5   8
ENDBRANCH   3   4
ENDBRANCH   2   3
ENDBRANCH   1   2
BRANCH   1  28
ATOM     28  C   UNL A   1      39.910  22.410  27.167  1.00  0.00     0.002 C 
BRANCH  28  29
ATOM     29  C   UNL A   1      39.852  21.180  26.259  1.00  0.00     0.021 C 
BRANCH  29  30
ATOM     30  C   UNL A   1      40.414  19.899  26.863  1.00  0.00     0.116 C 
BRANCH  30  31
ATOM     31  N   UNL A   1      41.455  19.300  26.045  1.00  0.00    -0.352 N 
ATOM     32  C   UNL A   1      42.615  19.856  25.562  1.00  0.00     0.251 C 
ATOM     33  H   UNL A   1      41.307  18.358  25.802  1.00  0.00     0.163 HD
ATOM     34  O   UNL A   1      43.301  19.231  24.755  1.00  0.00    -0.269 OA
BRANCH  32  35
ATOM     35  C   UNL A   1      43.022  21.213  25.989  1.00  0.00     0.039 A 
ATOM     36  C   UNL A   1      43.069  22.266  25.076  1.00  0.00     0.014 A 
ATOM     37  C   UNL A   1      43.358  21.437  27.329  1.00  0.00     0.014 A 
ATOM     38  C   UNL A   1      43.604  23.490  25.461  1.00  0.00     0.010 A 
ATOM     39  C   UNL A   1      43.810  22.698  27.736  1.00  0.00     0.010 A 
ATOM     40  C   UNL A   1      43.976  23.725  26.796  1.00  0.00    -0.014 A 
BRANCH  40  41
ATOM     41  C   UNL A   1      44.498  25.067  27.171  1.00  0.00     0.031 A 
ATOM     42  C   UNL A   1      45.929  25.451  26.910  1.00  0.00     0.074 A 
ATOM     43  C   UNL A   1      43.639  25.976  27.675  1.00  0.00     0.049 A 
ATOM     44  N   UNL A   1      46.502  26.619  27.058  1.00  0.00    -0.248 NA
ATOM     45  C   UNL A   1      46.838  24.400  26.423  1.00  0.00     0.031 C 
ATOM     46  C   UNL A   1      42.228  25.716  27.977  1.00  0.00     0.029 A 
ATOM     47  N   UNL A   1      43.802  27.305  27.974  1.00  0.00    -0.354 N 
ATOM     48  C   UNL A   1      47.831  26.445  26.691  1.00  0.00     0.074 A 
ATOM     49  C   UNL A   1      47.993  25.049  26.348  1.00  0.00     0.031 C 
ATOM     50  C   UNL A   1      41.637  26.865  28.330  1.00  0.00     0.029 A 
ATOM     51  C   UNL A   1      42.634  27.930  28.347  1.00  0.00     0.049 A 
ATOM     52  H   UNL A   1      44.670  27.766  27.928  1.00  0.00     0.167 HD
ATOM     53  C   UNL A   1      48.820  27.368  26.628  1.00  0.00     0.031 A 
ATOM     54  C   UNL A   1      42.381  29.216  28.659  1.00  0.00     0.031 A 
ATOM     55  C   UNL A   1      48.652  28.759  26.964  1.00  0.00     0.049 A 
ATOM     56  C   UNL A   1      43.500  30.214  28.604  1.00  0.00     0.074 A 
ATOM     57  C   UNL A   1      49.593  29.774  26.906  1.00  0.00     0.029 A 
ATOM     58  N   UNL A   1      47.474  29.334  27.417  1.00  0.00    -0.354 N 
ATOM     59  N   UNL A   1      44.744  30.031  28.231  1.00  0.00    -0.248 NA
ATOM     60  C   UNL A   1      43.186  31.589  29.012  1.00  0.00     0.031 C 
ATOM     61  C   UNL A   1      49.001  30.947  27.383  1.00  0.00     0.029 A 
ATOM     62  C   UNL A   1      47.673  30.682  27.672  1.00  0.00     0.049 A 
ATOM     63  H   UNL A   1      46.622  28.856  27.539  1.00  0.00     0.167 HD
ATOM     64  C   UNL A   1      45.366  31.266  28.369  1.00  0.00     0.074 A 
ATOM     65  C   UNL A   1      44.350  32.197  28.819  1.00  0.00     0.031 C 
ATOM     66  C   UNL A   1      46.663  31.594  28.152  1.00  0.00     0.031 A 
BRANCH  53  67
ATOM     67  C   UNL A   1      50.187  26.922  26.172  1.00  0.00    -0.014 A 
ATOM     68  C   UNL A   1      51.177  26.613  27.125  1.00  0.00     0.010 A 
ATOM     69  C   UNL A   1      50.530  26.924  24.808  1.00  0.00     0.010 A 
ATOM     70  C   UNL A   1      52.490  26.346  26.725  1.00  0.00     0.020 A 
ATOM     71  C   UNL A   1      51.837  26.631  24.403  1.00  0.00     0.020 A 
ATOM     72  C   UNL A   1      52.813  26.368  25.366  1.00  0.00     0.054 A 
BRANCH  72  73
ATOM     73  S   UNL A   1      54.528  26.047  24.867  1.00  0.00     0.124 S 
ATOM     74  O   UNL A   1      54.560  26.586  23.511  1.00  0.00    -0.237 OA
ATOM     75  O   UNL A   1      55.296  26.792  25.861  1.00  0.00    -0.237 OA
ATOM     76  O   UNL A   1      54.645  24.593  24.966  1.00  0.00    -0.744 OA
ENDBRANCH  72  73
ENDBRANCH  53  67
BRANCH  54  77
ATOM     77  C   UNL A   1      40.993  29.615  29.014  1.00  0.00    -0.014 A 
ATOM     78  C   UNL A   1      40.642  29.850  30.357  1.00  0.00     0.010 A 
ATOM     79  C   UNL A   1      39.991  29.664  28.028  1.00  0.00     0.010 A 
ATOM     80  C   UNL A   1      39.309  30.056  30.717  1.00  0.00     0.020 A 
ATOM     81  C   UNL A   1      38.659  29.904  28.382  1.00  0.00     0.020 A 
ATOM     82  C   UNL A   1      38.323  30.064  29.728  1.00  0.00     0.054 A 
BRANCH  82  83
ATOM     83  S   UNL A   1      36.590  30.265  30.224  1.00  0.00     0.124 S 
ATOM     84  O   UNL A   1      36.480  29.302  31.317  1.00  0.00    -0.237 OA
ATOM     85  O   UNL A   1      36.529  31.671  30.616  1.00  0.00    -0.237 OA
ATOM     86  O   UNL A   1      35.847  29.925  29.014  1.00  0.00    -0.744 OA
ENDBRANCH  82  83
ENDBRANCH  54  77
BRANCH  66  87
ATOM     87  C   UNL A   1      47.079  33.014  28.431  1.00  0.00    -0.014 A 
ATOM     88  C   UNL A   1      47.079  33.967  27.395  1.00  0.00     0.010 A 
ATOM     89  C   UNL A   1      47.552  33.386  29.702  1.00  0.00     0.010 A 
ATOM     90  C   UNL A   1      47.558  35.259  27.620  1.00  0.00     0.020 A 
ATOM     91  C   UNL A   1      48.002  34.688  29.940  1.00  0.00     0.020 A 
ATOM     92  C   UNL A   1      48.020  35.611  28.891  1.00  0.00     0.054 A 
BRANCH  92  93
ATOM     93  S   UNL A   1      48.626  37.297  29.172  1.00  0.00     0.124 S 
ATOM     94  O   UNL A   1      47.857  38.066  28.198  1.00  0.00    -0.237 OA
ATOM     95  O   UNL A   1      48.286  37.535  30.573  1.00  0.00    -0.237 OA
ATOM     96  O   UNL A   1      50.058  37.196  28.897  1.00  0.00    -0.744 OA
ENDBRANCH  92  93
ENDBRANCH  66  87
ENDBRANCH  40  41
ENDBRANCH  32  35
ENDBRANCH  30  31
ENDBRANCH  29  30
ENDBRANCH  28  29
ENDBRANCH   1  28
TORSDOF 20
ENDMDL
MODEL 3
REMARK VINA RESULT:     -11.2      1.605      8.148
REMARK SMILES CC(C)CSc1cc2c(cc1Cl)C=C(C(=O)NCCCCCCNC(=O)c1ccc(-c3c4nc(c(-c5ccc(S(=O)(=O)[O-])cc5)c5ccc([nH]5)c(-c5ccc(S(=O)(=O)[O-])cc5)c5nc(c(-c6ccc(S(=O)(=O)[O-])cc6)c6ccc3[nH]6)C=C5)C=C4)cc1)[C@@H](C(F)(F)F)O2
REMARK SMILES IDX 20 1 19 2 18 3 17 4 15 5 16 6 14 8 6 9 7 10 11 11 8 12 10 13
REMARK SMILES IDX 12 14 9 15 92 16 13 17 87 18 5 19 4 20 2 21 1 22 3 23 88 24
REMARK SMILES IDX 89 25 90 26 91 27 21 28 22 29 23 30 24 31 25 32 26 34 27 35
REMARK SMILES IDX 28 36 86 37 29 38 85 39 30 40 31 41 32 42 79 43 33 44 84 45
REMARK SMILES IDX 78 46 80 47 34 48 83 49 77 50 76 51 35 53 65 54 46 55 64 56
REMARK SMILES IDX 47 57 50 58 63 59 81 60 48 61 49 62 62 64 82 65 51 66 36 67
REMARK SMILES IDX 37 68 45 69 38 70 44 71 39 72 40 73 41 74 42 75 43 76 66 77
REMARK SMILES IDX 67 78 75 79 68 80 74 81 69 82 70 83 71 84 72 85 73 86 52 87
REMARK SMILES IDX 53 88 61 89 54 90 60 91 55 92 56 93 57 94 58 95 59 96
REMARK H PARENT 17 7 24 33 80 52 50 63
REMARK Flexibility Score: inf
ROOT
ATOM      1  C   UNL A   1      36.944  23.252  25.260  1.00  0.00     0.002 C 
ENDROOT
BRANCH   1   2
ATOM      2  C   UNL A   1      37.106  21.854  24.657  1.00  0.00     0.021 C 
BRANCH   2   3
ATOM      3  C   UNL A   1      36.532  20.724  25.505  1.00  0.00     0.116 C 
BRANCH   3   4
ATOM      4  N   UNL A   1      35.317  20.167  24.936  1.00  0.00    -0.352 N 
ATOM      5  C   UNL A   1      34.070  20.610  24.643  1.00  0.00     0.251 C 
ATOM      6  O   UNL A   1      33.328  19.781  24.107  1.00  0.00    -0.270 OA
ATOM      7  H   UNL A   1      35.428  19.218  24.700  1.00  0.00     0.163 HD
BRANCH   5   8
ATOM      8  C   UNL A   1      33.550  21.984  24.927  1.00  0.00     0.067 C 
ATOM      9  C   UNL A   1      32.183  26.831  24.431  1.00  0.00     0.030 A 
ATOM     10  C   UNL A   1      31.969  25.834  25.384  1.00  0.00     0.063 A 
ATOM     11  C   UNL A   1      33.102  26.560  23.397  1.00  0.00     0.055 A 
ATOM     12  C   UNL A   1      32.526  24.567  25.235  1.00  0.00     0.129 A 
ATOM     13  C   UNL A   1      33.699  25.294  23.278  1.00  0.00     0.033 A 
ATOM     14  Cl  UNL A   1      33.528  27.737  22.198  1.00  0.00    -0.083 Cl
ATOM     15  C   UNL A   1      33.380  24.278  24.179  1.00  0.00     0.019 A 
ATOM     16  O   UNL A   1      32.108  23.647  26.142  1.00  0.00    -0.475 OA
ATOM     17  C   UNL A   1      33.869  22.918  24.009  1.00  0.00     0.025 C 
ATOM     18  C   UNL A   1      32.749  22.348  26.148  1.00  0.00     0.314 C 
BRANCH   9  19
ATOM     19  S   UNL A   1      31.269  28.374  24.514  1.00  0.00    -0.124 SA
BRANCH  19  20
ATOM     20  C   UNL A   1      32.471  29.587  25.204  1.00  0.00     0.078 C 
BRANCH  20  21
ATOM     21  C   UNL A   1      32.453  29.786  26.734  1.00  0.00    -0.007 C 
ATOM     22  C   UNL A   1      31.652  28.741  27.509  1.00  0.00     0.008 C 
ATOM     23  C   UNL A   1      33.899  29.766  27.251  1.00  0.00     0.008 C 
ENDBRANCH  20  21
ENDBRANCH  19  20
ENDBRANCH   9  19
BRANCH  18  24
ATOM     24  C   UNL A   1      33.547  22.239  27.456  1.00  0.00     0.429 C 
ATOM     25  F   UNL A   1      32.777  22.607  28.510  1.00  0.00    -0.167 F 
ATOM     26  F   UNL A   1      33.975  20.984  27.712  1.00  0.00    -0.167 F 
ATOM     27  F   UNL A   1      34.640  23.038  27.450  1.00  0.00    -0.167 F 
ENDBRANCH  18  24
ENDBRANCH   5   8
ENDBRANCH   3   4
ENDBRANCH   2   3
ENDBRANCH   1   2
BRANCH   1  28
ATOM     28  C   UNL A   1      38.101  23.736  26.142  1.00  0.00     0.002 C 
BRANCH  28  29
ATOM     29  C   UNL A   1      39.233  22.733  26.375  1.00  0.00     0.021 C 
BRANCH  29  30
ATOM     30  C   UNL A   1      40.470  23.297  27.063  1.00  0.00     0.116 C 
BRANCH  30  31
ATOM     31  N   UNL A   1      41.440  23.835  26.124  1.00  0.00    -0.352 N 
ATOM     32  C   UNL A   1      41.987  25.094  26.056  1.00  0.00     0.251 C 
ATOM     33  H   UNL A   1      41.752  23.204  25.436  1.00  0.00     0.163 HD
ATOM     34  O   UNL A   1      42.682  25.406  25.092  1.00  0.00    -0.269 OA
BRANCH  32  35
ATOM     35  C   UNL A   1      41.714  26.080  27.126  1.00  0.00     0.039 A 
ATOM     36  C   UNL A   1      42.340  27.326  27.127  1.00  0.00     0.014 A 
ATOM     37  C   UNL A   1      40.813  25.752  28.145  1.00  0.00     0.014 A 
ATOM     38  C   UNL A   1      42.193  28.172  28.220  1.00  0.00     0.010 A 
ATOM     39  C   UNL A   1      40.594  26.646  29.200  1.00  0.00     0.010 A 
ATOM     40  C   UNL A   1      41.314  27.847  29.269  1.00  0.00    -0.014 A 
BRANCH  40  41
ATOM     41  C   UNL A   1      41.153  28.806  30.394  1.00  0.00     0.031 A 
ATOM     42  C   UNL A   1      40.031  29.808  30.414  1.00  0.00     0.074 A 
ATOM     43  C   UNL A   1      41.985  28.707  31.451  1.00  0.00     0.049 A 
ATOM     44  N   UNL A   1      39.678  30.621  31.377  1.00  0.00    -0.248 NA
ATOM     45  C   UNL A   1      39.196  29.918  29.206  1.00  0.00     0.031 C 
ATOM     46  C   UNL A   1      43.114  27.777  31.542  1.00  0.00     0.029 A 
ATOM     47  N   UNL A   1      41.986  29.349  32.664  1.00  0.00    -0.354 N 
ATOM     48  C   UNL A   1      38.591  31.340  30.895  1.00  0.00     0.074 A 
ATOM     49  C   UNL A   1      38.363  30.896  29.537  1.00  0.00     0.031 C 
ATOM     50  C   UNL A   1      43.640  27.845  32.772  1.00  0.00     0.029 A 
ATOM     51  C   UNL A   1      42.934  28.867  33.538  1.00  0.00     0.049 A 
ATOM     52  H   UNL A   1      41.370  30.083  32.886  1.00  0.00     0.167 HD
ATOM     53  C   UNL A   1      37.841  32.272  31.532  1.00  0.00     0.031 A 
ATOM     54  C   UNL A   1      43.204  29.196  34.816  1.00  0.00     0.031 A 
ATOM     55  C   UNL A   1      38.069  32.705  32.887  1.00  0.00     0.049 A 
ATOM     56  C   UNL A   1      42.374  30.249  35.491  1.00  0.00     0.074 A 
ATOM     57  C   UNL A   1      37.344  33.627  33.624  1.00  0.00     0.029 A 
ATOM     58  N   UNL A   1      39.090  32.253  33.709  1.00  0.00    -0.354 N 
ATOM     59  N   UNL A   1      41.336  30.898  35.022  1.00  0.00    -0.248 NA
ATOM     60  C   UNL A   1      42.749  30.614  36.862  1.00  0.00     0.031 C 
ATOM     61  C   UNL A   1      37.964  33.777  34.868  1.00  0.00     0.029 A 
ATOM     62  C   UNL A   1      39.033  32.899  34.934  1.00  0.00     0.049 A 
ATOM     63  H   UNL A   1      39.757  31.573  33.460  1.00  0.00     0.167 HD
ATOM     64  C   UNL A   1      40.938  31.759  36.038  1.00  0.00     0.074 A 
ATOM     65  C   UNL A   1      41.822  31.514  37.161  1.00  0.00     0.031 C 
ATOM     66  C   UNL A   1      39.938  32.674  36.035  1.00  0.00     0.031 A 
BRANCH  53  67
ATOM     67  C   UNL A   1      36.689  32.895  30.785  1.00  0.00    -0.014 A 
ATOM     68  C   UNL A   1      36.940  33.844  29.775  1.00  0.00     0.010 A 
ATOM     69  C   UNL A   1      35.359  32.637  31.161  1.00  0.00     0.010 A 
ATOM     70  C   UNL A   1      35.887  34.544  29.179  1.00  0.00     0.020 A 
ATOM     71  C   UNL A   1      34.301  33.315  30.548  1.00  0.00     0.020 A 
ATOM     72  C   UNL A   1      34.574  34.282  29.577  1.00  0.00     0.054 A 
BRANCH  72  73
ATOM     73  S   UNL A   1      33.221  35.219  28.813  1.00  0.00     0.124 S 
ATOM     74  O   UNL A   1      33.942  36.239  28.057  1.00  0.00    -0.237 OA
ATOM     75  O   UNL A   1      32.540  34.204  28.013  1.00  0.00    -0.237 OA
ATOM     76  O   UNL A   1      32.458  35.710  29.959  1.00  0.00    -0.744 OA
ENDBRANCH  72  73
ENDBRANCH  53  67
BRANCH  54  77
ATOM     77  C   UNL A   1      44.296  28.482  35.531  1.00  0.00    -0.014 A 
ATOM     78  C   UNL A   1      45.626  28.934  35.430  1.00  0.00     0.010 A 
ATOM     79  C   UNL A   1      44.030  27.292  36.232  1.00  0.00     0.010 A 
ATOM     80  C   UNL A   1      46.674  28.175  35.955  1.00  0.00     0.020 A 
ATOM     81  C   UNL A   1      45.075  26.548  36.787  1.00  0.00     0.020 A 
ATOM     82  C   UNL A   1      46.393  26.977  36.615  1.00  0.00     0.054 A 
BRANCH  82  83
ATOM     83  S   UNL A   1      47.774  25.973  37.228  1.00  0.00     0.124 S 
ATOM     84  O   UNL A   1      47.423  25.814  38.637  1.00  0.00    -0.237 OA
ATOM     85  O   UNL A   1      47.678  24.764  36.415  1.00  0.00    -0.237 OA
ATOM     86  O   UNL A   1      48.944  26.807  36.965  1.00  0.00    -0.744 OA
ENDBRANCH  82  83
ENDBRANCH  54  77
BRANCH  66  87
ATOM     87  C   UNL A   1      39.759  33.514  37.271  1.00  0.00    -0.014 A 
ATOM     88  C   UNL A   1      40.491  34.706  37.428  1.00  0.00     0.010 A 
ATOM     89  C   UNL A   1      38.926  33.081  38.318  1.00  0.00     0.010 A 
ATOM     90  C   UNL A   1      40.407  35.440  38.613  1.00  0.00     0.020 A 
ATOM     91  C   UNL A   1      38.815  33.829  39.494  1.00  0.00     0.020 A 
ATOM     92  C   UNL A   1      39.572  34.993  39.641  1.00  0.00     0.054 A 
BRANCH  92  93
ATOM     93  S   UNL A   1      39.462  35.965  41.169  1.00  0.00     0.124 S 
ATOM     94  O   UNL A   1      38.796  37.180  40.713  1.00  0.00    -0.237 OA
ATOM     95  O   UNL A   1      38.671  35.103  42.045  1.00  0.00    -0.237 OA
ATOM     96  O   UNL A   1      40.859  36.130  41.569  1.00  0.00    -0.744 OA
ENDBRANCH  92  93
ENDBRANCH  66  87
ENDBRANCH  40  41
ENDBRANCH  32  35
ENDBRANCH  30  31
ENDBRANCH  29  30
ENDBRANCH  28  29
ENDBRANCH   1  28
TORSDOF 20
ENDMDL
