MODEL 1
REMARK VINA RESULT:     -10.0      0.000      0.000
REMARK SMILES CCc1ccccc1NC(=O)CCN1C[C@H](C(=O)NCCCCCCNC(=O)c2ccc(-c3c4nc(c(-c5ccc(S(=O)(=O)[O-])cc5)c5ccc([nH]5)c(-c5ccc(S(=O)(=O)[O-])cc5)c5nc(c(-c6ccc(S(=O)(=O)[O-])cc6)c6ccc3[nH]6)C=C5)C=C4)cc2)CC1=O
REMARK SMILES IDX 21 1 20 2 19 3 17 4 18 5 16 7 14 8 15 9 90 10 89 11 91 12
REMARK SMILES IDX 13 13 12 14 10 15 9 16 11 18 8 19 3 20 4 21 5 22 7 23 6 24
REMARK SMILES IDX 2 25 1 26 22 27 23 28 24 29 25 30 26 31 27 32 28 34 29 35
REMARK SMILES IDX 30 36 88 37 31 38 87 39 32 40 33 41 34 42 81 43 35 44 86 45
REMARK SMILES IDX 80 46 82 47 36 48 85 49 79 50 78 51 37 53 67 54 48 55 66 56
REMARK SMILES IDX 49 57 52 58 65 59 83 60 50 61 51 62 64 64 84 65 53 66 38 67
REMARK SMILES IDX 39 68 47 69 40 70 46 71 41 72 42 73 43 74 44 75 45 76 68 77
REMARK SMILES IDX 69 78 77 79 70 80 76 81 71 82 72 83 73 84 74 85 75 86 54 87
REMARK SMILES IDX 55 88 63 89 56 90 62 91 57 92 58 93 59 94 60 95 61 96
REMARK H PARENT 19 6 9 17 26 33 82 52 52 63
REMARK Flexibility Score: inf
ROOT
ATOM      1  C   UNL A   1      35.093  31.286  28.139  1.00  0.00     0.021 C 
ENDROOT
BRANCH   1   2
ATOM      2  C   UNL A   1      33.632  31.310  27.612  1.00  0.00     0.116 C 
BRANCH   2   3
ATOM      3  N   UNL A   1      32.830  30.018  27.529  1.00  0.00    -0.356 N 
ATOM      4  C   UNL A   1      32.735  28.730  27.109  1.00  0.00     0.225 C 
ATOM      5  O   UNL A   1      32.046  28.088  27.936  1.00  0.00    -0.275 OA
ATOM      6  H   UNL A   1      31.985  30.204  28.000  1.00  0.00     0.163 HD
BRANCH   4   7
ATOM      7  C   UNL A   1      33.139  27.879  25.841  1.00  0.00     0.107 C 
ATOM      8  N   UNL A   1      32.080  27.117  23.842  1.00  0.00    -0.341 N 
ATOM      9  C   UNL A   1      32.111  26.898  25.280  1.00  0.00     0.133 C 
ATOM     10  C   UNL A   1      33.207  27.802  23.413  1.00  0.00     0.223 C 
ATOM     11  C   UNL A   1      33.973  28.305  24.623  1.00  0.00     0.115 C 
ATOM     12  O   UNL A   1      33.568  27.922  22.244  1.00  0.00    -0.275 OA
BRANCH   8  13
ATOM     13  C   UNL A   1      31.222  26.354  22.927  1.00  0.00     0.129 C 
BRANCH  13  14
ATOM     14  C   UNL A   1      31.535  24.867  22.664  1.00  0.00     0.122 C 
BRANCH  14  15
ATOM     15  C   UNL A   1      32.795  24.435  21.862  1.00  0.00     0.226 C 
ATOM     16  N   UNL A   1      33.699  23.449  22.203  1.00  0.00    -0.326 N 
ATOM     17  H   UNL A   1      34.449  23.342  21.575  1.00  0.00     0.169 HD
ATOM     18  O   UNL A   1      33.044  25.059  20.819  1.00  0.00    -0.275 OA
BRANCH  16  19
ATOM     19  C   UNL A   1      33.723  22.573  23.299  1.00  0.00     0.044 A 
ATOM     20  C   UNL A   1      34.826  22.388  24.169  1.00  0.00    -0.025 A 
ATOM     21  C   UNL A   1      34.900  21.197  24.931  1.00  0.00     0.006 A 
ATOM     22  C   UNL A   1      33.920  20.247  24.848  1.00  0.00     0.000 A 
ATOM     23  C   UNL A   1      32.644  21.763  23.470  1.00  0.00     0.026 A 
ATOM     24  C   UNL A   1      32.818  20.561  24.098  1.00  0.00     0.002 A 
BRANCH  20  25
ATOM     25  C   UNL A   1      35.930  23.405  24.330  1.00  0.00     0.034 C 
ATOM     26  C   UNL A   1      36.532  23.476  25.742  1.00  0.00     0.009 C 
ENDBRANCH  20  25
ENDBRANCH  16  19
ENDBRANCH  14  15
ENDBRANCH  13  14
ENDBRANCH   8  13
ENDBRANCH   4   7
ENDBRANCH   2   3
ENDBRANCH   1   2
BRANCH   1  27
ATOM     27  C   UNL A   1      35.502  32.458  29.060  1.00  0.00     0.002 C 
BRANCH  27  28
ATOM     28  C   UNL A   1      35.681  33.855  28.439  1.00  0.00     0.002 C 
BRANCH  28  29
ATOM     29  C   UNL A   1      34.554  34.892  28.607  1.00  0.00     0.021 C 
BRANCH  29  30
ATOM     30  C   UNL A   1      33.215  34.415  29.185  1.00  0.00     0.116 C 
BRANCH  30  31
ATOM     31  N   UNL A   1      32.794  35.171  30.356  1.00  0.00    -0.352 N 
ATOM     32  C   UNL A   1      33.254  35.195  31.648  1.00  0.00     0.251 C 
ATOM     33  H   UNL A   1      32.039  35.779  30.189  1.00  0.00     0.163 HD
ATOM     34  O   UNL A   1      32.595  35.804  32.490  1.00  0.00    -0.269 OA
BRANCH  32  35
ATOM     35  C   UNL A   1      34.508  34.519  32.061  1.00  0.00     0.039 A 
ATOM     36  C   UNL A   1      35.700  35.252  32.020  1.00  0.00     0.014 A 
ATOM     37  C   UNL A   1      34.550  33.163  32.393  1.00  0.00     0.014 A 
ATOM     38  C   UNL A   1      36.916  34.642  32.345  1.00  0.00     0.010 A 
ATOM     39  C   UNL A   1      35.757  32.571  32.783  1.00  0.00     0.010 A 
ATOM     40  C   UNL A   1      36.955  33.300  32.755  1.00  0.00    -0.014 A 
BRANCH  40  41
ATOM     41  C   UNL A   1      38.241  32.675  33.167  1.00  0.00     0.031 A 
ATOM     42  C   UNL A   1      38.821  32.916  34.536  1.00  0.00     0.074 A 
ATOM     43  C   UNL A   1      38.908  31.902  32.286  1.00  0.00     0.049 A 
ATOM     44  N   UNL A   1      39.910  32.419  35.071  1.00  0.00    -0.248 NA
ATOM     45  C   UNL A   1      38.100  33.853  35.411  1.00  0.00     0.031 C 
ATOM     46  C   UNL A   1      38.486  31.640  30.908  1.00  0.00     0.029 A 
ATOM     47  N   UNL A   1      40.080  31.197  32.412  1.00  0.00    -0.354 N 
ATOM     48  C   UNL A   1      40.012  32.993  36.334  1.00  0.00     0.074 A 
ATOM     49  C   UNL A   1      38.901  33.912  36.465  1.00  0.00     0.031 C 
ATOM     50  C   UNL A   1      39.365  30.808  30.328  1.00  0.00     0.029 A 
ATOM     51  C   UNL A   1      40.432  30.508  31.276  1.00  0.00     0.049 A 
ATOM     52  H   UNL A   1      40.615  31.186  33.237  1.00  0.00     0.167 HD
ATOM     53  C   UNL A   1      40.933  32.764  37.303  1.00  0.00     0.031 A 
ATOM     54  C   UNL A   1      41.497  29.722  31.018  1.00  0.00     0.031 A 
ATOM     55  C   UNL A   1      42.041  31.854  37.161  1.00  0.00     0.049 A 
ATOM     56  C   UNL A   1      42.499  29.469  32.110  1.00  0.00     0.074 A 
ATOM     57  C   UNL A   1      42.994  31.501  38.102  1.00  0.00     0.029 A 
ATOM     58  N   UNL A   1      42.358  31.164  35.999  1.00  0.00    -0.354 N 
ATOM     59  N   UNL A   1      42.524  29.947  33.331  1.00  0.00    -0.248 NA
ATOM     60  C   UNL A   1      43.602  28.553  31.795  1.00  0.00     0.031 C 
ATOM     61  C   UNL A   1      43.924  30.653  37.489  1.00  0.00     0.029 A 
ATOM     62  C   UNL A   1      43.509  30.415  36.189  1.00  0.00     0.049 A 
ATOM     63  H   UNL A   1      41.841  31.200  35.163  1.00  0.00     0.167 HD
ATOM     64  C   UNL A   1      43.637  29.375  33.939  1.00  0.00     0.074 A 
ATOM     65  C   UNL A   1      44.238  28.495  32.957  1.00  0.00     0.031 C 
ATOM     66  C   UNL A   1      44.116  29.562  35.195  1.00  0.00     0.031 A 
BRANCH  53  67
ATOM     67  C   UNL A   1      40.793  33.535  38.594  1.00  0.00    -0.014 A 
ATOM     68  C   UNL A   1      41.453  34.763  38.793  1.00  0.00     0.010 A 
ATOM     69  C   UNL A   1      39.971  33.034  39.621  1.00  0.00     0.010 A 
ATOM     70  C   UNL A   1      41.342  35.441  40.011  1.00  0.00     0.020 A 
ATOM     71  C   UNL A   1      39.830  33.726  40.828  1.00  0.00     0.020 A 
ATOM     72  C   UNL A   1      40.536  34.914  41.024  1.00  0.00     0.054 A 
BRANCH  72  73
ATOM     73  S   UNL A   1      40.415  35.814  42.595  1.00  0.00     0.124 S 
ATOM     74  O   UNL A   1      39.296  36.717  42.340  1.00  0.00    -0.237 OA
ATOM     75  O   UNL A   1      40.154  34.746  43.556  1.00  0.00    -0.237 OA
ATOM     76  O   UNL A   1      41.719  36.461  42.726  1.00  0.00    -0.744 OA
ENDBRANCH  72  73
ENDBRANCH  53  67
BRANCH  54  77
ATOM     77  C   UNL A   1      41.651  29.116  29.667  1.00  0.00    -0.014 A 
ATOM     78  C   UNL A   1      42.326  29.798  28.639  1.00  0.00     0.010 A 
ATOM     79  C   UNL A   1      41.158  27.821  29.417  1.00  0.00     0.010 A 
ATOM     80  C   UNL A   1      42.500  29.199  27.386  1.00  0.00     0.020 A 
ATOM     81  C   UNL A   1      41.357  27.207  28.178  1.00  0.00     0.020 A 
ATOM     82  C   UNL A   1      42.021  27.903  27.168  1.00  0.00     0.054 A 
BRANCH  82  83
ATOM     83  S   UNL A   1      42.330  27.115  25.563  1.00  0.00     0.124 S 
ATOM     84  O   UNL A   1      42.351  28.261  24.659  1.00  0.00    -0.237 OA
ATOM     85  O   UNL A   1      43.615  26.455  25.778  1.00  0.00    -0.237 OA
ATOM     86  O   UNL A   1      41.194  26.210  25.402  1.00  0.00    -0.744 OA
ENDBRANCH  82  83
ENDBRANCH  54  77
BRANCH  66  87
ATOM     87  C   UNL A   1      45.346  28.780  35.581  1.00  0.00    -0.014 A 
ATOM     88  C   UNL A   1      46.639  29.301  35.389  1.00  0.00     0.010 A 
ATOM     89  C   UNL A   1      45.204  27.504  36.155  1.00  0.00     0.010 A 
ATOM     90  C   UNL A   1      47.765  28.535  35.706  1.00  0.00     0.020 A 
ATOM     91  C   UNL A   1      46.326  26.750  36.508  1.00  0.00     0.020 A 
ATOM     92  C   UNL A   1      47.601  27.261  36.257  1.00  0.00     0.054 A 
BRANCH  92  93
ATOM     93  S   UNL A   1      49.075  26.285  36.656  1.00  0.00     0.124 S 
ATOM     94  O   UNL A   1      49.625  26.010  35.331  1.00  0.00    -0.237 OA
ATOM     95  O   UNL A   1      49.855  27.205  37.482  1.00  0.00    -0.237 OA
ATOM     96  O   UNL A   1      48.542  25.123  37.362  1.00  0.00    -0.744 OA
ENDBRANCH  92  93
ENDBRANCH  66  87
ENDBRANCH  40  41
ENDBRANCH  32  35
ENDBRANCH  30  31
ENDBRANCH  29  30
ENDBRANCH  28  29
ENDBRANCH  27  28
ENDBRANCH   1  27
TORSDOF 21
ENDMDL
MODEL 2
REMARK VINA RESULT:      -9.9      0.748      7.998
REMARK SMILES CCc1ccccc1NC(=O)CCN1C[C@H](C(=O)NCCCCCCNC(=O)c2ccc(-c3c4nc(c(-c5ccc(S(=O)(=O)[O-])cc5)c5ccc([nH]5)c(-c5ccc(S(=O)(=O)[O-])cc5)c5nc(c(-c6ccc(S(=O)(=O)[O-])cc6)c6ccc3[nH]6)C=C5)C=C4)cc2)CC1=O
REMARK SMILES IDX 21 1 20 2 19 3 17 4 18 5 16 7 14 8 15 9 90 10 89 11 91 12
REMARK SMILES IDX 13 13 12 14 10 15 9 16 11 18 8 19 3 20 4 21 5 22 7 23 6 24
REMARK SMILES IDX 2 25 1 26 22 27 23 28 24 29 25 30 26 31 27 32 28 34 29 35
REMARK SMILES IDX 30 36 88 37 31 38 87 39 32 40 33 41 34 42 81 43 35 44 86 45
REMARK SMILES IDX 80 46 82 47 36 48 85 49 79 50 78 51 37 53 67 54 48 55 66 56
REMARK SMILES IDX 49 57 52 58 65 59 83 60 50 61 51 62 64 64 84 65 53 66 38 67
REMARK SMILES IDX 39 68 47 69 40 70 46 71 41 72 42 73 43 74 44 75 45 76 68 77
REMARK SMILES IDX 69 78 77 79 70 80 76 81 71 82 72 83 73 84 74 85 75 86 54 87
REMARK SMILES IDX 55 88 63 89 56 90 62 91 57 92 58 93 59 94 60 95 61 96
REMARK H PARENT 19 6 9 17 26 33 82 52 52 63
REMARK Flexibility Score: inf
ROOT
ATOM      1  C   UNL A   1      34.942  31.223  27.993  1.00  0.00     0.021 C 
ENDROOT
BRANCH   1   2
ATOM      2  C   UNL A   1      33.438  31.234  27.605  1.00  0.00     0.116 C 
BRANCH   2   3
ATOM      3  N   UNL A   1      32.662  29.926  27.520  1.00  0.00    -0.356 N 
ATOM      4  C   UNL A   1      32.602  28.632  27.111  1.00  0.00     0.225 C 
ATOM      5  O   UNL A   1      31.908  27.985  27.931  1.00  0.00    -0.275 OA
ATOM      6  H   UNL A   1      31.805  30.100  27.971  1.00  0.00     0.163 HD
BRANCH   4   7
ATOM      7  C   UNL A   1      33.048  27.777  25.861  1.00  0.00     0.107 C 
ATOM      8  N   UNL A   1      32.135  27.183  23.737  1.00  0.00    -0.341 N 
ATOM      9  C   UNL A   1      31.991  26.924  25.162  1.00  0.00     0.133 C 
ATOM     10  C   UNL A   1      33.365  27.756  23.452  1.00  0.00     0.223 C 
ATOM     11  C   UNL A   1      34.047  28.144  24.751  1.00  0.00     0.115 C 
ATOM     12  O   UNL A   1      33.859  27.868  22.331  1.00  0.00    -0.275 OA
BRANCH   8  13
ATOM     13  C   UNL A   1      31.305  26.539  22.711  1.00  0.00     0.129 C 
BRANCH  13  14
ATOM     14  C   UNL A   1      31.506  25.039  22.411  1.00  0.00     0.122 C 
BRANCH  14  15
ATOM     15  C   UNL A   1      32.789  24.520  21.702  1.00  0.00     0.226 C 
ATOM     16  N   UNL A   1      33.571  23.448  22.080  1.00  0.00    -0.326 N 
ATOM     17  H   UNL A   1      34.361  23.294  21.512  1.00  0.00     0.169 HD
ATOM     18  O   UNL A   1      33.180  25.151  20.706  1.00  0.00    -0.275 OA
BRANCH  16  19
ATOM     19  C   UNL A   1      33.425  22.541  23.141  1.00  0.00     0.044 A 
ATOM     20  C   UNL A   1      34.371  22.340  24.176  1.00  0.00    -0.025 A 
ATOM     21  C   UNL A   1      34.333  21.128  24.907  1.00  0.00     0.006 A 
ATOM     22  C   UNL A   1      33.392  20.174  24.637  1.00  0.00     0.000 A 
ATOM     23  C   UNL A   1      32.343  21.718  23.109  1.00  0.00     0.026 A 
ATOM     24  C   UNL A   1      32.425  20.500  23.724  1.00  0.00     0.002 A 
BRANCH  20  25
ATOM     25  C   UNL A   1      35.421  23.360  24.545  1.00  0.00     0.034 C 
ATOM     26  C   UNL A   1      34.887  24.578  25.314  1.00  0.00     0.009 C 
ENDBRANCH  20  25
ENDBRANCH  16  19
ENDBRANCH  14  15
ENDBRANCH  13  14
ENDBRANCH   8  13
ENDBRANCH   4   7
ENDBRANCH   2   3
ENDBRANCH   1   2
BRANCH   1  27
ATOM     27  C   UNL A   1      35.385  32.281  29.028  1.00  0.00     0.002 C 
BRANCH  27  28
ATOM     28  C   UNL A   1      35.733  33.696  28.533  1.00  0.00     0.002 C 
BRANCH  28  29
ATOM     29  C   UNL A   1      34.735  34.840  28.792  1.00  0.00     0.021 C 
BRANCH  29  30
ATOM     30  C   UNL A   1      33.283  34.470  29.122  1.00  0.00     0.116 C 
BRANCH  30  31
ATOM     31  N   UNL A   1      32.760  35.178  30.281  1.00  0.00    -0.352 N 
ATOM     32  C   UNL A   1      33.133  35.181  31.602  1.00  0.00     0.251 C 
ATOM     33  H   UNL A   1      31.996  35.765  30.080  1.00  0.00     0.163 HD
ATOM     34  O   UNL A   1      32.399  35.744  32.413  1.00  0.00    -0.269 OA
BRANCH  32  35
ATOM     35  C   UNL A   1      34.380  34.535  32.079  1.00  0.00     0.039 A 
ATOM     36  C   UNL A   1      35.546  35.308  32.134  1.00  0.00     0.014 A 
ATOM     37  C   UNL A   1      34.448  33.173  32.380  1.00  0.00     0.014 A 
ATOM     38  C   UNL A   1      36.759  34.731  32.522  1.00  0.00     0.010 A 
ATOM     39  C   UNL A   1      35.646  32.612  32.834  1.00  0.00     0.010 A 
ATOM     40  C   UNL A   1      36.817  33.380  32.902  1.00  0.00    -0.014 A 
BRANCH  40  41
ATOM     41  C   UNL A   1      38.096  32.787  33.382  1.00  0.00     0.031 A 
ATOM     42  C   UNL A   1      38.952  31.943  32.474  1.00  0.00     0.074 A 
ATOM     43  C   UNL A   1      38.475  32.989  34.660  1.00  0.00     0.049 A 
ATOM     44  N   UNL A   1      40.112  31.383  32.718  1.00  0.00    -0.248 NA
ATOM     45  C   UNL A   1      38.430  31.672  31.126  1.00  0.00     0.031 C 
ATOM     46  C   UNL A   1      37.706  33.735  35.658  1.00  0.00     0.029 A 
ATOM     47  N   UNL A   1      39.598  32.588  35.340  1.00  0.00    -0.354 N 
ATOM     48  C   UNL A   1      40.450  30.684  31.564  1.00  0.00     0.074 A 
ATOM     49  C   UNL A   1      39.348  30.849  30.639  1.00  0.00     0.031 C 
ATOM     50  C   UNL A   1      38.392  33.766  36.811  1.00  0.00     0.029 A 
ATOM     51  C   UNL A   1      39.630  33.011  36.648  1.00  0.00     0.049 A 
ATOM     52  H   UNL A   1      40.312  32.049  34.931  1.00  0.00     0.167 HD
ATOM     53  C   UNL A   1      41.579  29.983  31.291  1.00  0.00     0.031 A 
ATOM     54  C   UNL A   1      40.549  32.814  37.615  1.00  0.00     0.031 A 
ATOM     55  C   UNL A   1      42.666  29.815  32.220  1.00  0.00     0.049 A 
ATOM     56  C   UNL A   1      41.799  32.048  37.288  1.00  0.00     0.074 A 
ATOM     57  C   UNL A   1      43.880  29.179  32.022  1.00  0.00     0.029 A 
ATOM     58  N   UNL A   1      42.667  30.270  33.532  1.00  0.00    -0.354 N 
ATOM     59  N   UNL A   1      42.142  31.475  36.158  1.00  0.00    -0.248 NA
ATOM     60  C   UNL A   1      42.796  31.921  38.358  1.00  0.00     0.031 C 
ATOM     61  C   UNL A   1      44.584  29.190  33.232  1.00  0.00     0.029 A 
ATOM     62  C   UNL A   1      43.844  29.900  34.164  1.00  0.00     0.049 A 
ATOM     63  H   UNL A   1      41.938  30.781  33.952  1.00  0.00     0.167 HD
ATOM     64  C   UNL A   1      43.405  30.934  36.377  1.00  0.00     0.074 A 
ATOM     65  C   UNL A   1      43.772  31.275  37.737  1.00  0.00     0.031 C 
ATOM     66  C   UNL A   1      44.188  30.220  35.528  1.00  0.00     0.031 A 
BRANCH  53  67
ATOM     67  C   UNL A   1      41.678  29.322  29.936  1.00  0.00    -0.014 A 
ATOM     68  C   UNL A   1      41.202  28.014  29.719  1.00  0.00     0.010 A 
ATOM     69  C   UNL A   1      42.239  30.026  28.855  1.00  0.00     0.010 A 
ATOM     70  C   UNL A   1      41.341  27.405  28.468  1.00  0.00     0.020 A 
ATOM     71  C   UNL A   1      42.348  29.434  27.593  1.00  0.00     0.020 A 
ATOM     72  C   UNL A   1      41.919  28.118  27.414  1.00  0.00     0.054 A 
BRANCH  72  73
ATOM     73  S   UNL A   1      42.089  27.300  25.803  1.00  0.00     0.124 S 
ATOM     74  O   UNL A   1      42.131  28.440  24.889  1.00  0.00    -0.237 OA
ATOM     75  O   UNL A   1      43.342  26.566  25.948  1.00  0.00    -0.237 OA
ATOM     76  O   UNL A   1      40.891  26.470  25.706  1.00  0.00    -0.744 OA
ENDBRANCH  72  73
ENDBRANCH  53  67
BRANCH  54  77
ATOM     77  C   UNL A   1      40.310  33.367  38.977  1.00  0.00    -0.014 A 
ATOM     78  C   UNL A   1      39.614  32.628  39.948  1.00  0.00     0.010 A 
ATOM     79  C   UNL A   1      40.826  34.631  39.321  1.00  0.00     0.010 A 
ATOM     80  C   UNL A   1      39.434  33.142  41.237  1.00  0.00     0.020 A 
ATOM     81  C   UNL A   1      40.675  35.135  40.616  1.00  0.00     0.020 A 
ATOM     82  C   UNL A   1      39.974  34.390  41.564  1.00  0.00     0.054 A 
BRANCH  82  83
ATOM     83  S   UNL A   1      39.799  35.001  43.264  1.00  0.00     0.124 S 
ATOM     84  O   UNL A   1      39.099  33.898  43.914  1.00  0.00    -0.237 OA
ATOM     85  O   UNL A   1      41.187  35.200  43.672  1.00  0.00    -0.237 OA
ATOM     86  O   UNL A   1      39.024  36.230  43.107  1.00  0.00    -0.744 OA
ENDBRANCH  82  83
ENDBRANCH  54  77
BRANCH  66  87
ATOM     87  C   UNL A   1      45.533  29.777  36.048  1.00  0.00    -0.014 A 
ATOM     88  C   UNL A   1      46.676  30.586  35.914  1.00  0.00     0.010 A 
ATOM     89  C   UNL A   1      45.651  28.530  36.689  1.00  0.00     0.010 A 
ATOM     90  C   UNL A   1      47.921  30.131  36.356  1.00  0.00     0.020 A 
ATOM     91  C   UNL A   1      46.887  28.087  37.166  1.00  0.00     0.020 A 
ATOM     92  C   UNL A   1      48.020  28.880  36.974  1.00  0.00     0.054 A 
BRANCH  92  93
ATOM     93  S   UNL A   1      49.646  28.308  37.534  1.00  0.00     0.124 S 
ATOM     94  O   UNL A   1      50.387  28.218  36.279  1.00  0.00    -0.237 OA
ATOM     95  O   UNL A   1      50.068  29.377  38.437  1.00  0.00    -0.237 OA
ATOM     96  O   UNL A   1      49.361  27.031  38.183  1.00  0.00    -0.744 OA
ENDBRANCH  92  93
ENDBRANCH  66  87
ENDBRANCH  40  41
ENDBRANCH  32  35
ENDBRANCH  30  31
ENDBRANCH  29  30
ENDBRANCH  28  29
ENDBRANCH  27  28
ENDBRANCH   1  27
TORSDOF 21
ENDMDL
MODEL 3
REMARK VINA RESULT:      -9.9      6.837     12.253
REMARK SMILES CCc1ccccc1NC(=O)CCN1C[C@H](C(=O)NCCCCCCNC(=O)c2ccc(-c3c4nc(c(-c5ccc(S(=O)(=O)[O-])cc5)c5ccc([nH]5)c(-c5ccc(S(=O)(=O)[O-])cc5)c5nc(c(-c6ccc(S(=O)(=O)[O-])cc6)c6ccc3[nH]6)C=C5)C=C4)cc2)CC1=O
REMARK SMILES IDX 21 1 20 2 19 3 17 4 18 5 16 7 14 8 15 9 90 10 89 11 91 12
REMARK SMILES IDX 13 13 12 14 10 15 9 16 11 18 8 19 3 20 4 21 5 22 7 23 6 24
REMARK SMILES IDX 2 25 1 26 22 27 23 28 24 29 25 30 26 31 27 32 28 34 29 35
REMARK SMILES IDX 30 36 88 37 31 38 87 39 32 40 33 41 34 42 81 43 35 44 86 45
REMARK SMILES IDX 80 46 82 47 36 48 85 49 79 50 78 51 37 53 67 54 48 55 66 56
REMARK SMILES IDX 49 57 52 58 65 59 83 60 50 61 51 62 64 64 84 65 53 66 38 67
REMARK SMILES IDX 39 68 47 69 40 70 46 71 41 72 42 73 43 74 44 75 45 76 68 77
REMARK SMILES IDX 69 78 77 79 70 80 76 81 71 82 72 83 73 84 74 85 75 86 54 87
REMARK SMILES IDX 55 88 63 89 56 90 62 91 57 92 58 93 59 94 60 95 61 96
REMARK H PARENT 19 6 9 17 26 33 82 52 52 63
REMARK Flexibility Score: inf
ROOT
ATOM      1  C   UNL A   1      38.990  22.890  26.173  1.00  0.00     0.021 C 
ENDROOT
BRANCH   1   2
ATOM      2  C   UNL A   1      37.796  21.994  25.744  1.00  0.00     0.116 C 
BRANCH   2   3
ATOM      3  N   UNL A   1      37.122  22.214  24.396  1.00  0.00    -0.356 N 
ATOM      4  C   UNL A   1      36.219  22.892  23.642  1.00  0.00     0.225 C 
ATOM      5  O   UNL A   1      36.645  22.951  22.464  1.00  0.00    -0.275 OA
ATOM      6  H   UNL A   1      37.533  21.558  23.788  1.00  0.00     0.163 HD
BRANCH   4   7
ATOM      7  C   UNL A   1      34.770  23.497  23.812  1.00  0.00     0.107 C 
ATOM      8  N   UNL A   1      33.182  24.634  22.440  1.00  0.00    -0.341 N 
ATOM      9  C   UNL A   1      34.459  24.819  23.113  1.00  0.00     0.133 C 
ATOM     10  C   UNL A   1      32.498  23.541  22.950  1.00  0.00     0.223 C 
ATOM     11  C   UNL A   1      33.421  22.762  23.869  1.00  0.00     0.115 C 
ATOM     12  O   UNL A   1      31.314  23.281  22.749  1.00  0.00    -0.275 OA
BRANCH   8  13
ATOM     13  C   UNL A   1      32.520  25.687  21.659  1.00  0.00     0.129 C 
BRANCH  13  14
ATOM     14  C   UNL A   1      31.050  26.040  21.964  1.00  0.00     0.122 C 
BRANCH  14  15
ATOM     15  C   UNL A   1      30.669  27.355  22.701  1.00  0.00     0.226 C 
ATOM     16  N   UNL A   1      30.671  27.574  24.064  1.00  0.00    -0.326 N 
ATOM     17  H   UNL A   1      30.372  28.471  24.338  1.00  0.00     0.169 HD
ATOM     18  O   UNL A   1      30.288  28.307  22.001  1.00  0.00    -0.275 OA
BRANCH  16  19
ATOM     19  C   UNL A   1      31.032  26.727  25.123  1.00  0.00     0.044 A 
ATOM     20  C   UNL A   1      32.345  26.574  25.632  1.00  0.00    -0.025 A 
ATOM     21  C   UNL A   1      32.660  25.403  26.364  1.00  0.00     0.006 A 
ATOM     22  C   UNL A   1      31.714  24.444  26.595  1.00  0.00     0.000 A 
ATOM     23  C   UNL A   1      30.065  25.912  25.624  1.00  0.00     0.026 A 
ATOM     24  C   UNL A   1      30.434  24.729  26.199  1.00  0.00     0.002 A 
BRANCH  20  25
ATOM     25  C   UNL A   1      33.432  27.603  25.436  1.00  0.00     0.034 C 
ATOM     26  C   UNL A   1      33.657  28.531  26.639  1.00  0.00     0.009 C 
ENDBRANCH  20  25
ENDBRANCH  16  19
ENDBRANCH  14  15
ENDBRANCH  13  14
ENDBRANCH   8  13
ENDBRANCH   4   7
ENDBRANCH   2   3
ENDBRANCH   1   2
BRANCH   1  27
ATOM     27  C   UNL A   1      40.091  22.201  27.010  1.00  0.00     0.002 C 
BRANCH  27  28
ATOM     28  C   UNL A   1      41.252  21.511  26.273  1.00  0.00     0.002 C 
BRANCH  28  29
ATOM     29  C   UNL A   1      41.255  19.974  26.164  1.00  0.00     0.021 C 
BRANCH  29  30
ATOM     30  C   UNL A   1      42.574  19.235  26.428  1.00  0.00     0.116 C 
BRANCH  30  31
ATOM     31  N   UNL A   1      43.395  19.085  25.237  1.00  0.00    -0.352 N 
ATOM     32  C   UNL A   1      44.162  19.978  24.530  1.00  0.00     0.251 C 
ATOM     33  H   UNL A   1      43.404  18.173  24.868  1.00  0.00     0.163 HD
ATOM     34  O   UNL A   1      44.619  19.623  23.445  1.00  0.00    -0.269 OA
BRANCH  32  35
ATOM     35  C   UNL A   1      44.455  21.345  25.027  1.00  0.00     0.039 A 
ATOM     36  C   UNL A   1      44.148  22.430  24.197  1.00  0.00     0.014 A 
ATOM     37  C   UNL A   1      45.108  21.574  26.240  1.00  0.00     0.014 A 
ATOM     38  C   UNL A   1      44.458  23.734  24.597  1.00  0.00     0.010 A 
ATOM     39  C   UNL A   1      45.356  22.883  26.669  1.00  0.00     0.010 A 
ATOM     40  C   UNL A   1      45.043  23.977  25.849  1.00  0.00    -0.014 A 
BRANCH  40  41
ATOM     41  C   UNL A   1      45.307  25.371  26.300  1.00  0.00     0.031 A 
ATOM     42  C   UNL A   1      46.688  25.969  26.215  1.00  0.00     0.074 A 
ATOM     43  C   UNL A   1      44.296  26.098  26.817  1.00  0.00     0.049 A 
ATOM     44  N   UNL A   1      47.084  27.179  26.527  1.00  0.00    -0.248 NA
ATOM     45  C   UNL A   1      47.768  25.090  25.741  1.00  0.00     0.031 C 
ATOM     46  C   UNL A   1      42.927  25.615  27.012  1.00  0.00     0.029 A 
ATOM     47  N   UNL A   1      44.258  27.391  27.275  1.00  0.00    -0.354 N 
ATOM     48  C   UNL A   1      48.457  27.201  26.302  1.00  0.00     0.074 A 
ATOM     49  C   UNL A   1      48.831  25.869  25.876  1.00  0.00     0.031 C 
ATOM     50  C   UNL A   1      42.177  26.607  27.517  1.00  0.00     0.029 A 
ATOM     51  C   UNL A   1      43.017  27.782  27.719  1.00  0.00     0.049 A 
ATOM     52  H   UNL A   1      45.045  27.983  27.284  1.00  0.00     0.167 HD
ATOM     53  C   UNL A   1      49.323  28.238  26.422  1.00  0.00     0.031 A 
ATOM     54  C   UNL A   1      42.596  28.954  28.236  1.00  0.00     0.031 A 
ATOM     55  C   UNL A   1      48.945  29.558  26.856  1.00  0.00     0.049 A 
ATOM     56  C   UNL A   1      43.568  30.094  28.347  1.00  0.00     0.074 A 
ATOM     57  C   UNL A   1      49.731  30.694  26.951  1.00  0.00     0.029 A 
ATOM     58  N   UNL A   1      47.674  29.919  27.285  1.00  0.00    -0.354 N 
ATOM     59  N   UNL A   1      44.843  30.122  28.038  1.00  0.00    -0.248 NA
ATOM     60  C   UNL A   1      43.040  31.367  28.853  1.00  0.00     0.031 C 
ATOM     61  C   UNL A   1      48.955  31.721  27.501  1.00  0.00     0.029 A 
ATOM     62  C   UNL A   1      47.664  31.249  27.677  1.00  0.00     0.049 A 
ATOM     63  H   UNL A   1      46.895  29.318  27.307  1.00  0.00     0.167 HD
ATOM     64  C   UNL A   1      45.267  31.422  28.297  1.00  0.00     0.074 A 
ATOM     65  C   UNL A   1      44.104  32.152  28.759  1.00  0.00     0.031 C 
ATOM     66  C   UNL A   1      46.506  31.960  28.163  1.00  0.00     0.031 A 
BRANCH  53  67
ATOM     67  C   UNL A   1      50.776  27.972  26.103  1.00  0.00    -0.014 A 
ATOM     68  C   UNL A   1      51.690  27.589  27.103  1.00  0.00     0.010 A 
ATOM     69  C   UNL A   1      51.232  28.087  24.777  1.00  0.00     0.010 A 
ATOM     70  C   UNL A   1      53.039  27.387  26.795  1.00  0.00     0.020 A 
ATOM     71  C   UNL A   1      52.573  27.852  24.457  1.00  0.00     0.020 A 
ATOM     72  C   UNL A   1      53.473  27.526  25.473  1.00  0.00     0.054 A 
BRANCH  72  73
ATOM     73  S   UNL A   1      55.230  27.262  25.103  1.00  0.00     0.124 S 
ATOM     74  O   UNL A   1      55.762  26.894  26.413  1.00  0.00    -0.237 OA
ATOM     75  O   UNL A   1      55.191  26.187  24.117  1.00  0.00    -0.237 OA
ATOM     76  O   UNL A   1      55.676  28.557  24.594  1.00  0.00    -0.744 OA
ENDBRANCH  72  73
ENDBRANCH  53  67
BRANCH  54  77
ATOM     77  C   UNL A   1      41.179  29.095  28.674  1.00  0.00    -0.014 A 
ATOM     78  C   UNL A   1      40.832  29.041  30.035  1.00  0.00     0.010 A 
ATOM     79  C   UNL A   1      40.170  29.334  27.721  1.00  0.00     0.010 A 
ATOM     80  C   UNL A   1      39.504  29.218  30.436  1.00  0.00     0.020 A 
ATOM     81  C   UNL A   1      38.847  29.542  28.120  1.00  0.00     0.020 A 
ATOM     82  C   UNL A   1      38.521  29.476  29.474  1.00  0.00     0.054 A 
BRANCH  82  83
ATOM     83  S   UNL A   1      36.819  29.783  30.024  1.00  0.00     0.124 S 
ATOM     84  O   UNL A   1      36.828  31.223  30.256  1.00  0.00    -0.237 OA
ATOM     85  O   UNL A   1      36.032  29.330  28.879  1.00  0.00    -0.237 OA
ATOM     86  O   UNL A   1      36.692  28.955  31.221  1.00  0.00    -0.744 OA
ENDBRANCH  82  83
ENDBRANCH  54  77
BRANCH  66  87
ATOM     87  C   UNL A   1      46.658  33.420  28.507  1.00  0.00    -0.014 A 
ATOM     88  C   UNL A   1      47.193  33.834  29.741  1.00  0.00     0.010 A 
ATOM     89  C   UNL A   1      46.267  34.396  27.572  1.00  0.00     0.010 A 
ATOM     90  C   UNL A   1      47.275  35.192  30.057  1.00  0.00     0.020 A 
ATOM     91  C   UNL A   1      46.381  35.756  27.870  1.00  0.00     0.020 A 
ATOM     92  C   UNL A   1      46.861  36.146  29.121  1.00  0.00     0.054 A 
BRANCH  92  93
ATOM     93  S   UNL A   1      46.973  37.902  29.556  1.00  0.00     0.124 S 
ATOM     94  O   UNL A   1      47.990  38.382  28.624  1.00  0.00    -0.237 OA
ATOM     95  O   UNL A   1      45.615  38.382  29.306  1.00  0.00    -0.237 OA
ATOM     96  O   UNL A   1      47.373  37.887  30.961  1.00  0.00    -0.744 OA
ENDBRANCH  92  93
ENDBRANCH  66  87
ENDBRANCH  40  41
ENDBRANCH  32  35
ENDBRANCH  30  31
ENDBRANCH  29  30
ENDBRANCH  28  29
ENDBRANCH  27  28
ENDBRANCH   1  27
TORSDOF 21
ENDMDL
