MODEL 1
REMARK VINA RESULT:     -11.5      0.000      0.000
REMARK SMILES C[C@H]1[C@@H](C(=O)NCCCCCCNC(=O)c2ccc(-c3c4nc(c(-c5ccc(S(=O)(=O)[O-])cc5)c5ccc([nH]5)c(-c5ccc(S(=O)(=O)[O-])cc5)c5nc(c(-c6ccc(S(=O)(=O)[O-])cc6)c6ccc3[nH]6)C=C5)C=C4)cc2)CCN1C(=O)c1cc2cc(F)ccc2s1
REMARK SMILES IDX 10 1 9 2 8 3 7 4 6 5 4 6 5 7 3 9 1 10 2 11 78 12 76 13 77 14
REMARK SMILES IDX 79 15 80 16 81 17 82 18 90 19 83 20 89 21 84 22 88 23 85 24
REMARK SMILES IDX 87 25 86 26 11 27 12 28 13 29 14 30 15 32 16 33 17 34 75 35
REMARK SMILES IDX 18 36 74 37 19 38 20 39 21 40 68 41 22 42 73 43 67 44 69 45
REMARK SMILES IDX 23 46 72 47 66 48 65 49 24 51 54 52 35 53 53 54 36 55 39 56
REMARK SMILES IDX 52 57 70 58 37 59 38 60 51 62 71 63 40 64 25 65 26 66 34 67
REMARK SMILES IDX 27 68 33 69 28 70 29 71 30 72 31 73 32 74 55 75 56 76 64 77
REMARK SMILES IDX 57 78 63 79 58 80 59 81 60 82 61 83 62 84 41 85 42 86 50 87
REMARK SMILES IDX 43 88 49 89 44 90 45 91 46 92 47 93 48 94
REMARK H PARENT 6 8 13 31 69 50 39 61
REMARK Flexibility Score: inf
ROOT
ATOM      1  C   UNL A   1      32.282  29.259  24.790  1.00  0.00     0.002 C 
ENDROOT
BRANCH   1   2
ATOM      2  C   UNL A   1      31.551  29.008  23.469  1.00  0.00     0.002 C 
BRANCH   2   3
ATOM      3  C   UNL A   1      30.437  27.963  23.559  1.00  0.00     0.021 C 
BRANCH   3   4
ATOM      4  C   UNL A   1      30.487  26.912  22.447  1.00  0.00     0.116 C 
BRANCH   4   5
ATOM      5  N   UNL A   1      31.860  26.767  22.011  1.00  0.00    -0.356 N 
ATOM      6  C   UNL A   1      32.761  25.778  22.246  1.00  0.00     0.225 C 
ATOM      7  O   UNL A   1      33.936  26.044  21.979  1.00  0.00    -0.275 OA
ATOM      8  H   UNL A   1      32.195  27.506  21.453  1.00  0.00     0.163 HD
BRANCH   6   9
ATOM      9  C   UNL A   1      32.312  24.378  22.685  1.00  0.00     0.102 C 
ATOM     10  C   UNL A   1      31.971  24.940  25.234  1.00  0.00     0.032 C 
ATOM     11  C   UNL A   1      32.412  23.959  24.171  1.00  0.00     0.094 C 
ATOM     12  N   UNL A   1      33.775  23.447  24.357  1.00  0.00    -0.334 N 
ATOM     13  C   UNL A   1      33.277  23.350  22.059  1.00  0.00     0.037 C 
ATOM     14  C   UNL A   1      34.424  23.328  23.062  1.00  0.00     0.121 C 
BRANCH  12  15
ATOM     15  C   UNL A   1      33.969  22.401  25.258  1.00  0.00     0.264 C 
ATOM     16  O   UNL A   1      34.264  22.634  26.431  1.00  0.00    -0.268 OA
BRANCH  15  17
ATOM     17  C   UNL A   1      33.778  21.044  24.789  1.00  0.00     0.093 A 
ATOM     18  C   UNL A   1      34.777  20.168  24.419  1.00  0.00     0.034 A 
ATOM     19  S   UNL A   1      32.272  20.252  24.899  1.00  0.00    -0.130 S 
ATOM     20  C   UNL A   1      34.395  18.805  24.631  1.00  0.00    -0.004 A 
ATOM     21  C   UNL A   1      33.037  18.703  24.952  1.00  0.00     0.035 A 
ATOM     22  C   UNL A   1      35.190  17.637  24.666  1.00  0.00     0.048 A 
ATOM     23  C   UNL A   1      32.455  17.469  25.308  1.00  0.00     0.022 A 
ATOM     24  C   UNL A   1      34.628  16.440  25.099  1.00  0.00     0.123 A 
ATOM     25  C   UNL A   1      33.283  16.349  25.420  1.00  0.00     0.041 A 
ATOM     26  F   UNL A   1      35.416  15.368  25.254  1.00  0.00    -0.207 F 
ENDBRANCH  15  17
ENDBRANCH  12  15
ENDBRANCH   6   9
ENDBRANCH   4   5
ENDBRANCH   3   4
ENDBRANCH   2   3
ENDBRANCH   1   2
BRANCH   1  27
ATOM     27  C   UNL A   1      33.409  28.271  25.119  1.00  0.00     0.021 C 
BRANCH  27  28
ATOM     28  C   UNL A   1      34.058  28.448  26.492  1.00  0.00     0.116 C 
BRANCH  28  29
ATOM     29  N   UNL A   1      33.853  29.785  27.021  1.00  0.00    -0.352 N 
ATOM     30  C   UNL A   1      34.622  30.507  27.901  1.00  0.00     0.251 C 
ATOM     31  H   UNL A   1      33.041  30.242  26.702  1.00  0.00     0.163 HD
ATOM     32  O   UNL A   1      34.171  31.531  28.404  1.00  0.00    -0.269 OA
BRANCH  30  33
ATOM     33  C   UNL A   1      35.985  30.048  28.250  1.00  0.00     0.039 A 
ATOM     34  C   UNL A   1      36.988  30.123  27.279  1.00  0.00     0.014 A 
ATOM     35  C   UNL A   1      36.264  29.508  29.508  1.00  0.00     0.014 A 
ATOM     36  C   UNL A   1      38.284  29.703  27.587  1.00  0.00     0.010 A 
ATOM     37  C   UNL A   1      37.570  29.137  29.830  1.00  0.00     0.010 A 
ATOM     38  C   UNL A   1      38.591  29.229  28.873  1.00  0.00    -0.014 A 
BRANCH  38  39
ATOM     39  C   UNL A   1      39.973  28.817  29.229  1.00  0.00     0.031 A 
ATOM     40  C   UNL A   1      40.893  29.778  29.931  1.00  0.00     0.074 A 
ATOM     41  C   UNL A   1      40.419  27.598  28.870  1.00  0.00     0.049 A 
ATOM     42  N   UNL A   1      42.147  29.620  30.267  1.00  0.00    -0.248 NA
ATOM     43  C   UNL A   1      40.335  31.094  30.281  1.00  0.00     0.031 C 
ATOM     44  C   UNL A   1      39.638  26.585  28.157  1.00  0.00     0.029 A 
ATOM     45  N   UNL A   1      41.644  27.007  29.049  1.00  0.00    -0.354 N 
ATOM     46  C   UNL A   1      42.536  30.820  30.852  1.00  0.00     0.074 A 
ATOM     47  C   UNL A   1      41.394  31.708  30.792  1.00  0.00     0.031 C 
ATOM     48  C   UNL A   1      40.397  25.493  27.975  1.00  0.00     0.029 A 
ATOM     49  C   UNL A   1      41.726  25.737  28.529  1.00  0.00     0.049 A 
ATOM     50  H   UNL A   1      42.394  27.451  29.508  1.00  0.00     0.167 HD
ATOM     51  C   UNL A   1      43.730  31.151  31.400  1.00  0.00     0.031 A 
ATOM     52  C   UNL A   1      42.754  24.868  28.497  1.00  0.00     0.031 A 
ATOM     53  C   UNL A   1      44.862  30.266  31.474  1.00  0.00     0.049 A 
ATOM     54  C   UNL A   1      44.068  25.254  29.117  1.00  0.00     0.074 A 
ATOM     55  C   UNL A   1      46.096  30.493  32.058  1.00  0.00     0.029 A 
ATOM     56  N   UNL A   1      44.896  28.983  30.950  1.00  0.00    -0.354 N 
ATOM     57  N   UNL A   1      44.399  26.376  29.709  1.00  0.00    -0.248 NA
ATOM     58  C   UNL A   1      45.142  24.253  29.073  1.00  0.00     0.031 C 
ATOM     59  C   UNL A   1      46.890  29.357  31.856  1.00  0.00     0.029 A 
ATOM     60  C   UNL A   1      46.136  28.411  31.181  1.00  0.00     0.049 A 
ATOM     61  H   UNL A   1      44.151  28.544  30.481  1.00  0.00     0.167 HD
ATOM     62  C   UNL A   1      45.715  26.209  30.123  1.00  0.00     0.074 A 
ATOM     63  C   UNL A   1      46.114  24.874  29.725  1.00  0.00     0.031 C 
ATOM     64  C   UNL A   1      46.520  27.084  30.775  1.00  0.00     0.031 A 
BRANCH  51  65
ATOM     65  C   UNL A   1      43.870  32.542  31.958  1.00  0.00    -0.014 A 
ATOM     66  C   UNL A   1      44.231  33.620  31.131  1.00  0.00     0.010 A 
ATOM     67  C   UNL A   1      43.619  32.777  33.322  1.00  0.00     0.010 A 
ATOM     68  C   UNL A   1      44.387  34.901  31.667  1.00  0.00     0.020 A 
ATOM     69  C   UNL A   1      43.752  34.062  33.857  1.00  0.00     0.020 A 
ATOM     70  C   UNL A   1      44.155  35.112  33.029  1.00  0.00     0.054 A 
BRANCH  70  71
ATOM     71  S   UNL A   1      44.362  36.784  33.703  1.00  0.00     0.124 S 
ATOM     72  O   UNL A   1      43.821  36.632  35.051  1.00  0.00    -0.237 OA
ATOM     73  O   UNL A   1      45.807  36.988  33.625  1.00  0.00    -0.237 OA
ATOM     74  O   UNL A   1      43.570  37.618  32.802  1.00  0.00    -0.744 OA
ENDBRANCH  70  71
ENDBRANCH  51  65
BRANCH  52  75
ATOM     75  C   UNL A   1      42.571  23.536  27.866  1.00  0.00    -0.014 A 
ATOM     76  C   UNL A   1      43.132  23.264  26.607  1.00  0.00     0.010 A 
ATOM     77  C   UNL A   1      41.860  22.523  28.535  1.00  0.00     0.010 A 
ATOM     78  C   UNL A   1      42.979  22.003  26.022  1.00  0.00     0.020 A 
ATOM     79  C   UNL A   1      41.722  21.256  27.962  1.00  0.00     0.020 A 
ATOM     80  C   UNL A   1      42.276  21.006  26.705  1.00  0.00     0.054 A 
BRANCH  80  81
ATOM     81  S   UNL A   1      42.149  19.356  25.963  1.00  0.00     0.124 S 
ATOM     82  O   UNL A   1      42.953  19.504  24.755  1.00  0.00    -0.237 OA
ATOM     83  O   UNL A   1      42.713  18.495  26.999  1.00  0.00    -0.237 OA
ATOM     84  O   UNL A   1      40.712  19.192  25.746  1.00  0.00    -0.744 OA
ENDBRANCH  80  81
ENDBRANCH  52  75
BRANCH  64  85
ATOM     85  C   UNL A   1      47.907  26.617  31.118  1.00  0.00    -0.014 A 
ATOM     86  C   UNL A   1      48.997  26.909  30.279  1.00  0.00     0.010 A 
ATOM     87  C   UNL A   1      48.129  25.922  32.320  1.00  0.00     0.010 A 
ATOM     88  C   UNL A   1      50.283  26.489  30.624  1.00  0.00     0.020 A 
ATOM     89  C   UNL A   1      49.419  25.518  32.678  1.00  0.00     0.020 A 
ATOM     90  C   UNL A   1      50.486  25.793  31.820  1.00  0.00     0.054 A 
BRANCH  90  91
ATOM     91  S   UNL A   1      52.172  25.296  32.271  1.00  0.00     0.124 S 
ATOM     92  O   UNL A   1      52.340  25.942  33.570  1.00  0.00    -0.237 OA
ATOM     93  O   UNL A   1      52.083  23.838  32.301  1.00  0.00    -0.237 OA
ATOM     94  O   UNL A   1      52.991  25.842  31.192  1.00  0.00    -0.744 OA
ENDBRANCH  90  91
ENDBRANCH  64  85
ENDBRANCH  38  39
ENDBRANCH  30  33
ENDBRANCH  28  29
ENDBRANCH  27  28
ENDBRANCH   1  27
TORSDOF 18
ENDMDL
MODEL 2
REMARK VINA RESULT:     -11.3      4.753     10.584
REMARK SMILES C[C@H]1[C@@H](C(=O)NCCCCCCNC(=O)c2ccc(-c3c4nc(c(-c5ccc(S(=O)(=O)[O-])cc5)c5ccc([nH]5)c(-c5ccc(S(=O)(=O)[O-])cc5)c5nc(c(-c6ccc(S(=O)(=O)[O-])cc6)c6ccc3[nH]6)C=C5)C=C4)cc2)CCN1C(=O)c1cc2cc(F)ccc2s1
REMARK SMILES IDX 10 1 9 2 8 3 7 4 6 5 4 6 5 7 3 9 1 10 2 11 78 12 76 13 77 14
REMARK SMILES IDX 79 15 80 16 81 17 82 18 90 19 83 20 89 21 84 22 88 23 85 24
REMARK SMILES IDX 87 25 86 26 11 27 12 28 13 29 14 30 15 32 16 33 17 34 75 35
REMARK SMILES IDX 18 36 74 37 19 38 20 39 21 40 68 41 22 42 73 43 67 44 69 45
REMARK SMILES IDX 23 46 72 47 66 48 65 49 24 51 54 52 35 53 53 54 36 55 39 56
REMARK SMILES IDX 52 57 70 58 37 59 38 60 51 62 71 63 40 64 25 65 26 66 34 67
REMARK SMILES IDX 27 68 33 69 28 70 29 71 30 72 31 73 32 74 55 75 56 76 64 77
REMARK SMILES IDX 57 78 63 79 58 80 59 81 60 82 61 83 62 84 41 85 42 86 50 87
REMARK SMILES IDX 43 88 49 89 44 90 45 91 46 92 47 93 48 94
REMARK H PARENT 6 8 13 31 69 50 39 61
REMARK Flexibility Score: inf
ROOT
ATOM      1  C   UNL A   1      38.058  23.745  26.090  1.00  0.00     0.002 C 
ENDROOT
BRANCH   1   2
ATOM      2  C   UNL A   1      37.096  23.372  24.959  1.00  0.00     0.002 C 
BRANCH   2   3
ATOM      3  C   UNL A   1      36.908  21.867  24.769  1.00  0.00     0.021 C 
BRANCH   3   4
ATOM      4  C   UNL A   1      35.796  21.270  25.638  1.00  0.00     0.116 C 
BRANCH   4   5
ATOM      5  N   UNL A   1      34.759  20.755  24.769  1.00  0.00    -0.356 N 
ATOM      6  C   UNL A   1      33.649  21.356  24.266  1.00  0.00     0.225 C 
ATOM      7  O   UNL A   1      32.803  20.604  23.777  1.00  0.00    -0.275 OA
ATOM      8  H   UNL A   1      34.877  19.816  24.499  1.00  0.00     0.163 HD
BRANCH   6   9
ATOM      9  C   UNL A   1      33.533  22.884  24.194  1.00  0.00     0.102 C 
ATOM     10  C   UNL A   1      33.179  23.297  26.770  1.00  0.00     0.032 C 
ATOM     11  C   UNL A   1      32.852  23.669  25.341  1.00  0.00     0.094 C 
ATOM     12  N   UNL A   1      31.416  23.667  25.036  1.00  0.00    -0.334 N 
ATOM     13  C   UNL A   1      32.578  23.236  23.035  1.00  0.00     0.037 C 
ATOM     14  C   UNL A   1      31.210  23.135  23.699  1.00  0.00     0.121 C 
BRANCH  12  15
ATOM     15  C   UNL A   1      30.667  24.787  25.390  1.00  0.00     0.264 C 
ATOM     16  O   UNL A   1      30.289  24.944  26.552  1.00  0.00    -0.268 OA
BRANCH  15  17
ATOM     17  C   UNL A   1      30.377  25.774  24.370  1.00  0.00     0.093 A 
ATOM     18  C   UNL A   1      29.122  26.127  23.919  1.00  0.00     0.034 A 
ATOM     19  S   UNL A   1      31.568  26.844  23.782  1.00  0.00    -0.130 S 
ATOM     20  C   UNL A   1      29.086  27.478  23.449  1.00  0.00    -0.004 A 
ATOM     21  C   UNL A   1      30.373  28.022  23.366  1.00  0.00     0.035 A 
ATOM     22  C   UNL A   1      27.979  28.315  23.183  1.00  0.00     0.048 A 
ATOM     23  C   UNL A   1      30.581  29.375  23.030  1.00  0.00     0.022 A 
ATOM     24  C   UNL A   1      28.188  29.668  22.934  1.00  0.00     0.123 A 
ATOM     25  C   UNL A   1      29.466  30.199  22.859  1.00  0.00     0.041 A 
ATOM     26  F   UNL A   1      27.129  30.479  22.812  1.00  0.00    -0.207 F 
ENDBRANCH  15  17
ENDBRANCH  12  15
ENDBRANCH   6   9
ENDBRANCH   4   5
ENDBRANCH   3   4
ENDBRANCH   2   3
ENDBRANCH   1   2
BRANCH   1  27
ATOM     27  C   UNL A   1      39.101  22.679  26.449  1.00  0.00     0.021 C 
BRANCH  27  28
ATOM     28  C   UNL A   1      40.389  23.207  27.081  1.00  0.00     0.116 C 
BRANCH  28  29
ATOM     29  N   UNL A   1      41.275  23.802  26.096  1.00  0.00    -0.352 N 
ATOM     30  C   UNL A   1      41.725  25.094  25.989  1.00  0.00     0.251 C 
ATOM     31  H   UNL A   1      41.601  23.186  25.400  1.00  0.00     0.163 HD
ATOM     32  O   UNL A   1      42.287  25.460  24.962  1.00  0.00    -0.269 OA
BRANCH  30  33
ATOM     33  C   UNL A   1      41.526  26.048  27.103  1.00  0.00     0.039 A 
ATOM     34  C   UNL A   1      40.501  25.804  28.021  1.00  0.00     0.014 A 
ATOM     35  C   UNL A   1      42.313  27.197  27.219  1.00  0.00     0.014 A 
ATOM     36  C   UNL A   1      40.297  26.685  29.086  1.00  0.00     0.010 A 
ATOM     37  C   UNL A   1      42.142  28.049  28.311  1.00  0.00     0.010 A 
ATOM     38  C   UNL A   1      41.132  27.802  29.252  1.00  0.00    -0.014 A 
BRANCH  38  39
ATOM     39  C   UNL A   1      40.956  28.727  30.402  1.00  0.00     0.031 A 
ATOM     40  C   UNL A   1      41.822  28.591  31.623  1.00  0.00     0.074 A 
ATOM     41  C   UNL A   1      39.977  29.652  30.369  1.00  0.00     0.049 A 
ATOM     42  N   UNL A   1      41.777  29.264  32.744  1.00  0.00    -0.248 NA
ATOM     43  C   UNL A   1      42.863  27.551  31.586  1.00  0.00     0.031 C 
ATOM     44  C   UNL A   1      39.047  29.865  29.258  1.00  0.00     0.029 A 
ATOM     45  N   UNL A   1      39.597  30.582  31.303  1.00  0.00    -0.354 N 
ATOM     46  C   UNL A   1      42.766  28.718  33.553  1.00  0.00     0.074 A 
ATOM     47  C   UNL A   1      43.372  27.636  32.807  1.00  0.00     0.031 C 
ATOM     48  C   UNL A   1      38.216  30.873  29.568  1.00  0.00     0.029 A 
ATOM     49  C   UNL A   1      38.532  31.357  30.909  1.00  0.00     0.049 A 
ATOM     50  H   UNL A   1      40.045  30.686  32.174  1.00  0.00     0.167 HD
ATOM     51  C   UNL A   1      43.146  29.091  34.800  1.00  0.00     0.031 A 
ATOM     52  C   UNL A   1      37.879  32.342  31.553  1.00  0.00     0.031 A 
ATOM     53  C   UNL A   1      42.555  30.175  35.538  1.00  0.00     0.049 A 
ATOM     54  C   UNL A   1      38.322  32.744  32.933  1.00  0.00     0.074 A 
ATOM     55  C   UNL A   1      42.907  30.660  36.785  1.00  0.00     0.029 A 
ATOM     56  N   UNL A   1      41.490  30.943  35.095  1.00  0.00    -0.354 N 
ATOM     57  N   UNL A   1      39.292  32.247  33.661  1.00  0.00    -0.248 NA
ATOM     58  C   UNL A   1      37.586  33.842  33.572  1.00  0.00     0.031 C 
ATOM     59  C   UNL A   1      42.031  31.703  37.112  1.00  0.00     0.029 A 
ATOM     60  C   UNL A   1      41.160  31.890  36.050  1.00  0.00     0.049 A 
ATOM     61  H   UNL A   1      41.034  30.833  34.230  1.00  0.00     0.167 HD
ATOM     62  C   UNL A   1      39.295  32.985  34.838  1.00  0.00     0.074 A 
ATOM     63  C   UNL A   1      38.239  33.969  34.719  1.00  0.00     0.031 C 
ATOM     64  C   UNL A   1      40.102  32.859  35.920  1.00  0.00     0.031 A 
BRANCH  51  65
ATOM     65  C   UNL A   1      44.255  28.304  35.445  1.00  0.00    -0.014 A 
ATOM     66  C   UNL A   1      43.976  27.178  36.240  1.00  0.00     0.010 A 
ATOM     67  C   UNL A   1      45.593  28.685  35.241  1.00  0.00     0.010 A 
ATOM     68  C   UNL A   1      45.012  26.474  36.858  1.00  0.00     0.020 A 
ATOM     69  C   UNL A   1      46.634  27.970  35.840  1.00  0.00     0.020 A 
ATOM     70  C   UNL A   1      46.335  26.880  36.661  1.00  0.00     0.054 A 
BRANCH  70  71
ATOM     71  S   UNL A   1      47.665  25.951  37.473  1.00  0.00     0.124 S 
ATOM     72  O   UNL A   1      48.748  26.932  37.490  1.00  0.00    -0.237 OA
ATOM     73  O   UNL A   1      47.088  25.630  38.776  1.00  0.00    -0.237 OA
ATOM     74  O   UNL A   1      47.873  24.806  36.590  1.00  0.00    -0.744 OA
ENDBRANCH  70  71
ENDBRANCH  51  65
BRANCH  52  75
ATOM     75  C   UNL A   1      36.744  33.032  30.887  1.00  0.00    -0.014 A 
ATOM     76  C   UNL A   1      35.420  32.727  31.244  1.00  0.00     0.010 A 
ATOM     77  C   UNL A   1      36.983  34.017  29.912  1.00  0.00     0.010 A 
ATOM     78  C   UNL A   1      34.352  33.390  30.634  1.00  0.00     0.020 A 
ATOM     79  C   UNL A   1      35.919  34.696  29.314  1.00  0.00     0.020 A 
ATOM     80  C   UNL A   1      34.609  34.372  29.672  1.00  0.00     0.054 A 
BRANCH  80  81
ATOM     81  S   UNL A   1      33.213  35.273  28.943  1.00  0.00     0.124 S 
ATOM     82  O   UNL A   1      32.596  34.251  28.106  1.00  0.00    -0.237 OA
ATOM     83  O   UNL A   1      32.446  35.680  30.117  1.00  0.00    -0.237 OA
ATOM     84  O   UNL A   1      33.859  36.371  28.223  1.00  0.00    -0.744 OA
ENDBRANCH  80  81
ENDBRANCH  52  75
BRANCH  64  85
ATOM     85  C   UNL A   1      39.888  33.823  37.054  1.00  0.00    -0.014 A 
ATOM     86  C   UNL A   1      40.515  35.082  37.060  1.00  0.00     0.010 A 
ATOM     87  C   UNL A   1      39.010  33.485  38.098  1.00  0.00     0.010 A 
ATOM     88  C   UNL A   1      40.288  35.976  38.108  1.00  0.00     0.020 A 
ATOM     89  C   UNL A   1      38.765  34.385  39.139  1.00  0.00     0.020 A 
ATOM     90  C   UNL A   1      39.416  35.621  39.144  1.00  0.00     0.054 A 
BRANCH  90  91
ATOM     91  S   UNL A   1      39.099  36.815  40.473  1.00  0.00     0.124 S 
ATOM     92  O   UNL A   1      40.450  37.111  40.941  1.00  0.00    -0.237 OA
ATOM     93  O   UNL A   1      38.423  37.906  39.774  1.00  0.00    -0.237 OA
ATOM     94  O   UNL A   1      38.262  36.071  41.411  1.00  0.00    -0.744 OA
ENDBRANCH  90  91
ENDBRANCH  64  85
ENDBRANCH  38  39
ENDBRANCH  30  33
ENDBRANCH  28  29
ENDBRANCH  27  28
ENDBRANCH   1  27
TORSDOF 18
ENDMDL
MODEL 3
REMARK VINA RESULT:     -10.9      4.196      9.116
REMARK SMILES C[C@H]1[C@@H](C(=O)NCCCCCCNC(=O)c2ccc(-c3c4nc(c(-c5ccc(S(=O)(=O)[O-])cc5)c5ccc([nH]5)c(-c5ccc(S(=O)(=O)[O-])cc5)c5nc(c(-c6ccc(S(=O)(=O)[O-])cc6)c6ccc3[nH]6)C=C5)C=C4)cc2)CCN1C(=O)c1cc2cc(F)ccc2s1
REMARK SMILES IDX 10 1 9 2 8 3 7 4 6 5 4 6 5 7 3 9 1 10 2 11 78 12 76 13 77 14
REMARK SMILES IDX 79 15 80 16 81 17 82 18 90 19 83 20 89 21 84 22 88 23 85 24
REMARK SMILES IDX 87 25 86 26 11 27 12 28 13 29 14 30 15 32 16 33 17 34 75 35
REMARK SMILES IDX 18 36 74 37 19 38 20 39 21 40 68 41 22 42 73 43 67 44 69 45
REMARK SMILES IDX 23 46 72 47 66 48 65 49 24 51 54 52 35 53 53 54 36 55 39 56
REMARK SMILES IDX 52 57 70 58 37 59 38 60 51 62 71 63 40 64 25 65 26 66 34 67
REMARK SMILES IDX 27 68 33 69 28 70 29 71 30 72 31 73 32 74 55 75 56 76 64 77
REMARK SMILES IDX 57 78 63 79 58 80 59 81 60 82 61 83 62 84 41 85 42 86 50 87
REMARK SMILES IDX 43 88 49 89 44 90 45 91 46 92 47 93 48 94
REMARK H PARENT 6 8 13 31 69 50 39 61
REMARK Flexibility Score: inf
ROOT
ATOM      1  C   UNL A   1      37.406  21.157  24.612  1.00  0.00     0.002 C 
ENDROOT
BRANCH   1   2
ATOM      2  C   UNL A   1      36.115  21.269  25.428  1.00  0.00     0.002 C 
BRANCH   2   3
ATOM      3  C   UNL A   1      34.999  20.334  24.961  1.00  0.00     0.021 C 
BRANCH   3   4
ATOM      4  C   UNL A   1      33.611  20.727  25.476  1.00  0.00     0.116 C 
BRANCH   4   5
ATOM      5  N   UNL A   1      32.837  21.241  24.366  1.00  0.00    -0.356 N 
ATOM      6  C   UNL A   1      32.520  22.518  24.026  1.00  0.00     0.225 C 
ATOM      7  O   UNL A   1      31.625  22.648  23.187  1.00  0.00    -0.275 OA
ATOM      8  H   UNL A   1      32.481  20.553  23.758  1.00  0.00     0.163 HD
BRANCH   6   9
ATOM      9  C   UNL A   1      33.330  23.709  24.557  1.00  0.00     0.102 C 
ATOM     10  C   UNL A   1      31.391  24.811  25.956  1.00  0.00     0.032 C 
ATOM     11  C   UNL A   1      32.606  24.976  25.069  1.00  0.00     0.094 C 
ATOM     12  N   UNL A   1      32.374  25.817  23.889  1.00  0.00    -0.334 N 
ATOM     13  C   UNL A   1      34.114  24.317  23.376  1.00  0.00     0.037 C 
ATOM     14  C   UNL A   1      33.088  25.256  22.753  1.00  0.00     0.121 C 
BRANCH  12  15
ATOM     15  C   UNL A   1      32.427  27.201  24.045  1.00  0.00     0.264 C 
ATOM     16  O   UNL A   1      33.511  27.776  24.151  1.00  0.00    -0.268 OA
BRANCH  15  17
ATOM     17  C   UNL A   1      31.183  27.942  24.043  1.00  0.00     0.093 A 
ATOM     18  C   UNL A   1      30.996  29.209  24.555  1.00  0.00     0.034 A 
ATOM     19  S   UNL A   1      29.829  27.436  23.138  1.00  0.00    -0.130 S 
ATOM     20  C   UNL A   1      29.948  29.908  23.875  1.00  0.00    -0.004 A 
ATOM     21  C   UNL A   1      29.243  29.057  23.017  1.00  0.00     0.035 A 
ATOM     22  C   UNL A   1      29.629  31.286  23.876  1.00  0.00     0.048 A 
ATOM     23  C   UNL A   1      28.235  29.544  22.161  1.00  0.00     0.022 A 
ATOM     24  C   UNL A   1      28.693  31.771  22.969  1.00  0.00     0.123 A 
ATOM     25  C   UNL A   1      28.002  30.922  22.120  1.00  0.00     0.041 A 
ATOM     26  F   UNL A   1      28.491  33.093  22.886  1.00  0.00    -0.207 F 
ENDBRANCH  15  17
ENDBRANCH  12  15
ENDBRANCH   6   9
ENDBRANCH   4   5
ENDBRANCH   3   4
ENDBRANCH   2   3
ENDBRANCH   1   2
BRANCH   1  27
ATOM     27  C   UNL A   1      38.322  19.983  24.982  1.00  0.00     0.021 C 
BRANCH  27  28
ATOM     28  C   UNL A   1      39.327  20.262  26.100  1.00  0.00     0.116 C 
BRANCH  28  29
ATOM     29  N   UNL A   1      40.383  19.266  26.143  1.00  0.00    -0.352 N 
ATOM     30  C   UNL A   1      41.745  19.433  26.177  1.00  0.00     0.251 C 
ATOM     31  H   UNL A   1      40.076  18.330  26.148  1.00  0.00     0.163 HD
ATOM     32  O   UNL A   1      42.482  18.472  25.983  1.00  0.00    -0.269 OA
BRANCH  30  33
ATOM     33  C   UNL A   1      42.325  20.770  26.436  1.00  0.00     0.039 A 
ATOM     34  C   UNL A   1      42.675  21.573  25.346  1.00  0.00     0.014 A 
ATOM     35  C   UNL A   1      42.565  21.213  27.739  1.00  0.00     0.014 A 
ATOM     36  C   UNL A   1      43.217  22.842  25.564  1.00  0.00     0.010 A 
ATOM     37  C   UNL A   1      43.059  22.499  27.956  1.00  0.00     0.010 A 
ATOM     38  C   UNL A   1      43.392  23.324  26.871  1.00  0.00    -0.014 A 
BRANCH  38  39
ATOM     39  C   UNL A   1      43.929  24.687  27.120  1.00  0.00     0.031 A 
ATOM     40  C   UNL A   1      43.016  25.788  27.584  1.00  0.00     0.074 A 
ATOM     41  C   UNL A   1      45.228  24.947  26.875  1.00  0.00     0.049 A 
ATOM     42  N   UNL A   1      43.289  27.050  27.795  1.00  0.00    -0.248 NA
ATOM     43  C   UNL A   1      41.609  25.428  27.821  1.00  0.00     0.031 C 
ATOM     44  C   UNL A   1      46.211  23.975  26.391  1.00  0.00     0.029 A 
ATOM     45  N   UNL A   1      45.942  26.113  26.990  1.00  0.00    -0.354 N 
ATOM     46  C   UNL A   1      42.087  27.639  28.172  1.00  0.00     0.074 A 
ATOM     47  C   UNL A   1      41.077  26.604  28.126  1.00  0.00     0.031 C 
ATOM     48  C   UNL A   1      47.402  24.580  26.269  1.00  0.00     0.029 A 
ATOM     49  C   UNL A   1      47.264  25.987  26.633  1.00  0.00     0.049 A 
ATOM     50  H   UNL A   1      45.545  26.959  27.301  1.00  0.00     0.167 HD
ATOM     51  C   UNL A   1      41.847  28.923  28.535  1.00  0.00     0.031 A 
ATOM     52  C   UNL A   1      48.252  26.901  26.599  1.00  0.00     0.031 A 
ATOM     53  C   UNL A   1      42.852  29.950  28.596  1.00  0.00     0.049 A 
ATOM     54  C   UNL A   1      47.965  28.317  27.013  1.00  0.00     0.074 A 
ATOM     55  C   UNL A   1      42.716  31.266  29.002  1.00  0.00     0.029 A 
ATOM     56  N   UNL A   1      44.181  29.777  28.242  1.00  0.00    -0.354 N 
ATOM     57  N   UNL A   1      46.831  28.843  27.412  1.00  0.00    -0.248 NA
ATOM     58  C   UNL A   1      49.090  29.260  26.978  1.00  0.00     0.031 C 
ATOM     59  C   UNL A   1      43.957  31.899  28.861  1.00  0.00     0.029 A 
ATOM     60  C   UNL A   1      44.873  30.965  28.404  1.00  0.00     0.049 A 
ATOM     61  H   UNL A   1      44.575  28.934  27.920  1.00  0.00     0.167 HD
ATOM     62  C   UNL A   1      47.113  30.174  27.694  1.00  0.00     0.074 A 
ATOM     63  C   UNL A   1      48.524  30.370  27.431  1.00  0.00     0.031 C 
ATOM     64  C   UNL A   1      46.276  31.146  28.133  1.00  0.00     0.031 A 
BRANCH  51  65
ATOM     65  C   UNL A   1      40.430  29.284  28.889  1.00  0.00    -0.014 A 
ATOM     66  C   UNL A   1      39.526  29.715  27.901  1.00  0.00     0.010 A 
ATOM     67  C   UNL A   1      39.992  29.175  30.220  1.00  0.00     0.010 A 
ATOM     68  C   UNL A   1      38.221  30.076  28.247  1.00  0.00     0.020 A 
ATOM     69  C   UNL A   1      38.680  29.515  30.566  1.00  0.00     0.020 A 
ATOM     70  C   UNL A   1      37.809  29.983  29.580  1.00  0.00     0.054 A 
BRANCH  70  71
ATOM     71  S   UNL A   1      36.110  30.456  30.005  1.00  0.00     0.124 S 
ATOM     72  O   UNL A   1      35.331  29.626  29.091  1.00  0.00    -0.237 OA
ATOM     73  O   UNL A   1      36.017  30.093  31.417  1.00  0.00    -0.237 OA
ATOM     74  O   UNL A   1      36.074  31.891  29.732  1.00  0.00    -0.744 OA
ENDBRANCH  70  71
ENDBRANCH  51  65
BRANCH  52  75
ATOM     75  C   UNL A   1      49.615  26.494  26.171  1.00  0.00    -0.014 A 
ATOM     76  C   UNL A   1      50.076  26.805  24.880  1.00  0.00     0.010 A 
ATOM     77  C   UNL A   1      50.470  25.819  27.062  1.00  0.00     0.010 A 
ATOM     78  C   UNL A   1      51.366  26.442  24.483  1.00  0.00     0.020 A 
ATOM     79  C   UNL A   1      51.767  25.472  26.675  1.00  0.00     0.020 A 
ATOM     80  C   UNL A   1      52.204  25.778  25.385  1.00  0.00     0.054 A 
BRANCH  80  81
ATOM     81  S   UNL A   1      53.900  25.379  24.877  1.00  0.00     0.124 S 
ATOM     82  O   UNL A   1      53.906  23.923  24.956  1.00  0.00    -0.237 OA
ATOM     83  O   UNL A   1      53.972  25.942  23.532  1.00  0.00    -0.237 OA
ATOM     84  O   UNL A   1      54.721  26.067  25.874  1.00  0.00    -0.744 OA
ENDBRANCH  80  81
ENDBRANCH  52  75
BRANCH  64  85
ATOM     85  C   UNL A   1      46.870  32.506  28.376  1.00  0.00    -0.014 A 
ATOM     86  C   UNL A   1      46.799  33.511  27.395  1.00  0.00     0.010 A 
ATOM     87  C   UNL A   1      47.460  32.795  29.619  1.00  0.00     0.010 A 
ATOM     88  C   UNL A   1      47.333  34.777  27.645  1.00  0.00     0.020 A 
ATOM     89  C   UNL A   1      47.978  34.067  29.879  1.00  0.00     0.020 A 
ATOM     90  C   UNL A   1      47.923  35.046  28.885  1.00  0.00     0.054 A 
BRANCH  90  91
ATOM     91  S   UNL A   1      48.572  36.710  29.206  1.00  0.00     0.124 S 
ATOM     92  O   UNL A   1      48.824  37.202  27.855  1.00  0.00    -0.237 OA
ATOM     93  O   UNL A   1      47.469  37.357  29.915  1.00  0.00    -0.237 OA
ATOM     94  O   UNL A   1      49.764  36.465  30.014  1.00  0.00    -0.744 OA
ENDBRANCH  90  91
ENDBRANCH  64  85
ENDBRANCH  38  39
ENDBRANCH  30  33
ENDBRANCH  28  29
ENDBRANCH  27  28
ENDBRANCH   1  27
TORSDOF 18
ENDMDL
