MODEL 1
REMARK VINA RESULT:     -11.9      0.000      0.000
REMARK SMILES Cc1ccc(F)cc1S(=O)(=O)Nc1cc(C(=O)NCCCCCCNC(=O)c2ccc(-c3c4nc(c(-c5ccc(S(=O)(=O)[O-])cc5)c5ccc([nH]5)c(-c5ccc(S(=O)(=O)[O-])cc5)c5nc(c(-c6ccc(S(=O)(=O)[O-])cc6)c6ccc3[nH]6)C=C5)C=C4)cc2)ccc1N(C)Cc1ccccc1
REMARK SMILES IDX 21 1 20 2 19 3 18 4 16 5 17 6 15 8 13 9 14 10 90 11 89 12
REMARK SMILES IDX 88 13 12 14 9 16 10 17 11 18 8 19 1 20 2 21 3 22 4 23 7 24
REMARK SMILES IDX 5 25 6 26 91 27 92 28 93 29 94 30 95 31 99 32 96 33 98 34
REMARK SMILES IDX 97 35 22 36 23 37 24 38 25 39 26 40 27 42 28 43 29 44 87 45
REMARK SMILES IDX 30 46 86 47 31 48 32 49 33 50 80 51 34 52 85 53 79 54 81 55
REMARK SMILES IDX 35 56 84 57 78 58 77 59 36 61 66 62 47 63 65 64 48 65 51 66
REMARK SMILES IDX 64 67 82 68 49 69 50 70 63 72 83 73 52 74 37 75 38 76 46 77
REMARK SMILES IDX 39 78 45 79 40 80 41 81 42 82 43 83 44 84 67 85 68 86 76 87
REMARK SMILES IDX 69 88 75 89 70 90 71 91 72 92 73 93 74 94 53 95 54 96 62 97
REMARK SMILES IDX 55 98 61 99 56 100 57 101 58 102 59 103 60 104
REMARK H PARENT 18 7 12 15 25 41 81 60 51 71
REMARK Flexibility Score: inf
ROOT
ATOM      1  C   UNL A   1      32.465  27.770  27.411  1.00  0.00     0.002 C 
ENDROOT
BRANCH   1   2
ATOM      2  C   UNL A   1      31.106  27.577  26.713  1.00  0.00     0.021 C 
BRANCH   2   3
ATOM      3  C   UNL A   1      30.972  26.280  25.911  1.00  0.00     0.116 C 
BRANCH   3   4
ATOM      4  N   UNL A   1      30.337  25.265  26.723  1.00  0.00    -0.352 N 
ATOM      5  C   UNL A   1      30.529  23.924  26.926  1.00  0.00     0.251 C 
ATOM      6  O   UNL A   1      29.596  23.348  27.499  1.00  0.00    -0.269 OA
ATOM      7  H   UNL A   1      29.590  25.623  27.255  1.00  0.00     0.163 HD
BRANCH   5   8
ATOM      8  C   UNL A   1      31.780  23.133  26.636  1.00  0.00     0.042 A 
ATOM      9  C   UNL A   1      33.216  22.433  24.767  1.00  0.00     0.073 A 
ATOM     10  C   UNL A   1      32.312  23.348  25.361  1.00  0.00     0.042 A 
ATOM     11  C   UNL A   1      33.905  21.442  25.476  1.00  0.00     0.061 A 
ATOM     12  C   UNL A   1      33.438  21.327  26.818  1.00  0.00     0.029 A 
ATOM     13  C   UNL A   1      32.371  22.115  27.373  1.00  0.00     0.016 A 
BRANCH   9  14
ATOM     14  N   UNL A   1      33.009  22.199  23.371  1.00  0.00    -0.277 N 
ATOM     15  H   UNL A   1      32.498  21.438  23.011  1.00  0.00     0.180 HD
BRANCH  14  16
ATOM     16  S   UNL A   1      33.763  23.412  22.389  1.00  0.00     0.262 S 
ATOM     17  O   UNL A   1      33.368  23.162  21.025  1.00  0.00    -0.201 OA
ATOM     18  O   UNL A   1      35.179  23.329  22.707  1.00  0.00    -0.201 OA
BRANCH  16  19
ATOM     19  C   UNL A   1      33.164  25.065  22.840  1.00  0.00     0.093 A 
ATOM     20  C   UNL A   1      34.844  25.472  24.700  1.00  0.00     0.046 C 
ATOM     21  C   UNL A   1      33.801  25.926  23.733  1.00  0.00    -0.030 A 
ATOM     22  C   UNL A   1      33.442  27.302  23.745  1.00  0.00     0.008 A 
ATOM     23  C   UNL A   1      32.400  27.803  22.966  1.00  0.00     0.039 A 
ATOM     24  C   UNL A   1      32.067  25.586  22.165  1.00  0.00     0.061 A 
ATOM     25  C   UNL A   1      31.677  26.916  22.214  1.00  0.00     0.124 A 
ATOM     26  F   UNL A   1      30.596  27.319  21.531  1.00  0.00    -0.207 F 
ENDBRANCH  16  19
ENDBRANCH  14  16
ENDBRANCH   9  14
BRANCH  11  27
ATOM     27  N   UNL A   1      34.831  20.549  24.865  1.00  0.00    -0.369 N 
ATOM     28  C   UNL A   1      34.282  19.230  24.517  1.00  0.00     0.144 C 
BRANCH  27  29
ATOM     29  C   UNL A   1      36.358  20.560  25.022  1.00  0.00     0.151 C 
BRANCH  29  30
ATOM     30  C   UNL A   1      37.211  21.756  25.557  1.00  0.00    -0.029 A 
ATOM     31  C   UNL A   1      36.831  23.105  25.723  1.00  0.00     0.005 A 
ATOM     32  C   UNL A   1      38.584  21.521  25.779  1.00  0.00     0.005 A 
ATOM     33  C   UNL A   1      37.641  24.041  26.402  1.00  0.00     0.000 A 
ATOM     34  C   UNL A   1      39.442  22.486  26.342  1.00  0.00     0.000 A 
ATOM     35  C   UNL A   1      38.946  23.720  26.736  1.00  0.00     0.000 A 
ENDBRANCH  29  30
ENDBRANCH  27  29
ENDBRANCH  11  27
ENDBRANCH   5   8
ENDBRANCH   3   4
ENDBRANCH   2   3
ENDBRANCH   1   2
BRANCH   1  36
ATOM     36  C   UNL A   1      33.221  29.060  27.070  1.00  0.00     0.002 C 
BRANCH  36  37
ATOM     37  C   UNL A   1      34.735  28.911  26.909  1.00  0.00     0.021 C 
BRANCH  37  38
ATOM     38  C   UNL A   1      35.560  30.036  27.527  1.00  0.00     0.116 C 
BRANCH  38  39
ATOM     39  N   UNL A   1      35.454  30.056  28.975  1.00  0.00    -0.352 N 
ATOM     40  C   UNL A   1      36.383  29.714  29.925  1.00  0.00     0.251 C 
ATOM     41  H   UNL A   1      34.586  30.359  29.328  1.00  0.00     0.163 HD
ATOM     42  O   UNL A   1      36.032  29.576  31.094  1.00  0.00    -0.269 OA
BRANCH  40  43
ATOM     43  C   UNL A   1      37.797  29.499  29.546  1.00  0.00     0.039 A 
ATOM     44  C   UNL A   1      38.720  29.192  30.549  1.00  0.00     0.014 A 
ATOM     45  C   UNL A   1      38.224  29.630  28.220  1.00  0.00     0.014 A 
ATOM     46  C   UNL A   1      40.057  28.973  30.214  1.00  0.00     0.010 A 
ATOM     47  C   UNL A   1      39.541  29.332  27.878  1.00  0.00     0.010 A 
ATOM     48  C   UNL A   1      40.475  29.009  28.872  1.00  0.00    -0.014 A 
BRANCH  48  49
ATOM     49  C   UNL A   1      41.881  28.685  28.515  1.00  0.00     0.031 A 
ATOM     50  C   UNL A   1      42.271  27.295  28.092  1.00  0.00     0.074 A 
ATOM     51  C   UNL A   1      42.813  29.656  28.588  1.00  0.00     0.049 A 
ATOM     52  N   UNL A   1      43.435  26.858  27.681  1.00  0.00    -0.248 NA
ATOM     53  C   UNL A   1      41.232  26.257  28.158  1.00  0.00     0.031 C 
ATOM     54  C   UNL A   1      42.568  31.029  29.037  1.00  0.00     0.029 A 
ATOM     55  N   UNL A   1      44.147  29.644  28.269  1.00  0.00    -0.354 N 
ATOM     56  C   UNL A   1      43.268  25.499  27.441  1.00  0.00     0.074 A 
ATOM     57  C   UNL A   1      41.909  25.171  27.814  1.00  0.00     0.031 C 
ATOM     58  C   UNL A   1      43.698  31.741  28.911  1.00  0.00     0.029 A 
ATOM     59  C   UNL A   1      44.757  30.868  28.413  1.00  0.00     0.049 A 
ATOM     60  H   UNL A   1      44.622  28.837  27.967  1.00  0.00     0.167 HD
ATOM     61  C   UNL A   1      44.157  24.608  26.937  1.00  0.00     0.031 A 
ATOM     62  C   UNL A   1      46.024  31.251  28.164  1.00  0.00     0.031 A 
ATOM     63  C   UNL A   1      45.512  24.938  26.579  1.00  0.00     0.049 A 
ATOM     64  C   UNL A   1      46.994  30.244  27.613  1.00  0.00     0.074 A 
ATOM     65  C   UNL A   1      46.478  24.123  26.014  1.00  0.00     0.029 A 
ATOM     66  N   UNL A   1      46.100  26.183  26.761  1.00  0.00    -0.354 N 
ATOM     67  N   UNL A   1      46.794  28.981  27.318  1.00  0.00    -0.248 NA
ATOM     68  C   UNL A   1      48.356  30.722  27.346  1.00  0.00     0.031 C 
ATOM     69  C   UNL A   1      47.667  24.855  25.916  1.00  0.00     0.029 A 
ATOM     70  C   UNL A   1      47.424  26.148  26.352  1.00  0.00     0.049 A 
ATOM     71  H   UNL A   1      45.643  26.974  27.126  1.00  0.00     0.167 HD
ATOM     72  C   UNL A   1      48.003  28.516  26.813  1.00  0.00     0.074 A 
ATOM     73  C   UNL A   1      48.915  29.644  26.814  1.00  0.00     0.031 C 
ATOM     74  C   UNL A   1      48.331  27.270  26.387  1.00  0.00     0.031 A 
BRANCH  61  75
ATOM     75  C   UNL A   1      43.690  23.184  26.759  1.00  0.00    -0.014 A 
ATOM     76  C   UNL A   1      43.078  22.479  27.814  1.00  0.00     0.010 A 
ATOM     77  C   UNL A   1      43.839  22.548  25.514  1.00  0.00     0.010 A 
ATOM     78  C   UNL A   1      42.677  21.151  27.642  1.00  0.00     0.020 A 
ATOM     79  C   UNL A   1      43.407  21.231  25.327  1.00  0.00     0.020 A 
ATOM     80  C   UNL A   1      42.848  20.533  26.400  1.00  0.00     0.054 A 
BRANCH  80  81
ATOM     81  S   UNL A   1      42.313  18.811  26.204  1.00  0.00     0.124 S 
ATOM     82  O   UNL A   1      42.464  18.294  27.562  1.00  0.00    -0.237 OA
ATOM     83  O   UNL A   1      40.936  18.956  25.738  1.00  0.00    -0.237 OA
ATOM     84  O   UNL A   1      43.246  18.266  25.222  1.00  0.00    -0.744 OA
ENDBRANCH  80  81
ENDBRANCH  61  75
BRANCH  62  85
ATOM     85  C   UNL A   1      46.430  32.662  28.406  1.00  0.00    -0.014 A 
ATOM     86  C   UNL A   1      46.345  33.619  27.380  1.00  0.00     0.010 A 
ATOM     87  C   UNL A   1      46.876  33.064  29.679  1.00  0.00     0.010 A 
ATOM     88  C   UNL A   1      46.710  34.948  27.617  1.00  0.00     0.020 A 
ATOM     89  C   UNL A   1      47.211  34.397  29.929  1.00  0.00     0.020 A 
ATOM     90  C   UNL A   1      47.133  35.329  28.894  1.00  0.00     0.054 A 
BRANCH  90  91
ATOM     91  S   UNL A   1      47.535  37.072  29.197  1.00  0.00     0.124 S 
ATOM     92  O   UNL A   1      48.118  37.022  30.534  1.00  0.00    -0.237 OA
ATOM     93  O   UNL A   1      48.464  37.373  28.111  1.00  0.00    -0.237 OA
ATOM     94  O   UNL A   1      46.240  37.743  29.101  1.00  0.00    -0.744 OA
ENDBRANCH  90  91
ENDBRANCH  62  85
BRANCH  74  95
ATOM     95  C   UNL A   1      49.735  27.071  25.878  1.00  0.00    -0.014 A 
ATOM     96  C   UNL A   1      50.068  27.326  24.534  1.00  0.00     0.010 A 
ATOM     97  C   UNL A   1      50.739  26.626  26.757  1.00  0.00     0.010 A 
ATOM     98  C   UNL A   1      51.361  27.076  24.065  1.00  0.00     0.020 A 
ATOM     99  C   UNL A   1      52.041  26.410  26.301  1.00  0.00     0.020 A 
ATOM    100  C   UNL A   1      52.338  26.613  24.951  1.00  0.00     0.054 A 
BRANCH 100 101
ATOM    101  S   UNL A   1      54.007  26.291  24.319  1.00  0.00     0.124 S 
ATOM    102  O   UNL A   1      53.818  26.442  22.879  1.00  0.00    -0.237 OA
ATOM    103  O   UNL A   1      54.799  27.336  24.962  1.00  0.00    -0.237 OA
ATOM    104  O   UNL A   1      54.293  24.932  24.771  1.00  0.00    -0.744 OA
ENDBRANCH 100 101
ENDBRANCH  74  95
ENDBRANCH  48  49
ENDBRANCH  40  43
ENDBRANCH  38  39
ENDBRANCH  37  38
ENDBRANCH  36  37
ENDBRANCH   1  36
TORSDOF 22
ENDMDL
MODEL 2
REMARK VINA RESULT:     -11.4      0.596      7.663
REMARK SMILES Cc1ccc(F)cc1S(=O)(=O)Nc1cc(C(=O)NCCCCCCNC(=O)c2ccc(-c3c4nc(c(-c5ccc(S(=O)(=O)[O-])cc5)c5ccc([nH]5)c(-c5ccc(S(=O)(=O)[O-])cc5)c5nc(c(-c6ccc(S(=O)(=O)[O-])cc6)c6ccc3[nH]6)C=C5)C=C4)cc2)ccc1N(C)Cc1ccccc1
REMARK SMILES IDX 21 1 20 2 19 3 18 4 16 5 17 6 15 8 13 9 14 10 90 11 89 12
REMARK SMILES IDX 88 13 12 14 9 16 10 17 11 18 8 19 1 20 2 21 3 22 4 23 7 24
REMARK SMILES IDX 5 25 6 26 91 27 92 28 93 29 94 30 95 31 99 32 96 33 98 34
REMARK SMILES IDX 97 35 22 36 23 37 24 38 25 39 26 40 27 42 28 43 29 44 87 45
REMARK SMILES IDX 30 46 86 47 31 48 32 49 33 50 80 51 34 52 85 53 79 54 81 55
REMARK SMILES IDX 35 56 84 57 78 58 77 59 36 61 66 62 47 63 65 64 48 65 51 66
REMARK SMILES IDX 64 67 82 68 49 69 50 70 63 72 83 73 52 74 37 75 38 76 46 77
REMARK SMILES IDX 39 78 45 79 40 80 41 81 42 82 43 83 44 84 67 85 68 86 76 87
REMARK SMILES IDX 69 88 75 89 70 90 71 91 72 92 73 93 74 94 53 95 54 96 62 97
REMARK SMILES IDX 55 98 61 99 56 100 57 101 58 102 59 103 60 104
REMARK H PARENT 18 7 12 15 25 41 81 60 51 71
REMARK Flexibility Score: inf
ROOT
ATOM      1  C   UNL A   1      32.330  27.498  27.260  1.00  0.00     0.002 C 
ENDROOT
BRANCH   1   2
ATOM      2  C   UNL A   1      31.031  27.511  26.432  1.00  0.00     0.021 C 
BRANCH   2   3
ATOM      3  C   UNL A   1      30.725  26.206  25.694  1.00  0.00     0.116 C 
BRANCH   3   4
ATOM      4  N   UNL A   1      30.159  25.243  26.614  1.00  0.00    -0.352 N 
ATOM      5  C   UNL A   1      30.396  23.926  26.908  1.00  0.00     0.251 C 
ATOM      6  O   UNL A   1      29.509  23.377  27.572  1.00  0.00    -0.269 OA
ATOM      7  H   UNL A   1      29.431  25.625  27.156  1.00  0.00     0.163 HD
BRANCH   5   8
ATOM      8  C   UNL A   1      31.651  23.143  26.614  1.00  0.00     0.042 A 
ATOM      9  C   UNL A   1      33.087  22.457  24.739  1.00  0.00     0.073 A 
ATOM     10  C   UNL A   1      32.180  23.365  25.338  1.00  0.00     0.042 A 
ATOM     11  C   UNL A   1      33.782  21.467  25.443  1.00  0.00     0.061 A 
ATOM     12  C   UNL A   1      33.318  21.345  26.786  1.00  0.00     0.029 A 
ATOM     13  C   UNL A   1      32.248  22.125  27.346  1.00  0.00     0.016 A 
BRANCH   9  14
ATOM     14  N   UNL A   1      32.879  22.227  23.343  1.00  0.00    -0.277 N 
ATOM     15  H   UNL A   1      32.345  21.483  22.981  1.00  0.00     0.180 HD
BRANCH  14  16
ATOM     16  S   UNL A   1      33.678  23.412  22.362  1.00  0.00     0.262 S 
ATOM     17  O   UNL A   1      33.282  23.173  20.997  1.00  0.00    -0.201 OA
ATOM     18  O   UNL A   1      35.089  23.283  22.688  1.00  0.00    -0.201 OA
BRANCH  16  19
ATOM     19  C   UNL A   1      33.132  25.086  22.806  1.00  0.00     0.093 A 
ATOM     20  C   UNL A   1      34.808  25.436  24.682  1.00  0.00     0.046 C 
ATOM     21  C   UNL A   1      33.791  25.925  23.705  1.00  0.00    -0.030 A 
ATOM     22  C   UNL A   1      33.479  27.312  23.714  1.00  0.00     0.008 A 
ATOM     23  C   UNL A   1      32.462  27.849  22.925  1.00  0.00     0.039 A 
ATOM     24  C   UNL A   1      32.060  25.644  22.122  1.00  0.00     0.061 A 
ATOM     25  C   UNL A   1      31.716  26.986  22.167  1.00  0.00     0.124 A 
ATOM     26  F   UNL A   1      30.656  27.426  21.473  1.00  0.00    -0.207 F 
ENDBRANCH  16  19
ENDBRANCH  14  16
ENDBRANCH   9  14
BRANCH  11  27
ATOM     27  N   UNL A   1      34.712  20.581  24.828  1.00  0.00    -0.369 N 
ATOM     28  C   UNL A   1      34.134  19.323  24.332  1.00  0.00     0.144 C 
BRANCH  27  29
ATOM     29  C   UNL A   1      36.222  20.504  25.094  1.00  0.00     0.151 C 
BRANCH  29  30
ATOM     30  C   UNL A   1      37.130  21.693  25.548  1.00  0.00    -0.029 A 
ATOM     31  C   UNL A   1      36.811  23.066  25.625  1.00  0.00     0.005 A 
ATOM     32  C   UNL A   1      38.492  21.411  25.783  1.00  0.00     0.005 A 
ATOM     33  C   UNL A   1      37.665  24.007  26.240  1.00  0.00     0.000 A 
ATOM     34  C   UNL A   1      39.394  22.372  26.281  1.00  0.00     0.000 A 
ATOM     35  C   UNL A   1      38.956  23.650  26.593  1.00  0.00     0.000 A 
ENDBRANCH  29  30
ENDBRANCH  27  29
ENDBRANCH  11  27
ENDBRANCH   5   8
ENDBRANCH   3   4
ENDBRANCH   2   3
ENDBRANCH   1   2
BRANCH   1  36
ATOM     36  C   UNL A   1      33.112  28.816  27.308  1.00  0.00     0.002 C 
BRANCH  36  37
ATOM     37  C   UNL A   1      34.636  28.677  27.273  1.00  0.00     0.021 C 
BRANCH  37  38
ATOM     38  C   UNL A   1      35.404  29.919  27.712  1.00  0.00     0.116 C 
BRANCH  38  39
ATOM     39  N   UNL A   1      35.321  30.132  29.146  1.00  0.00    -0.352 N 
ATOM     40  C   UNL A   1      36.266  29.918  30.118  1.00  0.00     0.251 C 
ATOM     41  H   UNL A   1      34.459  30.480  29.470  1.00  0.00     0.163 HD
ATOM     42  O   UNL A   1      35.934  29.937  31.300  1.00  0.00    -0.269 OA
BRANCH  40  43
ATOM     43  C   UNL A   1      37.674  29.653  29.748  1.00  0.00     0.039 A 
ATOM     44  C   UNL A   1      38.285  28.492  30.227  1.00  0.00     0.014 A 
ATOM     45  C   UNL A   1      38.402  30.554  28.963  1.00  0.00     0.014 A 
ATOM     46  C   UNL A   1      39.609  28.215  29.881  1.00  0.00     0.010 A 
ATOM     47  C   UNL A   1      39.695  30.236  28.553  1.00  0.00     0.010 A 
ATOM     48  C   UNL A   1      40.317  29.068  29.015  1.00  0.00    -0.014 A 
BRANCH  48  49
ATOM     49  C   UNL A   1      41.694  28.719  28.579  1.00  0.00     0.031 A 
ATOM     50  C   UNL A   1      42.791  29.748  28.584  1.00  0.00     0.074 A 
ATOM     51  C   UNL A   1      41.949  27.462  28.164  1.00  0.00     0.049 A 
ATOM     52  N   UNL A   1      44.061  29.597  28.304  1.00  0.00    -0.248 NA
ATOM     53  C   UNL A   1      42.414  31.128  28.926  1.00  0.00     0.031 C 
ATOM     54  C   UNL A   1      40.956  26.389  28.062  1.00  0.00     0.029 A 
ATOM     55  N   UNL A   1      43.121  26.869  27.768  1.00  0.00    -0.354 N 
ATOM     56  C   UNL A   1      44.632  30.858  28.434  1.00  0.00     0.074 A 
ATOM     57  C   UNL A   1      43.560  31.774  28.756  1.00  0.00     0.031 C 
ATOM     58  C   UNL A   1      41.570  25.257  27.687  1.00  0.00     0.029 A 
ATOM     59  C   UNL A   1      42.989  25.530  27.482  1.00  0.00     0.049 A 
ATOM     60  H   UNL A   1      43.973  27.354  27.695  1.00  0.00     0.167 HD
ATOM     61  C   UNL A   1      45.934  31.218  28.317  1.00  0.00     0.031 A 
ATOM     62  C   UNL A   1      43.907  24.620  27.107  1.00  0.00     0.031 A 
ATOM     63  C   UNL A   1      46.996  30.304  27.984  1.00  0.00     0.049 A 
ATOM     64  C   UNL A   1      45.343  25.044  26.977  1.00  0.00     0.074 A 
ATOM     65  C   UNL A   1      48.354  30.557  27.890  1.00  0.00     0.029 A 
ATOM     66  N   UNL A   1      46.820  28.961  27.680  1.00  0.00    -0.354 N 
ATOM     67  N   UNL A   1      45.876  26.225  27.182  1.00  0.00    -0.248 NA
ATOM     68  C   UNL A   1      46.302  24.005  26.580  1.00  0.00     0.031 C 
ATOM     69  C   UNL A   1      48.990  29.384  27.465  1.00  0.00     0.029 A 
ATOM     70  C   UNL A   1      48.039  28.381  27.364  1.00  0.00     0.049 A 
ATOM     71  H   UNL A   1      45.956  28.489  27.688  1.00  0.00     0.167 HD
ATOM     72  C   UNL A   1      47.239  26.068  26.956  1.00  0.00     0.074 A 
ATOM     73  C   UNL A   1      47.448  24.670  26.630  1.00  0.00     0.031 C 
ATOM     74  C   UNL A   1      48.229  26.995  27.012  1.00  0.00     0.031 A 
BRANCH  61  75
ATOM     75  C   UNL A   1      46.275  32.672  28.538  1.00  0.00    -0.014 A 
ATOM     76  C   UNL A   1      46.671  33.145  29.804  1.00  0.00     0.010 A 
ATOM     77  C   UNL A   1      46.225  33.575  27.461  1.00  0.00     0.010 A 
ATOM     78  C   UNL A   1      46.956  34.499  29.999  1.00  0.00     0.020 A 
ATOM     79  C   UNL A   1      46.543  34.924  27.644  1.00  0.00     0.020 A 
ATOM     80  C   UNL A   1      46.886  35.382  28.917  1.00  0.00     0.054 A 
BRANCH  80  81
ATOM     81  S   UNL A   1      47.267  37.133  29.198  1.00  0.00     0.124 S 
ATOM     82  O   UNL A   1      46.376  37.460  30.310  1.00  0.00    -0.237 OA
ATOM     83  O   UNL A   1      48.690  37.103  29.525  1.00  0.00    -0.237 OA
ATOM     84  O   UNL A   1      46.935  37.770  27.927  1.00  0.00    -0.744 OA
ENDBRANCH  80  81
ENDBRANCH  61  75
BRANCH  62  85
ATOM     85  C   UNL A   1      43.493  23.211  26.861  1.00  0.00    -0.014 A 
ATOM     86  C   UNL A   1      43.413  22.704  25.553  1.00  0.00     0.010 A 
ATOM     87  C   UNL A   1      43.203  22.358  27.942  1.00  0.00     0.010 A 
ATOM     88  C   UNL A   1      43.042  21.375  25.328  1.00  0.00     0.020 A 
ATOM     89  C   UNL A   1      42.863  21.020  27.724  1.00  0.00     0.020 A 
ATOM     90  C   UNL A   1      42.777  20.540  26.417  1.00  0.00     0.054 A 
BRANCH  90  91
ATOM     91  S   UNL A   1      42.364  18.801  26.105  1.00  0.00     0.124 S 
ATOM     92  O   UNL A   1      43.316  18.445  25.058  1.00  0.00    -0.237 OA
ATOM     93  O   UNL A   1      42.597  18.185  27.409  1.00  0.00    -0.237 OA
ATOM     94  O   UNL A   1      40.964  18.851  25.690  1.00  0.00    -0.744 OA
ENDBRANCH  90  91
ENDBRANCH  62  85
BRANCH  74  95
ATOM     95  C   UNL A   1      49.628  26.515  26.722  1.00  0.00    -0.014 A 
ATOM     96  C   UNL A   1      50.467  26.046  27.750  1.00  0.00     0.010 A 
ATOM     97  C   UNL A   1      50.112  26.532  25.401  1.00  0.00     0.010 A 
ATOM     98  C   UNL A   1      51.782  25.665  27.472  1.00  0.00     0.020 A 
ATOM     99  C   UNL A   1      51.413  26.117  25.113  1.00  0.00     0.020 A 
ATOM    100  C   UNL A   1      52.250  25.709  26.155  1.00  0.00     0.054 A 
BRANCH 100 101
ATOM    101  S   UNL A   1      53.962  25.215  25.820  1.00  0.00     0.124 S 
ATOM    102  O   UNL A   1      54.539  25.196  27.161  1.00  0.00    -0.237 OA
ATOM    103  O   UNL A   1      53.799  23.908  25.188  1.00  0.00    -0.237 OA
ATOM    104  O   UNL A   1      54.462  26.268  24.941  1.00  0.00    -0.744 OA
ENDBRANCH 100 101
ENDBRANCH  74  95
ENDBRANCH  48  49
ENDBRANCH  40  43
ENDBRANCH  38  39
ENDBRANCH  37  38
ENDBRANCH  36  37
ENDBRANCH   1  36
TORSDOF 22
ENDMDL
MODEL 3
REMARK VINA RESULT:     -11.3      4.801      6.061
REMARK SMILES Cc1ccc(F)cc1S(=O)(=O)Nc1cc(C(=O)NCCCCCCNC(=O)c2ccc(-c3c4nc(c(-c5ccc(S(=O)(=O)[O-])cc5)c5ccc([nH]5)c(-c5ccc(S(=O)(=O)[O-])cc5)c5nc(c(-c6ccc(S(=O)(=O)[O-])cc6)c6ccc3[nH]6)C=C5)C=C4)cc2)ccc1N(C)Cc1ccccc1
REMARK SMILES IDX 21 1 20 2 19 3 18 4 16 5 17 6 15 8 13 9 14 10 90 11 89 12
REMARK SMILES IDX 88 13 12 14 9 16 10 17 11 18 8 19 1 20 2 21 3 22 4 23 7 24
REMARK SMILES IDX 5 25 6 26 91 27 92 28 93 29 94 30 95 31 99 32 96 33 98 34
REMARK SMILES IDX 97 35 22 36 23 37 24 38 25 39 26 40 27 42 28 43 29 44 87 45
REMARK SMILES IDX 30 46 86 47 31 48 32 49 33 50 80 51 34 52 85 53 79 54 81 55
REMARK SMILES IDX 35 56 84 57 78 58 77 59 36 61 66 62 47 63 65 64 48 65 51 66
REMARK SMILES IDX 64 67 82 68 49 69 50 70 63 72 83 73 52 74 37 75 38 76 46 77
REMARK SMILES IDX 39 78 45 79 40 80 41 81 42 82 43 83 44 84 67 85 68 86 76 87
REMARK SMILES IDX 69 88 75 89 70 90 71 91 72 92 73 93 74 94 53 95 54 96 62 97
REMARK SMILES IDX 55 98 61 99 56 100 57 101 58 102 59 103 60 104
REMARK H PARENT 18 7 12 15 25 41 81 60 51 71
REMARK Flexibility Score: inf
ROOT
ATOM      1  C   UNL A   1      31.354  27.192  27.144  1.00  0.00     0.002 C 
ENDROOT
BRANCH   1   2
ATOM      2  C   UNL A   1      30.336  27.125  25.990  1.00  0.00     0.021 C 
BRANCH   2   3
ATOM      3  C   UNL A   1      30.141  25.733  25.384  1.00  0.00     0.116 C 
BRANCH   3   4
ATOM      4  N   UNL A   1      29.745  24.800  26.416  1.00  0.00    -0.352 N 
ATOM      5  C   UNL A   1      30.261  23.637  26.923  1.00  0.00     0.251 C 
ATOM      6  O   UNL A   1      29.478  22.985  27.624  1.00  0.00    -0.269 OA
ATOM      7  H   UNL A   1      28.905  25.064  26.859  1.00  0.00     0.163 HD
BRANCH   5   8
ATOM      8  C   UNL A   1      31.685  23.153  26.812  1.00  0.00     0.042 A 
ATOM      9  C   UNL A   1      33.391  22.586  25.134  1.00  0.00     0.073 A 
ATOM     10  C   UNL A   1      32.249  23.318  25.543  1.00  0.00     0.042 A 
ATOM     11  C   UNL A   1      34.240  21.906  26.015  1.00  0.00     0.061 A 
ATOM     12  C   UNL A   1      33.710  21.862  27.338  1.00  0.00     0.029 A 
ATOM     13  C   UNL A   1      32.444  22.426  27.720  1.00  0.00     0.016 A 
BRANCH   9  14
ATOM     14  N   UNL A   1      33.359  22.119  23.783  1.00  0.00    -0.277 N 
ATOM     15  H   UNL A   1      33.034  21.228  23.516  1.00  0.00     0.180 HD
BRANCH  14  16
ATOM     16  S   UNL A   1      33.957  23.305  22.670  1.00  0.00     0.262 S 
ATOM     17  O   UNL A   1      33.466  22.948  21.362  1.00  0.00    -0.201 OA
ATOM     18  O   UNL A   1      35.398  23.317  22.869  1.00  0.00    -0.201 OA
BRANCH  16  19
ATOM     19  C   UNL A   1      33.303  24.950  23.072  1.00  0.00     0.093 A 
ATOM     20  C   UNL A   1      34.888  25.416  25.000  1.00  0.00     0.046 C 
ATOM     21  C   UNL A   1      33.881  25.835  23.982  1.00  0.00    -0.030 A 
ATOM     22  C   UNL A   1      33.491  27.202  23.961  1.00  0.00     0.008 A 
ATOM     23  C   UNL A   1      32.474  27.671  23.130  1.00  0.00     0.039 A 
ATOM     24  C   UNL A   1      32.226  25.438  22.343  1.00  0.00     0.061 A 
ATOM     25  C   UNL A   1      31.806  26.759  22.358  1.00  0.00     0.124 A 
ATOM     26  F   UNL A   1      30.748  27.130  21.622  1.00  0.00    -0.207 F 
ENDBRANCH  16  19
ENDBRANCH  14  16
ENDBRANCH   9  14
BRANCH  11  27
ATOM     27  N   UNL A   1      35.401  21.198  25.588  1.00  0.00    -0.369 N 
ATOM     28  C   UNL A   1      36.649  21.976  25.625  1.00  0.00     0.144 C 
BRANCH  27  29
ATOM     29  C   UNL A   1      35.447  20.004  24.625  1.00  0.00     0.151 C 
BRANCH  29  30
ATOM     30  C   UNL A   1      34.529  18.740  24.696  1.00  0.00    -0.029 A 
ATOM     31  C   UNL A   1      33.153  18.666  25.002  1.00  0.00     0.005 A 
ATOM     32  C   UNL A   1      35.156  17.481  24.584  1.00  0.00     0.005 A 
ATOM     33  C   UNL A   1      32.405  17.480  24.837  1.00  0.00     0.000 A 
ATOM     34  C   UNL A   1      34.434  16.272  24.543  1.00  0.00     0.000 A 
ATOM     35  C   UNL A   1      33.048  16.281  24.582  1.00  0.00     0.000 A 
ENDBRANCH  29  30
ENDBRANCH  27  29
ENDBRANCH  11  27
ENDBRANCH   5   8
ENDBRANCH   3   4
ENDBRANCH   2   3
ENDBRANCH   1   2
BRANCH   1  36
ATOM     36  C   UNL A   1      32.168  28.487  27.251  1.00  0.00     0.002 C 
BRANCH  36  37
ATOM     37  C   UNL A   1      33.685  28.321  27.138  1.00  0.00     0.021 C 
BRANCH  37  38
ATOM     38  C   UNL A   1      34.402  29.456  26.414  1.00  0.00     0.116 C 
BRANCH  38  39
ATOM     39  N   UNL A   1      34.070  30.755  26.974  1.00  0.00    -0.352 N 
ATOM     40  C   UNL A   1      34.607  31.403  28.057  1.00  0.00     0.251 C 
ATOM     41  H   UNL A   1      33.352  31.241  26.508  1.00  0.00     0.163 HD
ATOM     42  O   UNL A   1      34.038  32.390  28.515  1.00  0.00    -0.269 OA
BRANCH  40  43
ATOM     43  C   UNL A   1      35.857  30.913  28.680  1.00  0.00     0.039 A 
ATOM     44  C   UNL A   1      37.061  31.539  28.348  1.00  0.00     0.014 A 
ATOM     45  C   UNL A   1      35.854  29.825  29.560  1.00  0.00     0.014 A 
ATOM     46  C   UNL A   1      38.251  31.102  28.933  1.00  0.00     0.010 A 
ATOM     47  C   UNL A   1      37.029  29.444  30.203  1.00  0.00     0.010 A 
ATOM     48  C   UNL A   1      38.243  30.072  29.890  1.00  0.00    -0.014 A 
BRANCH  48  49
ATOM     49  C   UNL A   1      39.501  29.674  30.574  1.00  0.00     0.031 A 
ATOM     50  C   UNL A   1      40.355  28.559  30.036  1.00  0.00     0.074 A 
ATOM     51  C   UNL A   1      39.863  30.320  31.700  1.00  0.00     0.049 A 
ATOM     52  N   UNL A   1      41.515  28.131  30.467  1.00  0.00    -0.248 NA
ATOM     53  C   UNL A   1      39.835  27.814  28.879  1.00  0.00     0.031 C 
ATOM     54  C   UNL A   1      39.091  31.381  32.351  1.00  0.00     0.029 A 
ATOM     55  N   UNL A   1      40.981  30.194  32.486  1.00  0.00    -0.354 N 
ATOM     56  C   UNL A   1      41.861  27.070  29.638  1.00  0.00     0.074 A 
ATOM     57  C   UNL A   1      40.760  26.878  28.720  1.00  0.00     0.031 C 
ATOM     58  C   UNL A   1      39.782  31.847  33.402  1.00  0.00     0.029 A 
ATOM     59  C   UNL A   1      41.025  31.093  33.525  1.00  0.00     0.049 A 
ATOM     60  H   UNL A   1      41.683  29.524  32.322  1.00  0.00     0.167 HD
ATOM     61  C   UNL A   1      43.001  26.336  29.627  1.00  0.00     0.031 A 
ATOM     62  C   UNL A   1      41.966  31.297  34.467  1.00  0.00     0.031 A 
ATOM     63  C   UNL A   1      44.089  26.524  30.553  1.00  0.00     0.049 A 
ATOM     64  C   UNL A   1      43.217  30.466  34.441  1.00  0.00     0.074 A 
ATOM     65  C   UNL A   1      45.307  25.868  30.596  1.00  0.00     0.029 A 
ATOM     66  N   UNL A   1      44.087  27.430  31.605  1.00  0.00    -0.354 N 
ATOM     67  N   UNL A   1      43.561  29.520  33.599  1.00  0.00    -0.248 NA
ATOM     68  C   UNL A   1      44.213  30.743  35.483  1.00  0.00     0.031 C 
ATOM     69  C   UNL A   1      46.013  26.329  31.713  1.00  0.00     0.029 A 
ATOM     70  C   UNL A   1      45.268  27.324  32.324  1.00  0.00     0.049 A 
ATOM     71  H   UNL A   1      43.356  28.055  31.810  1.00  0.00     0.167 HD
ATOM     72  C   UNL A   1      44.824  29.099  34.000  1.00  0.00     0.074 A 
ATOM     73  C   UNL A   1      45.192  29.919  35.139  1.00  0.00     0.031 C 
ATOM     74  C   UNL A   1      45.609  28.125  33.475  1.00  0.00     0.031 A 
BRANCH  61  75
ATOM     75  C   UNL A   1      43.117  25.248  28.588  1.00  0.00    -0.014 A 
ATOM     76  C   UNL A   1      42.618  23.953  28.827  1.00  0.00     0.010 A 
ATOM     77  C   UNL A   1      43.711  25.528  27.344  1.00  0.00     0.010 A 
ATOM     78  C   UNL A   1      42.759  22.949  27.865  1.00  0.00     0.020 A 
ATOM     79  C   UNL A   1      43.823  24.535  26.365  1.00  0.00     0.020 A 
ATOM     80  C   UNL A   1      43.365  23.245  26.641  1.00  0.00     0.054 A 
BRANCH  80  81
ATOM     81  S   UNL A   1      43.529  21.924  25.409  1.00  0.00     0.124 S 
ATOM     82  O   UNL A   1      44.863  21.403  25.703  1.00  0.00    -0.237 OA
ATOM     83  O   UNL A   1      42.421  21.034  25.745  1.00  0.00    -0.237 OA
ATOM     84  O   UNL A   1      43.401  22.620  24.132  1.00  0.00    -0.744 OA
ENDBRANCH  80  81
ENDBRANCH  61  75
BRANCH  62  85
ATOM     85  C   UNL A   1      41.765  32.358  35.493  1.00  0.00    -0.014 A 
ATOM     86  C   UNL A   1      42.268  33.655  35.291  1.00  0.00     0.010 A 
ATOM     87  C   UNL A   1      41.041  32.082  36.667  1.00  0.00     0.010 A 
ATOM     88  C   UNL A   1      42.061  34.653  36.248  1.00  0.00     0.020 A 
ATOM     89  C   UNL A   1      40.804  33.085  37.611  1.00  0.00     0.020 A 
ATOM     90  C   UNL A   1      41.323  34.362  37.399  1.00  0.00     0.054 A 
BRANCH  90  91
ATOM     91  S   UNL A   1      41.008  35.690  38.594  1.00  0.00     0.124 S 
ATOM     92  O   UNL A   1      41.092  34.981  39.866  1.00  0.00    -0.237 OA
ATOM     93  O   UNL A   1      42.095  36.626  38.317  1.00  0.00    -0.237 OA
ATOM     94  O   UNL A   1      39.676  36.170  38.229  1.00  0.00    -0.744 OA
ENDBRANCH  90  91
ENDBRANCH  62  85
BRANCH  74  95
ATOM     95  C   UNL A   1      46.949  27.903  34.129  1.00  0.00    -0.014 A 
ATOM     96  C   UNL A   1      48.093  28.604  33.705  1.00  0.00     0.010 A 
ATOM     97  C   UNL A   1      47.066  26.982  35.186  1.00  0.00     0.010 A 
ATOM     98  C   UNL A   1      49.339  28.340  34.279  1.00  0.00     0.020 A 
ATOM     99  C   UNL A   1      48.302  26.742  35.788  1.00  0.00     0.020 A 
ATOM    100  C   UNL A   1      49.437  27.405  35.314  1.00  0.00     0.054 A 
BRANCH 100 101
ATOM    101  S   UNL A   1      51.065  27.075  36.042  1.00  0.00     0.124 S 
ATOM    102  O   UNL A   1      51.913  28.026  35.327  1.00  0.00    -0.237 OA
ATOM    103  O   UNL A   1      50.848  27.367  37.457  1.00  0.00    -0.237 OA
ATOM    104  O   UNL A   1      51.306  25.669  35.730  1.00  0.00    -0.744 OA
ENDBRANCH 100 101
ENDBRANCH  74  95
ENDBRANCH  48  49
ENDBRANCH  40  43
ENDBRANCH  38  39
ENDBRANCH  37  38
ENDBRANCH  36  37
ENDBRANCH   1  36
TORSDOF 22
ENDMDL
