MODEL 1
REMARK VINA RESULT:     -11.9      0.000      0.000
REMARK SMILES CC(C)Cc1ccc(S(=O)(=O)Nc2cnc(N3CCCC3)c(C(=O)NCCCCCCNC(=O)c3ccc(-c4c5nc(c(-c6ccc(S(=O)(=O)[O-])cc6)c6ccc([nH]6)c(-c6ccc(S(=O)(=O)[O-])cc6)c6nc(c(-c7ccc(S(=O)(=O)[O-])cc7)c7ccc4[nH]7)C=C6)C=C5)cc3)c2)cc1
REMARK SMILES IDX 27 1 26 2 25 3 23 4 24 5 22 7 13 8 14 9 95 10 15 11 16 12
REMARK SMILES IDX 12 13 9 15 10 16 11 17 8 18 5 19 6 20 97 21 7 22 96 23 4 24
REMARK SMILES IDX 2 25 1 26 3 27 17 28 18 29 21 30 19 31 20 32 28 33 29 34
REMARK SMILES IDX 30 35 31 36 32 37 33 38 34 40 35 41 36 42 94 43 37 44 93 45
REMARK SMILES IDX 38 46 39 47 40 48 87 49 41 50 92 51 86 52 88 53 42 54 91 55
REMARK SMILES IDX 85 56 84 57 43 59 73 60 54 61 72 62 55 63 58 64 71 65 89 66
REMARK SMILES IDX 56 67 57 68 70 70 90 71 59 72 44 73 45 74 53 75 46 76 52 77
REMARK SMILES IDX 47 78 48 79 49 80 50 81 51 82 74 83 75 84 83 85 76 86 82 87
REMARK SMILES IDX 77 88 78 89 79 90 80 91 81 92 60 93 61 94 69 95 62 96 68 97
REMARK SMILES IDX 63 98 64 99 65 100 66 101 67 102
REMARK H PARENT 25 6 12 14 32 39 88 58 58 69
REMARK Flexibility Score: inf
ROOT
ATOM      1  C   UNL A   1      37.376  22.313  25.522  1.00  0.00     0.021 C 
ENDROOT
BRANCH   1   2
ATOM      2  C   UNL A   1      36.414  21.220  25.067  1.00  0.00     0.116 C 
BRANCH   2   3
ATOM      3  N   UNL A   1      35.383  21.020  26.062  1.00  0.00    -0.352 N 
ATOM      4  C   UNL A   1      34.014  21.002  26.097  1.00  0.00     0.255 C 
ATOM      5  O   UNL A   1      33.582  20.876  27.243  1.00  0.00    -0.269 OA
ATOM      6  H   UNL A   1      35.769  20.853  26.952  1.00  0.00     0.163 HD
BRANCH   4   7
ATOM      7  C   UNL A   1      33.114  21.029  24.886  1.00  0.00     0.084 A 
ATOM      8  C   UNL A   1      32.219  22.311  23.037  1.00  0.00     0.068 A 
ATOM      9  C   UNL A   1      32.062  21.120  22.354  1.00  0.00     0.140 A 
ATOM     10  C   UNL A   1      32.618  22.234  24.366  1.00  0.00     0.046 A 
ATOM     11  N   UNL A   1      32.375  19.916  22.870  1.00  0.00    -0.236 NA
ATOM     12  C   UNL A   1      32.910  19.857  24.120  1.00  0.00     0.141 A 
BRANCH   8  13
ATOM     13  N   UNL A   1      32.051  23.531  22.322  1.00  0.00    -0.278 N 
ATOM     14  H   UNL A   1      31.203  23.665  21.838  1.00  0.00     0.180 HD
BRANCH  13  15
ATOM     15  S   UNL A   1      33.197  24.758  22.242  1.00  0.00     0.261 S 
ATOM     16  O   UNL A   1      33.126  25.327  20.910  1.00  0.00    -0.201 OA
ATOM     17  O   UNL A   1      34.414  24.175  22.756  1.00  0.00    -0.201 OA
BRANCH  15  18
ATOM     18  C   UNL A   1      32.729  26.057  23.374  1.00  0.00     0.087 A 
ATOM     19  C   UNL A   1      32.123  28.421  24.762  1.00  0.00    -0.048 A 
ATOM     20  C   UNL A   1      33.456  28.057  24.536  1.00  0.00     0.005 A 
ATOM     21  C   UNL A   1      31.102  27.549  24.356  1.00  0.00     0.005 A 
ATOM     22  C   UNL A   1      33.759  26.885  23.839  1.00  0.00     0.022 A 
ATOM     23  C   UNL A   1      31.402  26.360  23.680  1.00  0.00     0.022 A 
BRANCH  19  24
ATOM     24  C   UNL A   1      31.790  29.748  25.405  1.00  0.00     0.038 C 
BRANCH  24  25
ATOM     25  C   UNL A   1      31.988  29.787  26.931  1.00  0.00    -0.013 C 
ATOM     26  C   UNL A   1      31.628  28.454  27.590  1.00  0.00     0.008 C 
ATOM     27  C   UNL A   1      33.443  30.141  27.254  1.00  0.00     0.008 C 
ENDBRANCH  24  25
ENDBRANCH  19  24
ENDBRANCH  15  18
ENDBRANCH  13  15
ENDBRANCH   8  13
BRANCH  12  28
ATOM     28  N   UNL A   1      33.241  18.601  24.522  1.00  0.00    -0.356 N 
ATOM     29  C   UNL A   1      32.297  17.617  25.017  1.00  0.00     0.118 C 
ATOM     30  C   UNL A   1      34.537  18.017  24.235  1.00  0.00     0.118 C 
ATOM     31  C   UNL A   1      33.225  16.637  25.726  1.00  0.00     0.023 C 
ATOM     32  C   UNL A   1      34.431  16.592  24.792  1.00  0.00     0.023 C 
ENDBRANCH  12  28
ENDBRANCH   4   7
ENDBRANCH   2   3
ENDBRANCH   1   2
BRANCH   1  33
ATOM     33  C   UNL A   1      38.786  21.783  25.823  1.00  0.00     0.002 C 
BRANCH  33  34
ATOM     34  C   UNL A   1      39.598  22.631  26.810  1.00  0.00     0.002 C 
BRANCH  34  35
ATOM     35  C   UNL A   1      40.866  21.962  27.350  1.00  0.00     0.021 C 
BRANCH  35  36
ATOM     36  C   UNL A   1      42.052  22.905  27.522  1.00  0.00     0.116 C 
BRANCH  36  37
ATOM     37  N   UNL A   1      42.362  23.616  26.293  1.00  0.00    -0.352 N 
ATOM     38  C   UNL A   1      42.289  24.962  26.038  1.00  0.00     0.251 C 
ATOM     39  H   UNL A   1      42.665  23.056  25.542  1.00  0.00     0.163 HD
ATOM     40  O   UNL A   1      42.413  25.378  24.890  1.00  0.00    -0.269 OA
BRANCH  38  41
ATOM     41  C   UNL A   1      42.042  25.906  27.149  1.00  0.00     0.039 A 
ATOM     42  C   UNL A   1      40.934  25.700  27.975  1.00  0.00     0.014 A 
ATOM     43  C   UNL A   1      42.891  26.997  27.364  1.00  0.00     0.014 A 
ATOM     44  C   UNL A   1      40.699  26.565  29.046  1.00  0.00     0.010 A 
ATOM     45  C   UNL A   1      42.683  27.829  28.461  1.00  0.00     0.010 A 
ATOM     46  C   UNL A   1      41.581  27.625  29.306  1.00  0.00    -0.014 A 
BRANCH  46  47
ATOM     47  C   UNL A   1      41.357  28.547  30.445  1.00  0.00     0.031 A 
ATOM     48  C   UNL A   1      42.212  28.439  31.677  1.00  0.00     0.074 A 
ATOM     49  C   UNL A   1      40.348  29.439  30.397  1.00  0.00     0.049 A 
ATOM     50  N   UNL A   1      42.125  29.101  32.802  1.00  0.00    -0.248 NA
ATOM     51  C   UNL A   1      43.293  27.440  31.648  1.00  0.00     0.031 C 
ATOM     52  C   UNL A   1      39.427  29.617  29.272  1.00  0.00     0.029 A 
ATOM     53  N   UNL A   1      39.922  30.354  31.325  1.00  0.00    -0.354 N 
ATOM     54  C   UNL A   1      43.121  28.584  33.623  1.00  0.00     0.074 A 
ATOM     55  C   UNL A   1      43.779  27.533  32.878  1.00  0.00     0.031 C 
ATOM     56  C   UNL A   1      38.555  30.594  29.571  1.00  0.00     0.029 A 
ATOM     57  C   UNL A   1      38.834  31.088  30.916  1.00  0.00     0.049 A 
ATOM     58  H   UNL A   1      40.355  30.476  32.201  1.00  0.00     0.167 HD
ATOM     59  C   UNL A   1      43.464  28.957  34.878  1.00  0.00     0.031 A 
ATOM     60  C   UNL A   1      38.136  32.046  31.555  1.00  0.00     0.031 A 
ATOM     61  C   UNL A   1      42.823  30.016  35.611  1.00  0.00     0.049 A 
ATOM     62  C   UNL A   1      38.549  32.460  32.939  1.00  0.00     0.074 A 
ATOM     63  C   UNL A   1      43.131  30.502  36.869  1.00  0.00     0.029 A 
ATOM     64  N   UNL A   1      41.745  30.754  35.148  1.00  0.00    -0.354 N 
ATOM     65  N   UNL A   1      39.524  31.990  33.681  1.00  0.00    -0.248 NA
ATOM     66  C   UNL A   1      37.776  33.539  33.569  1.00  0.00     0.031 C 
ATOM     67  C   UNL A   1      42.220  31.518  37.179  1.00  0.00     0.029 A 
ATOM     68  C   UNL A   1      41.370  31.688  36.099  1.00  0.00     0.049 A 
ATOM     69  H   UNL A   1      41.311  30.633  34.273  1.00  0.00     0.167 HD
ATOM     70  C   UNL A   1      39.494  32.732  34.855  1.00  0.00     0.074 A 
ATOM     71  C   UNL A   1      38.413  33.687  34.723  1.00  0.00     0.031 C 
ATOM     72  C   UNL A   1      40.293  32.632  35.947  1.00  0.00     0.031 A 
BRANCH  59  73
ATOM     73  C   UNL A   1      44.587  28.204  35.537  1.00  0.00    -0.014 A 
ATOM     74  C   UNL A   1      45.919  28.635  35.411  1.00  0.00     0.010 A 
ATOM     75  C   UNL A   1      44.305  27.060  36.305  1.00  0.00     0.010 A 
ATOM     76  C   UNL A   1      46.957  27.910  36.003  1.00  0.00     0.020 A 
ATOM     77  C   UNL A   1      45.338  26.344  36.918  1.00  0.00     0.020 A 
ATOM     78  C   UNL A   1      46.659  26.763  36.745  1.00  0.00     0.054 A 
BRANCH  78  79
ATOM     79  S   UNL A   1      48.021  25.839  37.509  1.00  0.00     0.124 S 
ATOM     80  O   UNL A   1      48.978  26.904  37.803  1.00  0.00    -0.237 OA
ATOM     81  O   UNL A   1      47.386  25.228  38.674  1.00  0.00    -0.237 OA
ATOM     82  O   UNL A   1      48.431  24.903  36.464  1.00  0.00    -0.744 OA
ENDBRANCH  78  79
ENDBRANCH  59  73
BRANCH  60  83
ATOM     83  C   UNL A   1      36.985  32.698  30.875  1.00  0.00    -0.014 A 
ATOM     84  C   UNL A   1      37.181  33.854  30.101  1.00  0.00     0.010 A 
ATOM     85  C   UNL A   1      35.694  32.150  30.980  1.00  0.00     0.010 A 
ATOM     86  C   UNL A   1      36.103  34.460  29.450  1.00  0.00     0.020 A 
ATOM     87  C   UNL A   1      34.617  32.743  30.314  1.00  0.00     0.020 A 
ATOM     88  C   UNL A   1      34.828  33.900  29.561  1.00  0.00     0.054 A 
BRANCH  88  89
ATOM     89  S   UNL A   1      33.451  34.661  28.655  1.00  0.00     0.124 S 
ATOM     90  O   UNL A   1      32.989  33.557  27.821  1.00  0.00    -0.237 OA
ATOM     91  O   UNL A   1      32.547  35.066  29.729  1.00  0.00    -0.237 OA
ATOM     92  O   UNL A   1      34.086  35.766  27.941  1.00  0.00    -0.744 OA
ENDBRANCH  88  89
ENDBRANCH  60  83
BRANCH  72  93
ATOM     93  C   UNL A   1      40.048  33.599  37.070  1.00  0.00    -0.014 A 
ATOM     94  C   UNL A   1      40.778  34.797  37.167  1.00  0.00     0.010 A 
ATOM     95  C   UNL A   1      39.036  33.331  38.009  1.00  0.00     0.010 A 
ATOM     96  C   UNL A   1      40.515  35.700  38.200  1.00  0.00     0.020 A 
ATOM     97  C   UNL A   1      38.757  34.240  39.032  1.00  0.00     0.020 A 
ATOM     98  C   UNL A   1      39.508  35.414  39.129  1.00  0.00     0.054 A 
BRANCH  98  99
ATOM     99  S   UNL A   1      39.148  36.621  40.434  1.00  0.00     0.124 S 
ATOM    100  O   UNL A   1      40.470  36.847  41.010  1.00  0.00    -0.237 OA
ATOM    101  O   UNL A   1      38.586  37.747  39.690  1.00  0.00    -0.237 OA
ATOM    102  O   UNL A   1      38.201  35.921  41.298  1.00  0.00    -0.744 OA
ENDBRANCH  98  99
ENDBRANCH  72  93
ENDBRANCH  46  47
ENDBRANCH  38  41
ENDBRANCH  36  37
ENDBRANCH  35  36
ENDBRANCH  34  35
ENDBRANCH  33  34
ENDBRANCH   1  33
TORSDOF 22
ENDMDL
MODEL 2
REMARK VINA RESULT:     -11.9      0.924      7.801
REMARK SMILES CC(C)Cc1ccc(S(=O)(=O)Nc2cnc(N3CCCC3)c(C(=O)NCCCCCCNC(=O)c3ccc(-c4c5nc(c(-c6ccc(S(=O)(=O)[O-])cc6)c6ccc([nH]6)c(-c6ccc(S(=O)(=O)[O-])cc6)c6nc(c(-c7ccc(S(=O)(=O)[O-])cc7)c7ccc4[nH]7)C=C6)C=C5)cc3)c2)cc1
REMARK SMILES IDX 27 1 26 2 25 3 23 4 24 5 22 7 13 8 14 9 95 10 15 11 16 12
REMARK SMILES IDX 12 13 9 15 10 16 11 17 8 18 5 19 6 20 97 21 7 22 96 23 4 24
REMARK SMILES IDX 2 25 1 26 3 27 17 28 18 29 21 30 19 31 20 32 28 33 29 34
REMARK SMILES IDX 30 35 31 36 32 37 33 38 34 40 35 41 36 42 94 43 37 44 93 45
REMARK SMILES IDX 38 46 39 47 40 48 87 49 41 50 92 51 86 52 88 53 42 54 91 55
REMARK SMILES IDX 85 56 84 57 43 59 73 60 54 61 72 62 55 63 58 64 71 65 89 66
REMARK SMILES IDX 56 67 57 68 70 70 90 71 59 72 44 73 45 74 53 75 46 76 52 77
REMARK SMILES IDX 47 78 48 79 49 80 50 81 51 82 74 83 75 84 83 85 76 86 82 87
REMARK SMILES IDX 77 88 78 89 79 90 80 91 81 92 60 93 61 94 69 95 62 96 68 97
REMARK SMILES IDX 63 98 64 99 65 100 66 101 67 102
REMARK H PARENT 25 6 12 14 32 39 88 58 58 69
REMARK Flexibility Score: inf
ROOT
ATOM      1  C   UNL A   1      37.051  22.540  25.664  1.00  0.00     0.021 C 
ENDROOT
BRANCH   1   2
ATOM      2  C   UNL A   1      36.281  21.268  25.322  1.00  0.00     0.116 C 
BRANCH   2   3
ATOM      3  N   UNL A   1      35.220  21.058  26.283  1.00  0.00    -0.352 N 
ATOM      4  C   UNL A   1      33.850  21.062  26.280  1.00  0.00     0.255 C 
ATOM      5  O   UNL A   1      33.384  20.911  27.409  1.00  0.00    -0.269 OA
ATOM      6  H   UNL A   1      35.578  20.859  27.178  1.00  0.00     0.163 HD
BRANCH   4   7
ATOM      7  C   UNL A   1      32.984  21.139  25.046  1.00  0.00     0.084 A 
ATOM      8  C   UNL A   1      32.123  22.502  23.239  1.00  0.00     0.068 A 
ATOM      9  C   UNL A   1      32.004  21.345  22.492  1.00  0.00     0.140 A 
ATOM     10  C   UNL A   1      32.485  22.362  24.573  1.00  0.00     0.046 A 
ATOM     11  N   UNL A   1      32.321  20.121  22.954  1.00  0.00    -0.236 NA
ATOM     12  C   UNL A   1      32.820  20.005  24.215  1.00  0.00     0.141 A 
BRANCH   8  13
ATOM     13  N   UNL A   1      31.957  23.755  22.582  1.00  0.00    -0.278 N 
ATOM     14  H   UNL A   1      31.040  24.036  22.359  1.00  0.00     0.180 HD
BRANCH  13  15
ATOM     15  S   UNL A   1      33.216  24.786  22.159  1.00  0.00     0.261 S 
ATOM     16  O   UNL A   1      32.868  25.387  20.885  1.00  0.00    -0.201 OA
ATOM     17  O   UNL A   1      34.419  24.007  22.329  1.00  0.00    -0.201 OA
BRANCH  15  18
ATOM     18  C   UNL A   1      33.291  26.118  23.345  1.00  0.00     0.087 A 
ATOM     19  C   UNL A   1      33.864  28.000  25.348  1.00  0.00    -0.048 A 
ATOM     20  C   UNL A   1      33.468  26.702  25.692  1.00  0.00     0.005 A 
ATOM     21  C   UNL A   1      33.893  28.366  23.995  1.00  0.00     0.005 A 
ATOM     22  C   UNL A   1      33.190  25.762  24.696  1.00  0.00     0.022 A 
ATOM     23  C   UNL A   1      33.589  27.435  22.993  1.00  0.00     0.022 A 
BRANCH  19  24
ATOM     24  C   UNL A   1      34.286  28.980  26.420  1.00  0.00     0.038 C 
BRANCH  24  25
ATOM     25  C   UNL A   1      33.308  30.147  26.640  1.00  0.00    -0.013 C 
ATOM     26  C   UNL A   1      31.927  29.662  27.087  1.00  0.00     0.008 C 
ATOM     27  C   UNL A   1      33.877  31.107  27.689  1.00  0.00     0.008 C 
ENDBRANCH  24  25
ENDBRANCH  19  24
ENDBRANCH  15  18
ENDBRANCH  13  15
ENDBRANCH   8  13
BRANCH  12  28
ATOM     28  N   UNL A   1      33.158  18.735  24.562  1.00  0.00    -0.356 N 
ATOM     29  C   UNL A   1      32.218  17.722  25.003  1.00  0.00     0.118 C 
ATOM     30  C   UNL A   1      34.462  18.175  24.260  1.00  0.00     0.118 C 
ATOM     31  C   UNL A   1      33.149  16.718  25.675  1.00  0.00     0.023 C 
ATOM     32  C   UNL A   1      34.363  16.726  24.751  1.00  0.00     0.023 C 
ENDBRANCH  12  28
ENDBRANCH   4   7
ENDBRANCH   2   3
ENDBRANCH   1   2
BRANCH   1  33
ATOM     33  C   UNL A   1      38.564  22.307  25.794  1.00  0.00     0.002 C 
BRANCH  33  34
ATOM     34  C   UNL A   1      39.257  23.149  26.872  1.00  0.00     0.002 C 
BRANCH  34  35
ATOM     35  C   UNL A   1      40.595  22.594  27.369  1.00  0.00     0.021 C 
BRANCH  35  36
ATOM     36  C   UNL A   1      41.730  23.613  27.395  1.00  0.00     0.116 C 
BRANCH  36  37
ATOM     37  N   UNL A   1      41.719  24.467  26.220  1.00  0.00    -0.352 N 
ATOM     38  C   UNL A   1      41.423  25.804  26.134  1.00  0.00     0.251 C 
ATOM     39  H   UNL A   1      41.955  24.027  25.371  1.00  0.00     0.163 HD
ATOM     40  O   UNL A   1      41.284  26.333  25.035  1.00  0.00    -0.269 OA
BRANCH  38  41
ATOM     41  C   UNL A   1      41.254  26.599  27.369  1.00  0.00     0.039 A 
ATOM     42  C   UNL A   1      42.132  27.657  27.616  1.00  0.00     0.014 A 
ATOM     43  C   UNL A   1      40.241  26.292  28.284  1.00  0.00     0.014 A 
ATOM     44  C   UNL A   1      41.971  28.436  28.764  1.00  0.00     0.010 A 
ATOM     45  C   UNL A   1      40.052  27.099  29.402  1.00  0.00     0.010 A 
ATOM     46  C   UNL A   1      40.919  28.173  29.656  1.00  0.00    -0.014 A 
BRANCH  46  47
ATOM     47  C   UNL A   1      40.723  28.997  30.873  1.00  0.00     0.031 A 
ATOM     48  C   UNL A   1      39.644  30.043  30.904  1.00  0.00     0.074 A 
ATOM     49  C   UNL A   1      41.551  28.846  31.925  1.00  0.00     0.049 A 
ATOM     50  N   UNL A   1      39.363  30.910  31.843  1.00  0.00    -0.248 NA
ATOM     51  C   UNL A   1      38.782  30.142  29.715  1.00  0.00     0.031 C 
ATOM     52  C   UNL A   1      42.657  27.888  32.003  1.00  0.00     0.029 A 
ATOM     53  N   UNL A   1      41.597  29.506  33.126  1.00  0.00    -0.354 N 
ATOM     54  C   UNL A   1      38.310  31.673  31.350  1.00  0.00     0.074 A 
ATOM     55  C   UNL A   1      38.024  31.187  30.018  1.00  0.00     0.031 C 
ATOM     56  C   UNL A   1      43.262  28.015  33.195  1.00  0.00     0.029 A 
ATOM     57  C   UNL A   1      42.609  29.079  33.951  1.00  0.00     0.049 A 
ATOM     58  H   UNL A   1      40.965  30.219  33.374  1.00  0.00     0.167 HD
ATOM     59  C   UNL A   1      37.636  32.679  31.955  1.00  0.00     0.031 A 
ATOM     60  C   UNL A   1      42.973  29.500  35.178  1.00  0.00     0.031 A 
ATOM     61  C   UNL A   1      37.908  33.149  33.287  1.00  0.00     0.049 A 
ATOM     62  C   UNL A   1      42.196  30.603  35.839  1.00  0.00     0.074 A 
ATOM     63  C   UNL A   1      37.248  34.129  34.006  1.00  0.00     0.029 A 
ATOM     64  N   UNL A   1      38.922  32.667  34.101  1.00  0.00    -0.354 N 
ATOM     65  N   UNL A   1      41.173  31.281  35.374  1.00  0.00    -0.248 NA
ATOM     66  C   UNL A   1      42.614  30.992  37.193  1.00  0.00     0.031 C 
ATOM     67  C   UNL A   1      37.880  34.260  35.248  1.00  0.00     0.029 A 
ATOM     68  C   UNL A   1      38.910  33.335  35.314  1.00  0.00     0.049 A 
ATOM     69  H   UNL A   1      39.555  31.956  33.854  1.00  0.00     0.167 HD
ATOM     70  C   UNL A   1      40.813  32.160  36.388  1.00  0.00     0.074 A 
ATOM     71  C   UNL A   1      41.719  31.923  37.493  1.00  0.00     0.031 C 
ATOM     72  C   UNL A   1      39.818  33.082  36.402  1.00  0.00     0.031 A 
BRANCH  59  73
ATOM     73  C   UNL A   1      36.538  33.342  31.169  1.00  0.00    -0.014 A 
ATOM     74  C   UNL A   1      36.698  33.621  29.799  1.00  0.00     0.010 A 
ATOM     75  C   UNL A   1      35.328  33.675  31.802  1.00  0.00     0.010 A 
ATOM     76  C   UNL A   1      35.682  34.264  29.086  1.00  0.00     0.020 A 
ATOM     77  C   UNL A   1      34.300  34.298  31.087  1.00  0.00     0.020 A 
ATOM     78  C   UNL A   1      34.493  34.607  29.738  1.00  0.00     0.054 A 
BRANCH  78  79
ATOM     79  S   UNL A   1      33.186  35.437  28.792  1.00  0.00     0.124 S 
ATOM     80  O   UNL A   1      32.356  35.997  29.856  1.00  0.00    -0.237 OA
ATOM     81  O   UNL A   1      33.929  36.411  27.998  1.00  0.00    -0.237 OA
ATOM     82  O   UNL A   1      32.573  34.353  28.028  1.00  0.00    -0.744 OA
ENDBRANCH  78  79
ENDBRANCH  59  73
BRANCH  60  83
ATOM     83  C   UNL A   1      44.120  28.854  35.869  1.00  0.00    -0.014 A 
ATOM     84  C   UNL A   1      43.915  27.723  36.677  1.00  0.00     0.010 A 
ATOM     85  C   UNL A   1      45.424  29.353  35.703  1.00  0.00     0.010 A 
ATOM     86  C   UNL A   1      44.993  27.106  37.317  1.00  0.00     0.020 A 
ATOM     87  C   UNL A   1      46.508  28.727  36.326  1.00  0.00     0.020 A 
ATOM     88  C   UNL A   1      46.283  27.612  37.136  1.00  0.00     0.054 A 
BRANCH  88  89
ATOM     89  S   UNL A   1      47.680  26.758  37.921  1.00  0.00     0.124 S 
ATOM     90  O   UNL A   1      48.494  26.386  36.769  1.00  0.00    -0.237 OA
ATOM     91  O   UNL A   1      48.242  27.794  38.786  1.00  0.00    -0.237 OA
ATOM     92  O   UNL A   1      47.045  25.649  38.628  1.00  0.00    -0.744 OA
ENDBRANCH  88  89
ENDBRANCH  60  83
BRANCH  72  93
ATOM     93  C   UNL A   1      39.638  33.881  37.662  1.00  0.00    -0.014 A 
ATOM     94  C   UNL A   1      38.818  33.414  38.705  1.00  0.00     0.010 A 
ATOM     95  C   UNL A   1      40.341  35.087  37.827  1.00  0.00     0.010 A 
ATOM     96  C   UNL A   1      38.687  34.153  39.883  1.00  0.00     0.020 A 
ATOM     97  C   UNL A   1      40.228  35.820  39.010  1.00  0.00     0.020 A 
ATOM     98  C   UNL A   1      39.390  35.354  40.026  1.00  0.00     0.054 A 
BRANCH  98  99
ATOM     99  S   UNL A   1      39.245  36.275  41.582  1.00  0.00     0.124 S 
ATOM    100  O   UNL A   1      38.061  35.669  42.184  1.00  0.00    -0.237 OA
ATOM    101  O   UNL A   1      40.510  35.983  42.253  1.00  0.00    -0.237 OA
ATOM    102  O   UNL A   1      39.085  37.661  41.148  1.00  0.00    -0.744 OA
ENDBRANCH  98  99
ENDBRANCH  72  93
ENDBRANCH  46  47
ENDBRANCH  38  41
ENDBRANCH  36  37
ENDBRANCH  35  36
ENDBRANCH  34  35
ENDBRANCH  33  34
ENDBRANCH   1  33
TORSDOF 22
ENDMDL
MODEL 3
REMARK VINA RESULT:     -11.2      5.519      9.894
REMARK SMILES CC(C)Cc1ccc(S(=O)(=O)Nc2cnc(N3CCCC3)c(C(=O)NCCCCCCNC(=O)c3ccc(-c4c5nc(c(-c6ccc(S(=O)(=O)[O-])cc6)c6ccc([nH]6)c(-c6ccc(S(=O)(=O)[O-])cc6)c6nc(c(-c7ccc(S(=O)(=O)[O-])cc7)c7ccc4[nH]7)C=C6)C=C5)cc3)c2)cc1
REMARK SMILES IDX 27 1 26 2 25 3 23 4 24 5 22 7 13 8 14 9 95 10 15 11 16 12
REMARK SMILES IDX 12 13 9 15 10 16 11 17 8 18 5 19 6 20 97 21 7 22 96 23 4 24
REMARK SMILES IDX 2 25 1 26 3 27 17 28 18 29 21 30 19 31 20 32 28 33 29 34
REMARK SMILES IDX 30 35 31 36 32 37 33 38 34 40 35 41 36 42 94 43 37 44 93 45
REMARK SMILES IDX 38 46 39 47 40 48 87 49 41 50 92 51 86 52 88 53 42 54 91 55
REMARK SMILES IDX 85 56 84 57 43 59 73 60 54 61 72 62 55 63 58 64 71 65 89 66
REMARK SMILES IDX 56 67 57 68 70 70 90 71 59 72 44 73 45 74 53 75 46 76 52 77
REMARK SMILES IDX 47 78 48 79 49 80 50 81 51 82 74 83 75 84 83 85 76 86 82 87
REMARK SMILES IDX 77 88 78 89 79 90 80 91 81 92 60 93 61 94 69 95 62 96 68 97
REMARK SMILES IDX 63 98 64 99 65 100 66 101 67 102
REMARK H PARENT 25 6 12 14 32 39 88 58 58 69
REMARK Flexibility Score: inf
ROOT
ATOM      1  C   UNL A   1      35.964  22.070  24.759  1.00  0.00     0.021 C 
ENDROOT
BRANCH   1   2
ATOM      2  C   UNL A   1      35.392  22.524  26.098  1.00  0.00     0.116 C 
BRANCH   2   3
ATOM      3  N   UNL A   1      34.596  21.466  26.682  1.00  0.00    -0.352 N 
ATOM      4  C   UNL A   1      33.465  20.766  26.354  1.00  0.00     0.255 C 
ATOM      5  O   UNL A   1      33.120  19.998  27.253  1.00  0.00    -0.269 OA
ATOM      6  H   UNL A   1      34.967  21.170  27.544  1.00  0.00     0.163 HD
BRANCH   4   7
ATOM      7  C   UNL A   1      32.759  20.828  25.022  1.00  0.00     0.084 A 
ATOM      8  C   UNL A   1      32.059  22.189  23.146  1.00  0.00     0.068 A 
ATOM      9  C   UNL A   1      32.101  21.048  22.368  1.00  0.00     0.140 A 
ATOM     10  C   UNL A   1      32.256  22.034  24.512  1.00  0.00     0.046 A 
ATOM     11  N   UNL A   1      32.425  19.831  22.844  1.00  0.00    -0.236 NA
ATOM     12  C   UNL A   1      32.766  19.709  24.156  1.00  0.00     0.141 A 
BRANCH   8  13
ATOM     13  N   UNL A   1      31.907  23.448  22.497  1.00  0.00    -0.278 N 
ATOM     14  H   UNL A   1      31.003  23.704  22.201  1.00  0.00     0.180 HD
BRANCH  13  15
ATOM     15  S   UNL A   1      33.161  24.526  22.198  1.00  0.00     0.261 S 
ATOM     16  O   UNL A   1      32.884  25.166  20.925  1.00  0.00    -0.201 OA
ATOM     17  O   UNL A   1      34.372  23.773  22.421  1.00  0.00    -0.201 OA
BRANCH  15  18
ATOM     18  C   UNL A   1      33.119  25.815  23.432  1.00  0.00     0.087 A 
ATOM     19  C   UNL A   1      33.561  27.742  25.426  1.00  0.00    -0.048 A 
ATOM     20  C   UNL A   1      33.545  26.380  25.751  1.00  0.00     0.005 A 
ATOM     21  C   UNL A   1      33.275  28.129  24.108  1.00  0.00     0.005 A 
ATOM     22  C   UNL A   1      33.333  25.420  24.760  1.00  0.00     0.022 A 
ATOM     23  C   UNL A   1      33.035  27.172  23.115  1.00  0.00     0.022 A 
BRANCH  19  24
ATOM     24  C   UNL A   1      33.914  28.775  26.472  1.00  0.00     0.038 C 
BRANCH  24  25
ATOM     25  C   UNL A   1      32.707  29.360  27.226  1.00  0.00    -0.013 C 
ATOM     26  C   UNL A   1      31.947  30.386  26.383  1.00  0.00     0.008 C 
ATOM     27  C   UNL A   1      31.757  28.230  27.636  1.00  0.00     0.008 C 
ENDBRANCH  24  25
ENDBRANCH  19  24
ENDBRANCH  15  18
ENDBRANCH  13  15
ENDBRANCH   8  13
BRANCH  12  28
ATOM     28  N   UNL A   1      33.129  18.450  24.519  1.00  0.00    -0.356 N 
ATOM     29  C   UNL A   1      32.209  17.425  24.973  1.00  0.00     0.118 C 
ATOM     30  C   UNL A   1      34.443  17.912  24.224  1.00  0.00     0.118 C 
ATOM     31  C   UNL A   1      33.159  16.448  25.657  1.00  0.00     0.023 C 
ATOM     32  C   UNL A   1      34.372  16.467  24.733  1.00  0.00     0.023 C 
ENDBRANCH  12  28
ENDBRANCH   4   7
ENDBRANCH   2   3
ENDBRANCH   1   2
BRANCH   1  33
ATOM     33  C   UNL A   1      37.434  22.474  24.567  1.00  0.00     0.002 C 
BRANCH  33  34
ATOM     34  C   UNL A   1      38.370  22.071  25.713  1.00  0.00     0.002 C 
BRANCH  34  35
ATOM     35  C   UNL A   1      38.958  20.661  25.605  1.00  0.00     0.021 C 
BRANCH  35  36
ATOM     36  C   UNL A   1      40.036  20.346  26.637  1.00  0.00     0.116 C 
BRANCH  36  37
ATOM     37  N   UNL A   1      41.104  19.537  26.074  1.00  0.00    -0.352 N 
ATOM     38  C   UNL A   1      42.366  19.922  25.699  1.00  0.00     0.251 C 
ATOM     39  H   UNL A   1      40.893  18.584  25.945  1.00  0.00     0.163 HD
ATOM     40  O   UNL A   1      43.084  19.149  25.072  1.00  0.00    -0.269 OA
BRANCH  38  41
ATOM     41  C   UNL A   1      42.849  21.278  26.035  1.00  0.00     0.039 A 
ATOM     42  C   UNL A   1      43.229  21.551  27.352  1.00  0.00     0.014 A 
ATOM     43  C   UNL A   1      42.914  22.278  25.059  1.00  0.00     0.014 A 
ATOM     44  C   UNL A   1      43.714  22.818  27.683  1.00  0.00     0.010 A 
ATOM     45  C   UNL A   1      43.443  23.524  25.380  1.00  0.00     0.010 A 
ATOM     46  C   UNL A   1      43.840  23.808  26.696  1.00  0.00    -0.014 A 
BRANCH  46  47
ATOM     47  C   UNL A   1      44.365  25.156  27.024  1.00  0.00     0.031 A 
ATOM     48  C   UNL A   1      43.442  26.205  27.578  1.00  0.00     0.074 A 
ATOM     49  C   UNL A   1      45.654  25.453  26.769  1.00  0.00     0.049 A 
ATOM     50  N   UNL A   1      43.692  27.459  27.857  1.00  0.00    -0.248 NA
ATOM     51  C   UNL A   1      42.050  25.798  27.829  1.00  0.00     0.031 C 
ATOM     52  C   UNL A   1      46.641  24.532  26.201  1.00  0.00     0.029 A 
ATOM     53  N   UNL A   1      46.350  26.622  26.943  1.00  0.00    -0.354 N 
ATOM     54  C   UNL A   1      42.485  27.996  28.293  1.00  0.00     0.074 A 
ATOM     55  C   UNL A   1      41.499  26.941  28.211  1.00  0.00     0.031 C 
ATOM     56  C   UNL A   1      47.819  25.167  26.089  1.00  0.00     0.029 A 
ATOM     57  C   UNL A   1      47.664  26.544  26.546  1.00  0.00     0.049 A 
ATOM     58  H   UNL A   1      45.949  27.438  27.318  1.00  0.00     0.167 HD
ATOM     59  C   UNL A   1      42.225  29.250  28.732  1.00  0.00     0.031 A 
ATOM     60  C   UNL A   1      48.633  27.480  26.545  1.00  0.00     0.031 A 
ATOM     61  C   UNL A   1      43.211  30.293  28.831  1.00  0.00     0.049 A 
ATOM     62  C   UNL A   1      48.327  28.858  27.057  1.00  0.00     0.074 A 
ATOM     63  C   UNL A   1      43.056  31.582  29.311  1.00  0.00     0.029 A 
ATOM     64  N   UNL A   1      44.537  30.164  28.448  1.00  0.00    -0.354 N 
ATOM     65  N   UNL A   1      47.191  29.334  27.509  1.00  0.00    -0.248 NA
ATOM     66  C   UNL A   1      49.434  29.824  27.070  1.00  0.00     0.031 C 
ATOM     67  C   UNL A   1      44.284  32.242  29.192  1.00  0.00     0.029 A 
ATOM     68  C   UNL A   1      45.211  31.352  28.673  1.00  0.00     0.049 A 
ATOM     69  H   UNL A   1      44.939  29.348  28.073  1.00  0.00     0.167 HD
ATOM     70  C   UNL A   1      47.453  30.648  27.880  1.00  0.00     0.074 A 
ATOM     71  C   UNL A   1      48.856  30.889  27.609  1.00  0.00     0.031 C 
ATOM     72  C   UNL A   1      46.608  31.571  28.400  1.00  0.00     0.031 A 
BRANCH  59  73
ATOM     73  C   UNL A   1      40.808  29.559  29.132  1.00  0.00    -0.014 A 
ATOM     74  C   UNL A   1      40.476  29.814  30.474  1.00  0.00     0.010 A 
ATOM     75  C   UNL A   1      39.800  29.610  28.153  1.00  0.00     0.010 A 
ATOM     76  C   UNL A   1      39.151  30.070  30.838  1.00  0.00     0.020 A 
ATOM     77  C   UNL A   1      38.477  29.888  28.509  1.00  0.00     0.020 A 
ATOM     78  C   UNL A   1      38.159  30.096  29.853  1.00  0.00     0.054 A 
BRANCH  78  79
ATOM     79  S   UNL A   1      36.446  30.435  30.347  1.00  0.00     0.124 S 
ATOM     80  O   UNL A   1      36.289  29.556  31.504  1.00  0.00    -0.237 OA
ATOM     81  O   UNL A   1      36.470  31.864  30.644  1.00  0.00    -0.237 OA
ATOM     82  O   UNL A   1      35.667  30.060  29.169  1.00  0.00    -0.744 OA
ENDBRANCH  78  79
ENDBRANCH  59  73
BRANCH  60  83
ATOM     83  C   UNL A   1      49.995  27.131  26.061  1.00  0.00    -0.014 A 
ATOM     84  C   UNL A   1      50.919  26.519  26.925  1.00  0.00     0.010 A 
ATOM     85  C   UNL A   1      50.364  27.386  24.728  1.00  0.00     0.010 A 
ATOM     86  C   UNL A   1      52.195  26.177  26.468  1.00  0.00     0.020 A 
ATOM     87  C   UNL A   1      51.633  27.028  24.263  1.00  0.00     0.020 A 
ATOM     88  C   UNL A   1      52.543  26.434  25.140  1.00  0.00     0.054 A 
BRANCH  88  89
ATOM     89  S   UNL A   1      54.181  25.923  24.546  1.00  0.00     0.124 S 
ATOM     90  O   UNL A   1      54.098  26.233  23.122  1.00  0.00    -0.237 OA
ATOM     91  O   UNL A   1      55.082  26.768  25.326  1.00  0.00    -0.237 OA
ATOM     92  O   UNL A   1      54.233  24.501  24.879  1.00  0.00    -0.744 OA
ENDBRANCH  88  89
ENDBRANCH  60  83
BRANCH  72  93
ATOM     93  C   UNL A   1      47.183  32.917  28.740  1.00  0.00    -0.014 A 
ATOM     94  C   UNL A   1      47.875  33.126  29.945  1.00  0.00     0.010 A 
ATOM     95  C   UNL A   1      47.076  33.972  27.815  1.00  0.00     0.010 A 
ATOM     96  C   UNL A   1      48.432  34.375  30.231  1.00  0.00     0.020 A 
ATOM     97  C   UNL A   1      47.646  35.217  28.089  1.00  0.00     0.020 A 
ATOM     98  C   UNL A   1      48.310  35.414  29.301  1.00  0.00     0.054 A 
BRANCH  98  99
ATOM     99  S   UNL A   1      49.081  37.015  29.668  1.00  0.00     0.124 S 
ATOM    100  O   UNL A   1      50.420  36.616  30.092  1.00  0.00    -0.237 OA
ATOM    101  O   UNL A   1      49.011  37.712  28.386  1.00  0.00    -0.237 OA
ATOM    102  O   UNL A   1      48.233  37.572  30.720  1.00  0.00    -0.744 OA
ENDBRANCH  98  99
ENDBRANCH  72  93
ENDBRANCH  46  47
ENDBRANCH  38  41
ENDBRANCH  36  37
ENDBRANCH  35  36
ENDBRANCH  34  35
ENDBRANCH  33  34
ENDBRANCH   1  33
TORSDOF 22
ENDMDL
