MODEL 1
REMARK VINA RESULT:     -12.0      0.000      0.000
REMARK SMILES Cn1cc(C(=O)NCCCCCCNC(=O)c2ccc(-c3c4nc(c(-c5ccc(S(=O)(=O)[O-])cc5)c5ccc([nH]5)c(-c5ccc(S(=O)(=O)[O-])cc5)c5nc(c(-c6ccc(S(=O)(=O)[O-])cc6)c6ccc3[nH]6)C=C5)C=C4)cc2)c(C(=O)Nc2ccc(-c3nc4cc(Cl)ccc4o3)cc2)n1
REMARK SMILES IDX 10 1 9 2 8 3 7 4 5 5 6 6 4 8 1 9 2 10 3 11 97 12 77 13 78 14
REMARK SMILES IDX 79 15 80 16 81 18 82 19 96 20 83 21 95 22 84 23 85 24 86 25
REMARK SMILES IDX 94 26 87 27 93 28 88 29 92 30 89 31 91 32 90 33 11 34 12 35
REMARK SMILES IDX 13 36 14 37 15 38 16 40 17 41 18 42 76 43 19 44 75 45 20 46
REMARK SMILES IDX 21 47 22 48 69 49 23 50 74 51 68 52 70 53 24 54 73 55 67 56
REMARK SMILES IDX 66 57 25 59 55 60 36 61 54 62 37 63 40 64 53 65 71 66 38 67
REMARK SMILES IDX 39 68 52 70 72 71 41 72 26 73 27 74 35 75 28 76 34 77 29 78
REMARK SMILES IDX 30 79 31 80 32 81 33 82 56 83 57 84 65 85 58 86 64 87 59 88
REMARK SMILES IDX 60 89 61 90 62 91 63 92 42 93 43 94 51 95 44 96 50 97 45 98
REMARK SMILES IDX 46 99 47 100 48 101 49 102
REMARK H PARENT 7 7 80 17 14 39 70 58 40 69
REMARK Flexibility Score: inf
ROOT
ATOM      1  C   UNL A   1      34.489  24.494  23.072  1.00  0.00     0.002 C 
ENDROOT
BRANCH   1   2
ATOM      2  C   UNL A   1      33.265  24.644  22.160  1.00  0.00     0.021 C 
BRANCH   2   3
ATOM      3  C   UNL A   1      32.570  26.002  22.225  1.00  0.00     0.116 C 
BRANCH   3   4
ATOM      4  N   UNL A   1      33.427  27.085  22.669  1.00  0.00    -0.352 N 
ATOM      5  C   UNL A   1      33.186  28.365  23.098  1.00  0.00     0.255 C 
ATOM      6  O   UNL A   1      34.169  29.027  23.441  1.00  0.00    -0.269 OA
ATOM      7  H   UNL A   1      34.384  26.854  22.660  1.00  0.00     0.163 HD
BRANCH   5   8
ATOM      8  C   UNL A   1      31.847  28.936  23.145  1.00  0.00     0.090 A 
ATOM      9  C   UNL A   1      28.446  29.590  22.123  1.00  0.00     0.173 C 
ATOM     10  N   UNL A   1      29.752  29.486  22.730  1.00  0.00    -0.274 N 
ATOM     11  C   UNL A   1      30.883  28.994  22.153  1.00  0.00     0.123 A 
ATOM     12  N   UNL A   1      29.903  29.810  24.017  1.00  0.00    -0.167 NA
ATOM     13  C   UNL A   1      31.163  29.432  24.315  1.00  0.00     0.163 A 
BRANCH  13  14
ATOM     14  C   UNL A   1      31.617  29.459  25.719  1.00  0.00     0.276 C 
ATOM     15  O   UNL A   1      31.846  30.523  26.302  1.00  0.00    -0.267 OA
ATOM     16  N   UNL A   1      31.725  28.304  26.462  1.00  0.00    -0.321 N 
ATOM     17  H   UNL A   1      31.758  28.455  27.435  1.00  0.00     0.170 HD
BRANCH  16  18
ATOM     18  C   UNL A   1      31.795  26.956  26.096  1.00  0.00     0.041 A 
ATOM     19  C   UNL A   1      33.039  26.331  26.232  1.00  0.00     0.027 A 
ATOM     20  C   UNL A   1      30.715  26.229  25.599  1.00  0.00     0.027 A 
ATOM     21  C   UNL A   1      33.175  24.963  25.983  1.00  0.00     0.016 A 
ATOM     22  C   UNL A   1      30.862  24.866  25.316  1.00  0.00     0.016 A 
ATOM     23  C   UNL A   1      32.080  24.210  25.549  1.00  0.00     0.037 A 
BRANCH  23  24
ATOM     24  C   UNL A   1      32.160  22.760  25.428  1.00  0.00     0.227 A 
ATOM     25  N   UNL A   1      32.583  21.865  26.303  1.00  0.00    -0.209 NA
ATOM     26  O   UNL A   1      31.915  22.258  24.172  1.00  0.00    -0.436 OA
ATOM     27  C   UNL A   1      32.632  20.699  25.579  1.00  0.00     0.111 A 
ATOM     28  C   UNL A   1      32.243  20.941  24.272  1.00  0.00     0.155 A 
ATOM     29  C   UNL A   1      33.014  19.403  25.946  1.00  0.00     0.053 A 
ATOM     30  C   UNL A   1      32.225  19.992  23.258  1.00  0.00     0.051 A 
ATOM     31  C   UNL A   1      33.000  18.415  24.952  1.00  0.00     0.043 A 
ATOM     32  C   UNL A   1      32.625  18.704  23.633  1.00  0.00     0.024 A 
ATOM     33  Cl  UNL A   1      33.446  16.805  25.367  1.00  0.00    -0.084 Cl
ENDBRANCH  23  24
ENDBRANCH  16  18
ENDBRANCH  13  14
ENDBRANCH   5   8
ENDBRANCH   3   4
ENDBRANCH   2   3
ENDBRANCH   1   2
BRANCH   1  34
ATOM     34  C   UNL A   1      35.176  23.126  23.108  1.00  0.00     0.002 C 
BRANCH  34  35
ATOM     35  C   UNL A   1      35.726  22.672  24.462  1.00  0.00     0.021 C 
BRANCH  35  36
ATOM     36  C   UNL A   1      37.007  23.365  24.921  1.00  0.00     0.116 C 
BRANCH  36  37
ATOM     37  N   UNL A   1      37.966  22.440  25.503  1.00  0.00    -0.352 N 
ATOM     38  C   UNL A   1      39.085  22.685  26.263  1.00  0.00     0.251 C 
ATOM     39  H   UNL A   1      37.785  21.489  25.325  1.00  0.00     0.163 HD
ATOM     40  O   UNL A   1      39.864  21.764  26.499  1.00  0.00    -0.269 OA
BRANCH  38  41
ATOM     41  C   UNL A   1      39.383  24.047  26.772  1.00  0.00     0.039 A 
ATOM     42  C   UNL A   1      38.934  24.398  28.049  1.00  0.00     0.014 A 
ATOM     43  C   UNL A   1      40.071  24.988  25.998  1.00  0.00     0.014 A 
ATOM     44  C   UNL A   1      39.250  25.652  28.584  1.00  0.00     0.010 A 
ATOM     45  C   UNL A   1      40.425  26.222  26.549  1.00  0.00     0.010 A 
ATOM     46  C   UNL A   1      40.035  26.559  27.855  1.00  0.00    -0.014 A 
BRANCH  46  47
ATOM     47  C   UNL A   1      40.495  27.837  28.454  1.00  0.00     0.031 A 
ATOM     48  C   UNL A   1      41.896  27.985  28.975  1.00  0.00     0.074 A 
ATOM     49  C   UNL A   1      39.623  28.853  28.606  1.00  0.00     0.049 A 
ATOM     50  N   UNL A   1      42.417  28.968  29.665  1.00  0.00    -0.248 NA
ATOM     51  C   UNL A   1      42.822  26.875  28.706  1.00  0.00     0.031 C 
ATOM     52  C   UNL A   1      38.221  28.840  28.182  1.00  0.00     0.029 A 
ATOM     53  N   UNL A   1      39.789  30.093  29.172  1.00  0.00    -0.354 N 
ATOM     54  C   UNL A   1      43.715  28.575  29.961  1.00  0.00     0.074 A 
ATOM     55  C   UNL A   1      43.908  27.272  29.357  1.00  0.00     0.031 C 
ATOM     56  C   UNL A   1      37.659  30.020  28.489  1.00  0.00     0.029 A 
ATOM     57  C   UNL A   1      38.651  30.862  29.153  1.00  0.00     0.049 A 
ATOM     58  H   UNL A   1      40.641  30.401  29.555  1.00  0.00     0.167 HD
ATOM     59  C   UNL A   1      44.657  29.227  30.685  1.00  0.00     0.031 A 
ATOM     60  C   UNL A   1      38.421  32.102  29.623  1.00  0.00     0.031 A 
ATOM     61  C   UNL A   1      44.496  30.536  31.256  1.00  0.00     0.049 A 
ATOM     62  C   UNL A   1      39.516  32.855  30.315  1.00  0.00     0.074 A 
ATOM     63  C   UNL A   1      45.400  31.270  32.007  1.00  0.00     0.029 A 
ATOM     64  N   UNL A   1      43.362  31.320  31.120  1.00  0.00    -0.354 N 
ATOM     65  N   UNL A   1      40.728  32.453  30.608  1.00  0.00    -0.248 NA
ATOM     66  C   UNL A   1      39.211  34.229  30.739  1.00  0.00     0.031 C 
ATOM     67  C   UNL A   1      44.813  32.505  32.316  1.00  0.00     0.029 A 
ATOM     68  C   UNL A   1      43.548  32.537  31.755  1.00  0.00     0.049 A 
ATOM     69  H   UNL A   1      42.544  31.051  30.642  1.00  0.00     0.167 HD
ATOM     70  C   UNL A   1      41.330  33.521  31.258  1.00  0.00     0.074 A 
ATOM     71  C   UNL A   1      40.357  34.594  31.302  1.00  0.00     0.031 C 
ATOM     72  C   UNL A   1      42.578  33.600  31.780  1.00  0.00     0.031 A 
BRANCH  59  73
ATOM     73  C   UNL A   1      45.945  28.493  30.919  1.00  0.00    -0.014 A 
ATOM     74  C   UNL A   1      46.092  27.623  32.012  1.00  0.00     0.010 A 
ATOM     75  C   UNL A   1      47.029  28.702  30.049  1.00  0.00     0.010 A 
ATOM     76  C   UNL A   1      47.322  27.008  32.260  1.00  0.00     0.020 A 
ATOM     77  C   UNL A   1      48.256  28.083  30.290  1.00  0.00     0.020 A 
ATOM     78  C   UNL A   1      48.402  27.258  31.408  1.00  0.00     0.054 A 
BRANCH  78  79
ATOM     79  S   UNL A   1      50.012  26.492  31.742  1.00  0.00     0.124 S 
ATOM     80  O   UNL A   1      49.620  25.271  32.443  1.00  0.00    -0.237 OA
ATOM     81  O   UNL A   1      50.576  26.294  30.409  1.00  0.00    -0.237 OA
ATOM     82  O   UNL A   1      50.692  27.493  32.559  1.00  0.00    -0.744 OA
ENDBRANCH  78  79
ENDBRANCH  59  73
BRANCH  60  83
ATOM     83  C   UNL A   1      37.080  32.706  29.440  1.00  0.00    -0.014 A 
ATOM     84  C   UNL A   1      36.209  32.827  30.536  1.00  0.00     0.010 A 
ATOM     85  C   UNL A   1      36.697  33.218  28.189  1.00  0.00     0.010 A 
ATOM     86  C   UNL A   1      34.975  33.463  30.387  1.00  0.00     0.020 A 
ATOM     87  C   UNL A   1      35.467  33.860  28.040  1.00  0.00     0.020 A 
ATOM     88  C   UNL A   1      34.612  33.979  29.140  1.00  0.00     0.054 A 
BRANCH  88  89
ATOM     89  S   UNL A   1      33.057  34.897  28.964  1.00  0.00     0.124 S 
ATOM     90  O   UNL A   1      32.334  34.085  27.990  1.00  0.00    -0.237 OA
ATOM     91  O   UNL A   1      32.512  34.892  30.319  1.00  0.00    -0.237 OA
ATOM     92  O   UNL A   1      33.504  36.205  28.489  1.00  0.00    -0.744 OA
ENDBRANCH  88  89
ENDBRANCH  60  83
BRANCH  72  93
ATOM     93  C   UNL A   1      42.959  34.895  32.435  1.00  0.00    -0.014 A 
ATOM     94  C   UNL A   1      42.541  35.178  33.747  1.00  0.00     0.010 A 
ATOM     95  C   UNL A   1      43.754  35.825  31.745  1.00  0.00     0.010 A 
ATOM     96  C   UNL A   1      42.897  36.386  34.354  1.00  0.00     0.020 A 
ATOM     97  C   UNL A   1      44.113  37.032  32.350  1.00  0.00     0.020 A 
ATOM     98  C   UNL A   1      43.672  37.310  33.647  1.00  0.00     0.054 A 
BRANCH  98  99
ATOM     99  S   UNL A   1      44.158  38.865  34.445  1.00  0.00     0.124 S 
ATOM    100  O   UNL A   1      44.325  38.454  35.835  1.00  0.00    -0.237 OA
ATOM    101  O   UNL A   1      45.388  39.229  33.747  1.00  0.00    -0.237 OA
ATOM    102  O   UNL A   1      43.021  39.746  34.183  1.00  0.00    -0.744 OA
ENDBRANCH  98  99
ENDBRANCH  72  93
ENDBRANCH  46  47
ENDBRANCH  38  41
ENDBRANCH  36  37
ENDBRANCH  35  36
ENDBRANCH  34  35
ENDBRANCH   1  34
TORSDOF 19
ENDMDL
MODEL 2
REMARK VINA RESULT:     -11.4      0.519      7.675
REMARK SMILES Cn1cc(C(=O)NCCCCCCNC(=O)c2ccc(-c3c4nc(c(-c5ccc(S(=O)(=O)[O-])cc5)c5ccc([nH]5)c(-c5ccc(S(=O)(=O)[O-])cc5)c5nc(c(-c6ccc(S(=O)(=O)[O-])cc6)c6ccc3[nH]6)C=C5)C=C4)cc2)c(C(=O)Nc2ccc(-c3nc4cc(Cl)ccc4o3)cc2)n1
REMARK SMILES IDX 10 1 9 2 8 3 7 4 5 5 6 6 4 8 1 9 2 10 3 11 97 12 77 13 78 14
REMARK SMILES IDX 79 15 80 16 81 18 82 19 96 20 83 21 95 22 84 23 85 24 86 25
REMARK SMILES IDX 94 26 87 27 93 28 88 29 92 30 89 31 91 32 90 33 11 34 12 35
REMARK SMILES IDX 13 36 14 37 15 38 16 40 17 41 18 42 76 43 19 44 75 45 20 46
REMARK SMILES IDX 21 47 22 48 69 49 23 50 74 51 68 52 70 53 24 54 73 55 67 56
REMARK SMILES IDX 66 57 25 59 55 60 36 61 54 62 37 63 40 64 53 65 71 66 38 67
REMARK SMILES IDX 39 68 52 70 72 71 41 72 26 73 27 74 35 75 28 76 34 77 29 78
REMARK SMILES IDX 30 79 31 80 32 81 33 82 56 83 57 84 65 85 58 86 64 87 59 88
REMARK SMILES IDX 60 89 61 90 62 91 63 92 42 93 43 94 51 95 44 96 50 97 45 98
REMARK SMILES IDX 46 99 47 100 48 101 49 102
REMARK H PARENT 7 7 80 17 14 39 70 58 40 69
REMARK Flexibility Score: inf
ROOT
ATOM      1  C   UNL A   1      34.407  24.776  22.930  1.00  0.00     0.002 C 
ENDROOT
BRANCH   1   2
ATOM      2  C   UNL A   1      33.104  24.817  22.123  1.00  0.00     0.021 C 
BRANCH   2   3
ATOM      3  C   UNL A   1      32.425  26.183  22.058  1.00  0.00     0.116 C 
BRANCH   3   4
ATOM      4  N   UNL A   1      33.266  27.284  22.488  1.00  0.00    -0.352 N 
ATOM      5  C   UNL A   1      33.004  28.554  22.933  1.00  0.00     0.255 C 
ATOM      6  O   UNL A   1      33.979  29.238  23.256  1.00  0.00    -0.269 OA
ATOM      7  H   UNL A   1      34.227  27.076  22.454  1.00  0.00     0.163 HD
BRANCH   5   8
ATOM      8  C   UNL A   1      31.654  29.092  23.016  1.00  0.00     0.090 A 
ATOM      9  C   UNL A   1      28.204  29.643  22.103  1.00  0.00     0.173 C 
ATOM     10  N   UNL A   1      29.532  29.582  22.666  1.00  0.00    -0.274 N 
ATOM     11  C   UNL A   1      30.655  29.109  22.058  1.00  0.00     0.123 A 
ATOM     12  N   UNL A   1      29.719  29.931  23.942  1.00  0.00    -0.167 NA
ATOM     13  C   UNL A   1      30.998  29.590  24.202  1.00  0.00     0.163 A 
BRANCH  13  14
ATOM     14  C   UNL A   1      31.499  29.652  25.589  1.00  0.00     0.276 C 
ATOM     15  O   UNL A   1      31.728  30.731  26.144  1.00  0.00    -0.267 OA
ATOM     16  N   UNL A   1      31.652  28.514  26.349  1.00  0.00    -0.321 N 
ATOM     17  H   UNL A   1      31.716  28.685  27.317  1.00  0.00     0.170 HD
BRANCH  16  18
ATOM     18  C   UNL A   1      31.734  27.160  26.006  1.00  0.00     0.041 A 
ATOM     19  C   UNL A   1      32.971  26.537  26.197  1.00  0.00     0.027 A 
ATOM     20  C   UNL A   1      30.671  26.427  25.482  1.00  0.00     0.027 A 
ATOM     21  C   UNL A   1      33.115  25.166  25.974  1.00  0.00     0.016 A 
ATOM     22  C   UNL A   1      30.827  25.059  25.225  1.00  0.00     0.016 A 
ATOM     23  C   UNL A   1      32.035  24.407  25.512  1.00  0.00     0.037 A 
BRANCH  23  24
ATOM     24  C   UNL A   1      32.117  22.954  25.416  1.00  0.00     0.227 A 
ATOM     25  N   UNL A   1      32.518  22.073  26.315  1.00  0.00    -0.209 NA
ATOM     26  O   UNL A   1      31.905  22.433  24.162  1.00  0.00    -0.436 OA
ATOM     27  C   UNL A   1      32.585  20.896  25.612  1.00  0.00     0.111 A 
ATOM     28  C   UNL A   1      32.230  21.118  24.291  1.00  0.00     0.155 A 
ATOM     29  C   UNL A   1      32.957  19.606  26.009  1.00  0.00     0.053 A 
ATOM     30  C   UNL A   1      32.237  20.153  23.292  1.00  0.00     0.051 A 
ATOM     31  C   UNL A   1      32.968  18.603  25.031  1.00  0.00     0.043 A 
ATOM     32  C   UNL A   1      32.627  18.871  23.698  1.00  0.00     0.024 A 
ATOM     33  Cl  UNL A   1      33.403  16.999  25.482  1.00  0.00    -0.084 Cl
ENDBRANCH  23  24
ENDBRANCH  16  18
ENDBRANCH  13  14
ENDBRANCH   5   8
ENDBRANCH   3   4
ENDBRANCH   2   3
ENDBRANCH   1   2
BRANCH   1  34
ATOM     34  C   UNL A   1      35.086  23.413  23.100  1.00  0.00     0.002 C 
BRANCH  34  35
ATOM     35  C   UNL A   1      35.577  23.066  24.508  1.00  0.00     0.021 C 
BRANCH  35  36
ATOM     36  C   UNL A   1      36.903  23.699  24.921  1.00  0.00     0.116 C 
BRANCH  36  37
ATOM     37  N   UNL A   1      37.910  22.711  25.274  1.00  0.00    -0.352 N 
ATOM     38  C   UNL A   1      39.079  22.851  25.984  1.00  0.00     0.251 C 
ATOM     39  H   UNL A   1      37.725  21.799  24.954  1.00  0.00     0.163 HD
ATOM     40  O   UNL A   1      39.880  21.920  26.010  1.00  0.00    -0.269 OA
BRANCH  38  41
ATOM     41  C   UNL A   1      39.400  24.117  26.689  1.00  0.00     0.039 A 
ATOM     42  C   UNL A   1      38.959  24.281  28.007  1.00  0.00     0.014 A 
ATOM     43  C   UNL A   1      40.102  25.151  26.062  1.00  0.00     0.014 A 
ATOM     44  C   UNL A   1      39.297  25.436  28.721  1.00  0.00     0.010 A 
ATOM     45  C   UNL A   1      40.478  26.283  26.789  1.00  0.00     0.010 A 
ATOM     46  C   UNL A   1      40.096  26.428  28.132  1.00  0.00    -0.014 A 
BRANCH  46  47
ATOM     47  C   UNL A   1      40.579  27.595  28.913  1.00  0.00     0.031 A 
ATOM     48  C   UNL A   1      39.695  28.787  29.146  1.00  0.00     0.074 A 
ATOM     49  C   UNL A   1      41.852  27.620  29.352  1.00  0.00     0.049 A 
ATOM     50  N   UNL A   1      40.002  29.948  29.667  1.00  0.00    -0.248 NA
ATOM     51  C   UNL A   1      38.295  28.666  28.717  1.00  0.00     0.031 C 
ATOM     52  C   UNL A   1      42.836  26.551  29.169  1.00  0.00     0.029 A 
ATOM     53  N   UNL A   1      42.540  28.592  30.037  1.00  0.00    -0.354 N 
ATOM     54  C   UNL A   1      38.850  30.717  29.579  1.00  0.00     0.074 A 
ATOM     55  C   UNL A   1      37.831  29.882  28.974  1.00  0.00     0.031 C 
ATOM     56  C   UNL A   1      43.995  26.919  29.739  1.00  0.00     0.029 A 
ATOM     57  C   UNL A   1      43.845  28.257  30.304  1.00  0.00     0.049 A 
ATOM     58  H   UNL A   1      42.137  29.448  30.309  1.00  0.00     0.167 HD
ATOM     59  C   UNL A   1      38.658  32.007  29.950  1.00  0.00     0.031 A 
ATOM     60  C   UNL A   1      44.819  28.946  30.926  1.00  0.00     0.031 A 
ATOM     61  C   UNL A   1      39.644  32.836  30.589  1.00  0.00     0.049 A 
ATOM     62  C   UNL A   1      44.548  30.328  31.437  1.00  0.00     0.074 A 
ATOM     63  C   UNL A   1      39.532  34.154  30.996  1.00  0.00     0.029 A 
ATOM     64  N   UNL A   1      40.918  32.418  30.934  1.00  0.00    -0.354 N 
ATOM     65  N   UNL A   1      43.459  31.047  31.319  1.00  0.00    -0.248 NA
ATOM     66  C   UNL A   1      45.639  30.991  32.166  1.00  0.00     0.031 C 
ATOM     67  C   UNL A   1      40.740  34.531  31.600  1.00  0.00     0.029 A 
ATOM     68  C   UNL A   1      41.598  33.444  31.568  1.00  0.00     0.049 A 
ATOM     69  H   UNL A   1      41.286  31.522  30.757  1.00  0.00     0.167 HD
ATOM     70  C   UNL A   1      43.734  32.251  31.953  1.00  0.00     0.074 A 
ATOM     71  C   UNL A   1      45.085  32.160  32.467  1.00  0.00     0.031 C 
ATOM     72  C   UNL A   1      42.936  33.338  32.087  1.00  0.00     0.031 A 
BRANCH  59  73
ATOM     73  C   UNL A   1      37.316  32.599  29.633  1.00  0.00    -0.014 A 
ATOM     74  C   UNL A   1      37.049  33.144  28.366  1.00  0.00     0.010 A 
ATOM     75  C   UNL A   1      36.323  32.636  30.626  1.00  0.00     0.010 A 
ATOM     76  C   UNL A   1      35.822  33.762  28.111  1.00  0.00     0.020 A 
ATOM     77  C   UNL A   1      35.093  33.245  30.373  1.00  0.00     0.020 A 
ATOM     78  C   UNL A   1      34.859  33.825  29.123  1.00  0.00     0.054 A 
BRANCH  78  79
ATOM     79  S   UNL A   1      33.276  34.656  28.813  1.00  0.00     0.124 S 
ATOM     80  O   UNL A   1      33.717  35.952  28.300  1.00  0.00    -0.237 OA
ATOM     81  O   UNL A   1      32.623  33.787  27.837  1.00  0.00    -0.237 OA
ATOM     82  O   UNL A   1      32.651  34.683  30.132  1.00  0.00    -0.744 OA
ENDBRANCH  78  79
ENDBRANCH  59  73
BRANCH  60  83
ATOM     83  C   UNL A   1      46.150  28.318  31.099  1.00  0.00    -0.014 A 
ATOM     84  C   UNL A   1      46.522  27.792  32.348  1.00  0.00     0.010 A 
ATOM     85  C   UNL A   1      47.021  28.189  30.004  1.00  0.00     0.010 A 
ATOM     86  C   UNL A   1      47.744  27.133  32.498  1.00  0.00     0.020 A 
ATOM     87  C   UNL A   1      48.240  27.524  30.150  1.00  0.00     0.020 A 
ATOM     88  C   UNL A   1      48.595  27.000  31.397  1.00  0.00     0.054 A 
BRANCH  88  89
ATOM     89  S   UNL A   1      50.136  26.056  31.559  1.00  0.00     0.124 S 
ATOM     90  O   UNL A   1      49.652  24.763  32.029  1.00  0.00    -0.237 OA
ATOM     91  O   UNL A   1      50.680  26.073  30.203  1.00  0.00    -0.237 OA
ATOM     92  O   UNL A   1      50.895  26.839  32.532  1.00  0.00    -0.744 OA
ENDBRANCH  88  89
ENDBRANCH  60  83
BRANCH  72  93
ATOM     93  C   UNL A   1      43.508  34.512  32.826  1.00  0.00    -0.014 A 
ATOM     94  C   UNL A   1      43.353  34.617  34.219  1.00  0.00     0.010 A 
ATOM     95  C   UNL A   1      44.218  35.504  32.130  1.00  0.00     0.010 A 
ATOM     96  C   UNL A   1      43.887  35.713  34.905  1.00  0.00     0.020 A 
ATOM     97  C   UNL A   1      44.754  36.598  32.813  1.00  0.00     0.020 A 
ATOM     98  C   UNL A   1      44.575  36.701  34.196  1.00  0.00     0.054 A 
BRANCH  98  99
ATOM     99  S   UNL A   1      45.291  38.109  35.089  1.00  0.00     0.124 S 
ATOM    100  O   UNL A   1      45.773  37.476  36.313  1.00  0.00    -0.237 OA
ATOM    101  O   UNL A   1      46.328  38.589  34.180  1.00  0.00    -0.237 OA
ATOM    102  O   UNL A   1      44.155  39.013  35.257  1.00  0.00    -0.744 OA
ENDBRANCH  98  99
ENDBRANCH  72  93
ENDBRANCH  46  47
ENDBRANCH  38  41
ENDBRANCH  36  37
ENDBRANCH  35  36
ENDBRANCH  34  35
ENDBRANCH   1  34
TORSDOF 19
ENDMDL
MODEL 3
REMARK VINA RESULT:     -11.4      4.252     10.394
REMARK SMILES Cn1cc(C(=O)NCCCCCCNC(=O)c2ccc(-c3c4nc(c(-c5ccc(S(=O)(=O)[O-])cc5)c5ccc([nH]5)c(-c5ccc(S(=O)(=O)[O-])cc5)c5nc(c(-c6ccc(S(=O)(=O)[O-])cc6)c6ccc3[nH]6)C=C5)C=C4)cc2)c(C(=O)Nc2ccc(-c3nc4cc(Cl)ccc4o3)cc2)n1
REMARK SMILES IDX 10 1 9 2 8 3 7 4 5 5 6 6 4 8 1 9 2 10 3 11 97 12 77 13 78 14
REMARK SMILES IDX 79 15 80 16 81 18 82 19 96 20 83 21 95 22 84 23 85 24 86 25
REMARK SMILES IDX 94 26 87 27 93 28 88 29 92 30 89 31 91 32 90 33 11 34 12 35
REMARK SMILES IDX 13 36 14 37 15 38 16 40 17 41 18 42 76 43 19 44 75 45 20 46
REMARK SMILES IDX 21 47 22 48 69 49 23 50 74 51 68 52 70 53 24 54 73 55 67 56
REMARK SMILES IDX 66 57 25 59 55 60 36 61 54 62 37 63 40 64 53 65 71 66 38 67
REMARK SMILES IDX 39 68 52 70 72 71 41 72 26 73 27 74 35 75 28 76 34 77 29 78
REMARK SMILES IDX 30 79 31 80 32 81 33 82 56 83 57 84 65 85 58 86 64 87 59 88
REMARK SMILES IDX 60 89 61 90 62 91 63 92 42 93 43 94 51 95 44 96 50 97 45 98
REMARK SMILES IDX 46 99 47 100 48 101 49 102
REMARK H PARENT 7 7 80 17 14 39 70 58 40 69
REMARK Flexibility Score: inf
ROOT
ATOM      1  C   UNL A   1      32.008  28.627  26.635  1.00  0.00     0.002 C 
ENDROOT
BRANCH   1   2
ATOM      2  C   UNL A   1      31.564  27.198  26.969  1.00  0.00     0.021 C 
BRANCH   2   3
ATOM      3  C   UNL A   1      32.400  26.093  26.327  1.00  0.00     0.116 C 
BRANCH   3   4
ATOM      4  N   UNL A   1      31.920  24.752  26.601  1.00  0.00    -0.352 N 
ATOM      5  C   UNL A   1      32.375  23.501  26.272  1.00  0.00     0.255 C 
ATOM      6  O   UNL A   1      31.727  22.545  26.707  1.00  0.00    -0.269 OA
ATOM      7  H   UNL A   1      31.094  24.736  27.135  1.00  0.00     0.163 HD
BRANCH   5   8
ATOM      8  C   UNL A   1      33.555  23.289  25.445  1.00  0.00     0.090 A 
ATOM      9  C   UNL A   1      37.042  22.804  24.643  1.00  0.00     0.173 C 
ATOM     10  N   UNL A   1      35.610  22.979  24.708  1.00  0.00    -0.274 N 
ATOM     11  C   UNL A   1      34.892  23.442  25.768  1.00  0.00     0.123 A 
ATOM     12  N   UNL A   1      34.854  22.578  23.682  1.00  0.00    -0.167 NA
ATOM     13  C   UNL A   1      33.587  22.704  24.126  1.00  0.00     0.163 A 
BRANCH  13  14
ATOM     14  C   UNL A   1      32.476  22.161  23.319  1.00  0.00     0.276 C 
ATOM     15  O   UNL A   1      32.493  21.000  22.898  1.00  0.00    -0.267 OA
ATOM     16  N   UNL A   1      31.340  22.899  23.071  1.00  0.00    -0.321 N 
ATOM     17  H   UNL A   1      30.570  22.360  22.777  1.00  0.00     0.170 HD
BRANCH  16  18
ATOM     18  C   UNL A   1      31.073  24.270  23.159  1.00  0.00     0.041 A 
ATOM     19  C   UNL A   1      31.965  25.127  22.507  1.00  0.00     0.027 A 
ATOM     20  C   UNL A   1      29.997  24.807  23.861  1.00  0.00     0.027 A 
ATOM     21  C   UNL A   1      31.720  26.501  22.460  1.00  0.00     0.016 A 
ATOM     22  C   UNL A   1      29.773  26.189  23.843  1.00  0.00     0.016 A 
ATOM     23  C   UNL A   1      30.604  27.043  23.105  1.00  0.00     0.037 A 
BRANCH  23  24
ATOM     24  C   UNL A   1      30.246  28.448  22.946  1.00  0.00     0.227 A 
ATOM     25  N   UNL A   1      30.245  29.421  23.839  1.00  0.00    -0.209 NA
ATOM     26  O   UNL A   1      29.674  28.778  21.741  1.00  0.00    -0.436 OA
ATOM     27  C   UNL A   1      29.624  30.460  23.189  1.00  0.00     0.111 A 
ATOM     28  C   UNL A   1      29.257  30.062  21.914  1.00  0.00     0.155 A 
ATOM     29  C   UNL A   1      29.314  31.757  23.613  1.00  0.00     0.053 A 
ATOM     30  C   UNL A   1      28.564  30.849  21.003  1.00  0.00     0.051 A 
ATOM     31  C   UNL A   1      28.623  32.585  22.719  1.00  0.00     0.043 A 
ATOM     32  C   UNL A   1      28.245  32.139  21.445  1.00  0.00     0.024 A 
ATOM     33  Cl  UNL A   1      28.237  34.194  23.195  1.00  0.00    -0.084 Cl
ENDBRANCH  23  24
ENDBRANCH  16  18
ENDBRANCH  13  14
ENDBRANCH   5   8
ENDBRANCH   3   4
ENDBRANCH   2   3
ENDBRANCH   1   2
BRANCH   1  34
ATOM     34  C   UNL A   1      32.970  29.310  27.611  1.00  0.00     0.002 C 
BRANCH  34  35
ATOM     35  C   UNL A   1      34.464  29.162  27.314  1.00  0.00     0.021 C 
BRANCH  35  36
ATOM     36  C   UNL A   1      35.327  30.379  27.636  1.00  0.00     0.116 C 
BRANCH  36  37
ATOM     37  N   UNL A   1      35.311  30.719  29.050  1.00  0.00    -0.352 N 
ATOM     38  C   UNL A   1      36.230  30.453  30.037  1.00  0.00     0.251 C 
ATOM     39  H   UNL A   1      34.516  31.218  29.346  1.00  0.00     0.163 HD
ATOM     40  O   UNL A   1      35.933  30.671  31.209  1.00  0.00    -0.269 OA
BRANCH  38  41
ATOM     41  C   UNL A   1      37.559  29.878  29.711  1.00  0.00     0.039 A 
ATOM     42  C   UNL A   1      38.033  29.986  28.399  1.00  0.00     0.014 A 
ATOM     43  C   UNL A   1      38.328  29.211  30.670  1.00  0.00     0.014 A 
ATOM     44  C   UNL A   1      39.307  29.509  28.072  1.00  0.00     0.010 A 
ATOM     45  C   UNL A   1      39.617  28.776  30.354  1.00  0.00     0.010 A 
ATOM     46  C   UNL A   1      40.127  28.938  29.057  1.00  0.00    -0.014 A 
BRANCH  46  47
ATOM     47  C   UNL A   1      41.530  28.551  28.763  1.00  0.00     0.031 A 
ATOM     48  C   UNL A   1      42.637  29.566  28.808  1.00  0.00     0.074 A 
ATOM     49  C   UNL A   1      41.804  27.290  28.374  1.00  0.00     0.049 A 
ATOM     50  N   UNL A   1      43.884  29.438  28.431  1.00  0.00    -0.248 NA
ATOM     51  C   UNL A   1      42.290  30.899  29.319  1.00  0.00     0.031 C 
ATOM     52  C   UNL A   1      40.826  26.208  28.249  1.00  0.00     0.029 A 
ATOM     53  N   UNL A   1      42.992  26.711  28.000  1.00  0.00    -0.354 N 
ATOM     54  C   UNL A   1      44.461  30.688  28.607  1.00  0.00     0.074 A 
ATOM     55  C   UNL A   1      43.431  31.555  29.144  1.00  0.00     0.031 C 
ATOM     56  C   UNL A   1      41.455  25.093  27.842  1.00  0.00     0.029 A 
ATOM     57  C   UNL A   1      42.873  25.388  27.653  1.00  0.00     0.049 A 
ATOM     58  H   UNL A   1      43.847  27.198  27.981  1.00  0.00     0.167 HD
ATOM     59  C   UNL A   1      45.726  31.088  28.330  1.00  0.00     0.031 A 
ATOM     60  C   UNL A   1      43.794  24.506  27.222  1.00  0.00     0.031 A 
ATOM     61  C   UNL A   1      46.770  30.233  27.836  1.00  0.00     0.049 A 
ATOM     62  C   UNL A   1      45.217  24.940  27.039  1.00  0.00     0.074 A 
ATOM     63  C   UNL A   1      48.080  30.557  27.527  1.00  0.00     0.029 A 
ATOM     64  N   UNL A   1      46.629  28.875  27.600  1.00  0.00    -0.354 N 
ATOM     65  N   UNL A   1      45.734  26.135  27.185  1.00  0.00    -0.248 NA
ATOM     66  C   UNL A   1      46.178  23.905  26.632  1.00  0.00     0.031 C 
ATOM     67  C   UNL A   1      48.736  29.389  27.113  1.00  0.00     0.029 A 
ATOM     68  C   UNL A   1      47.832  28.342  27.168  1.00  0.00     0.049 A 
ATOM     69  H   UNL A   1      45.796  28.364  27.722  1.00  0.00     0.167 HD
ATOM     70  C   UNL A   1      47.082  25.999  26.882  1.00  0.00     0.074 A 
ATOM     71  C   UNL A   1      47.305  24.604  26.559  1.00  0.00     0.031 C 
ATOM     72  C   UNL A   1      48.046  26.951  26.864  1.00  0.00     0.031 A 
BRANCH  59  73
ATOM     73  C   UNL A   1      46.025  32.544  28.536  1.00  0.00    -0.014 A 
ATOM     74  C   UNL A   1      45.797  33.479  27.513  1.00  0.00     0.010 A 
ATOM     75  C   UNL A   1      46.570  32.973  29.758  1.00  0.00     0.010 A 
ATOM     76  C   UNL A   1      46.154  34.818  27.692  1.00  0.00     0.020 A 
ATOM     77  C   UNL A   1      46.920  34.312  29.944  1.00  0.00     0.020 A 
ATOM     78  C   UNL A   1      46.731  35.222  28.900  1.00  0.00     0.054 A 
BRANCH  78  79
ATOM     79  S   UNL A   1      47.230  36.951  29.130  1.00  0.00     0.124 S 
ATOM     80  O   UNL A   1      48.513  36.802  29.813  1.00  0.00    -0.237 OA
ATOM     81  O   UNL A   1      47.305  37.466  27.764  1.00  0.00    -0.237 OA
ATOM     82  O   UNL A   1      46.148  37.503  29.941  1.00  0.00    -0.744 OA
ENDBRANCH  78  79
ENDBRANCH  59  73
BRANCH  60  83
ATOM     83  C   UNL A   1      43.382  23.111  26.940  1.00  0.00    -0.014 A 
ATOM     84  C   UNL A   1      43.577  22.566  25.660  1.00  0.00     0.010 A 
ATOM     85  C   UNL A   1      42.855  22.306  27.964  1.00  0.00     0.010 A 
ATOM     86  C   UNL A   1      43.261  21.229  25.408  1.00  0.00     0.020 A 
ATOM     87  C   UNL A   1      42.544  20.968  27.717  1.00  0.00     0.020 A 
ATOM     88  C   UNL A   1      42.749  20.437  26.440  1.00  0.00     0.054 A 
BRANCH  88  89
ATOM     89  S   UNL A   1      42.432  18.674  26.148  1.00  0.00     0.124 S 
ATOM     90  O   UNL A   1      41.029  18.680  25.751  1.00  0.00    -0.237 OA
ATOM     91  O   UNL A   1      43.386  18.335  25.095  1.00  0.00    -0.237 OA
ATOM     92  O   UNL A   1      42.719  18.073  27.450  1.00  0.00    -0.744 OA
ENDBRANCH  88  89
ENDBRANCH  60  83
BRANCH  72  93
ATOM     93  C   UNL A   1      49.429  26.509  26.490  1.00  0.00    -0.014 A 
ATOM     94  C   UNL A   1      49.901  26.681  25.177  1.00  0.00     0.010 A 
ATOM     95  C   UNL A   1      50.270  25.936  27.459  1.00  0.00     0.010 A 
ATOM     96  C   UNL A   1      51.191  26.267  24.833  1.00  0.00     0.020 A 
ATOM     97  C   UNL A   1      51.560  25.524  27.119  1.00  0.00     0.020 A 
ATOM     98  C   UNL A   1      52.009  25.681  25.803  1.00  0.00     0.054 A 
BRANCH  98  99
ATOM     99  S   UNL A   1      53.693  25.169  25.364  1.00  0.00     0.124 S 
ATOM    100  O   UNL A   1      54.491  25.851  26.378  1.00  0.00    -0.237 OA
ATOM    101  O   UNL A   1      53.641  23.714  25.480  1.00  0.00    -0.237 OA
ATOM    102  O   UNL A   1      53.851  25.671  24.000  1.00  0.00    -0.744 OA
ENDBRANCH  98  99
ENDBRANCH  72  93
ENDBRANCH  46  47
ENDBRANCH  38  41
ENDBRANCH  36  37
ENDBRANCH  35  36
ENDBRANCH  34  35
ENDBRANCH   1  34
TORSDOF 19
ENDMDL
