MODEL 1
REMARK VINA RESULT:     -10.4      0.000      0.000
REMARK SMILES COc1ccc(Nc2cc(C(=O)NCCCCCCNC(=O)c3ccc(-c4c5nc(c(-c6ccc(S(=O)(=O)[O-])cc6)c6ccc([nH]6)c(-c6ccc(S(=O)(=O)[O-])cc6)c6nc(c(-c7ccc(S(=O)(=O)[O-])cc7)c7ccc4[nH]7)C=C6)C=C5)cc3)ccn2)cc1
REMARK SMILES IDX 16 1 15 2 14 3 13 4 11 5 12 6 10 8 8 9 9 10 85 11 84 12
REMARK SMILES IDX 83 13 7 14 6 16 3 17 4 18 87 19 5 20 86 21 2 22 1 23 17 24
REMARK SMILES IDX 18 25 19 26 20 27 21 28 22 30 23 31 24 32 82 33 25 34 81 35
REMARK SMILES IDX 26 36 27 37 28 38 75 39 29 40 80 41 74 42 76 43 30 44 79 45
REMARK SMILES IDX 73 46 72 47 31 49 61 50 42 51 60 52 43 53 46 54 59 55 77 56
REMARK SMILES IDX 44 57 45 58 58 60 78 61 47 62 32 63 33 64 41 65 34 66 40 67
REMARK SMILES IDX 35 68 36 69 37 70 38 71 39 72 62 73 63 74 71 75 64 76 70 77
REMARK SMILES IDX 65 78 66 79 67 80 68 81 69 82 48 83 49 84 57 85 50 86 56 87
REMARK SMILES IDX 51 88 52 89 53 90 54 91 55 92
REMARK H PARENT 13 7 7 15 20 29 76 48 46 59
REMARK Flexibility Score: inf
ROOT
ATOM      1  C   UNL A   1      34.490  25.297  25.625  1.00  0.00     0.002 C 
ENDROOT
BRANCH   1   2
ATOM      2  C   UNL A   1      34.866  24.510  24.361  1.00  0.00     0.021 C 
BRANCH   2   3
ATOM      3  C   UNL A   1      34.820  22.994  24.574  1.00  0.00     0.116 C 
BRANCH   3   4
ATOM      4  N   UNL A   1      33.805  22.404  23.720  1.00  0.00    -0.352 N 
ATOM      5  C   UNL A   1      32.435  22.450  23.704  1.00  0.00     0.251 C 
ATOM      6  O   UNL A   1      31.863  21.779  22.842  1.00  0.00    -0.269 OA
ATOM      7  H   UNL A   1      34.180  21.852  22.997  1.00  0.00     0.163 HD
BRANCH   5   8
ATOM      8  C   UNL A   1      31.610  23.306  24.601  1.00  0.00     0.044 A 
ATOM      9  C   UNL A   1      29.955  24.978  25.080  1.00  0.00     0.131 A 
ATOM     10  C   UNL A   1      30.862  24.402  24.195  1.00  0.00     0.061 A 
ATOM     11  N   UNL A   1      29.922  24.657  26.386  1.00  0.00    -0.239 NA
ATOM     12  C   UNL A   1      30.729  23.657  26.795  1.00  0.00     0.114 A 
ATOM     13  C   UNL A   1      31.552  22.940  25.947  1.00  0.00     0.034 A 
BRANCH   9  14
ATOM     14  N   UNL A   1      28.939  25.816  24.589  1.00  0.00    -0.340 N 
ATOM     15  H   UNL A   1      28.010  25.542  24.761  1.00  0.00     0.168 HD
BRANCH  14  16
ATOM     16  C   UNL A   1      29.135  27.021  23.870  1.00  0.00     0.040 A 
ATOM     17  C   UNL A   1      29.561  29.447  22.488  1.00  0.00     0.119 A 
ATOM     18  C   UNL A   1      28.269  28.980  22.706  1.00  0.00     0.048 A 
ATOM     19  C   UNL A   1      30.643  28.719  22.984  1.00  0.00     0.048 A 
ATOM     20  C   UNL A   1      28.059  27.780  23.386  1.00  0.00     0.030 A 
ATOM     21  C   UNL A   1      30.428  27.515  23.673  1.00  0.00     0.030 A 
BRANCH  17  22
ATOM     22  O   UNL A   1      29.637  30.647  21.840  1.00  0.00    -0.497 OA
ATOM     23  C   UNL A   1      28.510  31.504  21.991  1.00  0.00     0.278 C 
ENDBRANCH  17  22
ENDBRANCH  14  16
ENDBRANCH   9  14
ENDBRANCH   5   8
ENDBRANCH   3   4
ENDBRANCH   2   3
ENDBRANCH   1   2
BRANCH   1  24
ATOM     24  C   UNL A   1      33.603  26.524  25.374  1.00  0.00     0.002 C 
BRANCH  24  25
ATOM     25  C   UNL A   1      33.792  27.672  26.371  1.00  0.00     0.021 C 
BRANCH  25  26
ATOM     26  C   UNL A   1      34.235  28.985  25.734  1.00  0.00     0.116 C 
BRANCH  26  27
ATOM     27  N   UNL A   1      33.874  30.126  26.561  1.00  0.00    -0.352 N 
ATOM     28  C   UNL A   1      34.485  30.605  27.693  1.00  0.00     0.251 C 
ATOM     29  H   UNL A   1      33.079  30.626  26.267  1.00  0.00     0.163 HD
ATOM     30  O   UNL A   1      33.905  31.422  28.402  1.00  0.00    -0.269 OA
BRANCH  28  31
ATOM     31  C   UNL A   1      35.837  30.131  28.057  1.00  0.00     0.039 A 
ATOM     32  C   UNL A   1      36.873  30.260  27.129  1.00  0.00     0.014 A 
ATOM     33  C   UNL A   1      36.076  29.539  29.300  1.00  0.00     0.014 A 
ATOM     34  C   UNL A   1      38.160  29.837  27.467  1.00  0.00     0.010 A 
ATOM     35  C   UNL A   1      37.372  29.182  29.660  1.00  0.00     0.010 A 
ATOM     36  C   UNL A   1      38.427  29.319  28.745  1.00  0.00    -0.014 A 
BRANCH  36  37
ATOM     37  C   UNL A   1      39.799  28.909  29.138  1.00  0.00     0.031 A 
ATOM     38  C   UNL A   1      40.714  29.889  29.825  1.00  0.00     0.074 A 
ATOM     39  C   UNL A   1      40.242  27.674  28.823  1.00  0.00     0.049 A 
ATOM     40  N   UNL A   1      41.961  29.734  30.188  1.00  0.00    -0.248 NA
ATOM     41  C   UNL A   1      40.166  31.225  30.118  1.00  0.00     0.031 C 
ATOM     42  C   UNL A   1      39.466  26.649  28.119  1.00  0.00     0.029 A 
ATOM     43  N   UNL A   1      41.456  27.074  29.045  1.00  0.00    -0.354 N 
ATOM     44  C   UNL A   1      42.353  30.953  30.729  1.00  0.00     0.074 A 
ATOM     45  C   UNL A   1      41.226  31.851  30.613  1.00  0.00     0.031 C 
ATOM     46  C   UNL A   1      40.217  25.544  27.985  1.00  0.00     0.029 A 
ATOM     47  C   UNL A   1      41.537  25.792  28.554  1.00  0.00     0.049 A 
ATOM     48  H   UNL A   1      42.199  27.521  29.511  1.00  0.00     0.167 HD
ATOM     49  C   UNL A   1      43.540  31.290  31.286  1.00  0.00     0.031 A 
ATOM     50  C   UNL A   1      42.562  24.917  28.553  1.00  0.00     0.031 A 
ATOM     51  C   UNL A   1      44.649  30.384  31.429  1.00  0.00     0.049 A 
ATOM     52  C   UNL A   1      43.867  25.316  29.190  1.00  0.00     0.074 A 
ATOM     53  C   UNL A   1      45.865  30.610  32.050  1.00  0.00     0.029 A 
ATOM     54  N   UNL A   1      44.680  29.085  30.948  1.00  0.00    -0.354 N 
ATOM     55  N   UNL A   1      44.187  26.448  29.771  1.00  0.00    -0.248 NA
ATOM     56  C   UNL A   1      44.942  24.315  29.186  1.00  0.00     0.031 C 
ATOM     57  C   UNL A   1      46.653  29.466  31.896  1.00  0.00     0.029 A 
ATOM     58  C   UNL A   1      45.904  28.507  31.235  1.00  0.00     0.049 A 
ATOM     59  H   UNL A   1      43.942  28.641  30.472  1.00  0.00     0.167 HD
ATOM     60  C   UNL A   1      45.490  26.281  30.230  1.00  0.00     0.074 A 
ATOM     61  C   UNL A   1      45.890  24.935  29.874  1.00  0.00     0.031 C 
ATOM     62  C   UNL A   1      46.283  27.161  30.886  1.00  0.00     0.031 A 
BRANCH  49  63
ATOM     63  C   UNL A   1      43.715  32.698  31.791  1.00  0.00    -0.014 A 
ATOM     64  C   UNL A   1      44.072  33.743  30.920  1.00  0.00     0.010 A 
ATOM     65  C   UNL A   1      43.420  32.995  33.134  1.00  0.00     0.010 A 
ATOM     66  C   UNL A   1      44.145  35.058  31.389  1.00  0.00     0.020 A 
ATOM     67  C   UNL A   1      43.467  34.313  33.600  1.00  0.00     0.020 A 
ATOM     68  C   UNL A   1      43.835  35.336  32.723  1.00  0.00     0.054 A 
BRANCH  68  69
ATOM     69  S   UNL A   1      43.866  37.061  33.282  1.00  0.00     0.124 S 
ATOM     70  O   UNL A   1      45.124  37.115  34.023  1.00  0.00    -0.237 OA
ATOM     71  O   UNL A   1      43.845  37.804  32.024  1.00  0.00    -0.237 OA
ATOM     72  O   UNL A   1      42.660  37.184  34.096  1.00  0.00    -0.744 OA
ENDBRANCH  68  69
ENDBRANCH  49  63
BRANCH  50  73
ATOM     73  C   UNL A   1      42.410  23.579  27.917  1.00  0.00    -0.014 A 
ATOM     74  C   UNL A   1      42.072  22.451  28.687  1.00  0.00     0.010 A 
ATOM     75  C   UNL A   1      42.636  23.420  26.538  1.00  0.00     0.010 A 
ATOM     76  C   UNL A   1      42.008  21.185  28.099  1.00  0.00     0.020 A 
ATOM     77  C   UNL A   1      42.541  22.161  25.940  1.00  0.00     0.020 A 
ATOM     78  C   UNL A   1      42.250  21.048  26.730  1.00  0.00     0.054 A 
BRANCH  78  79
ATOM     79  S   UNL A   1      42.157  19.397  25.981  1.00  0.00     0.124 S 
ATOM     80  O   UNL A   1      42.636  18.547  27.066  1.00  0.00    -0.237 OA
ATOM     81  O   UNL A   1      40.738  19.275  25.658  1.00  0.00    -0.237 OA
ATOM     82  O   UNL A   1      43.044  19.500  24.825  1.00  0.00    -0.744 OA
ENDBRANCH  78  79
ENDBRANCH  50  73
BRANCH  62  83
ATOM     83  C   UNL A   1      47.648  26.687  31.308  1.00  0.00    -0.014 A 
ATOM     84  C   UNL A   1      47.875  26.156  32.589  1.00  0.00     0.010 A 
ATOM     85  C   UNL A   1      48.708  26.727  30.383  1.00  0.00     0.010 A 
ATOM     86  C   UNL A   1      49.148  25.706  32.950  1.00  0.00     0.020 A 
ATOM     87  C   UNL A   1      49.974  26.250  30.730  1.00  0.00     0.020 A 
ATOM     88  C   UNL A   1      50.189  25.757  32.018  1.00  0.00     0.054 A 
BRANCH  88  89
ATOM     89  S   UNL A   1      51.821  25.130  32.498  1.00  0.00     0.124 S 
ATOM     90  O   UNL A   1      51.897  25.525  33.902  1.00  0.00    -0.237 OA
ATOM     91  O   UNL A   1      51.698  23.694  32.255  1.00  0.00    -0.237 OA
ATOM     92  O   UNL A   1      52.740  25.831  31.603  1.00  0.00    -0.744 OA
ENDBRANCH  88  89
ENDBRANCH  62  83
ENDBRANCH  36  37
ENDBRANCH  28  31
ENDBRANCH  26  27
ENDBRANCH  25  26
ENDBRANCH  24  25
ENDBRANCH   1  24
TORSDOF 19
ENDMDL
MODEL 2
REMARK VINA RESULT:     -10.3      4.524     10.084
REMARK SMILES COc1ccc(Nc2cc(C(=O)NCCCCCCNC(=O)c3ccc(-c4c5nc(c(-c6ccc(S(=O)(=O)[O-])cc6)c6ccc([nH]6)c(-c6ccc(S(=O)(=O)[O-])cc6)c6nc(c(-c7ccc(S(=O)(=O)[O-])cc7)c7ccc4[nH]7)C=C6)C=C5)cc3)ccn2)cc1
REMARK SMILES IDX 16 1 15 2 14 3 13 4 11 5 12 6 10 8 8 9 9 10 85 11 84 12
REMARK SMILES IDX 83 13 7 14 6 16 3 17 4 18 87 19 5 20 86 21 2 22 1 23 17 24
REMARK SMILES IDX 18 25 19 26 20 27 21 28 22 30 23 31 24 32 82 33 25 34 81 35
REMARK SMILES IDX 26 36 27 37 28 38 75 39 29 40 80 41 74 42 76 43 30 44 79 45
REMARK SMILES IDX 73 46 72 47 31 49 61 50 42 51 60 52 43 53 46 54 59 55 77 56
REMARK SMILES IDX 44 57 45 58 58 60 78 61 47 62 32 63 33 64 41 65 34 66 40 67
REMARK SMILES IDX 35 68 36 69 37 70 38 71 39 72 62 73 63 74 71 75 64 76 70 77
REMARK SMILES IDX 65 78 66 79 67 80 68 81 69 82 48 83 49 84 57 85 50 86 56 87
REMARK SMILES IDX 51 88 52 89 53 90 54 91 55 92
REMARK H PARENT 13 7 7 15 20 29 76 48 46 59
REMARK Flexibility Score: inf
ROOT
ATOM      1  C   UNL A   1      40.374  22.564  26.876  1.00  0.00     0.002 C 
ENDROOT
BRANCH   1   2
ATOM      2  C   UNL A   1      39.187  21.907  26.156  1.00  0.00     0.021 C 
BRANCH   2   3
ATOM      3  C   UNL A   1      37.995  22.855  25.999  1.00  0.00     0.116 C 
BRANCH   3   4
ATOM      4  N   UNL A   1      37.715  23.070  24.591  1.00  0.00    -0.352 N 
ATOM      5  C   UNL A   1      36.565  23.101  23.845  1.00  0.00     0.251 C 
ATOM      6  O   UNL A   1      36.690  23.271  22.631  1.00  0.00    -0.269 OA
ATOM      7  H   UNL A   1      38.525  23.228  24.055  1.00  0.00     0.163 HD
BRANCH   5   8
ATOM      8  C   UNL A   1      35.190  23.018  24.413  1.00  0.00     0.044 A 
ATOM      9  C   UNL A   1      33.010  22.048  24.677  1.00  0.00     0.131 A 
ATOM     10  C   UNL A   1      34.172  22.212  23.927  1.00  0.00     0.061 A 
ATOM     11  N   UNL A   1      32.737  22.806  25.754  1.00  0.00    -0.239 NA
ATOM     12  C   UNL A   1      33.695  23.664  26.163  1.00  0.00     0.114 A 
ATOM     13  C   UNL A   1      34.931  23.779  25.555  1.00  0.00     0.034 A 
BRANCH   9  14
ATOM     14  N   UNL A   1      32.152  20.969  24.404  1.00  0.00    -0.340 N 
ATOM     15  H   UNL A   1      31.215  21.185  24.190  1.00  0.00     0.168 HD
BRANCH  14  16
ATOM     16  C   UNL A   1      32.514  19.600  24.409  1.00  0.00     0.040 A 
ATOM     17  C   UNL A   1      33.179  16.855  24.387  1.00  0.00     0.119 A 
ATOM     18  C   UNL A   1      33.171  17.567  25.582  1.00  0.00     0.048 A 
ATOM     19  C   UNL A   1      32.828  17.504  23.204  1.00  0.00     0.048 A 
ATOM     20  C   UNL A   1      32.846  18.923  25.592  1.00  0.00     0.030 A 
ATOM     21  C   UNL A   1      32.495  18.869  23.218  1.00  0.00     0.030 A 
BRANCH  17  22
ATOM     22  O   UNL A   1      33.481  15.529  24.510  1.00  0.00    -0.497 OA
ATOM     23  C   UNL A   1      32.661  14.788  25.407  1.00  0.00     0.278 C 
ENDBRANCH  17  22
ENDBRANCH  14  16
ENDBRANCH   9  14
ENDBRANCH   5   8
ENDBRANCH   3   4
ENDBRANCH   2   3
ENDBRANCH   1   2
BRANCH   1  24
ATOM     24  C   UNL A   1      41.603  21.659  27.038  1.00  0.00     0.002 C 
BRANCH  24  25
ATOM     25  C   UNL A   1      41.603  20.406  26.157  1.00  0.00     0.021 C 
BRANCH  25  26
ATOM     26  C   UNL A   1      42.648  19.366  26.549  1.00  0.00     0.116 C 
BRANCH  26  27
ATOM     27  N   UNL A   1      43.460  18.972  25.408  1.00  0.00    -0.352 N 
ATOM     28  C   UNL A   1      44.219  19.751  24.572  1.00  0.00     0.251 C 
ATOM     29  H   UNL A   1      43.467  18.007  25.209  1.00  0.00     0.163 HD
ATOM     30  O   UNL A   1      44.638  19.288  23.516  1.00  0.00    -0.269 OA
BRANCH  28  31
ATOM     31  C   UNL A   1      44.526  21.149  24.945  1.00  0.00     0.039 A 
ATOM     32  C   UNL A   1      44.083  22.183  24.119  1.00  0.00     0.014 A 
ATOM     33  C   UNL A   1      45.268  21.435  26.094  1.00  0.00     0.014 A 
ATOM     34  C   UNL A   1      44.345  23.509  24.469  1.00  0.00     0.010 A 
ATOM     35  C   UNL A   1      45.469  22.758  26.478  1.00  0.00     0.010 A 
ATOM     36  C   UNL A   1      45.018  23.809  25.666  1.00  0.00    -0.014 A 
BRANCH  36  37
ATOM     37  C   UNL A   1      45.263  25.215  26.079  1.00  0.00     0.031 A 
ATOM     38  C   UNL A   1      46.654  25.791  26.013  1.00  0.00     0.074 A 
ATOM     39  C   UNL A   1      44.246  25.952  26.570  1.00  0.00     0.049 A 
ATOM     40  N   UNL A   1      47.072  26.972  26.386  1.00  0.00    -0.248 NA
ATOM     41  C   UNL A   1      47.716  24.918  25.485  1.00  0.00     0.031 C 
ATOM     42  C   UNL A   1      42.863  25.492  26.726  1.00  0.00     0.029 A 
ATOM     43  N   UNL A   1      44.219  27.242  27.039  1.00  0.00    -0.354 N 
ATOM     44  C   UNL A   1      48.444  26.978  26.160  1.00  0.00     0.074 A 
ATOM     45  C   UNL A   1      48.796  25.671  25.654  1.00  0.00     0.031 C 
ATOM     46  C   UNL A   1      42.122  26.490  27.235  1.00  0.00     0.029 A 
ATOM     47  C   UNL A   1      42.980  27.644  27.480  1.00  0.00     0.049 A 
ATOM     48  H   UNL A   1      45.013  27.824  27.057  1.00  0.00     0.167 HD
ATOM     49  C   UNL A   1      49.328  27.987  26.343  1.00  0.00     0.031 A 
ATOM     50  C   UNL A   1      42.581  28.808  28.029  1.00  0.00     0.031 A 
ATOM     51  C   UNL A   1      48.969  29.297  26.817  1.00  0.00     0.049 A 
ATOM     52  C   UNL A   1      43.585  29.916  28.209  1.00  0.00     0.074 A 
ATOM     53  C   UNL A   1      49.781  30.409  26.961  1.00  0.00     0.029 A 
ATOM     54  N   UNL A   1      47.699  29.674  27.222  1.00  0.00    -0.354 N 
ATOM     55  N   UNL A   1      44.862  29.926  27.909  1.00  0.00    -0.248 NA
ATOM     56  C   UNL A   1      43.091  31.174  28.787  1.00  0.00     0.031 C 
ATOM     57  C   UNL A   1      49.015  31.442  27.506  1.00  0.00     0.029 A 
ATOM     58  C   UNL A   1      47.712  30.993  27.642  1.00  0.00     0.049 A 
ATOM     59  H   UNL A   1      46.906  29.091  27.214  1.00  0.00     0.167 HD
ATOM     60  C   UNL A   1      45.315  31.201  28.233  1.00  0.00     0.074 A 
ATOM     61  C   UNL A   1      44.173  31.938  28.733  1.00  0.00     0.031 C 
ATOM     62  C   UNL A   1      46.563  31.716  28.125  1.00  0.00     0.031 A 
BRANCH  49  63
ATOM     63  C   UNL A   1      50.778  27.727  26.032  1.00  0.00    -0.014 A 
ATOM     64  C   UNL A   1      51.312  28.010  24.761  1.00  0.00     0.010 A 
ATOM     65  C   UNL A   1      51.639  27.288  27.054  1.00  0.00     0.010 A 
ATOM     66  C   UNL A   1      52.678  27.845  24.517  1.00  0.00     0.020 A 
ATOM     67  C   UNL A   1      53.010  27.146  26.820  1.00  0.00     0.020 A 
ATOM     68  C   UNL A   1      53.520  27.421  25.549  1.00  0.00     0.054 A 
BRANCH  68  69
ATOM     69  S   UNL A   1      55.299  27.288  25.221  1.00  0.00     0.124 S 
ATOM     70  O   UNL A   1      55.813  26.859  26.519  1.00  0.00    -0.237 OA
ATOM     71  O   UNL A   1      55.353  26.286  24.160  1.00  0.00    -0.237 OA
ATOM     72  O   UNL A   1      55.679  28.640  24.818  1.00  0.00    -0.744 OA
ENDBRANCH  68  69
ENDBRANCH  49  63
BRANCH  50  73
ATOM     73  C   UNL A   1      41.168  28.991  28.463  1.00  0.00    -0.014 A 
ATOM     74  C   UNL A   1      40.147  29.201  27.519  1.00  0.00     0.010 A 
ATOM     75  C   UNL A   1      40.843  28.990  29.832  1.00  0.00     0.010 A 
ATOM     76  C   UNL A   1      38.836  29.450  27.937  1.00  0.00     0.020 A 
ATOM     77  C   UNL A   1      39.528  29.207  30.252  1.00  0.00     0.020 A 
ATOM     78  C   UNL A   1      38.537  29.458  29.301  1.00  0.00     0.054 A 
BRANCH  78  79
ATOM     79  S   UNL A   1      36.830  29.778  29.826  1.00  0.00     0.124 S 
ATOM     80  O   UNL A   1      36.069  29.340  28.660  1.00  0.00    -0.237 OA
ATOM     81  O   UNL A   1      36.703  28.943  31.017  1.00  0.00    -0.237 OA
ATOM     82  O   UNL A   1      36.818  31.217  30.080  1.00  0.00    -0.744 OA
ENDBRANCH  78  79
ENDBRANCH  50  73
BRANCH  62  83
ATOM     83  C   UNL A   1      46.756  33.159  28.509  1.00  0.00    -0.014 A 
ATOM     84  C   UNL A   1      46.584  34.195  27.574  1.00  0.00     0.010 A 
ATOM     85  C   UNL A   1      47.063  33.482  29.843  1.00  0.00     0.010 A 
ATOM     86  C   UNL A   1      46.751  35.528  27.960  1.00  0.00     0.020 A 
ATOM     87  C   UNL A   1      47.200  34.814  30.240  1.00  0.00     0.020 A 
ATOM     88  C   UNL A   1      47.059  35.828  29.291  1.00  0.00     0.054 A 
BRANCH  88  89
ATOM     89  S   UNL A   1      47.231  37.567  29.775  1.00  0.00     0.124 S 
ATOM     90  O   UNL A   1      47.231  38.244  28.481  1.00  0.00    -0.237 OA
ATOM     91  O   UNL A   1      46.046  37.789  30.602  1.00  0.00    -0.237 OA
ATOM     92  O   UNL A   1      48.502  37.602  30.497  1.00  0.00    -0.744 OA
ENDBRANCH  88  89
ENDBRANCH  62  83
ENDBRANCH  36  37
ENDBRANCH  28  31
ENDBRANCH  26  27
ENDBRANCH  25  26
ENDBRANCH  24  25
ENDBRANCH   1  24
TORSDOF 19
ENDMDL
MODEL 3
REMARK VINA RESULT:     -10.1      4.943     11.372
REMARK SMILES COc1ccc(Nc2cc(C(=O)NCCCCCCNC(=O)c3ccc(-c4c5nc(c(-c6ccc(S(=O)(=O)[O-])cc6)c6ccc([nH]6)c(-c6ccc(S(=O)(=O)[O-])cc6)c6nc(c(-c7ccc(S(=O)(=O)[O-])cc7)c7ccc4[nH]7)C=C6)C=C5)cc3)ccn2)cc1
REMARK SMILES IDX 16 1 15 2 14 3 13 4 11 5 12 6 10 8 8 9 9 10 85 11 84 12
REMARK SMILES IDX 83 13 7 14 6 16 3 17 4 18 87 19 5 20 86 21 2 22 1 23 17 24
REMARK SMILES IDX 18 25 19 26 20 27 21 28 22 30 23 31 24 32 82 33 25 34 81 35
REMARK SMILES IDX 26 36 27 37 28 38 75 39 29 40 80 41 74 42 76 43 30 44 79 45
REMARK SMILES IDX 73 46 72 47 31 49 61 50 42 51 60 52 43 53 46 54 59 55 77 56
REMARK SMILES IDX 44 57 45 58 58 60 78 61 47 62 32 63 33 64 41 65 34 66 40 67
REMARK SMILES IDX 35 68 36 69 37 70 38 71 39 72 62 73 63 74 71 75 64 76 70 77
REMARK SMILES IDX 65 78 66 79 67 80 68 81 69 82 48 83 49 84 57 85 50 86 56 87
REMARK SMILES IDX 51 88 52 89 53 90 54 91 55 92
REMARK H PARENT 13 7 7 15 20 29 76 48 46 59
REMARK Flexibility Score: inf
ROOT
ATOM      1  C   UNL A   1      43.284  23.218  25.100  1.00  0.00     0.002 C 
ENDROOT
BRANCH   1   2
ATOM      2  C   UNL A   1      44.478  23.486  26.027  1.00  0.00     0.021 C 
BRANCH   2   3
ATOM      3  C   UNL A   1      44.571  24.952  26.461  1.00  0.00     0.116 C 
BRANCH   3   4
ATOM      4  N   UNL A   1      43.789  25.785  25.564  1.00  0.00    -0.352 N 
ATOM      5  C   UNL A   1      43.679  27.138  25.380  1.00  0.00     0.251 C 
ATOM      6  O   UNL A   1      42.867  27.524  24.537  1.00  0.00    -0.269 OA
ATOM      7  H   UNL A   1      43.215  25.265  24.956  1.00  0.00     0.163 HD
BRANCH   5   8
ATOM      8  C   UNL A   1      44.520  28.154  26.073  1.00  0.00     0.044 A 
ATOM      9  C   UNL A   1      44.891  30.133  27.380  1.00  0.00     0.131 A 
ATOM     10  C   UNL A   1      44.068  29.374  26.552  1.00  0.00     0.061 A 
ATOM     11  N   UNL A   1      46.190  29.839  27.567  1.00  0.00    -0.239 NA
ATOM     12  C   UNL A   1      46.651  28.699  27.011  1.00  0.00     0.114 A 
ATOM     13  C   UNL A   1      45.858  27.821  26.295  1.00  0.00     0.034 A 
BRANCH   9  14
ATOM     14  N   UNL A   1      44.335  31.155  28.168  1.00  0.00    -0.340 N 
ATOM     15  H   UNL A   1      44.137  30.940  29.107  1.00  0.00     0.168 HD
BRANCH  14  16
ATOM     16  C   UNL A   1      44.033  32.467  27.729  1.00  0.00     0.040 A 
ATOM     17  C   UNL A   1      43.368  35.078  26.879  1.00  0.00     0.119 A 
ATOM     18  C   UNL A   1      43.859  34.147  25.970  1.00  0.00     0.048 A 
ATOM     19  C   UNL A   1      43.181  34.701  28.208  1.00  0.00     0.048 A 
ATOM     20  C   UNL A   1      44.190  32.858  26.390  1.00  0.00     0.030 A 
ATOM     21  C   UNL A   1      43.510  33.401  28.628  1.00  0.00     0.030 A 
BRANCH  17  22
ATOM     22  O   UNL A   1      43.050  36.293  26.342  1.00  0.00    -0.497 OA
ATOM     23  C   UNL A   1      43.391  37.427  27.131  1.00  0.00     0.278 C 
ENDBRANCH  17  22
ENDBRANCH  14  16
ENDBRANCH   9  14
ENDBRANCH   5   8
ENDBRANCH   3   4
ENDBRANCH   2   3
ENDBRANCH   1   2
BRANCH   1  24
ATOM     24  C   UNL A   1      42.328  22.121  25.590  1.00  0.00     0.002 C 
BRANCH  24  25
ATOM     25  C   UNL A   1      41.714  22.369  26.971  1.00  0.00     0.021 C 
BRANCH  25  26
ATOM     26  C   UNL A   1      40.419  21.604  27.226  1.00  0.00     0.116 C 
BRANCH  26  27
ATOM     27  N   UNL A   1      39.375  21.999  26.293  1.00  0.00    -0.352 N 
ATOM     28  C   UNL A   1      38.716  23.197  26.183  1.00  0.00     0.251 C 
ATOM     29  H   UNL A   1      39.104  21.307  25.646  1.00  0.00     0.163 HD
ATOM     30  O   UNL A   1      37.695  23.274  25.506  1.00  0.00    -0.269 OA
BRANCH  28  31
ATOM     31  C   UNL A   1      39.236  24.390  26.885  1.00  0.00     0.039 A 
ATOM     32  C   UNL A   1      40.034  25.296  26.184  1.00  0.00     0.014 A 
ATOM     33  C   UNL A   1      38.955  24.601  28.238  1.00  0.00     0.014 A 
ATOM     34  C   UNL A   1      40.513  26.439  26.827  1.00  0.00     0.010 A 
ATOM     35  C   UNL A   1      39.376  25.774  28.859  1.00  0.00     0.010 A 
ATOM     36  C   UNL A   1      40.166  26.701  28.164  1.00  0.00    -0.014 A 
BRANCH  36  37
ATOM     37  C   UNL A   1      40.627  27.935  28.850  1.00  0.00     0.031 A 
ATOM     38  C   UNL A   1      42.007  27.996  29.452  1.00  0.00     0.074 A 
ATOM     39  C   UNL A   1      39.782  28.978  28.984  1.00  0.00     0.049 A 
ATOM     40  N   UNL A   1      42.562  28.960  30.139  1.00  0.00    -0.248 NA
ATOM     41  C   UNL A   1      42.865  26.811  29.281  1.00  0.00     0.031 C 
ATOM     42  C   UNL A   1      38.405  29.023  28.484  1.00  0.00     0.029 A 
ATOM     43  N   UNL A   1      39.953  30.197  29.590  1.00  0.00    -0.354 N 
ATOM     44  C   UNL A   1      43.820  28.492  30.502  1.00  0.00     0.074 A 
ATOM     45  C   UNL A   1      43.934  27.144  29.993  1.00  0.00     0.031 C 
ATOM     46  C   UNL A   1      37.865  30.215  28.788  1.00  0.00     0.029 A 
ATOM     47  C   UNL A   1      38.839  31.002  29.537  1.00  0.00     0.049 A 
ATOM     48  H   UNL A   1      40.794  30.469  30.023  1.00  0.00     0.167 HD
ATOM     49  C   UNL A   1      44.797  29.134  31.184  1.00  0.00     0.031 A 
ATOM     50  C   UNL A   1      38.622  32.232  30.043  1.00  0.00     0.031 A 
ATOM     51  C   UNL A   1      44.692  30.487  31.661  1.00  0.00     0.049 A 
ATOM     52  C   UNL A   1      39.732  32.925  30.788  1.00  0.00     0.074 A 
ATOM     53  C   UNL A   1      45.658  31.250  32.294  1.00  0.00     0.029 A 
ATOM     54  N   UNL A   1      43.560  31.279  31.559  1.00  0.00    -0.354 N 
ATOM     55  N   UNL A   1      40.944  32.494  31.046  1.00  0.00    -0.248 NA
ATOM     56  C   UNL A   1      39.451  34.275  31.294  1.00  0.00     0.031 C 
ATOM     57  C   UNL A   1      45.092  32.484  32.626  1.00  0.00     0.029 A 
ATOM     58  C   UNL A   1      43.795  32.512  32.142  1.00  0.00     0.049 A 
ATOM     59  H   UNL A   1      42.714  31.005  31.137  1.00  0.00     0.167 HD
ATOM     60  C   UNL A   1      41.579  33.534  31.717  1.00  0.00     0.074 A 
ATOM     61  C   UNL A   1      40.624  34.619  31.808  1.00  0.00     0.031 C 
ATOM     62  C   UNL A   1      42.838  33.587  32.213  1.00  0.00     0.031 A 
BRANCH  49  63
ATOM     63  C   UNL A   1      46.077  28.389  31.462  1.00  0.00    -0.014 A 
ATOM     64  C   UNL A   1      47.213  28.569  30.653  1.00  0.00     0.010 A 
ATOM     65  C   UNL A   1      46.171  27.578  32.608  1.00  0.00     0.010 A 
ATOM     66  C   UNL A   1      48.417  27.938  30.978  1.00  0.00     0.020 A 
ATOM     67  C   UNL A   1      47.381  26.965  32.949  1.00  0.00     0.020 A 
ATOM     68  C   UNL A   1      48.496  27.145  32.127  1.00  0.00     0.054 A 
BRANCH  68  69
ATOM     69  S   UNL A   1      50.091  26.400  32.562  1.00  0.00     0.124 S 
ATOM     70  O   UNL A   1      50.372  25.583  31.384  1.00  0.00    -0.237 OA
ATOM     71  O   UNL A   1      50.951  27.568  32.736  1.00  0.00    -0.237 OA
ATOM     72  O   UNL A   1      49.804  25.652  33.783  1.00  0.00    -0.744 OA
ENDBRANCH  68  69
ENDBRANCH  49  63
BRANCH  50  73
ATOM     73  C   UNL A   1      37.296  32.891  29.879  1.00  0.00    -0.014 A 
ATOM     74  C   UNL A   1      36.928  33.470  28.651  1.00  0.00     0.010 A 
ATOM     75  C   UNL A   1      36.406  32.972  30.966  1.00  0.00     0.010 A 
ATOM     76  C   UNL A   1      35.716  34.156  28.527  1.00  0.00     0.020 A 
ATOM     77  C   UNL A   1      35.180  33.628  30.836  1.00  0.00     0.020 A 
ATOM     78  C   UNL A   1      34.853  34.235  29.622  1.00  0.00     0.054 A 
BRANCH  78  79
ATOM     79  S   UNL A   1      33.281  35.124  29.442  1.00  0.00     0.124 S 
ATOM     80  O   UNL A   1      33.733  36.458  29.055  1.00  0.00    -0.237 OA
ATOM     81  O   UNL A   1      32.602  34.358  28.400  1.00  0.00    -0.237 OA
ATOM     82  O   UNL A   1      32.681  35.024  30.770  1.00  0.00    -0.744 OA
ENDBRANCH  78  79
ENDBRANCH  50  73
BRANCH  62  83
ATOM     83  C   UNL A   1      43.279  34.874  32.857  1.00  0.00    -0.014 A 
ATOM     84  C   UNL A   1      43.374  34.999  34.254  1.00  0.00     0.010 A 
ATOM     85  C   UNL A   1      43.656  35.959  32.044  1.00  0.00     0.010 A 
ATOM     86  C   UNL A   1      43.803  36.200  34.827  1.00  0.00     0.020 A 
ATOM     87  C   UNL A   1      44.115  37.149  32.611  1.00  0.00     0.020 A 
ATOM     88  C   UNL A   1      44.170  37.267  34.001  1.00  0.00     0.054 A 
BRANCH  88  89
ATOM     89  S   UNL A   1      44.761  38.800  34.768  1.00  0.00     0.124 S 
ATOM     90  O   UNL A   1      44.462  39.790  33.737  1.00  0.00    -0.237 OA
ATOM     91  O   UNL A   1      43.949  38.887  35.980  1.00  0.00    -0.237 OA
ATOM     92  O   UNL A   1      46.183  38.548  34.996  1.00  0.00    -0.744 OA
ENDBRANCH  88  89
ENDBRANCH  62  83
ENDBRANCH  36  37
ENDBRANCH  28  31
ENDBRANCH  26  27
ENDBRANCH  25  26
ENDBRANCH  24  25
ENDBRANCH   1  24
TORSDOF 19
ENDMDL
