MODEL 1
REMARK VINA RESULT:     -11.7      0.000      0.000
REMARK SMILES CC(C)c1ccc(-c2cnc([C@@H]3[NH2+][C@H](C(=O)NCCCCCCNC(=O)c4ccc(-c5c6nc(c(-c7ccc(S(=O)(=O)[O-])cc7)c7ccc([nH]7)c(-c7ccc(S(=O)(=O)[O-])cc7)c7nc(c(-c8ccc(S(=O)(=O)[O-])cc8)c8ccc5[nH]8)C=C7)C=C6)cc4)C(C)(C)S3)s2)cc1
REMARK SMILES IDX 20 1 19 2 18 3 17 4 15 5 16 6 14 8 12 9 13 10 90 11 87 14
REMARK SMILES IDX 88 15 89 16 11 17 8 18 9 19 91 20 10 21 7 22 4 23 5 24 93 25
REMARK SMILES IDX 6 26 92 27 2 28 1 29 3 30 21 31 22 32 23 33 24 34 25 35
REMARK SMILES IDX 26 37 27 38 28 39 86 40 29 41 85 42 30 43 31 44 32 45 79 46
REMARK SMILES IDX 33 47 84 48 78 49 80 50 34 51 83 52 77 53 76 54 35 56 65 57
REMARK SMILES IDX 46 58 64 59 47 60 50 61 63 62 81 63 48 64 49 65 62 67 82 68
REMARK SMILES IDX 51 69 36 70 37 71 45 72 38 73 44 74 39 75 40 76 41 77 42 78
REMARK SMILES IDX 43 79 66 80 67 81 75 82 68 83 74 84 69 85 70 86 71 87 72 88
REMARK SMILES IDX 73 89 52 90 53 91 61 92 54 93 60 94 55 95 56 96 57 97 58 98
REMARK SMILES IDX 59 99
REMARK H PARENT 17 7 13 12 13 13 24 36 80 55 50 66
REMARK Flexibility Score: inf
ROOT
ATOM      1  C   UNL A   1      33.452  29.740  27.205  1.00  0.00     0.002 C 
ENDROOT
BRANCH   1   2
ATOM      2  C   UNL A   1      31.950  29.495  26.993  1.00  0.00     0.021 C 
BRANCH   2   3
ATOM      3  C   UNL A   1      31.380  28.269  27.720  1.00  0.00     0.116 C 
BRANCH   3   4
ATOM      4  N   UNL A   1      31.739  27.049  27.030  1.00  0.00    -0.351 N 
ATOM      5  C   UNL A   1      31.168  26.644  25.852  1.00  0.00     0.279 C 
ATOM      6  O   UNL A   1      30.652  25.532  25.851  1.00  0.00    -0.268 OA
ATOM      7  H   UNL A   1      32.433  26.477  27.430  1.00  0.00     0.163 HD
BRANCH   5   8
ATOM      8  C   UNL A   1      31.269  27.596  24.635  1.00  0.00     0.289 C 
ATOM      9  C   UNL A   1      32.746  26.559  23.017  1.00  0.00     0.304 C 
ATOM     10  N   UNL A   1      32.660  27.589  24.075  1.00  0.00    -0.318 N 
ATOM     11  S   UNL A   1      31.105  26.376  22.253  1.00  0.00    -0.079 SA
ATOM     12  H   UNL A   1      32.875  28.504  23.680  1.00  0.00     0.348 HD
ATOM     13  H   UNL A   1      33.330  27.379  24.816  1.00  0.00     0.348 HD
ATOM     14  C   UNL A   1      30.248  27.397  23.495  1.00  0.00     0.078 C 
ATOM     15  C   UNL A   1      29.940  28.746  22.816  1.00  0.00     0.030 C 
ATOM     16  C   UNL A   1      28.931  26.743  23.913  1.00  0.00     0.030 C 
BRANCH   9  17
ATOM     17  C   UNL A   1      33.326  25.233  23.470  1.00  0.00     0.162 A 
ATOM     18  C   UNL A   1      33.720  22.876  24.006  1.00  0.00     0.055 A 
ATOM     19  C   UNL A   1      34.748  23.756  24.286  1.00  0.00     0.132 A 
ATOM     20  S   UNL A   1      32.435  23.762  23.279  1.00  0.00    -0.112 S 
ATOM     21  N   UNL A   1      34.485  25.081  24.071  1.00  0.00    -0.242 NA
BRANCH  18  22
ATOM     22  C   UNL A   1      33.658  21.438  24.296  1.00  0.00    -0.007 A 
ATOM     23  C   UNL A   1      33.671  18.643  24.896  1.00  0.00    -0.045 A 
ATOM     24  C   UNL A   1      32.491  19.310  24.526  1.00  0.00     0.004 A 
ATOM     25  C   UNL A   1      34.849  19.401  24.925  1.00  0.00     0.004 A 
ATOM     26  C   UNL A   1      32.484  20.684  24.232  1.00  0.00     0.010 A 
ATOM     27  C   UNL A   1      34.839  20.770  24.647  1.00  0.00     0.010 A 
BRANCH  23  28
ATOM     28  C   UNL A   1      33.727  17.148  25.199  1.00  0.00     0.013 C 
ATOM     29  C   UNL A   1      32.403  16.432  24.876  1.00  0.00     0.012 C 
ATOM     30  C   UNL A   1      34.860  16.391  24.494  1.00  0.00     0.012 C 
ENDBRANCH  23  28
ENDBRANCH  18  22
ENDBRANCH   9  17
ENDBRANCH   5   8
ENDBRANCH   3   4
ENDBRANCH   2   3
ENDBRANCH   1   2
BRANCH   1  31
ATOM     31  C   UNL A   1      33.892  31.207  27.196  1.00  0.00     0.002 C 
BRANCH  31  32
ATOM     32  C   UNL A   1      34.807  31.618  28.349  1.00  0.00     0.021 C 
BRANCH  32  33
ATOM     33  C   UNL A   1      35.674  30.500  28.915  1.00  0.00     0.116 C 
BRANCH  33  34
ATOM     34  N   UNL A   1      35.667  30.472  30.367  1.00  0.00    -0.352 N 
ATOM     35  C   UNL A   1      36.674  30.102  31.224  1.00  0.00     0.251 C 
ATOM     36  H   UNL A   1      34.827  30.757  30.795  1.00  0.00     0.163 HD
ATOM     37  O   UNL A   1      36.445  29.987  32.428  1.00  0.00    -0.269 OA
BRANCH  35  38
ATOM     38  C   UNL A   1      38.027  29.817  30.697  1.00  0.00     0.039 A 
ATOM     39  C   UNL A   1      38.954  29.179  31.526  1.00  0.00     0.014 A 
ATOM     40  C   UNL A   1      38.385  30.181  29.394  1.00  0.00     0.014 A 
ATOM     41  C   UNL A   1      40.221  28.859  31.033  1.00  0.00     0.010 A 
ATOM     42  C   UNL A   1      39.626  29.805  28.885  1.00  0.00     0.010 A 
ATOM     43  C   UNL A   1      40.560  29.148  29.701  1.00  0.00    -0.014 A 
BRANCH  43  44
ATOM     44  C   UNL A   1      41.893  28.792  29.152  1.00  0.00     0.031 A 
ATOM     45  C   UNL A   1      42.982  29.829  29.081  1.00  0.00     0.074 A 
ATOM     46  C   UNL A   1      42.110  27.553  28.667  1.00  0.00     0.049 A 
ATOM     47  N   UNL A   1      44.189  29.724  28.588  1.00  0.00    -0.248 NA
ATOM     48  C   UNL A   1      42.661  31.164  29.610  1.00  0.00     0.031 C 
ATOM     49  C   UNL A   1      41.127  26.468  28.639  1.00  0.00     0.029 A 
ATOM     50  N   UNL A   1      43.229  27.001  28.097  1.00  0.00    -0.354 N 
ATOM     51  C   UNL A   1      44.764  30.982  28.728  1.00  0.00     0.074 A 
ATOM     52  C   UNL A   1      43.758  31.843  29.311  1.00  0.00     0.031 C 
ATOM     53  C   UNL A   1      41.695  25.374  28.106  1.00  0.00     0.029 A 
ATOM     54  C   UNL A   1      43.069  25.688  27.725  1.00  0.00     0.049 A 
ATOM     55  H   UNL A   1      44.069  27.499  27.966  1.00  0.00     0.167 HD
ATOM     56  C   UNL A   1      46.020  31.383  28.416  1.00  0.00     0.031 A 
ATOM     57  C   UNL A   1      43.931  24.830  27.143  1.00  0.00     0.031 A 
ATOM     58  C   UNL A   1      47.028  30.523  27.855  1.00  0.00     0.049 A 
ATOM     59  C   UNL A   1      45.327  25.289  26.828  1.00  0.00     0.074 A 
ATOM     60  C   UNL A   1      48.344  30.822  27.549  1.00  0.00     0.029 A 
ATOM     61  N   UNL A   1      46.833  29.191  27.521  1.00  0.00    -0.354 N 
ATOM     62  N   UNL A   1      45.867  26.470  27.011  1.00  0.00    -0.248 NA
ATOM     63  C   UNL A   1      46.234  24.294  26.239  1.00  0.00     0.031 C 
ATOM     64  C   UNL A   1      48.936  29.679  26.999  1.00  0.00     0.029 A 
ATOM     65  C   UNL A   1      48.001  28.658  27.003  1.00  0.00     0.049 A 
ATOM     66  H   UNL A   1      45.988  28.699  27.634  1.00  0.00     0.167 HD
ATOM     67  C   UNL A   1      47.186  26.353  26.588  1.00  0.00     0.074 A 
ATOM     68  C   UNL A   1      47.364  24.984  26.146  1.00  0.00     0.031 C 
ATOM     69  C   UNL A   1      48.162  27.294  26.570  1.00  0.00     0.031 A 
BRANCH  56  70
ATOM     70  C   UNL A   1      46.367  32.824  28.676  1.00  0.00    -0.014 A 
ATOM     71  C   UNL A   1      46.174  33.806  27.687  1.00  0.00     0.010 A 
ATOM     72  C   UNL A   1      46.883  33.205  29.928  1.00  0.00     0.010 A 
ATOM     73  C   UNL A   1      46.539  35.132  27.927  1.00  0.00     0.020 A 
ATOM     74  C   UNL A   1      47.226  34.536  30.179  1.00  0.00     0.020 A 
ATOM     75  C   UNL A   1      47.072  35.488  29.169  1.00  0.00     0.054 A 
BRANCH  75  76
ATOM     76  S   UNL A   1      47.540  37.216  29.456  1.00  0.00     0.124 S 
ATOM     77  O   UNL A   1      47.031  37.867  28.252  1.00  0.00    -0.237 OA
ATOM     78  O   UNL A   1      46.833  37.542  30.692  1.00  0.00    -0.237 OA
ATOM     79  O   UNL A   1      48.995  37.166  29.571  1.00  0.00    -0.744 OA
ENDBRANCH  75  76
ENDBRANCH  56  70
BRANCH  57  80
ATOM     80  C   UNL A   1      43.503  23.435  26.856  1.00  0.00    -0.014 A 
ATOM     81  C   UNL A   1      43.635  22.906  25.561  1.00  0.00     0.010 A 
ATOM     82  C   UNL A   1      42.982  22.624  27.879  1.00  0.00     0.010 A 
ATOM     83  C   UNL A   1      43.245  21.592  25.289  1.00  0.00     0.020 A 
ATOM     84  C   UNL A   1      42.612  21.301  27.618  1.00  0.00     0.020 A 
ATOM     85  C   UNL A   1      42.737  20.797  26.321  1.00  0.00     0.054 A 
BRANCH  85  86
ATOM     86  S   UNL A   1      42.295  19.073  25.965  1.00  0.00     0.124 S 
ATOM     87  O   UNL A   1      43.046  18.815  24.740  1.00  0.00    -0.237 OA
ATOM     88  O   UNL A   1      42.766  18.372  27.157  1.00  0.00    -0.237 OA
ATOM     89  O   UNL A   1      40.843  19.119  25.814  1.00  0.00    -0.744 OA
ENDBRANCH  85  86
ENDBRANCH  57  80
BRANCH  69  90
ATOM     90  C   UNL A   1      49.523  26.866  26.091  1.00  0.00    -0.014 A 
ATOM     91  C   UNL A   1      50.410  26.180  26.938  1.00  0.00     0.010 A 
ATOM     92  C   UNL A   1      49.896  27.114  24.758  1.00  0.00     0.010 A 
ATOM     93  C   UNL A   1      51.664  25.778  26.469  1.00  0.00     0.020 A 
ATOM     94  C   UNL A   1      51.140  26.694  24.279  1.00  0.00     0.020 A 
ATOM     95  C   UNL A   1      52.022  26.042  25.143  1.00  0.00     0.054 A 
BRANCH  95  96
ATOM     96  S   UNL A   1      53.638  25.478  24.543  1.00  0.00     0.124 S 
ATOM     97  O   UNL A   1      53.623  24.066  24.916  1.00  0.00    -0.237 OA
ATOM     98  O   UNL A   1      53.564  25.749  23.109  1.00  0.00    -0.237 OA
ATOM     99  O   UNL A   1      54.589  26.307  25.279  1.00  0.00    -0.744 OA
ENDBRANCH  95  96
ENDBRANCH  69  90
ENDBRANCH  43  44
ENDBRANCH  35  38
ENDBRANCH  33  34
ENDBRANCH  32  33
ENDBRANCH  31  32
ENDBRANCH   1  31
TORSDOF 19
ENDMDL
MODEL 2
REMARK VINA RESULT:     -11.7      1.154      7.998
REMARK SMILES CC(C)c1ccc(-c2cnc([C@@H]3[NH2+][C@H](C(=O)NCCCCCCNC(=O)c4ccc(-c5c6nc(c(-c7ccc(S(=O)(=O)[O-])cc7)c7ccc([nH]7)c(-c7ccc(S(=O)(=O)[O-])cc7)c7nc(c(-c8ccc(S(=O)(=O)[O-])cc8)c8ccc5[nH]8)C=C7)C=C6)cc4)C(C)(C)S3)s2)cc1
REMARK SMILES IDX 20 1 19 2 18 3 17 4 15 5 16 6 14 8 12 9 13 10 90 11 87 14
REMARK SMILES IDX 88 15 89 16 11 17 8 18 9 19 91 20 10 21 7 22 4 23 5 24 93 25
REMARK SMILES IDX 6 26 92 27 2 28 1 29 3 30 21 31 22 32 23 33 24 34 25 35
REMARK SMILES IDX 26 37 27 38 28 39 86 40 29 41 85 42 30 43 31 44 32 45 79 46
REMARK SMILES IDX 33 47 84 48 78 49 80 50 34 51 83 52 77 53 76 54 35 56 65 57
REMARK SMILES IDX 46 58 64 59 47 60 50 61 63 62 81 63 48 64 49 65 62 67 82 68
REMARK SMILES IDX 51 69 36 70 37 71 45 72 38 73 44 74 39 75 40 76 41 77 42 78
REMARK SMILES IDX 43 79 66 80 67 81 75 82 68 83 74 84 69 85 70 86 71 87 72 88
REMARK SMILES IDX 73 89 52 90 53 91 61 92 54 93 60 94 55 95 56 96 57 97 58 98
REMARK SMILES IDX 59 99
REMARK H PARENT 17 7 13 12 13 13 24 36 80 55 50 66
REMARK Flexibility Score: inf
ROOT
ATOM      1  C   UNL A   1      35.197  29.726  27.992  1.00  0.00     0.002 C 
ENDROOT
BRANCH   1   2
ATOM      2  C   UNL A   1      34.183  28.947  27.139  1.00  0.00     0.021 C 
BRANCH   2   3
ATOM      3  C   UNL A   1      33.975  29.485  25.717  1.00  0.00     0.116 C 
BRANCH   3   4
ATOM      4  N   UNL A   1      34.312  28.480  24.732  1.00  0.00    -0.351 N 
ATOM      5  C   UNL A   1      33.401  27.612  24.188  1.00  0.00     0.279 C 
ATOM      6  O   UNL A   1      33.650  26.417  24.303  1.00  0.00    -0.268 OA
ATOM      7  H   UNL A   1      35.249  28.414  24.436  1.00  0.00     0.163 HD
BRANCH   5   8
ATOM      8  C   UNL A   1      32.183  28.215  23.446  1.00  0.00     0.289 C 
ATOM      9  C   UNL A   1      31.203  26.455  22.099  1.00  0.00     0.304 C 
ATOM     10  N   UNL A   1      32.075  27.649  22.062  1.00  0.00    -0.318 N 
ATOM     11  S   UNL A   1      30.000  26.658  23.448  1.00  0.00    -0.079 SA
ATOM     12  H   UNL A   1      31.674  28.347  21.437  1.00  0.00     0.348 HD
ATOM     13  H   UNL A   1      33.002  27.388  21.722  1.00  0.00     0.348 HD
ATOM     14  C   UNL A   1      30.813  28.129  24.152  1.00  0.00     0.078 C 
ATOM     15  C   UNL A   1      29.940  29.340  23.767  1.00  0.00     0.030 C 
ATOM     16  C   UNL A   1      30.875  28.031  25.677  1.00  0.00     0.030 C 
BRANCH   9  17
ATOM     17  C   UNL A   1      31.942  25.133  22.176  1.00  0.00     0.162 A 
ATOM     18  C   UNL A   1      32.710  22.873  22.727  1.00  0.00     0.055 A 
ATOM     19  C   UNL A   1      33.417  23.548  21.750  1.00  0.00     0.132 A 
ATOM     20  S   UNL A   1      31.407  23.877  23.238  1.00  0.00    -0.112 S 
ATOM     21  N   UNL A   1      33.041  24.842  21.515  1.00  0.00    -0.242 NA
BRANCH  18  22
ATOM     22  C   UNL A   1      32.998  21.553  23.302  1.00  0.00    -0.007 A 
ATOM     23  C   UNL A   1      33.468  18.928  24.330  1.00  0.00    -0.045 A 
ATOM     24  C   UNL A   1      34.186  20.041  24.800  1.00  0.00     0.004 A 
ATOM     25  C   UNL A   1      32.486  19.166  23.360  1.00  0.00     0.004 A 
ATOM     26  C   UNL A   1      33.955  21.332  24.294  1.00  0.00     0.010 A 
ATOM     27  C   UNL A   1      32.268  20.446  22.846  1.00  0.00     0.010 A 
BRANCH  23  28
ATOM     28  C   UNL A   1      33.670  17.515  24.870  1.00  0.00     0.013 C 
ATOM     29  C   UNL A   1      32.556  17.093  25.847  1.00  0.00     0.012 C 
ATOM     30  C   UNL A   1      33.793  16.427  23.795  1.00  0.00     0.012 C 
ENDBRANCH  23  28
ENDBRANCH  18  22
ENDBRANCH   9  17
ENDBRANCH   5   8
ENDBRANCH   3   4
ENDBRANCH   2   3
ENDBRANCH   1   2
BRANCH   1  31
ATOM     31  C   UNL A   1      34.875  31.206  28.217  1.00  0.00     0.002 C 
BRANCH  31  32
ATOM     32  C   UNL A   1      36.067  32.156  28.099  1.00  0.00     0.021 C 
BRANCH  32  33
ATOM     33  C   UNL A   1      36.658  32.615  29.426  1.00  0.00     0.116 C 
BRANCH  33  34
ATOM     34  N   UNL A   1      36.262  31.764  30.536  1.00  0.00    -0.352 N 
ATOM     35  C   UNL A   1      36.887  30.644  31.025  1.00  0.00     0.251 C 
ATOM     36  H   UNL A   1      35.434  32.027  31.000  1.00  0.00     0.163 HD
ATOM     37  O   UNL A   1      36.327  29.950  31.874  1.00  0.00    -0.269 OA
BRANCH  35  38
ATOM     38  C   UNL A   1      38.220  30.257  30.514  1.00  0.00     0.039 A 
ATOM     39  C   UNL A   1      38.366  29.980  29.152  1.00  0.00     0.014 A 
ATOM     40  C   UNL A   1      39.321  30.161  31.371  1.00  0.00     0.014 A 
ATOM     41  C   UNL A   1      39.626  29.656  28.640  1.00  0.00     0.010 A 
ATOM     42  C   UNL A   1      40.586  29.901  30.850  1.00  0.00     0.010 A 
ATOM     43  C   UNL A   1      40.750  29.638  29.481  1.00  0.00    -0.014 A 
BRANCH  43  44
ATOM     44  C   UNL A   1      42.102  29.323  28.951  1.00  0.00     0.031 A 
ATOM     45  C   UNL A   1      42.407  27.943  28.434  1.00  0.00     0.074 A 
ATOM     46  C   UNL A   1      43.070  30.260  28.983  1.00  0.00     0.049 A 
ATOM     47  N   UNL A   1      43.537  27.463  27.982  1.00  0.00    -0.248 NA
ATOM     48  C   UNL A   1      41.304  26.968  28.453  1.00  0.00     0.031 C 
ATOM     49  C   UNL A   1      42.917  31.623  29.495  1.00  0.00     0.029 A 
ATOM     50  N   UNL A   1      44.381  30.203  28.580  1.00  0.00    -0.354 N 
ATOM     51  C   UNL A   1      43.288  26.128  27.683  1.00  0.00     0.074 A 
ATOM     52  C   UNL A   1      41.912  25.864  28.045  1.00  0.00     0.031 C 
ATOM     53  C   UNL A   1      44.079  32.280  29.350  1.00  0.00     0.029 A 
ATOM     54  C   UNL A   1      45.067  31.378  28.767  1.00  0.00     0.049 A 
ATOM     55  H   UNL A   1      44.791  29.395  28.193  1.00  0.00     0.167 HD
ATOM     56  C   UNL A   1      44.120  25.208  27.140  1.00  0.00     0.031 A 
ATOM     57  C   UNL A   1      46.350  31.697  28.499  1.00  0.00     0.031 A 
ATOM     58  C   UNL A   1      45.482  25.474  26.759  1.00  0.00     0.049 A 
ATOM     59  C   UNL A   1      47.250  30.667  27.875  1.00  0.00     0.074 A 
ATOM     60  C   UNL A   1      46.392  24.621  26.158  1.00  0.00     0.029 A 
ATOM     61  N   UNL A   1      46.130  26.687  26.940  1.00  0.00    -0.354 N 
ATOM     62  N   UNL A   1      46.981  29.424  27.555  1.00  0.00    -0.248 NA
ATOM     63  C   UNL A   1      48.622  31.090  27.561  1.00  0.00     0.031 C 
ATOM     64  C   UNL A   1      47.601  25.310  26.003  1.00  0.00     0.029 A 
ATOM     65  C   UNL A   1      47.430  26.603  26.469  1.00  0.00     0.049 A 
ATOM     66  H   UNL A   1      45.726  27.488  27.344  1.00  0.00     0.167 HD
ATOM     67  C   UNL A   1      48.142  28.923  26.977  1.00  0.00     0.074 A 
ATOM     68  C   UNL A   1      49.111  30.000  26.983  1.00  0.00     0.031 C 
ATOM     69  C   UNL A   1      48.381  27.684  26.482  1.00  0.00     0.031 A 
BRANCH  56  70
ATOM     70  C   UNL A   1      43.572  23.823  26.930  1.00  0.00    -0.014 A 
ATOM     71  C   UNL A   1      43.592  22.871  27.966  1.00  0.00     0.010 A 
ATOM     72  C   UNL A   1      43.020  23.469  25.685  1.00  0.00     0.010 A 
ATOM     73  C   UNL A   1      43.118  21.575  27.745  1.00  0.00     0.020 A 
ATOM     74  C   UNL A   1      42.522  22.181  25.469  1.00  0.00     0.020 A 
ATOM     75  C   UNL A   1      42.595  21.236  26.494  1.00  0.00     0.054 A 
BRANCH  75  76
ATOM     76  S   UNL A   1      41.986  19.548  26.232  1.00  0.00     0.124 S 
ATOM     77  O   UNL A   1      42.323  18.908  27.501  1.00  0.00    -0.237 OA
ATOM     78  O   UNL A   1      40.559  19.751  25.991  1.00  0.00    -0.237 OA
ATOM     79  O   UNL A   1      42.748  19.081  25.076  1.00  0.00    -0.744 OA
ENDBRANCH  75  76
ENDBRANCH  56  70
BRANCH  57  80
ATOM     80  C   UNL A   1      46.845  33.068  28.790  1.00  0.00    -0.014 A 
ATOM     81  C   UNL A   1      46.771  34.072  27.809  1.00  0.00     0.010 A 
ATOM     82  C   UNL A   1      47.372  33.383  30.055  1.00  0.00     0.010 A 
ATOM     83  C   UNL A   1      47.224  35.365  28.082  1.00  0.00     0.020 A 
ATOM     84  C   UNL A   1      47.806  34.681  30.340  1.00  0.00     0.020 A 
ATOM     85  C   UNL A   1      47.738  35.662  29.348  1.00  0.00     0.054 A 
BRANCH  85  86
ATOM     86  S   UNL A   1      48.263  37.362  29.706  1.00  0.00     0.124 S 
ATOM     87  O   UNL A   1      49.710  37.213  29.827  1.00  0.00    -0.237 OA
ATOM     88  O   UNL A   1      47.797  38.092  28.530  1.00  0.00    -0.237 OA
ATOM     89  O   UNL A   1      47.559  37.680  30.946  1.00  0.00    -0.744 OA
ENDBRANCH  85  86
ENDBRANCH  57  80
BRANCH  69  90
ATOM     90  C   UNL A   1      49.734  27.435  25.871  1.00  0.00    -0.014 A 
ATOM     91  C   UNL A   1      50.788  26.900  26.630  1.00  0.00     0.010 A 
ATOM     92  C   UNL A   1      49.934  27.700  24.505  1.00  0.00     0.010 A 
ATOM     93  C   UNL A   1      52.033  26.662  26.040  1.00  0.00     0.020 A 
ATOM     94  C   UNL A   1      51.171  27.444  23.906  1.00  0.00     0.020 A 
ATOM     95  C   UNL A   1      52.217  26.940  24.682  1.00  0.00     0.054 A 
BRANCH  95  96
ATOM     96  S   UNL A   1      53.827  26.589  23.926  1.00  0.00     0.124 S 
ATOM     97  O   UNL A   1      54.225  27.906  23.436  1.00  0.00    -0.237 OA
ATOM     98  O   UNL A   1      54.608  26.075  25.049  1.00  0.00    -0.237 OA
ATOM     99  O   UNL A   1      53.516  25.607  22.890  1.00  0.00    -0.744 OA
ENDBRANCH  95  96
ENDBRANCH  69  90
ENDBRANCH  43  44
ENDBRANCH  35  38
ENDBRANCH  33  34
ENDBRANCH  32  33
ENDBRANCH  31  32
ENDBRANCH   1  31
TORSDOF 19
ENDMDL
MODEL 3
REMARK VINA RESULT:     -11.4      2.302      9.583
REMARK SMILES CC(C)c1ccc(-c2cnc([C@@H]3[NH2+][C@H](C(=O)NCCCCCCNC(=O)c4ccc(-c5c6nc(c(-c7ccc(S(=O)(=O)[O-])cc7)c7ccc([nH]7)c(-c7ccc(S(=O)(=O)[O-])cc7)c7nc(c(-c8ccc(S(=O)(=O)[O-])cc8)c8ccc5[nH]8)C=C7)C=C6)cc4)C(C)(C)S3)s2)cc1
REMARK SMILES IDX 20 1 19 2 18 3 17 4 15 5 16 6 14 8 12 9 13 10 90 11 87 14
REMARK SMILES IDX 88 15 89 16 11 17 8 18 9 19 91 20 10 21 7 22 4 23 5 24 93 25
REMARK SMILES IDX 6 26 92 27 2 28 1 29 3 30 21 31 22 32 23 33 24 34 25 35
REMARK SMILES IDX 26 37 27 38 28 39 86 40 29 41 85 42 30 43 31 44 32 45 79 46
REMARK SMILES IDX 33 47 84 48 78 49 80 50 34 51 83 52 77 53 76 54 35 56 65 57
REMARK SMILES IDX 46 58 64 59 47 60 50 61 63 62 81 63 48 64 49 65 62 67 82 68
REMARK SMILES IDX 51 69 36 70 37 71 45 72 38 73 44 74 39 75 40 76 41 77 42 78
REMARK SMILES IDX 43 79 66 80 67 81 75 82 68 83 74 84 69 85 70 86 71 87 72 88
REMARK SMILES IDX 73 89 52 90 53 91 61 92 54 93 60 94 55 95 56 96 57 97 58 98
REMARK SMILES IDX 59 99
REMARK H PARENT 17 7 13 12 13 13 24 36 80 55 50 66
REMARK Flexibility Score: inf
ROOT
ATOM      1  C   UNL A   1      37.384  21.628  24.610  1.00  0.00     0.002 C 
ENDROOT
BRANCH   1   2
ATOM      2  C   UNL A   1      35.882  21.352  24.784  1.00  0.00     0.021 C 
BRANCH   2   3
ATOM      3  C   UNL A   1      35.299  21.746  26.148  1.00  0.00     0.116 C 
BRANCH   3   4
ATOM      4  N   UNL A   1      35.104  23.178  26.230  1.00  0.00    -0.351 N 
ATOM      5  C   UNL A   1      34.452  23.914  25.274  1.00  0.00     0.279 C 
ATOM      6  O   UNL A   1      35.079  24.845  24.782  1.00  0.00    -0.268 OA
ATOM      7  H   UNL A   1      35.460  23.651  27.016  1.00  0.00     0.163 HD
BRANCH   5   8
ATOM      8  C   UNL A   1      32.988  23.533  24.944  1.00  0.00     0.289 C 
ATOM      9  C   UNL A   1      31.725  25.592  24.747  1.00  0.00     0.304 C 
ATOM     10  N   UNL A   1      32.034  24.456  25.642  1.00  0.00    -0.318 N 
ATOM     11  S   UNL A   1      31.859  25.025  23.024  1.00  0.00    -0.079 SA
ATOM     12  H   UNL A   1      31.175  23.954  25.867  1.00  0.00     0.348 HD
ATOM     13  H   UNL A   1      32.456  24.801  26.505  1.00  0.00     0.348 HD
ATOM     14  C   UNL A   1      32.606  23.419  23.453  1.00  0.00     0.078 C 
ATOM     15  C   UNL A   1      31.504  22.359  23.266  1.00  0.00     0.030 C 
ATOM     16  C   UNL A   1      33.766  23.098  22.510  1.00  0.00     0.030 C 
BRANCH   9  17
ATOM     17  C   UNL A   1      32.539  26.844  25.011  1.00  0.00     0.162 A 
ATOM     18  C   UNL A   1      33.647  28.786  26.010  1.00  0.00     0.055 A 
ATOM     19  C   UNL A   1      33.865  28.574  24.662  1.00  0.00     0.132 A 
ATOM     20  S   UNL A   1      32.650  27.513  26.602  1.00  0.00    -0.112 S 
ATOM     21  N   UNL A   1      33.168  27.544  24.092  1.00  0.00    -0.242 NA
BRANCH  18  22
ATOM     22  C   UNL A   1      34.118  29.905  26.835  1.00  0.00    -0.007 A 
ATOM     23  C   UNL A   1      34.908  32.141  28.432  1.00  0.00    -0.045 A 
ATOM     24  C   UNL A   1      35.778  31.063  28.195  1.00  0.00     0.004 A 
ATOM     25  C   UNL A   1      33.648  32.090  27.822  1.00  0.00     0.004 A 
ATOM     26  C   UNL A   1      35.389  29.963  27.411  1.00  0.00     0.010 A 
ATOM     27  C   UNL A   1      33.257  30.990  27.055  1.00  0.00     0.010 A 
BRANCH  23  28
ATOM     28  C   UNL A   1      35.299  33.366  29.256  1.00  0.00     0.013 C 
ATOM     29  C   UNL A   1      34.907  34.687  28.570  1.00  0.00     0.012 C 
ATOM     30  C   UNL A   1      34.735  33.387  30.682  1.00  0.00     0.012 C 
ENDBRANCH  23  28
ENDBRANCH  18  22
ENDBRANCH   9  17
ENDBRANCH   5   8
ENDBRANCH   3   4
ENDBRANCH   2   3
ENDBRANCH   1   2
BRANCH   1  31
ATOM     31  C   UNL A   1      38.324  20.614  25.268  1.00  0.00     0.002 C 
BRANCH  31  32
ATOM     32  C   UNL A   1      39.526  21.218  25.993  1.00  0.00     0.021 C 
BRANCH  32  33
ATOM     33  C   UNL A   1      40.340  20.233  26.823  1.00  0.00     0.116 C 
BRANCH  33  34
ATOM     34  N   UNL A   1      41.327  19.520  26.030  1.00  0.00    -0.352 N 
ATOM     35  C   UNL A   1      42.519  19.979  25.529  1.00  0.00     0.251 C 
ATOM     36  H   UNL A   1      41.112  18.581  25.826  1.00  0.00     0.163 HD
ATOM     37  O   UNL A   1      43.162  19.284  24.740  1.00  0.00    -0.269 OA
BRANCH  35  38
ATOM     38  C   UNL A   1      43.019  21.317  25.914  1.00  0.00     0.039 A 
ATOM     39  C   UNL A   1      42.863  22.380  25.019  1.00  0.00     0.014 A 
ATOM     40  C   UNL A   1      43.644  21.526  27.148  1.00  0.00     0.014 A 
ATOM     41  C   UNL A   1      43.286  23.661  25.382  1.00  0.00     0.010 A 
ATOM     42  C   UNL A   1      44.008  22.814  27.532  1.00  0.00     0.010 A 
ATOM     43  C   UNL A   1      43.841  23.893  26.651  1.00  0.00    -0.014 A 
BRANCH  43  44
ATOM     44  C   UNL A   1      44.272  25.253  27.064  1.00  0.00     0.031 A 
ATOM     45  C   UNL A   1      45.648  25.749  26.710  1.00  0.00     0.074 A 
ATOM     46  C   UNL A   1      43.448  26.023  27.804  1.00  0.00     0.049 A 
ATOM     47  N   UNL A   1      46.223  26.881  27.025  1.00  0.00    -0.248 NA
ATOM     48  C   UNL A   1      46.497  24.841  25.920  1.00  0.00     0.031 C 
ATOM     49  C   UNL A   1      42.105  25.645  28.248  1.00  0.00     0.029 A 
ATOM     50  N   UNL A   1      43.626  27.282  28.317  1.00  0.00    -0.354 N 
ATOM     51  C   UNL A   1      47.506  26.813  26.493  1.00  0.00     0.074 A 
ATOM     52  C   UNL A   1      47.638  25.513  25.872  1.00  0.00     0.031 C 
ATOM     53  C   UNL A   1      41.571  26.663  28.944  1.00  0.00     0.029 A 
ATOM     54  C   UNL A   1      42.543  27.748  29.023  1.00  0.00     0.049 A 
ATOM     55  H   UNL A   1      44.452  27.804  28.192  1.00  0.00     0.167 HD
ATOM     56  C   UNL A   1      48.481  27.754  26.502  1.00  0.00     0.031 A 
ATOM     57  C   UNL A   1      42.352  28.919  29.663  1.00  0.00     0.031 A 
ATOM     58  C   UNL A   1      48.345  29.055  27.101  1.00  0.00     0.049 A 
ATOM     59  C   UNL A   1      43.439  29.957  29.641  1.00  0.00     0.074 A 
ATOM     60  C   UNL A   1      49.259  30.094  27.121  1.00  0.00     0.029 A 
ATOM     61  N   UNL A   1      47.221  29.497  27.781  1.00  0.00    -0.354 N 
ATOM     62  N   UNL A   1      44.628  29.894  29.090  1.00  0.00    -0.248 NA
ATOM     63  C   UNL A   1      43.152  31.232  30.314  1.00  0.00     0.031 C 
ATOM     64  C   UNL A   1      48.697  31.155  27.842  1.00  0.00     0.029 A 
ATOM     65  C   UNL A   1      47.420  30.791  28.233  1.00  0.00     0.049 A 
ATOM     66  H   UNL A   1      46.402  28.968  27.923  1.00  0.00     0.167 HD
ATOM     67  C   UNL A   1      45.220  31.129  29.326  1.00  0.00     0.074 A 
ATOM     68  C   UNL A   1      44.256  31.922  30.062  1.00  0.00     0.031 C 
ATOM     69  C   UNL A   1      46.451  31.567  28.962  1.00  0.00     0.031 A 
BRANCH  56  70
ATOM     70  C   UNL A   1      49.786  27.398  25.843  1.00  0.00    -0.014 A 
ATOM     71  C   UNL A   1      49.989  27.620  24.468  1.00  0.00     0.010 A 
ATOM     72  C   UNL A   1      50.829  26.844  26.608  1.00  0.00     0.010 A 
ATOM     73  C   UNL A   1      51.190  27.246  23.861  1.00  0.00     0.020 A 
ATOM     74  C   UNL A   1      52.041  26.493  26.008  1.00  0.00     0.020 A 
ATOM     75  C   UNL A   1      52.206  26.676  24.634  1.00  0.00     0.054 A 
BRANCH  75  76
ATOM     76  S   UNL A   1      53.756  26.198  23.823  1.00  0.00     0.124 S 
ATOM     77  O   UNL A   1      53.376  26.223  22.413  1.00  0.00    -0.237 OA
ATOM     78  O   UNL A   1      54.679  27.250  24.242  1.00  0.00    -0.237 OA
ATOM     79  O   UNL A   1      54.039  24.873  24.369  1.00  0.00    -0.744 OA
ENDBRANCH  75  76
ENDBRANCH  56  70
BRANCH  57  80
ATOM     80  C   UNL A   1      41.059  29.182  30.350  1.00  0.00    -0.014 A 
ATOM     81  C   UNL A   1      40.871  28.784  31.684  1.00  0.00     0.010 A 
ATOM     82  C   UNL A   1      40.020  29.852  29.680  1.00  0.00     0.010 A 
ATOM     83  C   UNL A   1      39.662  29.040  32.336  1.00  0.00     0.020 A 
ATOM     84  C   UNL A   1      38.817  30.131  30.336  1.00  0.00     0.020 A 
ATOM     85  C   UNL A   1      38.642  29.714  31.657  1.00  0.00     0.054 A 
BRANCH  85  86
ATOM     86  S   UNL A   1      37.103  30.095  32.540  1.00  0.00     0.124 S 
ATOM     87  O   UNL A   1      36.902  28.886  33.333  1.00  0.00    -0.237 OA
ATOM     88  O   UNL A   1      37.458  31.296  33.293  1.00  0.00    -0.237 OA
ATOM     89  O   UNL A   1      36.138  30.308  31.464  1.00  0.00    -0.744 OA
ENDBRANCH  85  86
ENDBRANCH  57  80
BRANCH  69  90
ATOM     90  C   UNL A   1      46.812  32.983  29.322  1.00  0.00    -0.014 A 
ATOM     91  C   UNL A   1      46.472  34.056  28.481  1.00  0.00     0.010 A 
ATOM     92  C   UNL A   1      47.461  33.241  30.542  1.00  0.00     0.010 A 
ATOM     93  C   UNL A   1      46.804  35.366  28.841  1.00  0.00     0.020 A 
ATOM     94  C   UNL A   1      47.775  34.551  30.915  1.00  0.00     0.020 A 
ATOM     95  C   UNL A   1      47.457  35.604  30.055  1.00  0.00     0.054 A 
BRANCH  95  96
ATOM     96  S   UNL A   1      47.844  37.313  30.521  1.00  0.00     0.124 S 
ATOM     97  O   UNL A   1      49.190  37.477  29.977  1.00  0.00    -0.237 OA
ATOM     98  O   UNL A   1      46.797  38.078  29.849  1.00  0.00    -0.237 OA
ATOM     99  O   UNL A   1      47.759  37.301  31.979  1.00  0.00    -0.744 OA
ENDBRANCH  95  96
ENDBRANCH  69  90
ENDBRANCH  43  44
ENDBRANCH  35  38
ENDBRANCH  33  34
ENDBRANCH  32  33
ENDBRANCH  31  32
ENDBRANCH   1  31
TORSDOF 19
ENDMDL
