MODEL 1
REMARK VINA RESULT:     -10.4      0.000      0.000
REMARK SMILES CCC[C@@H]1C[N@@H+](Cc2cc(OC)c3c(c2)OCO3)C[C@H]1C(=O)NCCCCCCNC(=O)c1ccc(-c2c3nc(c(-c4ccc(S(=O)(=O)[O-])cc4)c4ccc([nH]4)c(-c4ccc(S(=O)(=O)[O-])cc4)c4nc(c(-c5ccc(S(=O)(=O)[O-])cc5)c5ccc2[nH]5)C=C4)C=C3)cc1
REMARK SMILES IDX 26 1 25 2 24 3 23 4 21 5 22 6 20 8 4 9 5 10 6 11 19 12 3 14
REMARK SMILES IDX 2 15 1 16 7 17 8 18 9 19 15 20 10 21 14 22 13 23 16 24 18 25
REMARK SMILES IDX 17 26 11 27 12 28 27 29 28 30 29 31 30 32 31 33 32 35 33 36
REMARK SMILES IDX 34 37 92 38 35 39 91 40 36 41 37 42 38 43 85 44 39 45 90 46
REMARK SMILES IDX 84 47 86 48 40 49 89 50 83 51 82 52 41 54 71 55 52 56 70 57
REMARK SMILES IDX 53 58 56 59 69 60 87 61 54 62 55 63 68 65 88 66 57 67 42 68
REMARK SMILES IDX 43 69 51 70 44 71 50 72 45 73 46 74 47 75 48 76 49 77 72 78
REMARK SMILES IDX 73 79 81 80 74 81 80 82 75 83 76 84 77 85 78 86 79 87 58 88
REMARK SMILES IDX 59 89 67 90 60 91 66 92 61 93 62 94 63 95 64 96 65 97
REMARK H PARENT 23 7 6 13 30 34 86 53 56 64
REMARK Flexibility Score: inf
ROOT
ATOM      1  C   UNL A   1      34.595  23.720  23.137  1.00  0.00     0.002 C 
ENDROOT
BRANCH   1   2
ATOM      2  C   UNL A   1      34.204  25.048  23.803  1.00  0.00     0.021 C 
BRANCH   2   3
ATOM      3  C   UNL A   1      33.441  26.087  22.940  1.00  0.00     0.116 C 
BRANCH   3   4
ATOM      4  N   UNL A   1      33.266  27.478  23.412  1.00  0.00    -0.356 N 
ATOM      5  C   UNL A   1      32.370  28.243  24.121  1.00  0.00     0.229 C 
ATOM      6  O   UNL A   1      32.820  29.344  24.483  1.00  0.00    -0.275 OA
ATOM      7  H   UNL A   1      34.031  28.030  23.128  1.00  0.00     0.163 HD
BRANCH   5   8
ATOM      8  C   UNL A   1      30.875  27.943  24.465  1.00  0.00     0.142 C 
ATOM      9  C   UNL A   1      29.865  27.717  23.273  1.00  0.00     0.062 C 
ATOM     10  C   UNL A   1      28.864  26.725  23.870  1.00  0.00     0.267 C 
ATOM     11  N   UNL A   1      29.711  25.816  24.620  1.00  0.00    -0.330 N 
ATOM     12  C   UNL A   1      30.608  26.719  25.346  1.00  0.00     0.276 C 
ATOM     13  H   UNL A   1      29.208  25.232  25.289  1.00  0.00     0.348 HD
BRANCH   9  14
ATOM     14  C   UNL A   1      29.182  28.835  22.481  1.00  0.00     0.010 C 
BRANCH  14  15
ATOM     15  C   UNL A   1      29.134  30.165  23.304  1.00  0.00    -0.003 C 
ATOM     16  C   UNL A   1      27.791  30.890  23.390  1.00  0.00     0.004 C 
ENDBRANCH  14  15
ENDBRANCH   9  14
BRANCH  11  17
ATOM     17  C   UNL A   1      30.256  24.646  23.869  1.00  0.00     0.299 C 
BRANCH  17  18
ATOM     18  C   UNL A   1      31.099  23.527  24.505  1.00  0.00     0.014 A 
ATOM     19  C   UNL A   1      31.509  22.424  23.751  1.00  0.00     0.060 A 
ATOM     20  C   UNL A   1      31.634  23.572  25.792  1.00  0.00     0.060 A 
ATOM     21  C   UNL A   1      32.250  21.321  24.171  1.00  0.00     0.165 A 
ATOM     22  C   UNL A   1      32.462  22.519  26.210  1.00  0.00     0.170 A 
ATOM     23  C   UNL A   1      32.750  21.409  25.431  1.00  0.00     0.207 A 
ATOM     24  O   UNL A   1      33.098  22.458  27.415  1.00  0.00    -0.453 OA
ATOM     25  O   UNL A   1      33.555  20.518  26.060  1.00  0.00    -0.450 OA
ATOM     26  C   UNL A   1      33.847  21.234  27.274  1.00  0.00     0.468 C 
BRANCH  21  27
ATOM     27  O   UNL A   1      32.335  20.335  23.244  1.00  0.00    -0.493 OA
ATOM     28  C   UNL A   1      32.459  18.998  23.692  1.00  0.00     0.278 C 
ENDBRANCH  21  27
ENDBRANCH  17  18
ENDBRANCH  11  17
ENDBRANCH   5   8
ENDBRANCH   3   4
ENDBRANCH   2   3
ENDBRANCH   1   2
BRANCH   1  29
ATOM     29  C   UNL A   1      35.643  22.919  23.936  1.00  0.00     0.002 C 
BRANCH  29  30
ATOM     30  C   UNL A   1      36.743  23.739  24.628  1.00  0.00     0.021 C 
BRANCH  30  31
ATOM     31  C   UNL A   1      36.965  23.403  26.103  1.00  0.00     0.116 C 
BRANCH  31  32
ATOM     32  N   UNL A   1      37.891  22.289  26.266  1.00  0.00    -0.352 N 
ATOM     33  C   UNL A   1      39.258  22.311  26.427  1.00  0.00     0.251 C 
ATOM     34  H   UNL A   1      37.480  21.394  26.260  1.00  0.00     0.163 HD
ATOM     35  O   UNL A   1      39.917  21.295  26.249  1.00  0.00    -0.269 OA
BRANCH  33  36
ATOM     36  C   UNL A   1      39.931  23.571  26.817  1.00  0.00     0.039 A 
ATOM     37  C   UNL A   1      39.999  24.629  25.907  1.00  0.00     0.014 A 
ATOM     38  C   UNL A   1      40.521  23.690  28.077  1.00  0.00     0.014 A 
ATOM     39  C   UNL A   1      40.608  25.830  26.287  1.00  0.00     0.010 A 
ATOM     40  C   UNL A   1      41.068  24.907  28.477  1.00  0.00     0.010 A 
ATOM     41  C   UNL A   1      41.122  25.990  27.585  1.00  0.00    -0.014 A 
BRANCH  41  42
ATOM     42  C   UNL A   1      41.728  27.274  28.027  1.00  0.00     0.031 A 
ATOM     43  C   UNL A   1      43.222  27.460  27.987  1.00  0.00     0.074 A 
ATOM     44  C   UNL A   1      40.941  28.249  28.525  1.00  0.00     0.049 A 
ATOM     45  N   UNL A   1      43.938  28.482  28.381  1.00  0.00    -0.248 NA
ATOM     46  C   UNL A   1      44.018  26.342  27.455  1.00  0.00     0.031 C 
ATOM     47  C   UNL A   1      39.483  28.179  28.653  1.00  0.00     0.029 A 
ATOM     48  N   UNL A   1      41.256  29.490  29.021  1.00  0.00    -0.354 N 
ATOM     49  C   UNL A   1      45.263  28.125  28.160  1.00  0.00     0.074 A 
ATOM     50  C   UNL A   1      45.256  26.773  27.648  1.00  0.00     0.031 C 
ATOM     51  C   UNL A   1      39.031  29.335  29.165  1.00  0.00     0.029 A 
ATOM     52  C   UNL A   1      40.164  30.213  29.440  1.00  0.00     0.049 A 
ATOM     53  H   UNL A   1      42.179  29.831  29.072  1.00  0.00     0.167 HD
ATOM     54  C   UNL A   1      46.385  28.863  28.343  1.00  0.00     0.031 A 
ATOM     55  C   UNL A   1      40.081  31.440  29.990  1.00  0.00     0.031 A 
ATOM     56  C   UNL A   1      46.388  30.211  28.847  1.00  0.00     0.049 A 
ATOM     57  C   UNL A   1      41.343  32.234  30.204  1.00  0.00     0.074 A 
ATOM     58  C   UNL A   1      47.466  31.061  29.023  1.00  0.00     0.029 A 
ATOM     59  N   UNL A   1      45.260  30.907  29.257  1.00  0.00    -0.354 N 
ATOM     60  N   UNL A   1      42.581  31.902  29.928  1.00  0.00    -0.248 NA
ATOM     61  C   UNL A   1      41.193  33.572  30.793  1.00  0.00     0.031 C 
ATOM     62  C   UNL A   1      46.997  32.250  29.593  1.00  0.00     0.029 A 
ATOM     63  C   UNL A   1      45.619  32.165  29.710  1.00  0.00     0.049 A 
ATOM     64  H   UNL A   1      44.340  30.557  29.231  1.00  0.00     0.167 HD
ATOM     65  C   UNL A   1      43.356  33.003  30.281  1.00  0.00     0.074 A 
ATOM     66  C   UNL A   1      42.444  34.013  30.777  1.00  0.00     0.031 C 
ATOM     67  C   UNL A   1      44.699  33.162  30.200  1.00  0.00     0.031 A 
BRANCH  54  68
ATOM     68  C   UNL A   1      47.705  28.222  27.999  1.00  0.00    -0.014 A 
ATOM     69  C   UNL A   1      48.229  28.293  26.694  1.00  0.00     0.010 A 
ATOM     70  C   UNL A   1      48.453  27.574  29.000  1.00  0.00     0.010 A 
ATOM     71  C   UNL A   1      49.450  27.688  26.387  1.00  0.00     0.020 A 
ATOM     72  C   UNL A   1      49.690  26.994  28.703  1.00  0.00     0.020 A 
ATOM     73  C   UNL A   1      50.173  27.041  27.393  1.00  0.00     0.054 A 
BRANCH  73  74
ATOM     74  S   UNL A   1      51.763  26.281  26.968  1.00  0.00     0.124 S 
ATOM     75  O   UNL A   1      52.547  26.528  28.177  1.00  0.00    -0.237 OA
ATOM     76  O   UNL A   1      51.398  24.886  26.732  1.00  0.00    -0.237 OA
ATOM     77  O   UNL A   1      52.197  27.019  25.785  1.00  0.00    -0.744 OA
ENDBRANCH  73  74
ENDBRANCH  54  68
BRANCH  55  78
ATOM     78  C   UNL A   1      38.752  32.004  30.359  1.00  0.00    -0.014 A 
ATOM     79  C   UNL A   1      37.945  32.624  29.389  1.00  0.00     0.010 A 
ATOM     80  C   UNL A   1      38.282  31.916  31.682  1.00  0.00     0.010 A 
ATOM     81  C   UNL A   1      36.701  33.159  29.737  1.00  0.00     0.020 A 
ATOM     82  C   UNL A   1      37.026  32.424  32.028  1.00  0.00     0.020 A 
ATOM     83  C   UNL A   1      36.248  33.053  31.054  1.00  0.00     0.054 A 
BRANCH  83  84
ATOM     84  S   UNL A   1      34.608  33.708  31.471  1.00  0.00     0.124 S 
ATOM     85  O   UNL A   1      33.996  32.578  32.162  1.00  0.00    -0.237 OA
ATOM     86  O   UNL A   1      34.933  34.862  32.306  1.00  0.00    -0.237 OA
ATOM     87  O   UNL A   1      34.029  34.035  30.169  1.00  0.00    -0.744 OA
ENDBRANCH  83  84
ENDBRANCH  55  78
BRANCH  67  88
ATOM     88  C   UNL A   1      45.270  34.491  30.622  1.00  0.00    -0.014 A 
ATOM     89  C   UNL A   1      45.642  34.738  31.955  1.00  0.00     0.010 A 
ATOM     90  C   UNL A   1      45.491  35.488  29.653  1.00  0.00     0.010 A 
ATOM     91  C   UNL A   1      46.196  35.969  32.317  1.00  0.00     0.020 A 
ATOM     92  C   UNL A   1      46.073  36.708  30.005  1.00  0.00     0.020 A 
ATOM     93  C   UNL A   1      46.409  36.946  31.339  1.00  0.00     0.054 A 
BRANCH  93  94
ATOM     94  S   UNL A   1      47.175  38.516  31.827  1.00  0.00     0.124 S 
ATOM     95  O   UNL A   1      46.639  39.437  30.830  1.00  0.00    -0.237 OA
ATOM     96  O   UNL A   1      46.679  38.704  33.188  1.00  0.00    -0.237 OA
ATOM     97  O   UNL A   1      48.608  38.250  31.723  1.00  0.00    -0.744 OA
ENDBRANCH  93  94
ENDBRANCH  67  88
ENDBRANCH  41  42
ENDBRANCH  33  36
ENDBRANCH  31  32
ENDBRANCH  30  31
ENDBRANCH  29  30
ENDBRANCH   1  29
TORSDOF 21
ENDMDL
MODEL 2
REMARK VINA RESULT:     -10.1      2.447      9.380
REMARK SMILES CCC[C@@H]1C[N@@H+](Cc2cc(OC)c3c(c2)OCO3)C[C@H]1C(=O)NCCCCCCNC(=O)c1ccc(-c2c3nc(c(-c4ccc(S(=O)(=O)[O-])cc4)c4ccc([nH]4)c(-c4ccc(S(=O)(=O)[O-])cc4)c4nc(c(-c5ccc(S(=O)(=O)[O-])cc5)c5ccc2[nH]5)C=C4)C=C3)cc1
REMARK SMILES IDX 26 1 25 2 24 3 23 4 21 5 22 6 20 8 4 9 5 10 6 11 19 12 3 14
REMARK SMILES IDX 2 15 1 16 7 17 8 18 9 19 15 20 10 21 14 22 13 23 16 24 18 25
REMARK SMILES IDX 17 26 11 27 12 28 27 29 28 30 29 31 30 32 31 33 32 35 33 36
REMARK SMILES IDX 34 37 92 38 35 39 91 40 36 41 37 42 38 43 85 44 39 45 90 46
REMARK SMILES IDX 84 47 86 48 40 49 89 50 83 51 82 52 41 54 71 55 52 56 70 57
REMARK SMILES IDX 53 58 56 59 69 60 87 61 54 62 55 63 68 65 88 66 57 67 42 68
REMARK SMILES IDX 43 69 51 70 44 71 50 72 45 73 46 74 47 75 48 76 49 77 72 78
REMARK SMILES IDX 73 79 81 80 74 81 80 82 75 83 76 84 77 85 78 86 79 87 58 88
REMARK SMILES IDX 59 89 67 90 60 91 66 92 61 93 62 94 63 95 64 96 65 97
REMARK H PARENT 23 7 6 13 30 34 86 53 56 64
REMARK Flexibility Score: inf
ROOT
ATOM      1  C   UNL A   1      35.776  20.953  25.473  1.00  0.00     0.002 C 
ENDROOT
BRANCH   1   2
ATOM      2  C   UNL A   1      34.782  20.003  24.789  1.00  0.00     0.021 C 
BRANCH   2   3
ATOM      3  C   UNL A   1      33.462  20.612  24.247  1.00  0.00     0.116 C 
BRANCH   3   4
ATOM      4  N   UNL A   1      33.472  21.879  23.483  1.00  0.00    -0.356 N 
ATOM      5  C   UNL A   1      32.843  23.102  23.466  1.00  0.00     0.229 C 
ATOM      6  O   UNL A   1      33.411  23.952  22.760  1.00  0.00    -0.275 OA
ATOM      7  H   UNL A   1      34.138  21.831  22.759  1.00  0.00     0.163 HD
BRANCH   5   8
ATOM      8  C   UNL A   1      31.504  23.530  24.149  1.00  0.00     0.142 C 
ATOM      9  C   UNL A   1      31.567  24.600  25.309  1.00  0.00     0.062 C 
ATOM     10  C   UNL A   1      30.230  25.330  25.158  1.00  0.00     0.267 C 
ATOM     11  N   UNL A   1      30.085  25.455  23.720  1.00  0.00    -0.330 N 
ATOM     12  C   UNL A   1      30.426  24.116  23.233  1.00  0.00     0.276 C 
ATOM     13  H   UNL A   1      29.142  25.695  23.414  1.00  0.00     0.348 HD
BRANCH   9  14
ATOM     14  C   UNL A   1      31.903  24.287  26.769  1.00  0.00     0.010 C 
BRANCH  14  15
ATOM     15  C   UNL A   1      32.378  22.805  26.938  1.00  0.00    -0.003 C 
ATOM     16  C   UNL A   1      33.486  22.533  27.955  1.00  0.00     0.004 C 
ENDBRANCH  14  15
ENDBRANCH   9  14
BRANCH  11  17
ATOM     17  C   UNL A   1      30.694  26.667  23.095  1.00  0.00     0.299 C 
BRANCH  17  18
ATOM     18  C   UNL A   1      30.172  28.100  23.299  1.00  0.00     0.014 A 
ATOM     19  C   UNL A   1      30.834  28.989  24.151  1.00  0.00     0.060 A 
ATOM     20  C   UNL A   1      29.125  28.672  22.577  1.00  0.00     0.060 A 
ATOM     21  C   UNL A   1      30.486  30.301  24.464  1.00  0.00     0.165 A 
ATOM     22  C   UNL A   1      28.814  30.021  22.803  1.00  0.00     0.170 A 
ATOM     23  C   UNL A   1      29.461  30.816  23.737  1.00  0.00     0.207 A 
ATOM     24  O   UNL A   1      27.858  30.724  22.131  1.00  0.00    -0.453 OA
ATOM     25  O   UNL A   1      28.970  32.078  23.787  1.00  0.00    -0.450 OA
ATOM     26  C   UNL A   1      28.023  32.038  22.703  1.00  0.00     0.468 C 
BRANCH  21  27
ATOM     27  O   UNL A   1      31.233  30.841  25.459  1.00  0.00    -0.493 OA
ATOM     28  C   UNL A   1      31.979  29.970  26.290  1.00  0.00     0.278 C 
ENDBRANCH  21  27
ENDBRANCH  17  18
ENDBRANCH  11  17
ENDBRANCH   5   8
ENDBRANCH   3   4
ENDBRANCH   2   3
ENDBRANCH   1   2
BRANCH   1  29
ATOM     29  C   UNL A   1      37.089  21.136  24.686  1.00  0.00     0.002 C 
BRANCH  29  30
ATOM     30  C   UNL A   1      38.184  20.087  24.934  1.00  0.00     0.021 C 
BRANCH  30  31
ATOM     31  C   UNL A   1      39.330  20.553  25.832  1.00  0.00     0.116 C 
BRANCH  31  32
ATOM     32  N   UNL A   1      40.292  19.485  26.071  1.00  0.00    -0.352 N 
ATOM     33  C   UNL A   1      41.662  19.560  26.199  1.00  0.00     0.251 C 
ATOM     34  H   UNL A   1      39.909  18.582  26.154  1.00  0.00     0.163 HD
ATOM     35  O   UNL A   1      42.347  18.550  26.097  1.00  0.00    -0.269 OA
BRANCH  33  36
ATOM     36  C   UNL A   1      42.303  20.868  26.460  1.00  0.00     0.039 A 
ATOM     37  C   UNL A   1      42.734  21.653  25.389  1.00  0.00     0.014 A 
ATOM     38  C   UNL A   1      42.505  21.299  27.773  1.00  0.00     0.014 A 
ATOM     39  C   UNL A   1      43.313  22.903  25.635  1.00  0.00     0.010 A 
ATOM     40  C   UNL A   1      43.021  22.570  28.015  1.00  0.00     0.010 A 
ATOM     41  C   UNL A   1      43.435  23.385  26.950  1.00  0.00    -0.014 A 
BRANCH  41  42
ATOM     42  C   UNL A   1      44.001  24.731  27.234  1.00  0.00     0.031 A 
ATOM     43  C   UNL A   1      43.100  25.852  27.679  1.00  0.00     0.074 A 
ATOM     44  C   UNL A   1      45.314  24.962  27.030  1.00  0.00     0.049 A 
ATOM     45  N   UNL A   1      43.397  27.104  27.919  1.00  0.00    -0.248 NA
ATOM     46  C   UNL A   1      41.674  25.531  27.854  1.00  0.00     0.031 C 
ATOM     47  C   UNL A   1      46.287  23.970  26.564  1.00  0.00     0.029 A 
ATOM     48  N   UNL A   1      46.057  26.106  27.184  1.00  0.00    -0.354 N 
ATOM     49  C   UNL A   1      42.197  27.720  28.259  1.00  0.00     0.074 A 
ATOM     50  C   UNL A   1      41.161  26.719  28.140  1.00  0.00     0.031 C 
ATOM     51  C   UNL A   1      47.500  24.542  26.498  1.00  0.00     0.029 A 
ATOM     52  C   UNL A   1      47.388  25.947  26.875  1.00  0.00     0.049 A 
ATOM     53  H   UNL A   1      45.673  26.961  27.487  1.00  0.00     0.167 HD
ATOM     54  C   UNL A   1      41.979  28.997  28.656  1.00  0.00     0.031 A 
ATOM     55  C   UNL A   1      48.404  26.833  26.889  1.00  0.00     0.031 A 
ATOM     56  C   UNL A   1      43.014  29.990  28.779  1.00  0.00     0.049 A 
ATOM     57  C   UNL A   1      48.134  28.252  27.313  1.00  0.00     0.074 A 
ATOM     58  C   UNL A   1      42.904  31.297  29.220  1.00  0.00     0.029 A 
ATOM     59  N   UNL A   1      44.349  29.787  28.459  1.00  0.00    -0.354 N 
ATOM     60  N   UNL A   1      47.004  28.797  27.692  1.00  0.00    -0.248 NA
ATOM     61  C   UNL A   1      49.282  29.170  27.323  1.00  0.00     0.031 C 
ATOM     62  C   UNL A   1      44.162  31.902  29.112  1.00  0.00     0.029 A 
ATOM     63  C   UNL A   1      45.067  30.952  28.668  1.00  0.00     0.049 A 
ATOM     64  H   UNL A   1      44.728  28.940  28.132  1.00  0.00     0.167 HD
ATOM     65  C   UNL A   1      47.308  30.116  28.014  1.00  0.00     0.074 A 
ATOM     66  C   UNL A   1      48.732  30.279  27.799  1.00  0.00     0.031 C 
ATOM     67  C   UNL A   1      46.485  31.100  28.450  1.00  0.00     0.031 A 
BRANCH  54  68
ATOM     68  C   UNL A   1      40.562  29.393  28.983  1.00  0.00    -0.014 A 
ATOM     69  C   UNL A   1      40.187  29.729  30.298  1.00  0.00     0.010 A 
ATOM     70  C   UNL A   1      39.601  29.470  27.958  1.00  0.00     0.010 A 
ATOM     71  C   UNL A   1      38.868  30.087  30.588  1.00  0.00     0.020 A 
ATOM     72  C   UNL A   1      38.287  29.858  28.240  1.00  0.00     0.020 A 
ATOM     73  C   UNL A   1      37.925  30.148  29.558  1.00  0.00     0.054 A 
BRANCH  73  74
ATOM     74  S   UNL A   1      36.226  30.634  29.963  1.00  0.00     0.124 S 
ATOM     75  O   UNL A   1      35.898  29.709  31.047  1.00  0.00    -0.237 OA
ATOM     76  O   UNL A   1      36.379  32.032  30.356  1.00  0.00    -0.237 OA
ATOM     77  O   UNL A   1      35.495  30.415  28.717  1.00  0.00    -0.744 OA
ENDBRANCH  73  74
ENDBRANCH  54  68
BRANCH  55  78
ATOM     78  C   UNL A   1      49.777  26.398  26.505  1.00  0.00    -0.014 A 
ATOM     79  C   UNL A   1      50.679  25.940  27.481  1.00  0.00     0.010 A 
ATOM     80  C   UNL A   1      50.186  26.430  25.159  1.00  0.00     0.010 A 
ATOM     81  C   UNL A   1      51.970  25.540  27.122  1.00  0.00     0.020 A 
ATOM     82  C   UNL A   1      51.465  26.001  24.793  1.00  0.00     0.020 A 
ATOM     83  C   UNL A   1      52.353  25.569  25.780  1.00  0.00     0.054 A 
BRANCH  83  84
ATOM     84  S   UNL A   1      54.016  24.994  25.331  1.00  0.00     0.124 S 
ATOM     85  O   UNL A   1      53.741  23.669  24.785  1.00  0.00    -0.237 OA
ATOM     86  O   UNL A   1      54.447  26.001  24.366  1.00  0.00    -0.237 OA
ATOM     87  O   UNL A   1      54.738  25.011  26.602  1.00  0.00    -0.744 OA
ENDBRANCH  83  84
ENDBRANCH  55  78
BRANCH  67  88
ATOM     88  C   UNL A   1      47.104  32.438  28.763  1.00  0.00    -0.014 A 
ATOM     89  C   UNL A   1      46.763  33.591  28.034  1.00  0.00     0.010 A 
ATOM     90  C   UNL A   1      47.997  32.551  29.845  1.00  0.00     0.010 A 
ATOM     91  C   UNL A   1      47.327  34.826  28.362  1.00  0.00     0.020 A 
ATOM     92  C   UNL A   1      48.540  33.789  30.195  1.00  0.00     0.020 A 
ATOM     93  C   UNL A   1      48.212  34.918  29.441  1.00  0.00     0.054 A 
BRANCH  93  94
ATOM     94  S   UNL A   1      48.893  36.542  29.876  1.00  0.00     0.124 S 
ATOM     95  O   UNL A   1      49.660  36.237  31.080  1.00  0.00    -0.237 OA
ATOM     96  O   UNL A   1      49.683  36.883  28.696  1.00  0.00    -0.237 OA
ATOM     97  O   UNL A   1      47.707  37.370  30.086  1.00  0.00    -0.744 OA
ENDBRANCH  93  94
ENDBRANCH  67  88
ENDBRANCH  41  42
ENDBRANCH  33  36
ENDBRANCH  31  32
ENDBRANCH  30  31
ENDBRANCH  29  30
ENDBRANCH   1  29
TORSDOF 21
ENDMDL
MODEL 3
REMARK VINA RESULT:      -9.9      2.334      9.128
REMARK SMILES CCC[C@@H]1C[N@@H+](Cc2cc(OC)c3c(c2)OCO3)C[C@H]1C(=O)NCCCCCCNC(=O)c1ccc(-c2c3nc(c(-c4ccc(S(=O)(=O)[O-])cc4)c4ccc([nH]4)c(-c4ccc(S(=O)(=O)[O-])cc4)c4nc(c(-c5ccc(S(=O)(=O)[O-])cc5)c5ccc2[nH]5)C=C4)C=C3)cc1
REMARK SMILES IDX 26 1 25 2 24 3 23 4 21 5 22 6 20 8 4 9 5 10 6 11 19 12 3 14
REMARK SMILES IDX 2 15 1 16 7 17 8 18 9 19 15 20 10 21 14 22 13 23 16 24 18 25
REMARK SMILES IDX 17 26 11 27 12 28 27 29 28 30 29 31 30 32 31 33 32 35 33 36
REMARK SMILES IDX 34 37 92 38 35 39 91 40 36 41 37 42 38 43 85 44 39 45 90 46
REMARK SMILES IDX 84 47 86 48 40 49 89 50 83 51 82 52 41 54 71 55 52 56 70 57
REMARK SMILES IDX 53 58 56 59 69 60 87 61 54 62 55 63 68 65 88 66 57 67 42 68
REMARK SMILES IDX 43 69 51 70 44 71 50 72 45 73 46 74 47 75 48 76 49 77 72 78
REMARK SMILES IDX 73 79 81 80 74 81 80 82 75 83 76 84 77 85 78 86 79 87 58 88
REMARK SMILES IDX 59 89 67 90 60 91 66 92 61 93 62 94 63 95 64 96 65 97
REMARK H PARENT 23 7 6 13 30 34 86 53 56 64
REMARK Flexibility Score: inf
ROOT
ATOM      1  C   UNL A   1      36.410  22.041  25.730  1.00  0.00     0.002 C 
ENDROOT
BRANCH   1   2
ATOM      2  C   UNL A   1      35.055  21.652  26.341  1.00  0.00     0.021 C 
BRANCH   2   3
ATOM      3  C   UNL A   1      34.288  22.739  27.138  1.00  0.00     0.116 C 
BRANCH   3   4
ATOM      4  N   UNL A   1      33.396  23.695  26.446  1.00  0.00    -0.356 N 
ATOM      5  C   UNL A   1      32.939  23.980  25.181  1.00  0.00     0.229 C 
ATOM      6  O   UNL A   1      31.965  24.751  25.157  1.00  0.00    -0.275 OA
ATOM      7  H   UNL A   1      33.007  24.325  27.096  1.00  0.00     0.163 HD
BRANCH   5   8
ATOM      8  C   UNL A   1      33.514  23.525  23.801  1.00  0.00     0.142 C 
ATOM      9  C   UNL A   1      32.531  22.845  22.770  1.00  0.00     0.062 C 
ATOM     10  C   UNL A   1      33.114  23.276  21.422  1.00  0.00     0.267 C 
ATOM     11  N   UNL A   1      33.484  24.660  21.652  1.00  0.00    -0.330 N 
ATOM     12  C   UNL A   1      34.174  24.609  22.944  1.00  0.00     0.276 C 
ATOM     13  H   UNL A   1      34.114  25.047  20.949  1.00  0.00     0.348 HD
BRANCH   9  14
ATOM     14  C   UNL A   1      32.128  21.368  22.790  1.00  0.00     0.010 C 
BRANCH  14  15
ATOM     15  C   UNL A   1      32.337  20.742  24.209  1.00  0.00    -0.003 C 
ATOM     16  C   UNL A   1      33.019  19.376  24.281  1.00  0.00     0.004 C 
ENDBRANCH  14  15
ENDBRANCH   9  14
BRANCH  11  17
ATOM     17  C   UNL A   1      32.425  25.681  21.398  1.00  0.00     0.299 C 
BRANCH  17  18
ATOM     18  C   UNL A   1      32.090  26.837  22.356  1.00  0.00     0.014 A 
ATOM     19  C   UNL A   1      30.763  27.184  22.623  1.00  0.00     0.060 A 
ATOM     20  C   UNL A   1      33.027  27.524  23.128  1.00  0.00     0.060 A 
ATOM     21  C   UNL A   1      30.288  28.209  23.439  1.00  0.00     0.165 A 
ATOM     22  C   UNL A   1      32.569  28.496  24.029  1.00  0.00     0.170 A 
ATOM     23  C   UNL A   1      31.236  28.850  24.171  1.00  0.00     0.207 A 
ATOM     24  O   UNL A   1      33.363  29.202  24.885  1.00  0.00    -0.453 OA
ATOM     25  O   UNL A   1      31.044  29.829  25.089  1.00  0.00    -0.450 OA
ATOM     26  C   UNL A   1      32.380  29.977  25.603  1.00  0.00     0.468 C 
BRANCH  21  27
ATOM     27  O   UNL A   1      28.948  28.399  23.353  1.00  0.00    -0.493 OA
ATOM     28  C   UNL A   1      28.459  29.331  22.405  1.00  0.00     0.278 C 
ENDBRANCH  21  27
ENDBRANCH  17  18
ENDBRANCH  11  17
ENDBRANCH   5   8
ENDBRANCH   3   4
ENDBRANCH   2   3
ENDBRANCH   1   2
BRANCH   1  29
ATOM     29  C   UNL A   1      36.908  21.048  24.662  1.00  0.00     0.002 C 
BRANCH  29  30
ATOM     30  C   UNL A   1      37.964  20.028  25.118  1.00  0.00     0.021 C 
BRANCH  30  31
ATOM     31  C   UNL A   1      39.235  20.638  25.709  1.00  0.00     0.116 C 
BRANCH  31  32
ATOM     32  N   UNL A   1      40.230  19.617  26.009  1.00  0.00    -0.352 N 
ATOM     33  C   UNL A   1      41.575  19.762  26.266  1.00  0.00     0.251 C 
ATOM     34  H   UNL A   1      39.893  18.692  26.033  1.00  0.00     0.163 HD
ATOM     35  O   UNL A   1      42.324  18.795  26.202  1.00  0.00    -0.269 OA
BRANCH  33  36
ATOM     36  C   UNL A   1      42.115  21.094  26.619  1.00  0.00     0.039 A 
ATOM     37  C   UNL A   1      42.553  21.339  27.922  1.00  0.00     0.014 A 
ATOM     38  C   UNL A   1      42.156  22.111  25.662  1.00  0.00     0.014 A 
ATOM     39  C   UNL A   1      43.091  22.590  28.249  1.00  0.00     0.010 A 
ATOM     40  C   UNL A   1      42.751  23.332  25.969  1.00  0.00     0.010 A 
ATOM     41  C   UNL A   1      43.221  23.587  27.267  1.00  0.00    -0.014 A 
BRANCH  41  42
ATOM     42  C   UNL A   1      43.836  24.905  27.577  1.00  0.00     0.031 A 
ATOM     43  C   UNL A   1      42.982  26.040  28.078  1.00  0.00     0.074 A 
ATOM     44  C   UNL A   1      45.150  25.101  27.348  1.00  0.00     0.049 A 
ATOM     45  N   UNL A   1      43.325  27.274  28.349  1.00  0.00    -0.248 NA
ATOM     46  C   UNL A   1      41.552  25.758  28.279  1.00  0.00     0.031 C 
ATOM     47  C   UNL A   1      46.080  24.094  26.829  1.00  0.00     0.029 A 
ATOM     48  N   UNL A   1      45.934  26.216  27.519  1.00  0.00    -0.354 N 
ATOM     49  C   UNL A   1      42.154  27.916  28.737  1.00  0.00     0.074 A 
ATOM     50  C   UNL A   1      41.084  26.952  28.613  1.00  0.00     0.031 C 
ATOM     51  C   UNL A   1      47.309  24.630  26.751  1.00  0.00     0.029 A 
ATOM     52  C   UNL A   1      47.251  26.026  27.173  1.00  0.00     0.049 A 
ATOM     53  H   UNL A   1      45.584  27.073  27.857  1.00  0.00     0.167 HD
ATOM     54  C   UNL A   1      41.987  29.187  29.178  1.00  0.00     0.031 A 
ATOM     55  C   UNL A   1      48.295  26.878  27.188  1.00  0.00     0.031 A 
ATOM     56  C   UNL A   1      43.055  30.142  29.305  1.00  0.00     0.049 A 
ATOM     57  C   UNL A   1      48.081  28.291  27.662  1.00  0.00     0.074 A 
ATOM     58  C   UNL A   1      42.998  31.438  29.788  1.00  0.00     0.029 A 
ATOM     59  N   UNL A   1      44.375  29.908  28.947  1.00  0.00    -0.354 N 
ATOM     60  N   UNL A   1      46.978  28.859  28.085  1.00  0.00    -0.248 NA
ATOM     61  C   UNL A   1      49.257  29.172  27.672  1.00  0.00     0.031 C 
ATOM     62  C   UNL A   1      44.271  32.006  29.668  1.00  0.00     0.029 A 
ATOM     63  C   UNL A   1      45.135  31.042  29.173  1.00  0.00     0.049 A 
ATOM     64  H   UNL A   1      44.719  29.059  28.584  1.00  0.00     0.167 HD
ATOM     65  C   UNL A   1      47.332  30.158  28.439  1.00  0.00     0.074 A 
ATOM     66  C   UNL A   1      48.754  30.283  28.195  1.00  0.00     0.031 C 
ATOM     67  C   UNL A   1      46.551  31.153  28.925  1.00  0.00     0.031 A 
BRANCH  54  68
ATOM     68  C   UNL A   1      40.591  29.617  29.552  1.00  0.00    -0.014 A 
ATOM     69  C   UNL A   1      40.180  29.660  30.897  1.00  0.00     0.010 A 
ATOM     70  C   UNL A   1      39.689  30.021  28.549  1.00  0.00     0.010 A 
ATOM     71  C   UNL A   1      38.881  30.053  31.229  1.00  0.00     0.020 A 
ATOM     72  C   UNL A   1      38.398  30.445  28.880  1.00  0.00     0.020 A 
ATOM     73  C   UNL A   1      37.997  30.442  30.218  1.00  0.00     0.054 A 
BRANCH  73  74
ATOM     74  S   UNL A   1      36.324  30.965  30.681  1.00  0.00     0.124 S 
ATOM     75  O   UNL A   1      36.549  32.342  31.117  1.00  0.00    -0.237 OA
ATOM     76  O   UNL A   1      35.585  30.816  29.429  1.00  0.00    -0.237 OA
ATOM     77  O   UNL A   1      35.948  30.031  31.739  1.00  0.00    -0.744 OA
ENDBRANCH  73  74
ENDBRANCH  54  68
BRANCH  55  78
ATOM     78  C   UNL A   1      49.644  26.412  26.758  1.00  0.00    -0.014 A 
ATOM     79  C   UNL A   1      50.029  26.493  25.408  1.00  0.00     0.010 A 
ATOM     80  C   UNL A   1      50.554  25.896  27.698  1.00  0.00     0.010 A 
ATOM     81  C   UNL A   1      51.292  26.050  25.003  1.00  0.00     0.020 A 
ATOM     82  C   UNL A   1      51.829  25.480  27.301  1.00  0.00     0.020 A 
ATOM     83  C   UNL A   1      52.185  25.549  25.954  1.00  0.00     0.054 A 
BRANCH  83  84
ATOM     84  S   UNL A   1      53.838  25.029  25.412  1.00  0.00     0.124 S 
ATOM     85  O   UNL A   1      54.243  26.144  24.562  1.00  0.00    -0.237 OA
ATOM     86  O   UNL A   1      54.557  24.901  26.677  1.00  0.00    -0.237 OA
ATOM     87  O   UNL A   1      53.589  23.768  24.716  1.00  0.00    -0.744 OA
ENDBRANCH  83  84
ENDBRANCH  55  78
BRANCH  67  88
ATOM     88  C   UNL A   1      47.220  32.460  29.263  1.00  0.00    -0.014 A 
ATOM     89  C   UNL A   1      47.796  32.683  30.526  1.00  0.00     0.010 A 
ATOM     90  C   UNL A   1      47.323  33.459  28.277  1.00  0.00     0.010 A 
ATOM     91  C   UNL A   1      48.437  33.893  30.807  1.00  0.00     0.020 A 
ATOM     92  C   UNL A   1      47.989  34.658  28.544  1.00  0.00     0.020 A 
ATOM     93  C   UNL A   1      48.530  34.872  29.813  1.00  0.00     0.054 A 
BRANCH  93  94
ATOM     94  S   UNL A   1      49.409  36.414  30.188  1.00  0.00     0.124 S 
ATOM     95  O   UNL A   1      48.312  37.371  30.290  1.00  0.00    -0.237 OA
ATOM     96  O   UNL A   1      50.088  36.098  31.442  1.00  0.00    -0.237 OA
ATOM     97  O   UNL A   1      50.292  36.598  29.038  1.00  0.00    -0.744 OA
ENDBRANCH  93  94
ENDBRANCH  67  88
ENDBRANCH  41  42
ENDBRANCH  33  36
ENDBRANCH  31  32
ENDBRANCH  30  31
ENDBRANCH  29  30
ENDBRANCH   1  29
TORSDOF 21
ENDMDL
