MODEL 1
REMARK VINA RESULT:     -11.5      0.000      0.000
REMARK SMILES O=C(NCCCCCCNC(=O)[C@H]1CCN1C(=O)OCC1c2ccccc2-c2ccccc21)c1ccc(-c2c3nc(c(-c4ccc(S(=O)(=O)[O-])cc4)c4ccc([nH]4)c(-c4ccc(S(=O)(=O)[O-])cc4)c4nc(c(-c5ccc(S(=O)(=O)[O-])cc5)c5ccc2[nH]5)C=C4)C=C3)cc1
REMARK SMILES IDX 7 1 6 2 5 3 4 4 3 5 1 6 2 7 34 9 35 10 93 11 36 12 92 13
REMARK SMILES IDX 37 14 38 15 39 16 86 17 40 18 91 19 85 20 87 21 41 22 90 23
REMARK SMILES IDX 84 24 83 25 42 27 72 28 53 29 71 30 54 31 57 32 70 33 88 34
REMARK SMILES IDX 55 35 56 36 69 38 89 39 58 40 43 41 44 42 52 43 45 44 51 45
REMARK SMILES IDX 46 46 47 47 48 48 49 49 50 50 73 51 74 52 82 53 75 54 81 55
REMARK SMILES IDX 76 56 77 57 78 58 79 59 80 60 59 61 60 62 68 63 61 64 67 65
REMARK SMILES IDX 62 66 63 67 64 68 65 69 66 70 8 71 9 72 10 73 11 74 12 76
REMARK SMILES IDX 13 77 14 78 16 79 15 80 17 81 18 82 19 83 20 84 21 85 22 86
REMARK SMILES IDX 33 87 23 88 27 89 28 90 32 91 24 92 26 93 29 94 31 95 25 96
REMARK SMILES IDX 30 97
REMARK H PARENT 3 8 87 26 57 37 10 75
REMARK Flexibility Score: inf
ROOT
ATOM      1  C   UNL A   1      38.472  22.381  26.084  1.00  0.00     0.002 C 
ENDROOT
BRANCH   1   2
ATOM      2  C   UNL A   1      39.891  21.830  26.272  1.00  0.00     0.002 C 
BRANCH   2   3
ATOM      3  C   UNL A   1      40.591  22.219  27.577  1.00  0.00     0.021 C 
BRANCH   3   4
ATOM      4  C   UNL A   1      41.845  23.072  27.415  1.00  0.00     0.116 C 
BRANCH   4   5
ATOM      5  N   UNL A   1      41.815  23.876  26.206  1.00  0.00    -0.352 N 
ATOM      6  O   UNL A   1      41.359  25.665  24.918  1.00  0.00    -0.269 OA
ATOM      7  C   UNL A   1      41.504  25.205  26.048  1.00  0.00     0.251 C 
ATOM      8  H   UNL A   1      42.050  23.399  25.378  1.00  0.00     0.163 HD
BRANCH   7   9
ATOM      9  C   UNL A   1      41.329  26.082  27.229  1.00  0.00     0.039 A 
ATOM     10  C   UNL A   1      42.237  27.107  27.508  1.00  0.00     0.014 A 
ATOM     11  C   UNL A   1      40.208  25.902  28.046  1.00  0.00     0.014 A 
ATOM     12  C   UNL A   1      42.082  27.881  28.657  1.00  0.00     0.010 A 
ATOM     13  C   UNL A   1      40.020  26.720  29.166  1.00  0.00     0.010 A 
ATOM     14  C   UNL A   1      40.966  27.703  29.491  1.00  0.00    -0.014 A 
BRANCH  14  15
ATOM     15  C   UNL A   1      40.772  28.602  30.657  1.00  0.00     0.031 A 
ATOM     16  C   UNL A   1      41.658  28.510  31.868  1.00  0.00     0.074 A 
ATOM     17  C   UNL A   1      39.795  29.528  30.606  1.00  0.00     0.049 A 
ATOM     18  N   UNL A   1      41.644  29.242  32.954  1.00  0.00    -0.248 NA
ATOM     19  C   UNL A   1      42.690  27.461  31.866  1.00  0.00     0.031 C 
ATOM     20  C   UNL A   1      38.863  29.710  29.489  1.00  0.00     0.029 A 
ATOM     21  N   UNL A   1      39.432  30.502  31.502  1.00  0.00    -0.354 N 
ATOM     22  C   UNL A   1      42.650  28.737  33.769  1.00  0.00     0.074 A 
ATOM     23  C   UNL A   1      43.244  27.623  33.061  1.00  0.00     0.031 C 
ATOM     24  C   UNL A   1      38.067  30.758  29.747  1.00  0.00     0.029 A 
ATOM     25  C   UNL A   1      38.397  31.293  31.063  1.00  0.00     0.049 A 
ATOM     26  H   UNL A   1      39.870  30.622  32.375  1.00  0.00     0.167 HD
ATOM     27  C   UNL A   1      43.044  29.166  34.993  1.00  0.00     0.031 A 
ATOM     28  C   UNL A   1      37.774  32.330  31.654  1.00  0.00     0.031 A 
ATOM     29  C   UNL A   1      42.451  30.274  35.697  1.00  0.00     0.049 A 
ATOM     30  C   UNL A   1      38.220  32.774  33.016  1.00  0.00     0.074 A 
ATOM     31  C   UNL A   1      42.799  30.796  36.931  1.00  0.00     0.029 A 
ATOM     32  N   UNL A   1      41.385  31.029  35.232  1.00  0.00    -0.354 N 
ATOM     33  N   UNL A   1      39.191  32.297  33.757  1.00  0.00    -0.248 NA
ATOM     34  C   UNL A   1      37.486  33.892  33.621  1.00  0.00     0.031 C 
ATOM     35  C   UNL A   1      41.919  31.842  37.230  1.00  0.00     0.029 A 
ATOM     36  C   UNL A   1      41.050  31.999  36.162  1.00  0.00     0.049 A 
ATOM     37  H   UNL A   1      40.931  30.894  34.369  1.00  0.00     0.167 HD
ATOM     38  C   UNL A   1      39.190  33.065  34.915  1.00  0.00     0.074 A 
ATOM     39  C   UNL A   1      38.136  34.048  34.767  1.00  0.00     0.031 C 
ATOM     40  C   UNL A   1      39.990  32.962  36.005  1.00  0.00     0.031 A 
BRANCH  27  41
ATOM     41  C   UNL A   1      44.165  28.417  35.663  1.00  0.00    -0.014 A 
ATOM     42  C   UNL A   1      43.904  27.315  36.495  1.00  0.00     0.010 A 
ATOM     43  C   UNL A   1      45.499  28.794  35.421  1.00  0.00     0.010 A 
ATOM     44  C   UNL A   1      44.956  26.623  37.103  1.00  0.00     0.020 A 
ATOM     45  C   UNL A   1      46.555  28.092  36.012  1.00  0.00     0.020 A 
ATOM     46  C   UNL A   1      46.275  27.021  36.863  1.00  0.00     0.054 A 
BRANCH  46  47
ATOM     47  S   UNL A   1      47.625  26.097  37.651  1.00  0.00     0.124 S 
ATOM     48  O   UNL A   1      48.607  26.027  36.573  1.00  0.00    -0.237 OA
ATOM     49  O   UNL A   1      47.988  26.954  38.776  1.00  0.00    -0.237 OA
ATOM     50  O   UNL A   1      47.006  24.825  38.015  1.00  0.00    -0.744 OA
ENDBRANCH  46  47
ENDBRANCH  27  41
BRANCH  28  51
ATOM     51  C   UNL A   1      36.660  33.014  30.948  1.00  0.00    -0.014 A 
ATOM     52  C   UNL A   1      35.324  32.713  31.264  1.00  0.00     0.010 A 
ATOM     53  C   UNL A   1      36.932  34.004  29.986  1.00  0.00     0.010 A 
ATOM     54  C   UNL A   1      34.279  33.388  30.627  1.00  0.00     0.020 A 
ATOM     55  C   UNL A   1      35.891  34.697  29.366  1.00  0.00     0.020 A 
ATOM     56  C   UNL A   1      34.569  34.378  29.684  1.00  0.00     0.054 A 
BRANCH  56  57
ATOM     57  S   UNL A   1      33.202  35.298  28.924  1.00  0.00     0.124 S 
ATOM     58  O   UNL A   1      32.470  35.771  30.094  1.00  0.00    -0.237 OA
ATOM     59  O   UNL A   1      33.898  36.327  28.154  1.00  0.00    -0.237 OA
ATOM     60  O   UNL A   1      32.519  34.287  28.120  1.00  0.00    -0.744 OA
ENDBRANCH  56  57
ENDBRANCH  28  51
BRANCH  40  61
ATOM     61  C   UNL A   1      39.761  33.948  37.115  1.00  0.00    -0.014 A 
ATOM     62  C   UNL A   1      38.952  33.620  38.217  1.00  0.00     0.010 A 
ATOM     63  C   UNL A   1      40.390  35.206  37.072  1.00  0.00     0.010 A 
ATOM     64  C   UNL A   1      38.751  34.545  39.244  1.00  0.00     0.020 A 
ATOM     65  C   UNL A   1      40.206  36.126  38.106  1.00  0.00     0.020 A 
ATOM     66  C   UNL A   1      39.375  35.795  39.180  1.00  0.00     0.054 A 
BRANCH  66  67
ATOM     67  S   UNL A   1      39.129  36.970  40.539  1.00  0.00     0.124 S 
ATOM     68  O   UNL A   1      38.497  36.132  41.553  1.00  0.00    -0.237 OA
ATOM     69  O   UNL A   1      40.490  37.406  40.843  1.00  0.00    -0.237 OA
ATOM     70  O   UNL A   1      38.270  37.998  39.955  1.00  0.00    -0.744 OA
ENDBRANCH  66  67
ENDBRANCH  40  61
ENDBRANCH  14  15
ENDBRANCH   7   9
ENDBRANCH   4   5
ENDBRANCH   3   4
ENDBRANCH   2   3
ENDBRANCH   1   2
BRANCH   1  71
ATOM     71  C   UNL A   1      37.699  21.842  24.874  1.00  0.00     0.021 C 
BRANCH  71  72
ATOM     72  C   UNL A   1      36.495  20.963  25.219  1.00  0.00     0.116 C 
BRANCH  72  73
ATOM     73  N   UNL A   1      35.819  21.417  26.420  1.00  0.00    -0.354 N 
ATOM     74  C   UNL A   1      34.633  22.098  26.594  1.00  0.00     0.243 C 
ATOM     75  H   UNL A   1      36.290  21.200  27.256  1.00  0.00     0.163 HD
ATOM     76  O   UNL A   1      34.348  22.371  27.772  1.00  0.00    -0.273 OA
BRANCH  74  77
ATOM     77  C   UNL A   1      33.721  22.525  25.405  1.00  0.00     0.179 C 
ATOM     78  C   UNL A   1      32.980  21.458  24.579  1.00  0.00     0.057 C 
ATOM     79  N   UNL A   1      32.415  23.086  25.702  1.00  0.00    -0.296 N 
ATOM     80  C   UNL A   1      31.657  22.173  24.875  1.00  0.00     0.126 C 
BRANCH  79  81
ATOM     81  C   UNL A   1      32.021  24.276  26.226  1.00  0.00     0.410 C 
ATOM     82  O   UNL A   1      31.300  24.374  27.207  1.00  0.00    -0.224 OA
BRANCH  81  83
ATOM     83  O   UNL A   1      32.458  25.329  25.480  1.00  0.00    -0.448 OA
BRANCH  83  84
ATOM     84  C   UNL A   1      33.328  26.250  26.179  1.00  0.00     0.248 C 
BRANCH  84  85
ATOM     85  C   UNL A   1      33.511  27.579  25.422  1.00  0.00     0.088 C 
ATOM     86  C   UNL A   1      32.246  28.044  24.711  1.00  0.00    -0.029 A 
ATOM     87  C   UNL A   1      33.812  28.776  26.322  1.00  0.00    -0.029 A 
ATOM     88  C   UNL A   1      31.506  27.369  23.752  1.00  0.00     0.005 A 
ATOM     89  C   UNL A   1      31.912  29.358  25.106  1.00  0.00    -0.014 A 
ATOM     90  C   UNL A   1      32.876  29.809  26.088  1.00  0.00    -0.014 A 
ATOM     91  C   UNL A   1      34.860  28.943  27.215  1.00  0.00     0.005 A 
ATOM     92  C   UNL A   1      30.398  28.015  23.200  1.00  0.00     0.000 A 
ATOM     93  C   UNL A   1      30.817  29.999  24.553  1.00  0.00     0.009 A 
ATOM     94  C   UNL A   1      32.986  31.022  26.745  1.00  0.00     0.009 A 
ATOM     95  C   UNL A   1      34.967  30.167  27.880  1.00  0.00     0.000 A 
ATOM     96  C   UNL A   1      30.057  29.318  23.596  1.00  0.00     0.001 A 
ATOM     97  C   UNL A   1      34.042  31.198  27.645  1.00  0.00     0.001 A 
ENDBRANCH  84  85
ENDBRANCH  83  84
ENDBRANCH  81  83
ENDBRANCH  79  81
ENDBRANCH  74  77
ENDBRANCH  72  73
ENDBRANCH  71  72
ENDBRANCH   1  71
TORSDOF 20
ENDMDL
MODEL 2
REMARK VINA RESULT:     -11.5      0.920      2.116
REMARK SMILES O=C(NCCCCCCNC(=O)[C@H]1CCN1C(=O)OCC1c2ccccc2-c2ccccc21)c1ccc(-c2c3nc(c(-c4ccc(S(=O)(=O)[O-])cc4)c4ccc([nH]4)c(-c4ccc(S(=O)(=O)[O-])cc4)c4nc(c(-c5ccc(S(=O)(=O)[O-])cc5)c5ccc2[nH]5)C=C4)C=C3)cc1
REMARK SMILES IDX 7 1 6 2 5 3 4 4 3 5 1 6 2 7 34 9 35 10 93 11 36 12 92 13
REMARK SMILES IDX 37 14 38 15 39 16 86 17 40 18 91 19 85 20 87 21 41 22 90 23
REMARK SMILES IDX 84 24 83 25 42 27 72 28 53 29 71 30 54 31 57 32 70 33 88 34
REMARK SMILES IDX 55 35 56 36 69 38 89 39 58 40 43 41 44 42 52 43 45 44 51 45
REMARK SMILES IDX 46 46 47 47 48 48 49 49 50 50 73 51 74 52 82 53 75 54 81 55
REMARK SMILES IDX 76 56 77 57 78 58 79 59 80 60 59 61 60 62 68 63 61 64 67 65
REMARK SMILES IDX 62 66 63 67 64 68 65 69 66 70 8 71 9 72 10 73 11 74 12 76
REMARK SMILES IDX 13 77 14 78 16 79 15 80 17 81 18 82 19 83 20 84 21 85 22 86
REMARK SMILES IDX 33 87 23 88 27 89 28 90 32 91 24 92 26 93 29 94 31 95 25 96
REMARK SMILES IDX 30 97
REMARK H PARENT 3 8 87 26 57 37 10 75
REMARK Flexibility Score: inf
ROOT
ATOM      1  C   UNL A   1      37.859  21.835  25.479  1.00  0.00     0.002 C 
ENDROOT
BRANCH   1   2
ATOM      2  C   UNL A   1      39.281  21.745  26.048  1.00  0.00     0.002 C 
BRANCH   2   3
ATOM      3  C   UNL A   1      39.667  22.828  27.058  1.00  0.00     0.021 C 
BRANCH   3   4
ATOM      4  C   UNL A   1      41.160  23.122  27.161  1.00  0.00     0.116 C 
BRANCH   4   5
ATOM      5  N   UNL A   1      41.640  23.938  26.059  1.00  0.00    -0.352 N 
ATOM      6  O   UNL A   1      42.012  25.822  24.884  1.00  0.00    -0.269 OA
ATOM      7  C   UNL A   1      41.752  25.305  25.967  1.00  0.00     0.251 C 
ATOM      8  H   UNL A   1      41.926  23.439  25.260  1.00  0.00     0.163 HD
BRANCH   7   9
ATOM      9  C   UNL A   1      41.547  26.157  27.162  1.00  0.00     0.039 A 
ATOM     10  C   UNL A   1      42.557  27.004  27.626  1.00  0.00     0.014 A 
ATOM     11  C   UNL A   1      40.303  26.141  27.800  1.00  0.00     0.014 A 
ATOM     12  C   UNL A   1      42.360  27.753  28.784  1.00  0.00     0.010 A 
ATOM     13  C   UNL A   1      40.085  26.940  28.928  1.00  0.00     0.010 A 
ATOM     14  C   UNL A   1      41.118  27.737  29.441  1.00  0.00    -0.014 A 
BRANCH  14  15
ATOM     15  C   UNL A   1      40.901  28.616  30.619  1.00  0.00     0.031 A 
ATOM     16  C   UNL A   1      41.780  28.520  31.835  1.00  0.00     0.074 A 
ATOM     17  C   UNL A   1      39.908  29.526  30.574  1.00  0.00     0.049 A 
ATOM     18  N   UNL A   1      41.745  29.236  32.931  1.00  0.00    -0.248 NA
ATOM     19  C   UNL A   1      42.829  27.489  31.825  1.00  0.00     0.031 C 
ATOM     20  C   UNL A   1      38.982  29.709  29.454  1.00  0.00     0.029 A 
ATOM     21  N   UNL A   1      39.522  30.480  31.482  1.00  0.00    -0.354 N 
ATOM     22  C   UNL A   1      42.753  28.736  33.746  1.00  0.00     0.074 A 
ATOM     23  C   UNL A   1      43.371  27.642  33.026  1.00  0.00     0.031 C 
ATOM     24  C   UNL A   1      38.167  30.739  29.720  1.00  0.00     0.029 A 
ATOM     25  C   UNL A   1      38.478  31.259  31.047  1.00  0.00     0.049 A 
ATOM     26  H   UNL A   1      39.953  30.594  32.360  1.00  0.00     0.167 HD
ATOM     27  C   UNL A   1      43.132  29.152  34.979  1.00  0.00     0.031 A 
ATOM     28  C   UNL A   1      37.833  32.277  31.648  1.00  0.00     0.031 A 
ATOM     29  C   UNL A   1      42.514  30.239  35.695  1.00  0.00     0.049 A 
ATOM     30  C   UNL A   1      38.261  32.708  33.020  1.00  0.00     0.074 A 
ATOM     31  C   UNL A   1      42.845  30.749  36.940  1.00  0.00     0.029 A 
ATOM     32  N   UNL A   1      41.439  30.983  35.234  1.00  0.00    -0.354 N 
ATOM     33  N   UNL A   1      39.235  32.237  33.762  1.00  0.00    -0.248 NA
ATOM     34  C   UNL A   1      37.505  33.805  33.637  1.00  0.00     0.031 C 
ATOM     35  C   UNL A   1      41.945  31.775  37.247  1.00  0.00     0.029 A 
ATOM     36  C   UNL A   1      41.082  31.933  36.176  1.00  0.00     0.049 A 
ATOM     37  H   UNL A   1      40.995  30.853  34.365  1.00  0.00     0.167 HD
ATOM     38  C   UNL A   1      39.213  32.987  34.931  1.00  0.00     0.074 A 
ATOM     39  C   UNL A   1      38.143  33.954  34.789  1.00  0.00     0.031 C 
ATOM     40  C   UNL A   1      40.007  32.881  36.025  1.00  0.00     0.031 A 
BRANCH  27  41
ATOM     41  C   UNL A   1      44.260  28.413  35.647  1.00  0.00    -0.014 A 
ATOM     42  C   UNL A   1      44.012  27.291  36.457  1.00  0.00     0.010 A 
ATOM     43  C   UNL A   1      45.589  28.818  35.424  1.00  0.00     0.010 A 
ATOM     44  C   UNL A   1      45.072  26.608  37.062  1.00  0.00     0.020 A 
ATOM     45  C   UNL A   1      46.652  28.125  36.012  1.00  0.00     0.020 A 
ATOM     46  C   UNL A   1      46.385  27.034  36.841  1.00  0.00     0.054 A 
BRANCH  46  47
ATOM     47  S   UNL A   1      47.744  26.122  37.625  1.00  0.00     0.124 S 
ATOM     48  O   UNL A   1      48.823  27.106  37.593  1.00  0.00    -0.237 OA
ATOM     49  O   UNL A   1      47.209  25.820  38.950  1.00  0.00    -0.237 OA
ATOM     50  O   UNL A   1      47.931  24.964  36.754  1.00  0.00    -0.744 OA
ENDBRANCH  46  47
ENDBRANCH  27  41
BRANCH  28  51
ATOM     51  C   UNL A   1      36.713  32.953  30.945  1.00  0.00    -0.014 A 
ATOM     52  C   UNL A   1      35.382  32.705  31.320  1.00  0.00     0.010 A 
ATOM     53  C   UNL A   1      36.976  33.884  29.923  1.00  0.00     0.010 A 
ATOM     54  C   UNL A   1      34.332  33.374  30.684  1.00  0.00     0.020 A 
ATOM     55  C   UNL A   1      35.932  34.571  29.301  1.00  0.00     0.020 A 
ATOM     56  C   UNL A   1      34.614  34.304  29.680  1.00  0.00     0.054 A 
BRANCH  56  57
ATOM     57  S   UNL A   1      33.245  35.220  28.918  1.00  0.00     0.124 S 
ATOM     58  O   UNL A   1      33.953  36.236  28.147  1.00  0.00    -0.237 OA
ATOM     59  O   UNL A   1      32.567  34.189  28.135  1.00  0.00    -0.237 OA
ATOM     60  O   UNL A   1      32.488  35.715  30.066  1.00  0.00    -0.744 OA
ENDBRANCH  56  57
ENDBRANCH  28  51
BRANCH  40  61
ATOM     61  C   UNL A   1      39.753  33.846  37.148  1.00  0.00    -0.014 A 
ATOM     62  C   UNL A   1      40.114  35.200  37.032  1.00  0.00     0.010 A 
ATOM     63  C   UNL A   1      39.116  33.401  38.320  1.00  0.00     0.010 A 
ATOM     64  C   UNL A   1      39.870  36.088  38.083  1.00  0.00     0.020 A 
ATOM     65  C   UNL A   1      38.852  34.290  39.365  1.00  0.00     0.020 A 
ATOM     66  C   UNL A   1      39.244  35.625  39.245  1.00  0.00     0.054 A 
BRANCH  66  67
ATOM     67  S   UNL A   1      38.904  36.800  40.585  1.00  0.00     0.124 S 
ATOM     68  O   UNL A   1      37.992  36.036  41.432  1.00  0.00    -0.237 OA
ATOM     69  O   UNL A   1      40.230  37.042  41.148  1.00  0.00    -0.237 OA
ATOM     70  O   UNL A   1      38.308  37.944  39.899  1.00  0.00    -0.744 OA
ENDBRANCH  66  67
ENDBRANCH  40  61
ENDBRANCH  14  15
ENDBRANCH   7   9
ENDBRANCH   4   5
ENDBRANCH   3   4
ENDBRANCH   2   3
ENDBRANCH   1   2
BRANCH   1  71
ATOM     71  C   UNL A   1      37.417  23.224  25.003  1.00  0.00     0.021 C 
BRANCH  71  72
ATOM     72  C   UNL A   1      36.414  23.930  25.919  1.00  0.00     0.116 C 
BRANCH  72  73
ATOM     73  N   UNL A   1      35.662  22.988  26.726  1.00  0.00    -0.354 N 
ATOM     74  C   UNL A   1      34.334  22.618  26.691  1.00  0.00     0.243 C 
ATOM     75  H   UNL A   1      36.193  22.533  27.418  1.00  0.00     0.163 HD
ATOM     76  O   UNL A   1      33.991  21.796  27.557  1.00  0.00    -0.273 OA
BRANCH  74  77
ATOM     77  C   UNL A   1      33.320  23.203  25.662  1.00  0.00     0.179 C 
ATOM     78  C   UNL A   1      33.042  22.459  24.345  1.00  0.00     0.057 C 
ATOM     79  N   UNL A   1      31.901  23.075  25.941  1.00  0.00    -0.296 N 
ATOM     80  C   UNL A   1      31.547  22.451  24.685  1.00  0.00     0.126 C 
BRANCH  79  81
ATOM     81  C   UNL A   1      31.083  23.669  26.849  1.00  0.00     0.410 C 
ATOM     82  O   UNL A   1      30.273  23.057  27.529  1.00  0.00    -0.224 OA
BRANCH  81  83
ATOM     83  O   UNL A   1      31.218  25.025  26.844  1.00  0.00    -0.448 OA
BRANCH  83  84
ATOM     84  C   UNL A   1      30.179  25.737  26.131  1.00  0.00     0.248 C 
BRANCH  84  85
ATOM     85  C   UNL A   1      30.739  26.865  25.245  1.00  0.00     0.088 C 
ATOM     86  C   UNL A   1      31.785  27.720  25.948  1.00  0.00    -0.029 A 
ATOM     87  C   UNL A   1      31.517  26.375  24.025  1.00  0.00    -0.029 A 
ATOM     88  C   UNL A   1      31.651  28.440  27.126  1.00  0.00     0.005 A 
ATOM     89  C   UNL A   1      32.977  27.763  25.194  1.00  0.00    -0.014 A 
ATOM     90  C   UNL A   1      32.810  26.945  24.011  1.00  0.00    -0.014 A 
ATOM     91  C   UNL A   1      31.083  25.550  22.998  1.00  0.00     0.005 A 
ATOM     92  C   UNL A   1      32.739  29.197  27.564  1.00  0.00     0.000 A 
ATOM     93  C   UNL A   1      34.054  28.518  25.626  1.00  0.00     0.009 A 
ATOM     94  C   UNL A   1      33.680  26.695  22.962  1.00  0.00     0.009 A 
ATOM     95  C   UNL A   1      31.963  25.297  21.942  1.00  0.00     0.000 A 
ATOM     96  C   UNL A   1      33.930  29.235  26.821  1.00  0.00     0.001 A 
ATOM     97  C   UNL A   1      33.247  25.866  21.923  1.00  0.00     0.001 A 
ENDBRANCH  84  85
ENDBRANCH  83  84
ENDBRANCH  81  83
ENDBRANCH  79  81
ENDBRANCH  74  77
ENDBRANCH  72  73
ENDBRANCH  71  72
ENDBRANCH   1  71
TORSDOF 20
ENDMDL
MODEL 3
REMARK VINA RESULT:     -11.0      3.419      4.561
REMARK SMILES O=C(NCCCCCCNC(=O)[C@H]1CCN1C(=O)OCC1c2ccccc2-c2ccccc21)c1ccc(-c2c3nc(c(-c4ccc(S(=O)(=O)[O-])cc4)c4ccc([nH]4)c(-c4ccc(S(=O)(=O)[O-])cc4)c4nc(c(-c5ccc(S(=O)(=O)[O-])cc5)c5ccc2[nH]5)C=C4)C=C3)cc1
REMARK SMILES IDX 7 1 6 2 5 3 4 4 3 5 1 6 2 7 34 9 35 10 93 11 36 12 92 13
REMARK SMILES IDX 37 14 38 15 39 16 86 17 40 18 91 19 85 20 87 21 41 22 90 23
REMARK SMILES IDX 84 24 83 25 42 27 72 28 53 29 71 30 54 31 57 32 70 33 88 34
REMARK SMILES IDX 55 35 56 36 69 38 89 39 58 40 43 41 44 42 52 43 45 44 51 45
REMARK SMILES IDX 46 46 47 47 48 48 49 49 50 50 73 51 74 52 82 53 75 54 81 55
REMARK SMILES IDX 76 56 77 57 78 58 79 59 80 60 59 61 60 62 68 63 61 64 67 65
REMARK SMILES IDX 62 66 63 67 64 68 65 69 66 70 8 71 9 72 10 73 11 74 12 76
REMARK SMILES IDX 13 77 14 78 16 79 15 80 17 81 18 82 19 83 20 84 21 85 22 86
REMARK SMILES IDX 33 87 23 88 27 89 28 90 32 91 24 92 26 93 29 94 31 95 25 96
REMARK SMILES IDX 30 97
REMARK H PARENT 3 8 87 26 57 37 10 75
REMARK Flexibility Score: inf
ROOT
ATOM      1  C   UNL A   1      34.158  21.056  26.269  1.00  0.00     0.002 C 
ENDROOT
BRANCH   1   2
ATOM      2  C   UNL A   1      35.471  21.645  25.738  1.00  0.00     0.002 C 
BRANCH   2   3
ATOM      3  C   UNL A   1      35.553  23.172  25.703  1.00  0.00     0.021 C 
BRANCH   3   4
ATOM      4  C   UNL A   1      36.934  23.746  25.404  1.00  0.00     0.116 C 
BRANCH   4   5
ATOM      5  N   UNL A   1      37.989  22.759  25.565  1.00  0.00    -0.352 N 
ATOM      6  O   UNL A   1      40.062  21.993  25.986  1.00  0.00    -0.269 OA
ATOM      7  C   UNL A   1      39.246  22.903  26.100  1.00  0.00     0.251 C 
ATOM      8  H   UNL A   1      37.770  21.855  25.244  1.00  0.00     0.163 HD
BRANCH   7   9
ATOM      9  C   UNL A   1      39.627  24.154  26.797  1.00  0.00     0.039 A 
ATOM     10  C   UNL A   1      39.369  24.327  28.161  1.00  0.00     0.014 A 
ATOM     11  C   UNL A   1      40.297  25.152  26.083  1.00  0.00     0.014 A 
ATOM     12  C   UNL A   1      39.686  25.534  28.781  1.00  0.00     0.010 A 
ATOM     13  C   UNL A   1      40.669  26.340  26.721  1.00  0.00     0.010 A 
ATOM     14  C   UNL A   1      40.349  26.548  28.070  1.00  0.00    -0.014 A 
BRANCH  14  15
ATOM     15  C   UNL A   1      40.760  27.788  28.777  1.00  0.00     0.031 A 
ATOM     16  C   UNL A   1      42.148  27.946  29.333  1.00  0.00     0.074 A 
ATOM     17  C   UNL A   1      39.869  28.791  28.896  1.00  0.00     0.049 A 
ATOM     18  N   UNL A   1      42.675  28.976  29.946  1.00  0.00    -0.248 NA
ATOM     19  C   UNL A   1      43.062  26.802  29.188  1.00  0.00     0.031 C 
ATOM     20  C   UNL A   1      38.488  28.755  28.407  1.00  0.00     0.029 A 
ATOM     21  N   UNL A   1      39.992  30.043  29.447  1.00  0.00    -0.354 N 
ATOM     22  C   UNL A   1      43.973  28.604  30.273  1.00  0.00     0.074 A 
ATOM     23  C   UNL A   1      44.150  27.244  29.807  1.00  0.00     0.031 C 
ATOM     24  C   UNL A   1      37.907  29.941  28.638  1.00  0.00     0.029 A 
ATOM     25  C   UNL A   1      38.854  30.806  29.333  1.00  0.00     0.049 A 
ATOM     26  H   UNL A   1      40.815  30.362  29.881  1.00  0.00     0.167 HD
ATOM     27  C   UNL A   1      44.932  29.329  30.899  1.00  0.00     0.031 A 
ATOM     28  C   UNL A   1      38.595  32.061  29.747  1.00  0.00     0.031 A 
ATOM     29  C   UNL A   1      44.754  30.681  31.364  1.00  0.00     0.049 A 
ATOM     30  C   UNL A   1      39.668  32.836  30.453  1.00  0.00     0.074 A 
ATOM     31  C   UNL A   1      45.675  31.505  31.989  1.00  0.00     0.029 A 
ATOM     32  N   UNL A   1      43.578  31.408  31.258  1.00  0.00    -0.354 N 
ATOM     33  N   UNL A   1      40.897  32.472  30.728  1.00  0.00    -0.248 NA
ATOM     34  C   UNL A   1      39.319  34.189  30.905  1.00  0.00     0.031 C 
ATOM     35  C   UNL A   1      45.044  32.716  32.296  1.00  0.00     0.029 A 
ATOM     36  C   UNL A   1      43.743  32.662  31.823  1.00  0.00     0.049 A 
ATOM     37  H   UNL A   1      42.747  31.080  30.844  1.00  0.00     0.167 HD
ATOM     38  C   UNL A   1      41.472  33.557  31.380  1.00  0.00     0.074 A 
ATOM     39  C   UNL A   1      40.463  34.595  31.439  1.00  0.00     0.031 C 
ATOM     40  C   UNL A   1      42.725  33.679  31.885  1.00  0.00     0.031 A 
BRANCH  27  41
ATOM     41  C   UNL A   1      46.261  28.665  31.139  1.00  0.00    -0.014 A 
ATOM     42  C   UNL A   1      46.499  27.923  32.309  1.00  0.00     0.010 A 
ATOM     43  C   UNL A   1      47.269  28.747  30.161  1.00  0.00     0.010 A 
ATOM     44  C   UNL A   1      47.736  27.303  32.513  1.00  0.00     0.020 A 
ATOM     45  C   UNL A   1      48.500  28.112  30.353  1.00  0.00     0.020 A 
ATOM     46  C   UNL A   1      48.731  27.408  31.537  1.00  0.00     0.054 A 
BRANCH  46  47
ATOM     47  S   UNL A   1      50.323  26.581  31.818  1.00  0.00     0.124 S 
ATOM     48  O   UNL A   1      51.246  27.460  31.105  1.00  0.00    -0.237 OA
ATOM     49  O   UNL A   1      50.441  26.594  33.274  1.00  0.00    -0.237 OA
ATOM     50  O   UNL A   1      50.135  25.260  31.224  1.00  0.00    -0.744 OA
ENDBRANCH  46  47
ENDBRANCH  27  41
BRANCH  28  51
ATOM     51  C   UNL A   1      37.256  32.652  29.498  1.00  0.00    -0.014 A 
ATOM     52  C   UNL A   1      36.196  32.418  30.390  1.00  0.00     0.010 A 
ATOM     53  C   UNL A   1      37.046  33.491  28.388  1.00  0.00     0.010 A 
ATOM     54  C   UNL A   1      34.948  33.009  30.175  1.00  0.00     0.020 A 
ATOM     55  C   UNL A   1      35.808  34.102  28.183  1.00  0.00     0.020 A 
ATOM     56  C   UNL A   1      34.762  33.850  29.074  1.00  0.00     0.054 A 
BRANCH  56  57
ATOM     57  S   UNL A   1      33.160  34.671  28.853  1.00  0.00     0.124 S 
ATOM     58  O   UNL A   1      33.557  35.971  28.323  1.00  0.00    -0.237 OA
ATOM     59  O   UNL A   1      32.474  33.787  27.913  1.00  0.00    -0.237 OA
ATOM     60  O   UNL A   1      32.598  34.686  30.201  1.00  0.00    -0.744 OA
ENDBRANCH  56  57
ENDBRANCH  28  51
BRANCH  40  61
ATOM     61  C   UNL A   1      43.073  34.988  32.534  1.00  0.00    -0.014 A 
ATOM     62  C   UNL A   1      43.519  36.079  31.768  1.00  0.00     0.010 A 
ATOM     63  C   UNL A   1      42.920  35.140  33.925  1.00  0.00     0.010 A 
ATOM     64  C   UNL A   1      43.836  37.292  32.385  1.00  0.00     0.020 A 
ATOM     65  C   UNL A   1      43.217  36.357  34.542  1.00  0.00     0.020 A 
ATOM     66  C   UNL A   1      43.688  37.421  33.769  1.00  0.00     0.054 A 
BRANCH  66  67
ATOM     67  S   UNL A   1      44.073  39.014  34.548  1.00  0.00     0.124 S 
ATOM     68  O   UNL A   1      43.080  39.895  33.939  1.00  0.00    -0.237 OA
ATOM     69  O   UNL A   1      43.878  38.735  35.969  1.00  0.00    -0.237 OA
ATOM     70  O   UNL A   1      45.457  39.266  34.153  1.00  0.00    -0.744 OA
ENDBRANCH  66  67
ENDBRANCH  40  61
ENDBRANCH  14  15
ENDBRANCH   7   9
ENDBRANCH   4   5
ENDBRANCH   3   4
ENDBRANCH   2   3
ENDBRANCH   1   2
BRANCH   1  71
ATOM     71  C   UNL A   1      33.571  19.892  25.461  1.00  0.00     0.021 C 
BRANCH  71  72
ATOM     72  C   UNL A   1      32.181  20.152  24.876  1.00  0.00     0.116 C 
BRANCH  72  73
ATOM     73  N   UNL A   1      32.231  20.388  23.446  1.00  0.00    -0.354 N 
ATOM     74  C   UNL A   1      31.946  21.512  22.698  1.00  0.00     0.243 C 
ATOM     75  H   UNL A   1      32.520  19.611  22.916  1.00  0.00     0.163 HD
ATOM     76  O   UNL A   1      32.058  21.373  21.470  1.00  0.00    -0.273 OA
BRANCH  74  77
ATOM     77  C   UNL A   1      31.487  22.858  23.338  1.00  0.00     0.179 C 
ATOM     78  C   UNL A   1      31.074  22.906  24.819  1.00  0.00     0.057 C 
ATOM     79  N   UNL A   1      32.499  23.845  23.671  1.00  0.00    -0.296 N 
ATOM     80  C   UNL A   1      32.111  24.010  25.055  1.00  0.00     0.126 C 
BRANCH  79  81
ATOM     81  C   UNL A   1      33.283  24.653  22.911  1.00  0.00     0.410 C 
ATOM     82  O   UNL A   1      34.457  24.420  22.668  1.00  0.00    -0.224 OA
BRANCH  81  83
ATOM     83  O   UNL A   1      32.625  25.785  22.529  1.00  0.00    -0.448 OA
BRANCH  83  84
ATOM     84  C   UNL A   1      33.075  26.997  23.179  1.00  0.00     0.248 C 
BRANCH  84  85
ATOM     85  C   UNL A   1      32.094  27.483  24.263  1.00  0.00     0.088 C 
ATOM     86  C   UNL A   1      32.757  28.341  25.332  1.00  0.00    -0.029 A 
ATOM     87  C   UNL A   1      31.007  28.425  23.746  1.00  0.00    -0.029 A 
ATOM     88  C   UNL A   1      33.819  28.009  26.160  1.00  0.00     0.005 A 
ATOM     89  C   UNL A   1      32.092  29.581  25.453  1.00  0.00    -0.014 A 
ATOM     90  C   UNL A   1      31.015  29.629  24.487  1.00  0.00    -0.014 A 
ATOM     91  C   UNL A   1      30.066  28.196  22.754  1.00  0.00     0.005 A 
ATOM     92  C   UNL A   1      34.234  28.945  27.108  1.00  0.00     0.000 A 
ATOM     93  C   UNL A   1      32.502  30.507  26.398  1.00  0.00     0.009 A 
ATOM     94  C   UNL A   1      30.074  30.614  24.240  1.00  0.00     0.009 A 
ATOM     95  C   UNL A   1      29.119  29.193  22.505  1.00  0.00     0.000 A 
ATOM     96  C   UNL A   1      33.582  30.183  27.225  1.00  0.00     0.001 A 
ATOM     97  C   UNL A   1      29.121  30.389  23.242  1.00  0.00     0.001 A 
ENDBRANCH  84  85
ENDBRANCH  83  84
ENDBRANCH  81  83
ENDBRANCH  79  81
ENDBRANCH  74  77
ENDBRANCH  72  73
ENDBRANCH  71  72
ENDBRANCH   1  71
TORSDOF 20
ENDMDL
