MODEL 1
REMARK VINA RESULT:     -11.7      0.000      0.000
REMARK SMILES Cc1cc2cc(-c3ccc([C@@H](C)C(=O)NCCCCCCNC(=O)c4ccc(-c5c6nc(c(-c7ccc(S(=O)(=O)[O-])cc7)c7ccc([nH]7)c(-c7ccc(S(=O)(=O)[O-])cc7)c7nc(c(-c8ccc(S(=O)(=O)[O-])cc8)c8ccc5[nH]8)C=C7)C=C6)cc4)cc3)ccc2[nH]1
REMARK SMILES IDX 19 1 18 2 17 3 16 4 15 5 13 6 14 7 11 9 12 10 10 11 7 12
REMARK SMILES IDX 8 13 86 14 9 15 85 16 6 17 1 18 2 19 3 20 90 21 4 22 89 23
REMARK SMILES IDX 5 25 88 26 87 27 20 28 21 29 22 30 23 31 24 33 25 34 26 35
REMARK SMILES IDX 84 36 27 37 83 38 28 39 29 40 30 41 77 42 31 43 82 44 76 45
REMARK SMILES IDX 78 46 32 47 81 48 75 49 74 50 33 52 63 53 44 54 62 55 45 56
REMARK SMILES IDX 48 57 61 58 79 59 46 60 47 61 60 63 80 64 49 65 34 66 35 67
REMARK SMILES IDX 43 68 36 69 42 70 37 71 38 72 39 73 40 74 41 75 64 76 65 77
REMARK SMILES IDX 73 78 66 79 72 80 67 81 68 82 69 83 70 84 71 85 50 86 51 87
REMARK SMILES IDX 59 88 52 89 58 90 53 91 54 92 55 93 56 94 57 95
REMARK H PARENT 15 8 90 24 22 32 78 51 48 62
REMARK Flexibility Score: inf
ROOT
ATOM      1  C   UNL A   1      33.790  24.347  25.925  1.00  0.00     0.002 C 
ENDROOT
BRANCH   1   2
ATOM      2  C   UNL A   1      34.177  25.717  25.351  1.00  0.00     0.002 C 
BRANCH   2   3
ATOM      3  C   UNL A   1      33.577  26.921  26.085  1.00  0.00     0.021 C 
BRANCH   3   4
ATOM      4  C   UNL A   1      32.807  27.880  25.175  1.00  0.00     0.116 C 
BRANCH   4   5
ATOM      5  N   UNL A   1      33.529  28.154  23.949  1.00  0.00    -0.356 N 
ATOM      6  C   UNL A   1      33.293  27.794  22.658  1.00  0.00     0.227 C 
ATOM      7  O   UNL A   1      34.153  28.122  21.831  1.00  0.00    -0.274 OA
ATOM      8  H   UNL A   1      34.338  28.700  24.072  1.00  0.00     0.163 HD
BRANCH   6   9
ATOM      9  C   UNL A   1      32.035  27.042  22.194  1.00  0.00     0.105 C 
ATOM     10  C   UNL A   1      30.723  27.722  22.593  1.00  0.00     0.023 C 
BRANCH   9  11
ATOM     11  C   UNL A   1      32.101  25.543  22.430  1.00  0.00    -0.036 A 
ATOM     12  C   UNL A   1      32.104  22.709  22.795  1.00  0.00    -0.018 A 
ATOM     13  C   UNL A   1      33.113  23.365  22.072  1.00  0.00     0.009 A 
ATOM     14  C   UNL A   1      31.094  23.508  23.346  1.00  0.00     0.009 A 
ATOM     15  C   UNL A   1      33.136  24.752  21.929  1.00  0.00     0.005 A 
ATOM     16  C   UNL A   1      31.082  24.899  23.150  1.00  0.00     0.005 A 
BRANCH  12  17
ATOM     17  C   UNL A   1      32.149  21.239  22.955  1.00  0.00    -0.018 A 
ATOM     18  C   UNL A   1      33.147  15.922  25.838  1.00  0.00     0.064 C 
ATOM     19  C   UNL A   1      32.871  17.172  25.089  1.00  0.00     0.013 A 
ATOM     20  C   UNL A   1      32.829  18.479  25.523  1.00  0.00     0.031 A 
ATOM     21  N   UNL A   1      32.611  17.180  23.739  1.00  0.00    -0.359 N 
ATOM     22  C   UNL A   1      32.536  19.299  24.402  1.00  0.00     0.000 A 
ATOM     23  C   UNL A   1      32.407  18.468  23.295  1.00  0.00     0.046 A 
ATOM     24  H   UNL A   1      32.573  16.377  23.170  1.00  0.00     0.166 HD
ATOM     25  C   UNL A   1      32.385  20.685  24.230  1.00  0.00     0.019 A 
ATOM     26  C   UNL A   1      32.131  18.965  22.017  1.00  0.00     0.027 A 
ATOM     27  C   UNL A   1      32.014  20.358  21.870  1.00  0.00     0.011 A 
ENDBRANCH  12  17
ENDBRANCH   9  11
ENDBRANCH   6   9
ENDBRANCH   4   5
ENDBRANCH   3   4
ENDBRANCH   2   3
ENDBRANCH   1   2
BRANCH   1  28
ATOM     28  C   UNL A   1      34.922  23.318  25.992  1.00  0.00     0.021 C 
BRANCH  28  29
ATOM     29  C   UNL A   1      36.327  23.906  25.886  1.00  0.00     0.116 C 
BRANCH  29  30
ATOM     30  N   UNL A   1      37.348  22.871  25.944  1.00  0.00    -0.352 N 
ATOM     31  C   UNL A   1      38.679  22.973  26.263  1.00  0.00     0.251 C 
ATOM     32  H   UNL A   1      37.038  21.964  25.722  1.00  0.00     0.163 HD
ATOM     33  O   UNL A   1      39.438  22.040  26.019  1.00  0.00    -0.269 OA
BRANCH  31  34
ATOM     34  C   UNL A   1      39.198  24.206  26.892  1.00  0.00     0.039 A 
ATOM     35  C   UNL A   1      39.969  25.086  26.127  1.00  0.00     0.014 A 
ATOM     36  C   UNL A   1      38.953  24.478  28.241  1.00  0.00     0.014 A 
ATOM     37  C   UNL A   1      40.449  26.265  26.703  1.00  0.00     0.010 A 
ATOM     38  C   UNL A   1      39.374  25.685  28.793  1.00  0.00     0.010 A 
ATOM     39  C   UNL A   1      40.132  26.587  28.034  1.00  0.00    -0.014 A 
BRANCH  39  40
ATOM     40  C   UNL A   1      40.592  27.858  28.650  1.00  0.00     0.031 A 
ATOM     41  C   UNL A   1      41.993  27.974  29.188  1.00  0.00     0.074 A 
ATOM     42  C   UNL A   1      39.732  28.889  28.775  1.00  0.00     0.049 A 
ATOM     43  N   UNL A   1      42.556  28.976  29.813  1.00  0.00    -0.248 NA
ATOM     44  C   UNL A   1      42.868  26.802  29.022  1.00  0.00     0.031 C 
ATOM     45  C   UNL A   1      38.338  28.890  28.322  1.00  0.00     0.029 A 
ATOM     46  N   UNL A   1      39.900  30.134  29.327  1.00  0.00    -0.354 N 
ATOM     47  C   UNL A   1      43.843  28.552  30.126  1.00  0.00     0.074 A 
ATOM     48  C   UNL A   1      43.960  27.185  29.669  1.00  0.00     0.031 C 
ATOM     49  C   UNL A   1      37.790  30.086  28.590  1.00  0.00     0.029 A 
ATOM     50  C   UNL A   1      38.774  30.921  29.269  1.00  0.00     0.049 A 
ATOM     51  H   UNL A   1      40.748  30.435  29.727  1.00  0.00     0.167 HD
ATOM     52  C   UNL A   1      44.844  29.245  30.721  1.00  0.00     0.031 A 
ATOM     53  C   UNL A   1      38.556  32.172  29.718  1.00  0.00     0.031 A 
ATOM     54  C   UNL A   1      44.726  30.607  31.169  1.00  0.00     0.049 A 
ATOM     55  C   UNL A   1      39.677  32.913  30.396  1.00  0.00     0.074 A 
ATOM     56  C   UNL A   1      45.694  31.410  31.747  1.00  0.00     0.029 A 
ATOM     57  N   UNL A   1      43.570  31.369  31.089  1.00  0.00    -0.354 N 
ATOM     58  N   UNL A   1      40.903  32.513  30.635  1.00  0.00    -0.248 NA
ATOM     59  C   UNL A   1      39.387  34.278  30.855  1.00  0.00     0.031 C 
ATOM     60  C   UNL A   1      45.109  32.642  32.060  1.00  0.00     0.029 A 
ATOM     61  C   UNL A   1      43.794  32.626  31.624  1.00  0.00     0.049 A 
ATOM     62  H   UNL A   1      42.716  31.061  30.708  1.00  0.00     0.167 HD
ATOM     63  C   UNL A   1      41.540  33.589  31.244  1.00  0.00     0.074 A 
ATOM     64  C   UNL A   1      40.567  34.659  31.324  1.00  0.00     0.031 C 
ATOM     65  C   UNL A   1      42.816  33.682  31.695  1.00  0.00     0.031 A 
BRANCH  52  66
ATOM     66  C   UNL A   1      46.157  28.535  30.922  1.00  0.00    -0.014 A 
ATOM     67  C   UNL A   1      47.169  28.592  29.946  1.00  0.00     0.010 A 
ATOM     68  C   UNL A   1      46.398  27.829  32.115  1.00  0.00     0.010 A 
ATOM     69  C   UNL A   1      48.380  27.923  30.140  1.00  0.00     0.020 A 
ATOM     70  C   UNL A   1      47.620  27.181  32.325  1.00  0.00     0.020 A 
ATOM     71  C   UNL A   1      48.596  27.218  31.327  1.00  0.00     0.054 A 
BRANCH  71  72
ATOM     72  S   UNL A   1      50.185  26.372  31.559  1.00  0.00     0.124 S 
ATOM     73  O   UNL A   1      49.831  24.985  31.272  1.00  0.00    -0.237 OA
ATOM     74  O   UNL A   1      51.040  27.021  30.569  1.00  0.00    -0.237 OA
ATOM     75  O   UNL A   1      50.527  26.652  32.952  1.00  0.00    -0.744 OA
ENDBRANCH  71  72
ENDBRANCH  52  66
BRANCH  53  76
ATOM     76  C   UNL A   1      37.225  32.811  29.529  1.00  0.00    -0.014 A 
ATOM     77  C   UNL A   1      36.937  33.517  28.347  1.00  0.00     0.010 A 
ATOM     78  C   UNL A   1      36.238  32.713  30.525  1.00  0.00     0.010 A 
ATOM     79  C   UNL A   1      35.693  34.134  28.176  1.00  0.00     0.020 A 
ATOM     80  C   UNL A   1      34.983  33.304  30.345  1.00  0.00     0.020 A 
ATOM     81  C   UNL A   1      34.724  34.023  29.177  1.00  0.00     0.054 A 
BRANCH  81  82
ATOM     82  S   UNL A   1      33.104  34.795  28.915  1.00  0.00     0.124 S 
ATOM     83  O   UNL A   1      33.474  36.119  28.426  1.00  0.00    -0.237 OA
ATOM     84  O   UNL A   1      32.484  33.907  27.936  1.00  0.00    -0.237 OA
ATOM     85  O   UNL A   1      32.493  34.765  30.243  1.00  0.00    -0.744 OA
ENDBRANCH  81  82
ENDBRANCH  53  76
BRANCH  65  86
ATOM     86  C   UNL A   1      43.249  35.000  32.279  1.00  0.00    -0.014 A 
ATOM     87  C   UNL A   1      43.750  36.031  31.464  1.00  0.00     0.010 A 
ATOM     88  C   UNL A   1      43.101  35.227  33.660  1.00  0.00     0.010 A 
ATOM     89  C   UNL A   1      44.124  37.255  32.026  1.00  0.00     0.020 A 
ATOM     90  C   UNL A   1      43.447  36.459  34.221  1.00  0.00     0.020 A 
ATOM     91  C   UNL A   1      43.969  37.461  33.401  1.00  0.00     0.054 A 
BRANCH  91  92
ATOM     92  S   UNL A   1      44.418  39.074  34.097  1.00  0.00     0.124 S 
ATOM     93  O   UNL A   1      43.145  39.787  34.060  1.00  0.00    -0.237 OA
ATOM     94  O   UNL A   1      44.904  38.724  35.431  1.00  0.00    -0.237 OA
ATOM     95  O   UNL A   1      45.440  39.575  33.181  1.00  0.00    -0.744 OA
ENDBRANCH  91  92
ENDBRANCH  65  86
ENDBRANCH  39  40
ENDBRANCH  31  34
ENDBRANCH  29  30
ENDBRANCH  28  29
ENDBRANCH   1  28
TORSDOF 18
ENDMDL
MODEL 2
REMARK VINA RESULT:     -11.6      4.427      9.239
REMARK SMILES Cc1cc2cc(-c3ccc([C@@H](C)C(=O)NCCCCCCNC(=O)c4ccc(-c5c6nc(c(-c7ccc(S(=O)(=O)[O-])cc7)c7ccc([nH]7)c(-c7ccc(S(=O)(=O)[O-])cc7)c7nc(c(-c8ccc(S(=O)(=O)[O-])cc8)c8ccc5[nH]8)C=C7)C=C6)cc4)cc3)ccc2[nH]1
REMARK SMILES IDX 19 1 18 2 17 3 16 4 15 5 13 6 14 7 11 9 12 10 10 11 7 12
REMARK SMILES IDX 8 13 86 14 9 15 85 16 6 17 1 18 2 19 3 20 90 21 4 22 89 23
REMARK SMILES IDX 5 25 88 26 87 27 20 28 21 29 22 30 23 31 24 33 25 34 26 35
REMARK SMILES IDX 84 36 27 37 83 38 28 39 29 40 30 41 77 42 31 43 82 44 76 45
REMARK SMILES IDX 78 46 32 47 81 48 75 49 74 50 33 52 63 53 44 54 62 55 45 56
REMARK SMILES IDX 48 57 61 58 79 59 46 60 47 61 60 63 80 64 49 65 34 66 35 67
REMARK SMILES IDX 43 68 36 69 42 70 37 71 38 72 39 73 40 74 41 75 64 76 65 77
REMARK SMILES IDX 73 78 66 79 72 80 67 81 68 82 69 83 70 84 71 85 50 86 51 87
REMARK SMILES IDX 59 88 52 89 58 90 53 91 54 92 55 93 56 94 57 95
REMARK H PARENT 15 8 90 24 22 32 78 51 48 62
REMARK Flexibility Score: inf
ROOT
ATOM      1  C   UNL A   1      34.489  28.580  26.861  1.00  0.00     0.002 C 
ENDROOT
BRANCH   1   2
ATOM      2  C   UNL A   1      33.539  28.196  25.718  1.00  0.00     0.002 C 
BRANCH   2   3
ATOM      3  C   UNL A   1      32.979  29.374  24.915  1.00  0.00     0.021 C 
BRANCH   3   4
ATOM      4  C   UNL A   1      31.451  29.453  24.914  1.00  0.00     0.116 C 
BRANCH   4   5
ATOM      5  N   UNL A   1      30.933  29.818  23.611  1.00  0.00    -0.356 N 
ATOM      6  C   UNL A   1      30.329  29.085  22.636  1.00  0.00     0.227 C 
ATOM      7  O   UNL A   1      30.068  29.681  21.584  1.00  0.00    -0.274 OA
ATOM      8  H   UNL A   1      31.036  30.772  23.390  1.00  0.00     0.163 HD
BRANCH   6   9
ATOM      9  C   UNL A   1      29.952  27.603  22.789  1.00  0.00     0.105 C 
ATOM     10  C   UNL A   1      28.720  27.364  23.665  1.00  0.00     0.023 C 
BRANCH   9  11
ATOM     11  C   UNL A   1      31.141  26.697  23.059  1.00  0.00    -0.036 A 
ATOM     12  C   UNL A   1      33.456  25.111  23.598  1.00  0.00    -0.018 A 
ATOM     13  C   UNL A   1      32.300  25.030  24.391  1.00  0.00     0.009 A 
ATOM     14  C   UNL A   1      33.423  25.998  22.514  1.00  0.00     0.009 A 
ATOM     15  C   UNL A   1      31.155  25.773  24.103  1.00  0.00     0.005 A 
ATOM     16  C   UNL A   1      32.293  26.792  22.260  1.00  0.00     0.005 A 
BRANCH  12  17
ATOM     17  C   UNL A   1      34.629  24.269  23.918  1.00  0.00    -0.018 A 
ATOM     18  C   UNL A   1      39.715  22.612  26.912  1.00  0.00     0.064 C 
ATOM     19  C   UNL A   1      38.484  22.948  26.157  1.00  0.00     0.013 A 
ATOM     20  C   UNL A   1      37.517  23.897  26.407  1.00  0.00     0.031 A 
ATOM     21  N   UNL A   1      38.130  22.298  24.998  1.00  0.00    -0.359 N 
ATOM     22  C   UNL A   1      36.554  23.819  25.368  1.00  0.00     0.000 A 
ATOM     23  C   UNL A   1      36.957  22.816  24.495  1.00  0.00     0.046 A 
ATOM     24  H   UNL A   1      38.643  21.565  24.586  1.00  0.00     0.166 HD
ATOM     25  C   UNL A   1      35.375  24.530  25.086  1.00  0.00     0.019 A 
ATOM     26  C   UNL A   1      36.229  22.490  23.345  1.00  0.00     0.027 A 
ATOM     27  C   UNL A   1      35.070  23.238  23.073  1.00  0.00     0.011 A 
ENDBRANCH  12  17
ENDBRANCH   9  11
ENDBRANCH   6   9
ENDBRANCH   4   5
ENDBRANCH   3   4
ENDBRANCH   2   3
ENDBRANCH   1   2
BRANCH   1  28
ATOM     28  C   UNL A   1      34.387  30.031  27.341  1.00  0.00     0.021 C 
BRANCH  28  29
ATOM     29  C   UNL A   1      35.661  30.585  27.974  1.00  0.00     0.116 C 
BRANCH  29  30
ATOM     30  N   UNL A   1      35.626  30.485  29.425  1.00  0.00    -0.352 N 
ATOM     31  C   UNL A   1      36.542  29.934  30.287  1.00  0.00     0.251 C 
ATOM     32  H   UNL A   1      34.828  30.870  29.853  1.00  0.00     0.163 HD
ATOM     33  O   UNL A   1      36.231  29.721  31.454  1.00  0.00    -0.269 OA
BRANCH  31  34
ATOM     34  C   UNL A   1      37.898  29.593  29.807  1.00  0.00     0.039 A 
ATOM     35  C   UNL A   1      38.183  29.700  28.443  1.00  0.00     0.014 A 
ATOM     36  C   UNL A   1      38.877  29.137  30.695  1.00  0.00     0.014 A 
ATOM     37  C   UNL A   1      39.466  29.399  27.978  1.00  0.00     0.010 A 
ATOM     38  C   UNL A   1      40.173  28.904  30.240  1.00  0.00     0.010 A 
ATOM     39  C   UNL A   1      40.479  29.025  28.877  1.00  0.00    -0.014 A 
BRANCH  39  40
ATOM     40  C   UNL A   1      41.861  28.749  28.409  1.00  0.00     0.031 A 
ATOM     41  C   UNL A   1      42.253  27.357  27.991  1.00  0.00     0.074 A 
ATOM     42  C   UNL A   1      42.778  29.737  28.414  1.00  0.00     0.049 A 
ATOM     43  N   UNL A   1      43.422  26.908  27.613  1.00  0.00    -0.248 NA
ATOM     44  C   UNL A   1      41.198  26.330  28.022  1.00  0.00     0.031 C 
ATOM     45  C   UNL A   1      42.530  31.121  28.828  1.00  0.00     0.029 A 
ATOM     46  N   UNL A   1      44.106  29.729  28.067  1.00  0.00    -0.354 N 
ATOM     47  C   UNL A   1      43.248  25.549  27.376  1.00  0.00     0.074 A 
ATOM     48  C   UNL A   1      41.874  25.237  27.702  1.00  0.00     0.031 C 
ATOM     49  C   UNL A   1      43.660  31.831  28.683  1.00  0.00     0.029 A 
ATOM     50  C   UNL A   1      44.722  30.950  28.209  1.00  0.00     0.049 A 
ATOM     51  H   UNL A   1      44.573  28.923  27.746  1.00  0.00     0.167 HD
ATOM     52  C   UNL A   1      44.144  24.647  26.909  1.00  0.00     0.031 A 
ATOM     53  C   UNL A   1      45.998  31.317  27.990  1.00  0.00     0.031 A 
ATOM     54  C   UNL A   1      45.509  24.962  26.580  1.00  0.00     0.049 A 
ATOM     55  C   UNL A   1      46.981  30.292  27.493  1.00  0.00     0.074 A 
ATOM     56  C   UNL A   1      46.485  24.128  26.061  1.00  0.00     0.029 A 
ATOM     57  N   UNL A   1      46.093  26.211  26.735  1.00  0.00    -0.354 N 
ATOM     58  N   UNL A   1      46.783  29.023  27.224  1.00  0.00    -0.248 NA
ATOM     59  C   UNL A   1      48.357  30.751  27.258  1.00  0.00     0.031 C 
ATOM     60  C   UNL A   1      47.671  24.861  25.949  1.00  0.00     0.029 A 
ATOM     61  C   UNL A   1      47.419  26.166  26.342  1.00  0.00     0.049 A 
ATOM     62  H   UNL A   1      45.631  27.011  27.076  1.00  0.00     0.167 HD
ATOM     63  C   UNL A   1      48.002  28.540  26.759  1.00  0.00     0.074 A 
ATOM     64  C   UNL A   1      48.925  29.656  26.772  1.00  0.00     0.031 C 
ATOM     65  C   UNL A   1      48.326  27.286  26.357  1.00  0.00     0.031 A 
BRANCH  52  66
ATOM     66  C   UNL A   1      43.673  23.227  26.727  1.00  0.00    -0.014 A 
ATOM     67  C   UNL A   1      43.570  22.655  25.446  1.00  0.00     0.010 A 
ATOM     68  C   UNL A   1      43.360  22.443  27.852  1.00  0.00     0.010 A 
ATOM     69  C   UNL A   1      43.124  21.341  25.290  1.00  0.00     0.020 A 
ATOM     70  C   UNL A   1      42.939  21.117  27.702  1.00  0.00     0.020 A 
ATOM     71  C   UNL A   1      42.808  20.581  26.419  1.00  0.00     0.054 A 
BRANCH  71  72
ATOM     72  S   UNL A   1      42.246  18.871  26.187  1.00  0.00     0.124 S 
ATOM     73  O   UNL A   1      43.194  18.376  25.192  1.00  0.00    -0.237 OA
ATOM     74  O   UNL A   1      42.387  18.304  27.526  1.00  0.00    -0.237 OA
ATOM     75  O   UNL A   1      40.871  19.018  25.717  1.00  0.00    -0.744 OA
ENDBRANCH  71  72
ENDBRANCH  52  66
BRANCH  53  76
ATOM     76  C   UNL A   1      46.420  32.726  28.225  1.00  0.00    -0.014 A 
ATOM     77  C   UNL A   1      46.844  33.139  29.501  1.00  0.00     0.010 A 
ATOM     78  C   UNL A   1      46.405  33.660  27.174  1.00  0.00     0.010 A 
ATOM     79  C   UNL A   1      47.223  34.466  29.726  1.00  0.00     0.020 A 
ATOM     80  C   UNL A   1      46.810  34.981  27.389  1.00  0.00     0.020 A 
ATOM     81  C   UNL A   1      47.204  35.379  28.668  1.00  0.00     0.054 A 
BRANCH  81  82
ATOM     82  S   UNL A   1      47.738  37.085  28.975  1.00  0.00     0.124 S 
ATOM     83  O   UNL A   1      48.667  37.314  27.873  1.00  0.00    -0.237 OA
ATOM     84  O   UNL A   1      46.482  37.826  28.911  1.00  0.00    -0.237 OA
ATOM     85  O   UNL A   1      48.345  37.019  30.303  1.00  0.00    -0.744 OA
ENDBRANCH  81  82
ENDBRANCH  53  76
BRANCH  65  86
ATOM     86  C   UNL A   1      49.727  27.060  25.858  1.00  0.00    -0.014 A 
ATOM     87  C   UNL A   1      50.726  26.536  26.697  1.00  0.00     0.010 A 
ATOM     88  C   UNL A   1      50.033  27.326  24.510  1.00  0.00     0.010 A 
ATOM     89  C   UNL A   1      52.015  26.313  26.205  1.00  0.00     0.020 A 
ATOM     90  C   UNL A   1      51.312  27.076  24.007  1.00  0.00     0.020 A 
ATOM     91  C   UNL A   1      52.299  26.584  24.862  1.00  0.00     0.054 A 
BRANCH  91  92
ATOM     92  S   UNL A   1      53.966  26.241  24.237  1.00  0.00     0.124 S 
ATOM     93  O   UNL A   1      54.711  27.409  24.699  1.00  0.00    -0.237 OA
ATOM     94  O   UNL A   1      54.304  24.981  24.894  1.00  0.00    -0.237 OA
ATOM     95  O   UNL A   1      53.783  26.152  22.790  1.00  0.00    -0.744 OA
ENDBRANCH  91  92
ENDBRANCH  65  86
ENDBRANCH  39  40
ENDBRANCH  31  34
ENDBRANCH  29  30
ENDBRANCH  28  29
ENDBRANCH   1  28
TORSDOF 18
ENDMDL
MODEL 3
REMARK VINA RESULT:     -11.6      3.417      9.659
REMARK SMILES Cc1cc2cc(-c3ccc([C@@H](C)C(=O)NCCCCCCNC(=O)c4ccc(-c5c6nc(c(-c7ccc(S(=O)(=O)[O-])cc7)c7ccc([nH]7)c(-c7ccc(S(=O)(=O)[O-])cc7)c7nc(c(-c8ccc(S(=O)(=O)[O-])cc8)c8ccc5[nH]8)C=C7)C=C6)cc4)cc3)ccc2[nH]1
REMARK SMILES IDX 19 1 18 2 17 3 16 4 15 5 13 6 14 7 11 9 12 10 10 11 7 12
REMARK SMILES IDX 8 13 86 14 9 15 85 16 6 17 1 18 2 19 3 20 90 21 4 22 89 23
REMARK SMILES IDX 5 25 88 26 87 27 20 28 21 29 22 30 23 31 24 33 25 34 26 35
REMARK SMILES IDX 84 36 27 37 83 38 28 39 29 40 30 41 77 42 31 43 82 44 76 45
REMARK SMILES IDX 78 46 32 47 81 48 75 49 74 50 33 52 63 53 44 54 62 55 45 56
REMARK SMILES IDX 48 57 61 58 79 59 46 60 47 61 60 63 80 64 49 65 34 66 35 67
REMARK SMILES IDX 43 68 36 69 42 70 37 71 38 72 39 73 40 74 41 75 64 76 65 77
REMARK SMILES IDX 73 78 66 79 72 80 67 81 68 82 69 83 70 84 71 85 50 86 51 87
REMARK SMILES IDX 59 88 52 89 58 90 53 91 54 92 55 93 56 94 57 95
REMARK H PARENT 15 8 90 24 22 32 78 51 48 62
REMARK Flexibility Score: inf
ROOT
ATOM      1  C   UNL A   1      33.481  27.725  24.240  1.00  0.00     0.002 C 
ENDROOT
BRANCH   1   2
ATOM      2  C   UNL A   1      33.654  26.202  24.170  1.00  0.00     0.002 C 
BRANCH   2   3
ATOM      3  C   UNL A   1      34.331  25.570  25.391  1.00  0.00     0.021 C 
BRANCH   3   4
ATOM      4  C   UNL A   1      34.575  24.065  25.254  1.00  0.00     0.116 C 
BRANCH   4   5
ATOM      5  N   UNL A   1      34.300  23.362  26.491  1.00  0.00    -0.356 N 
ATOM      6  C   UNL A   1      33.236  22.613  26.891  1.00  0.00     0.227 C 
ATOM      7  O   UNL A   1      33.262  22.203  28.058  1.00  0.00    -0.274 OA
ATOM      8  H   UNL A   1      35.013  23.438  27.165  1.00  0.00     0.163 HD
BRANCH   6   9
ATOM      9  C   UNL A   1      32.052  22.250  25.980  1.00  0.00     0.105 C 
ATOM     10  C   UNL A   1      32.350  21.115  24.998  1.00  0.00     0.023 C 
BRANCH   9  11
ATOM     11  C   UNL A   1      31.340  23.459  25.397  1.00  0.00    -0.036 A 
ATOM     12  C   UNL A   1      29.895  25.644  24.256  1.00  0.00    -0.018 A 
ATOM     13  C   UNL A   1      30.125  25.547  25.638  1.00  0.00     0.009 A 
ATOM     14  C   UNL A   1      30.420  24.625  23.451  1.00  0.00     0.009 A 
ATOM     15  C   UNL A   1      30.866  24.503  26.191  1.00  0.00     0.005 A 
ATOM     16  C   UNL A   1      31.114  23.541  24.013  1.00  0.00     0.005 A 
BRANCH  12  17
ATOM     17  C   UNL A   1      29.140  26.795  23.714  1.00  0.00    -0.018 A 
ATOM     18  C   UNL A   1      28.360  32.313  21.162  1.00  0.00     0.064 C 
ATOM     19  C   UNL A   1      28.479  30.966  21.769  1.00  0.00     0.013 A 
ATOM     20  C   UNL A   1      29.584  30.161  21.940  1.00  0.00     0.031 A 
ATOM     21  N   UNL A   1      27.399  30.296  22.294  1.00  0.00    -0.359 N 
ATOM     22  C   UNL A   1      29.159  28.973  22.589  1.00  0.00     0.000 A 
ATOM     23  C   UNL A   1      27.790  29.078  22.805  1.00  0.00     0.046 A 
ATOM     24  H   UNL A   1      26.476  30.639  22.302  1.00  0.00     0.166 HD
ATOM     25  C   UNL A   1      29.827  27.817  23.027  1.00  0.00     0.019 A 
ATOM     26  C   UNL A   1      27.055  28.072  23.443  1.00  0.00     0.027 A 
ATOM     27  C   UNL A   1      27.756  26.941  23.897  1.00  0.00     0.011 A 
ENDBRANCH  12  17
ENDBRANCH   9  11
ENDBRANCH   6   9
ENDBRANCH   4   5
ENDBRANCH   3   4
ENDBRANCH   2   3
ENDBRANCH   1   2
BRANCH   1  28
ATOM     28  C   UNL A   1      33.127  28.285  25.621  1.00  0.00     0.021 C 
BRANCH  28  29
ATOM     29  C   UNL A   1      34.274  28.998  26.333  1.00  0.00     0.116 C 
BRANCH  29  30
ATOM     30  N   UNL A   1      33.929  30.372  26.665  1.00  0.00    -0.352 N 
ATOM     31  C   UNL A   1      34.434  31.188  27.647  1.00  0.00     0.251 C 
ATOM     32  H   UNL A   1      33.231  30.776  26.102  1.00  0.00     0.163 HD
ATOM     33  O   UNL A   1      33.850  32.228  27.936  1.00  0.00    -0.269 OA
BRANCH  31  34
ATOM     34  C   UNL A   1      35.673  30.810  28.360  1.00  0.00     0.039 A 
ATOM     35  C   UNL A   1      35.624  29.790  29.313  1.00  0.00     0.014 A 
ATOM     36  C   UNL A   1      36.874  31.482  28.111  1.00  0.00     0.014 A 
ATOM     37  C   UNL A   1      36.792  29.409  29.980  1.00  0.00     0.010 A 
ATOM     38  C   UNL A   1      38.048  31.056  28.726  1.00  0.00     0.010 A 
ATOM     39  C   UNL A   1      38.019  30.021  29.672  1.00  0.00    -0.014 A 
BRANCH  39  40
ATOM     40  C   UNL A   1      39.279  29.597  30.333  1.00  0.00     0.031 A 
ATOM     41  C   UNL A   1      39.769  30.321  31.559  1.00  0.00     0.074 A 
ATOM     42  C   UNL A   1      40.011  28.599  29.799  1.00  0.00     0.049 A 
ATOM     43  N   UNL A   1      40.872  30.138  32.239  1.00  0.00    -0.248 NA
ATOM     44  C   UNL A   1      38.919  31.405  32.076  1.00  0.00     0.031 C 
ATOM     45  C   UNL A   1      39.660  27.841  28.595  1.00  0.00     0.029 A 
ATOM     46  N   UNL A   1      41.207  28.055  30.195  1.00  0.00    -0.354 N 
ATOM     47  C   UNL A   1      40.855  31.090  33.252  1.00  0.00     0.074 A 
ATOM     48  C   UNL A   1      39.659  31.882  33.067  1.00  0.00     0.031 C 
ATOM     49  C   UNL A   1      40.604  26.914  28.369  1.00  0.00     0.029 A 
ATOM     50  C   UNL A   1      41.647  27.036  29.382  1.00  0.00     0.049 A 
ATOM     51  H   UNL A   1      41.703  28.364  30.988  1.00  0.00     0.167 HD
ATOM     52  C   UNL A   1      41.743  31.276  34.257  1.00  0.00     0.031 A 
ATOM     53  C   UNL A   1      42.766  26.290  29.441  1.00  0.00     0.031 A 
ATOM     54  C   UNL A   1      42.930  30.483  34.442  1.00  0.00     0.049 A 
ATOM     55  C   UNL A   1      43.749  26.531  30.554  1.00  0.00     0.074 A 
ATOM     56  C   UNL A   1      43.872  30.566  35.453  1.00  0.00     0.029 A 
ATOM     57  N   UNL A   1      43.337  29.461  33.599  1.00  0.00    -0.354 N 
ATOM     58  N   UNL A   1      43.688  27.401  31.534  1.00  0.00    -0.248 NA
ATOM     59  C   UNL A   1      44.947  25.679  30.578  1.00  0.00     0.031 C 
ATOM     60  C   UNL A   1      44.874  29.625  35.193  1.00  0.00     0.029 A 
ATOM     61  C   UNL A   1      44.526  28.917  34.054  1.00  0.00     0.049 A 
ATOM     62  H   UNL A   1      42.852  29.165  32.794  1.00  0.00     0.167 HD
ATOM     63  C   UNL A   1      44.824  27.182  32.307  1.00  0.00     0.074 A 
ATOM     64  C   UNL A   1      45.545  26.088  31.688  1.00  0.00     0.031 C 
ATOM     65  C   UNL A   1      45.231  27.827  33.428  1.00  0.00     0.031 A 
BRANCH  52  66
ATOM     66  C   UNL A   1      41.463  32.386  35.237  1.00  0.00    -0.014 A 
ATOM     67  C   UNL A   1      40.723  32.148  36.410  1.00  0.00     0.010 A 
ATOM     68  C   UNL A   1      41.973  33.676  35.002  1.00  0.00     0.010 A 
ATOM     69  C   UNL A   1      40.462  33.187  37.307  1.00  0.00     0.020 A 
ATOM     70  C   UNL A   1      41.739  34.712  35.912  1.00  0.00     0.020 A 
ATOM     71  C   UNL A   1      40.969  34.464  37.050  1.00  0.00     0.054 A 
BRANCH  71  72
ATOM     72  S   UNL A   1      40.629  35.790  38.241  1.00  0.00     0.124 S 
ATOM     73  O   UNL A   1      41.975  36.249  38.571  1.00  0.00    -0.237 OA
ATOM     74  O   UNL A   1      39.821  36.722  37.459  1.00  0.00    -0.237 OA
ATOM     75  O   UNL A   1      39.920  35.111  39.323  1.00  0.00    -0.744 OA
ENDBRANCH  71  72
ENDBRANCH  52  66
BRANCH  53  76
ATOM     76  C   UNL A   1      43.013  25.233  28.422  1.00  0.00    -0.014 A 
ATOM     77  C   UNL A   1      42.589  23.912  28.651  1.00  0.00     0.010 A 
ATOM     78  C   UNL A   1      43.668  25.542  27.217  1.00  0.00     0.010 A 
ATOM     79  C   UNL A   1      42.837  22.914  27.702  1.00  0.00     0.020 A 
ATOM     80  C   UNL A   1      43.891  24.553  26.254  1.00  0.00     0.020 A 
ATOM     81  C   UNL A   1      43.486  23.242  26.509  1.00  0.00     0.054 A 
BRANCH  81  82
ATOM     82  S   UNL A   1      43.759  21.941  25.276  1.00  0.00     0.124 S 
ATOM     83  O   UNL A   1      43.653  22.682  24.023  1.00  0.00    -0.237 OA
ATOM     84  O   UNL A   1      45.095  21.458  25.616  1.00  0.00    -0.237 OA
ATOM     85  O   UNL A   1      42.679  20.991  25.536  1.00  0.00    -0.744 OA
ENDBRANCH  81  82
ENDBRANCH  53  76
BRANCH  65  86
ATOM     86  C   UNL A   1      46.495  27.341  34.085  1.00  0.00    -0.014 A 
ATOM     87  C   UNL A   1      46.470  26.320  35.051  1.00  0.00     0.010 A 
ATOM     88  C   UNL A   1      47.733  27.881  33.689  1.00  0.00     0.010 A 
ATOM     89  C   UNL A   1      47.659  25.868  35.631  1.00  0.00     0.020 A 
ATOM     90  C   UNL A   1      48.925  27.412  34.245  1.00  0.00     0.020 A 
ATOM     91  C   UNL A   1      48.879  26.417  35.224  1.00  0.00     0.054 A 
BRANCH  91  92
ATOM     92  S   UNL A   1      50.411  25.782  35.958  1.00  0.00     0.124 S 
ATOM     93  O   UNL A   1      51.019  26.997  36.491  1.00  0.00    -0.237 OA
ATOM     94  O   UNL A   1      49.920  24.834  36.956  1.00  0.00    -0.237 OA
ATOM     95  O   UNL A   1      51.113  25.178  34.828  1.00  0.00    -0.744 OA
ENDBRANCH  91  92
ENDBRANCH  65  86
ENDBRANCH  39  40
ENDBRANCH  31  34
ENDBRANCH  29  30
ENDBRANCH  28  29
ENDBRANCH   1  28
TORSDOF 18
ENDMDL
