MODEL 1
REMARK VINA RESULT:     -11.3      0.000      0.000
REMARK SMILES CCC(=O)Nc1ccc(NC(=O)[C@@H]2CC=CC[C@@H]2C(=O)NCCCCCCNC(=O)c2ccc(-c3c4nc(c(-c5ccc(S(=O)(=O)[O-])cc5)c5ccc([nH]5)c(-c5ccc(S(=O)(=O)[O-])cc5)c5nc(c(-c6ccc(S(=O)(=O)[O-])cc6)c6ccc3[nH]6)C=C5)C=C4)cc2)cc1
REMARK SMILES IDX 24 1 23 2 22 3 21 4 19 5 20 6 18 8 13 9 14 10 15 11 17 12
REMARK SMILES IDX 16 13 11 14 10 15 12 17 9 18 6 19 7 20 92 21 8 22 91 23 5 24
REMARK SMILES IDX 3 25 4 26 2 28 1 29 25 30 26 31 27 32 28 33 29 34 30 36
REMARK SMILES IDX 31 37 32 38 90 39 33 40 89 41 34 42 35 43 36 44 83 45 37 46
REMARK SMILES IDX 88 47 82 48 84 49 38 50 87 51 81 52 80 53 39 55 69 56 50 57
REMARK SMILES IDX 68 58 51 59 54 60 67 61 85 62 52 63 53 64 66 66 86 67 55 68
REMARK SMILES IDX 40 69 41 70 49 71 42 72 48 73 43 74 44 75 45 76 46 77 47 78
REMARK SMILES IDX 70 79 71 80 79 81 72 82 78 83 73 84 74 85 75 86 76 87 77 88
REMARK SMILES IDX 56 89 57 90 65 91 58 92 64 93 59 94 60 95 61 96 62 97 63 98
REMARK H PARENT 21 7 10 16 5 27 28 35 84 54 54 65
REMARK Flexibility Score: inf
ROOT
ATOM      1  C   UNL A   1      31.306  29.196  24.605  1.00  0.00     0.002 C 
ENDROOT
BRANCH   1   2
ATOM      2  C   UNL A   1      31.076  28.317  23.370  1.00  0.00     0.021 C 
BRANCH   2   3
ATOM      3  C   UNL A   1      29.826  27.427  23.349  1.00  0.00     0.116 C 
BRANCH   3   4
ATOM      4  N   UNL A   1      30.109  26.019  23.128  1.00  0.00    -0.356 N 
ATOM      5  C   UNL A   1      30.873  25.117  23.808  1.00  0.00     0.224 C 
ATOM      6  O   UNL A   1      30.652  23.928  23.560  1.00  0.00    -0.275 OA
ATOM      7  H   UNL A   1      29.664  25.644  22.335  1.00  0.00     0.163 HD
BRANCH   5   8
ATOM      8  C   UNL A   1      31.899  25.532  24.869  1.00  0.00     0.095 C 
ATOM      9  C   UNL A   1      33.352  24.994  24.793  1.00  0.00     0.095 C 
ATOM     10  C   UNL A   1      33.846  23.966  25.833  1.00  0.00     0.041 C 
ATOM     11  C   UNL A   1      32.840  23.495  26.825  1.00  0.00    -0.030 C 
ATOM     12  C   UNL A   1      31.287  25.360  26.285  1.00  0.00     0.041 C 
ATOM     13  C   UNL A   1      31.671  24.111  27.015  1.00  0.00    -0.030 C 
BRANCH   9  14
ATOM     14  C   UNL A   1      33.938  24.612  23.449  1.00  0.00     0.228 C 
ATOM     15  N   UNL A   1      34.467  23.405  23.119  1.00  0.00    -0.326 N 
ATOM     16  H   UNL A   1      35.087  23.431  22.355  1.00  0.00     0.169 HD
ATOM     17  O   UNL A   1      33.966  25.472  22.555  1.00  0.00    -0.274 OA
BRANCH  15  18
ATOM     18  C   UNL A   1      34.289  22.133  23.670  1.00  0.00     0.041 A 
ATOM     19  C   UNL A   1      33.483  19.756  24.941  1.00  0.00     0.041 A 
ATOM     20  C   UNL A   1      34.785  20.230  25.094  1.00  0.00     0.028 A 
ATOM     21  C   UNL A   1      32.606  20.484  24.154  1.00  0.00     0.028 A 
ATOM     22  C   UNL A   1      35.185  21.423  24.460  1.00  0.00     0.028 A 
ATOM     23  C   UNL A   1      33.032  21.594  23.441  1.00  0.00     0.028 A 
BRANCH  19  24
ATOM     24  N   UNL A   1      33.070  18.604  25.623  1.00  0.00    -0.326 N 
ATOM     25  C   UNL A   1      33.297  17.285  25.323  1.00  0.00     0.224 C 
ATOM     26  O   UNL A   1      32.643  16.417  25.908  1.00  0.00    -0.275 OA
ATOM     27  H   UNL A   1      32.540  18.765  26.437  1.00  0.00     0.169 HD
BRANCH  25  28
ATOM     28  C   UNL A   1      34.431  16.891  24.382  1.00  0.00     0.097 C 
ATOM     29  C   UNL A   1      34.020  16.776  22.921  1.00  0.00     0.014 C 
ENDBRANCH  25  28
ENDBRANCH  19  24
ENDBRANCH  15  18
ENDBRANCH   9  14
ENDBRANCH   5   8
ENDBRANCH   3   4
ENDBRANCH   2   3
ENDBRANCH   1   2
BRANCH   1  30
ATOM     30  C   UNL A   1      32.738  29.553  24.980  1.00  0.00     0.002 C 
BRANCH  30  31
ATOM     31  C   UNL A   1      33.606  28.404  25.474  1.00  0.00     0.021 C 
BRANCH  31  32
ATOM     32  C   UNL A   1      34.055  28.488  26.928  1.00  0.00     0.116 C 
BRANCH  32  33
ATOM     33  N   UNL A   1      33.891  29.808  27.521  1.00  0.00    -0.352 N 
ATOM     34  C   UNL A   1      34.802  30.529  28.263  1.00  0.00     0.251 C 
ATOM     35  H   UNL A   1      33.019  30.240  27.373  1.00  0.00     0.163 HD
ATOM     36  O   UNL A   1      34.497  31.596  28.770  1.00  0.00    -0.269 OA
BRANCH  34  37
ATOM     37  C   UNL A   1      36.152  29.959  28.464  1.00  0.00     0.039 A 
ATOM     38  C   UNL A   1      37.094  30.080  27.442  1.00  0.00     0.014 A 
ATOM     39  C   UNL A   1      36.500  29.388  29.693  1.00  0.00     0.014 A 
ATOM     40  C   UNL A   1      38.414  29.695  27.684  1.00  0.00     0.010 A 
ATOM     41  C   UNL A   1      37.830  29.079  29.954  1.00  0.00     0.010 A 
ATOM     42  C   UNL A   1      38.802  29.231  28.953  1.00  0.00    -0.014 A 
BRANCH  42  43
ATOM     43  C   UNL A   1      40.226  28.932  29.245  1.00  0.00     0.031 A 
ATOM     44  C   UNL A   1      40.819  27.604  28.867  1.00  0.00     0.074 A 
ATOM     45  C   UNL A   1      40.977  29.853  29.883  1.00  0.00     0.049 A 
ATOM     46  N   UNL A   1      42.055  27.191  28.986  1.00  0.00    -0.248 NA
ATOM     47  C   UNL A   1      39.903  26.599  28.305  1.00  0.00     0.031 C 
ATOM     48  C   UNL A   1      40.496  31.152  30.362  1.00  0.00     0.029 A 
ATOM     49  N   UNL A   1      42.304  29.844  30.229  1.00  0.00    -0.354 N 
ATOM     50  C   UNL A   1      42.063  25.883  28.519  1.00  0.00     0.074 A 
ATOM     51  C   UNL A   1      40.699  25.549  28.174  1.00  0.00     0.031 C 
ATOM     52  C   UNL A   1      41.525  31.834  30.890  1.00  0.00     0.029 A 
ATOM     53  C   UNL A   1      42.728  31.011  30.817  1.00  0.00     0.049 A 
ATOM     54  H   UNL A   1      42.898  29.074  30.070  1.00  0.00     0.167 HD
ATOM     55  C   UNL A   1      43.115  25.043  28.365  1.00  0.00     0.031 A 
ATOM     56  C   UNL A   1      43.953  31.387  31.236  1.00  0.00     0.031 A 
ATOM     57  C   UNL A   1      44.470  25.380  28.714  1.00  0.00     0.049 A 
ATOM     58  C   UNL A   1      45.108  30.443  31.047  1.00  0.00     0.074 A 
ATOM     59  C   UNL A   1      45.617  24.625  28.546  1.00  0.00     0.029 A 
ATOM     60  N   UNL A   1      44.859  26.570  29.311  1.00  0.00    -0.354 N 
ATOM     61  N   UNL A   1      45.113  29.242  30.519  1.00  0.00    -0.248 NA
ATOM     62  C   UNL A   1      46.425  30.915  31.492  1.00  0.00     0.031 C 
ATOM     63  C   UNL A   1      46.692  25.336  29.093  1.00  0.00     0.029 A 
ATOM     64  C   UNL A   1      46.224  26.560  29.546  1.00  0.00     0.049 A 
ATOM     65  H   UNL A   1      44.254  27.313  29.536  1.00  0.00     0.167 HD
ATOM     66  C   UNL A   1      46.436  28.820  30.553  1.00  0.00     0.074 A 
ATOM     67  C   UNL A   1      47.205  29.905  31.130  1.00  0.00     0.031 C 
ATOM     68  C   UNL A   1      46.969  27.640  30.142  1.00  0.00     0.031 A 
BRANCH  55  69
ATOM     69  C   UNL A   1      42.829  23.675  27.800  1.00  0.00    -0.014 A 
ATOM     70  C   UNL A   1      42.311  22.647  28.612  1.00  0.00     0.010 A 
ATOM     71  C   UNL A   1      43.070  23.412  26.440  1.00  0.00     0.010 A 
ATOM     72  C   UNL A   1      42.093  21.371  28.086  1.00  0.00     0.020 A 
ATOM     73  C   UNL A   1      42.825  22.144  25.903  1.00  0.00     0.020 A 
ATOM     74  C   UNL A   1      42.358  21.126  26.736  1.00  0.00     0.054 A 
BRANCH  74  75
ATOM     75  S   UNL A   1      42.065  19.460  26.081  1.00  0.00     0.124 S 
ATOM     76  O   UNL A   1      40.615  19.458  25.898  1.00  0.00    -0.237 OA
ATOM     77  O   UNL A   1      42.852  19.456  24.851  1.00  0.00    -0.237 OA
ATOM     78  O   UNL A   1      42.560  18.580  27.137  1.00  0.00    -0.744 OA
ENDBRANCH  74  75
ENDBRANCH  55  69
BRANCH  56  79
ATOM     79  C   UNL A   1      44.149  32.738  31.830  1.00  0.00    -0.014 A 
ATOM     80  C   UNL A   1      44.424  33.846  31.010  1.00  0.00     0.010 A 
ATOM     81  C   UNL A   1      44.026  32.930  33.218  1.00  0.00     0.010 A 
ATOM     82  C   UNL A   1      44.579  35.119  31.566  1.00  0.00     0.020 A 
ATOM     83  C   UNL A   1      44.154  34.206  33.775  1.00  0.00     0.020 A 
ATOM     84  C   UNL A   1      44.437  35.292  32.945  1.00  0.00     0.054 A 
BRANCH  84  85
ATOM     85  S   UNL A   1      44.568  36.965  33.636  1.00  0.00     0.124 S 
ATOM     86  O   UNL A   1      45.988  37.255  33.463  1.00  0.00    -0.237 OA
ATOM     87  O   UNL A   1      43.658  37.729  32.787  1.00  0.00    -0.237 OA
ATOM     88  O   UNL A   1      44.125  36.799  35.018  1.00  0.00    -0.744 OA
ENDBRANCH  84  85
ENDBRANCH  56  79
BRANCH  68  89
ATOM     89  C   UNL A   1      48.458  27.474  30.296  1.00  0.00    -0.014 A 
ATOM     90  C   UNL A   1      49.016  26.959  31.480  1.00  0.00     0.010 A 
ATOM     91  C   UNL A   1      49.310  27.817  29.231  1.00  0.00     0.010 A 
ATOM     92  C   UNL A   1      50.401  26.838  31.615  1.00  0.00     0.020 A 
ATOM     93  C   UNL A   1      50.693  27.668  29.349  1.00  0.00     0.020 A 
ATOM     94  C   UNL A   1      51.231  27.199  30.549  1.00  0.00     0.054 A 
BRANCH  94  95
ATOM     95  S   UNL A   1      53.026  27.024  30.743  1.00  0.00     0.124 S 
ATOM     96  O   UNL A   1      53.319  28.020  31.770  1.00  0.00    -0.237 OA
ATOM     97  O   UNL A   1      53.170  25.630  31.158  1.00  0.00    -0.237 OA
ATOM     98  O   UNL A   1      53.549  27.327  29.413  1.00  0.00    -0.744 OA
ENDBRANCH  94  95
ENDBRANCH  68  89
ENDBRANCH  42  43
ENDBRANCH  34  37
ENDBRANCH  32  33
ENDBRANCH  31  32
ENDBRANCH  30  31
ENDBRANCH   1  30
TORSDOF 20
ENDMDL
MODEL 2
REMARK VINA RESULT:     -11.0      0.673      7.992
REMARK SMILES CCC(=O)Nc1ccc(NC(=O)[C@@H]2CC=CC[C@@H]2C(=O)NCCCCCCNC(=O)c2ccc(-c3c4nc(c(-c5ccc(S(=O)(=O)[O-])cc5)c5ccc([nH]5)c(-c5ccc(S(=O)(=O)[O-])cc5)c5nc(c(-c6ccc(S(=O)(=O)[O-])cc6)c6ccc3[nH]6)C=C5)C=C4)cc2)cc1
REMARK SMILES IDX 24 1 23 2 22 3 21 4 19 5 20 6 18 8 13 9 14 10 15 11 17 12
REMARK SMILES IDX 16 13 11 14 10 15 12 17 9 18 6 19 7 20 92 21 8 22 91 23 5 24
REMARK SMILES IDX 3 25 4 26 2 28 1 29 25 30 26 31 27 32 28 33 29 34 30 36
REMARK SMILES IDX 31 37 32 38 90 39 33 40 89 41 34 42 35 43 36 44 83 45 37 46
REMARK SMILES IDX 88 47 82 48 84 49 38 50 87 51 81 52 80 53 39 55 69 56 50 57
REMARK SMILES IDX 68 58 51 59 54 60 67 61 85 62 52 63 53 64 66 66 86 67 55 68
REMARK SMILES IDX 40 69 41 70 49 71 42 72 48 73 43 74 44 75 45 76 46 77 47 78
REMARK SMILES IDX 70 79 71 80 79 81 72 82 78 83 73 84 74 85 75 86 76 87 77 88
REMARK SMILES IDX 56 89 57 90 65 91 58 92 64 93 59 94 60 95 61 96 62 97 63 98
REMARK H PARENT 21 7 10 16 5 27 28 35 84 54 54 65
REMARK Flexibility Score: inf
ROOT
ATOM      1  C   UNL A   1      31.030  29.231  24.729  1.00  0.00     0.002 C 
ENDROOT
BRANCH   1   2
ATOM      2  C   UNL A   1      30.863  28.511  23.385  1.00  0.00     0.021 C 
BRANCH   2   3
ATOM      3  C   UNL A   1      29.637  27.606  23.207  1.00  0.00     0.116 C 
BRANCH   3   4
ATOM      4  N   UNL A   1      29.965  26.227  22.885  1.00  0.00    -0.356 N 
ATOM      5  C   UNL A   1      30.561  25.233  23.603  1.00  0.00     0.224 C 
ATOM      6  O   UNL A   1      30.402  24.087  23.171  1.00  0.00    -0.275 OA
ATOM      7  H   UNL A   1      29.708  25.960  21.974  1.00  0.00     0.163 HD
BRANCH   5   8
ATOM      8  C   UNL A   1      31.324  25.494  24.907  1.00  0.00     0.095 C 
ATOM      9  C   UNL A   1      32.754  24.923  25.093  1.00  0.00     0.095 C 
ATOM     10  C   UNL A   1      32.998  23.770  26.090  1.00  0.00     0.041 C 
ATOM     11  C   UNL A   1      31.793  23.221  26.772  1.00  0.00    -0.030 C 
ATOM     12  C   UNL A   1      30.409  25.182  26.121  1.00  0.00     0.041 C 
ATOM     13  C   UNL A   1      30.614  23.847  26.768  1.00  0.00    -0.030 C 
BRANCH   9  14
ATOM     14  C   UNL A   1      33.626  24.678  23.878  1.00  0.00     0.228 C 
ATOM     15  N   UNL A   1      34.326  23.545  23.609  1.00  0.00    -0.326 N 
ATOM     16  H   UNL A   1      35.076  23.672  22.986  1.00  0.00     0.169 HD
ATOM     17  O   UNL A   1      33.741  25.589  23.045  1.00  0.00    -0.274 OA
BRANCH  15  18
ATOM     18  C   UNL A   1      34.170  22.230  24.059  1.00  0.00     0.041 A 
ATOM     19  C   UNL A   1      33.384  19.731  25.085  1.00  0.00     0.041 A 
ATOM     20  C   UNL A   1      34.628  20.269  25.415  1.00  0.00     0.028 A 
ATOM     21  C   UNL A   1      32.555  20.458  24.247  1.00  0.00     0.028 A 
ATOM     22  C   UNL A   1      35.017  21.522  24.904  1.00  0.00     0.028 A 
ATOM     23  C   UNL A   1      32.984  21.636  23.655  1.00  0.00     0.028 A 
BRANCH  19  24
ATOM     24  N   UNL A   1      32.974  18.515  25.645  1.00  0.00    -0.326 N 
ATOM     25  C   UNL A   1      33.248  17.233  25.241  1.00  0.00     0.224 C 
ATOM     26  O   UNL A   1      32.594  16.301  25.718  1.00  0.00    -0.275 OA
ATOM     27  H   UNL A   1      32.407  18.590  26.446  1.00  0.00     0.169 HD
BRANCH  25  28
ATOM     28  C   UNL A   1      34.430  16.949  24.320  1.00  0.00     0.097 C 
ATOM     29  C   UNL A   1      34.058  16.800  22.852  1.00  0.00     0.014 C 
ENDBRANCH  25  28
ENDBRANCH  19  24
ENDBRANCH  15  18
ENDBRANCH   9  14
ENDBRANCH   5   8
ENDBRANCH   3   4
ENDBRANCH   2   3
ENDBRANCH   1   2
BRANCH   1  30
ATOM     30  C   UNL A   1      32.442  29.470  25.248  1.00  0.00     0.002 C 
BRANCH  30  31
ATOM     31  C   UNL A   1      33.139  28.268  25.871  1.00  0.00     0.021 C 
BRANCH  31  32
ATOM     32  C   UNL A   1      33.866  28.529  27.185  1.00  0.00     0.116 C 
BRANCH  32  33
ATOM     33  N   UNL A   1      33.789  29.911  27.638  1.00  0.00    -0.352 N 
ATOM     34  C   UNL A   1      34.769  30.665  28.248  1.00  0.00     0.251 C 
ATOM     35  H   UNL A   1      32.927  30.364  27.490  1.00  0.00     0.163 HD
ATOM     36  O   UNL A   1      34.535  31.793  28.650  1.00  0.00    -0.269 OA
BRANCH  34  37
ATOM     37  C   UNL A   1      36.104  30.059  28.438  1.00  0.00     0.039 A 
ATOM     38  C   UNL A   1      37.005  30.062  27.371  1.00  0.00     0.014 A 
ATOM     39  C   UNL A   1      36.485  29.573  29.692  1.00  0.00     0.014 A 
ATOM     40  C   UNL A   1      38.319  29.646  27.588  1.00  0.00     0.010 A 
ATOM     41  C   UNL A   1      37.814  29.232  29.923  1.00  0.00     0.010 A 
ATOM     42  C   UNL A   1      38.745  29.267  28.873  1.00  0.00    -0.014 A 
BRANCH  42  43
ATOM     43  C   UNL A   1      40.169  28.936  29.129  1.00  0.00     0.031 A 
ATOM     44  C   UNL A   1      41.078  29.934  29.788  1.00  0.00     0.074 A 
ATOM     45  C   UNL A   1      40.650  27.740  28.732  1.00  0.00     0.049 A 
ATOM     46  N   UNL A   1      42.329  29.797  30.146  1.00  0.00    -0.248 NA
ATOM     47  C   UNL A   1      40.520  31.268  30.062  1.00  0.00     0.031 C 
ATOM     48  C   UNL A   1      39.883  26.714  28.020  1.00  0.00     0.029 A 
ATOM     49  N   UNL A   1      41.893  27.179  28.882  1.00  0.00    -0.354 N 
ATOM     50  C   UNL A   1      42.706  31.022  30.681  1.00  0.00     0.074 A 
ATOM     51  C   UNL A   1      41.573  31.910  30.543  1.00  0.00     0.031 C 
ATOM     52  C   UNL A   1      40.656  25.631  27.843  1.00  0.00     0.029 A 
ATOM     53  C   UNL A   1      41.980  25.895  28.398  1.00  0.00     0.049 A 
ATOM     54  H   UNL A   1      42.651  27.651  29.296  1.00  0.00     0.167 HD
ATOM     55  C   UNL A   1      43.881  31.371  31.260  1.00  0.00     0.031 A 
ATOM     56  C   UNL A   1      43.004  25.020  28.414  1.00  0.00     0.031 A 
ATOM     57  C   UNL A   1      45.006  30.484  31.390  1.00  0.00     0.049 A 
ATOM     58  C   UNL A   1      44.296  25.424  29.070  1.00  0.00     0.074 A 
ATOM     59  C   UNL A   1      46.222  30.718  32.008  1.00  0.00     0.029 A 
ATOM     60  N   UNL A   1      45.058  29.193  30.883  1.00  0.00    -0.354 N 
ATOM     61  N   UNL A   1      44.605  26.559  29.651  1.00  0.00    -0.248 NA
ATOM     62  C   UNL A   1      45.369  24.422  29.087  1.00  0.00     0.031 C 
ATOM     63  C   UNL A   1      47.029  29.588  31.828  1.00  0.00     0.029 A 
ATOM     64  C   UNL A   1      46.294  28.627  31.150  1.00  0.00     0.049 A 
ATOM     65  H   UNL A   1      44.324  28.745  30.404  1.00  0.00     0.167 HD
ATOM     66  C   UNL A   1      45.904  26.402  30.120  1.00  0.00     0.074 A 
ATOM     67  C   UNL A   1      46.310  25.054  29.775  1.00  0.00     0.031 C 
ATOM     68  C   UNL A   1      46.689  27.292  30.779  1.00  0.00     0.031 A 
BRANCH  55  69
ATOM     69  C   UNL A   1      44.000  32.779  31.785  1.00  0.00    -0.014 A 
ATOM     70  C   UNL A   1      44.493  33.819  30.973  1.00  0.00     0.010 A 
ATOM     71  C   UNL A   1      43.607  33.072  33.103  1.00  0.00     0.010 A 
ATOM     72  C   UNL A   1      44.641  35.109  31.487  1.00  0.00     0.020 A 
ATOM     73  C   UNL A   1      43.725  34.369  33.611  1.00  0.00     0.020 A 
ATOM     74  C   UNL A   1      44.262  35.375  32.805  1.00  0.00     0.054 A 
BRANCH  74  75
ATOM     75  S   UNL A   1      44.465  37.060  33.445  1.00  0.00     0.124 S 
ATOM     76  O   UNL A   1      43.448  37.792  32.694  1.00  0.00    -0.237 OA
ATOM     77  O   UNL A   1      44.195  36.897  34.871  1.00  0.00    -0.237 OA
ATOM     78  O   UNL A   1      45.847  37.394  33.110  1.00  0.00    -0.744 OA
ENDBRANCH  74  75
ENDBRANCH  55  69
BRANCH  56  79
ATOM     79  C   UNL A   1      42.827  23.662  27.831  1.00  0.00    -0.014 A 
ATOM     80  C   UNL A   1      42.374  22.596  28.627  1.00  0.00     0.010 A 
ATOM     81  C   UNL A   1      43.074  23.436  26.464  1.00  0.00     0.010 A 
ATOM     82  C   UNL A   1      42.180  21.328  28.072  1.00  0.00     0.020 A 
ATOM     83  C   UNL A   1      42.855  22.177  25.900  1.00  0.00     0.020 A 
ATOM     84  C   UNL A   1      42.416  21.128  26.710  1.00  0.00     0.054 A 
BRANCH  84  85
ATOM     85  S   UNL A   1      42.085  19.493  25.995  1.00  0.00     0.124 S 
ATOM     86  O   UNL A   1      40.645  19.548  25.764  1.00  0.00    -0.237 OA
ATOM     87  O   UNL A   1      42.920  19.497  24.797  1.00  0.00    -0.237 OA
ATOM     88  O   UNL A   1      42.518  18.569  27.042  1.00  0.00    -0.744 OA
ENDBRANCH  84  85
ENDBRANCH  56  79
BRANCH  68  89
ATOM     89  C   UNL A   1      48.065  26.825  31.176  1.00  0.00    -0.014 A 
ATOM     90  C   UNL A   1      49.176  27.035  30.340  1.00  0.00     0.010 A 
ATOM     91  C   UNL A   1      48.252  26.185  32.414  1.00  0.00     0.010 A 
ATOM     92  C   UNL A   1      50.439  26.569  30.712  1.00  0.00     0.020 A 
ATOM     93  C   UNL A   1      49.519  25.746  32.805  1.00  0.00     0.020 A 
ATOM     94  C   UNL A   1      50.601  25.923  31.942  1.00  0.00     0.054 A 
BRANCH  94  95
ATOM     95  S   UNL A   1      52.252  25.336  32.409  1.00  0.00     0.124 S 
ATOM     96  O   UNL A   1      52.018  23.911  32.627  1.00  0.00    -0.237 OA
ATOM     97  O   UNL A   1      53.056  25.668  31.234  1.00  0.00    -0.237 OA
ATOM     98  O   UNL A   1      52.567  26.107  33.608  1.00  0.00    -0.744 OA
ENDBRANCH  94  95
ENDBRANCH  68  89
ENDBRANCH  42  43
ENDBRANCH  34  37
ENDBRANCH  32  33
ENDBRANCH  31  32
ENDBRANCH  30  31
ENDBRANCH   1  30
TORSDOF 20
ENDMDL
MODEL 3
REMARK VINA RESULT:     -10.9      4.537      9.161
REMARK SMILES CCC(=O)Nc1ccc(NC(=O)[C@@H]2CC=CC[C@@H]2C(=O)NCCCCCCNC(=O)c2ccc(-c3c4nc(c(-c5ccc(S(=O)(=O)[O-])cc5)c5ccc([nH]5)c(-c5ccc(S(=O)(=O)[O-])cc5)c5nc(c(-c6ccc(S(=O)(=O)[O-])cc6)c6ccc3[nH]6)C=C5)C=C4)cc2)cc1
REMARK SMILES IDX 24 1 23 2 22 3 21 4 19 5 20 6 18 8 13 9 14 10 15 11 17 12
REMARK SMILES IDX 16 13 11 14 10 15 12 17 9 18 6 19 7 20 92 21 8 22 91 23 5 24
REMARK SMILES IDX 3 25 4 26 2 28 1 29 25 30 26 31 27 32 28 33 29 34 30 36
REMARK SMILES IDX 31 37 32 38 90 39 33 40 89 41 34 42 35 43 36 44 83 45 37 46
REMARK SMILES IDX 88 47 82 48 84 49 38 50 87 51 81 52 80 53 39 55 69 56 50 57
REMARK SMILES IDX 68 58 51 59 54 60 67 61 85 62 52 63 53 64 66 66 86 67 55 68
REMARK SMILES IDX 40 69 41 70 49 71 42 72 48 73 43 74 44 75 45 76 46 77 47 78
REMARK SMILES IDX 70 79 71 80 79 81 72 82 78 83 73 84 74 85 75 86 76 87 77 88
REMARK SMILES IDX 56 89 57 90 65 91 58 92 64 93 59 94 60 95 61 96 62 97 63 98
REMARK H PARENT 21 7 10 16 5 27 28 35 84 54 54 65
REMARK Flexibility Score: inf
ROOT
ATOM      1  C   UNL A   1      35.510  30.561  28.477  1.00  0.00     0.002 C 
ENDROOT
BRANCH   1   2
ATOM      2  C   UNL A   1      35.456  29.309  27.593  1.00  0.00     0.021 C 
BRANCH   2   3
ATOM      3  C   UNL A   1      34.180  29.066  26.776  1.00  0.00     0.116 C 
BRANCH   3   4
ATOM      4  N   UNL A   1      34.380  29.137  25.338  1.00  0.00    -0.356 N 
ATOM      5  C   UNL A   1      33.601  28.763  24.283  1.00  0.00     0.224 C 
ATOM      6  O   UNL A   1      33.906  29.250  23.189  1.00  0.00    -0.275 OA
ATOM      7  H   UNL A   1      35.243  29.530  25.076  1.00  0.00     0.163 HD
BRANCH   5   8
ATOM      8  C   UNL A   1      32.377  27.853  24.436  1.00  0.00     0.095 C 
ATOM      9  C   UNL A   1      32.145  26.694  23.430  1.00  0.00     0.095 C 
ATOM     10  C   UNL A   1      30.987  26.779  22.414  1.00  0.00     0.041 C 
ATOM     11  C   UNL A   1      30.192  28.040  22.423  1.00  0.00    -0.030 C 
ATOM     12  C   UNL A   1      31.104  28.716  24.635  1.00  0.00     0.041 C 
ATOM     13  C   UNL A   1      30.261  28.929  23.416  1.00  0.00    -0.030 C 
BRANCH   9  14
ATOM     14  C   UNL A   1      33.331  26.063  22.730  1.00  0.00     0.228 C 
ATOM     15  N   UNL A   1      33.918  24.881  23.056  1.00  0.00    -0.326 N 
ATOM     16  H   UNL A   1      34.845  24.789  22.736  1.00  0.00     0.169 HD
ATOM     17  O   UNL A   1      33.843  26.671  21.778  1.00  0.00    -0.274 OA
BRANCH  15  18
ATOM     18  C   UNL A   1      33.442  23.773  23.763  1.00  0.00     0.041 A 
ATOM     19  C   UNL A   1      32.970  21.395  25.190  1.00  0.00     0.041 A 
ATOM     20  C   UNL A   1      32.128  21.768  24.143  1.00  0.00     0.028 A 
ATOM     21  C   UNL A   1      34.037  22.221  25.501  1.00  0.00     0.028 A 
ATOM     22  C   UNL A   1      32.369  22.956  23.427  1.00  0.00     0.028 A 
ATOM     23  C   UNL A   1      34.206  23.445  24.873  1.00  0.00     0.028 A 
BRANCH  19  24
ATOM     24  N   UNL A   1      32.766  20.181  25.857  1.00  0.00    -0.326 N 
ATOM     25  C   UNL A   1      32.894  18.897  25.391  1.00  0.00     0.224 C 
ATOM     26  O   UNL A   1      32.431  17.968  26.059  1.00  0.00    -0.275 OA
ATOM     27  H   UNL A   1      32.492  20.260  26.799  1.00  0.00     0.169 HD
BRANCH  25  28
ATOM     28  C   UNL A   1      33.710  18.609  24.135  1.00  0.00     0.097 C 
ATOM     29  C   UNL A   1      34.768  17.530  24.310  1.00  0.00     0.014 C 
ENDBRANCH  25  28
ENDBRANCH  19  24
ENDBRANCH  15  18
ENDBRANCH   9  14
ENDBRANCH   5   8
ENDBRANCH   3   4
ENDBRANCH   2   3
ENDBRANCH   1   2
BRANCH   1  30
ATOM     30  C   UNL A   1      35.310  31.919  27.816  1.00  0.00     0.002 C 
BRANCH  30  31
ATOM     31  C   UNL A   1      34.061  32.686  28.229  1.00  0.00     0.021 C 
BRANCH  31  32
ATOM     32  C   UNL A   1      34.267  34.158  28.566  1.00  0.00     0.116 C 
BRANCH  32  33
ATOM     33  N   UNL A   1      33.270  34.700  29.477  1.00  0.00    -0.352 N 
ATOM     34  C   UNL A   1      33.306  34.744  30.855  1.00  0.00     0.251 C 
ATOM     35  H   UNL A   1      32.466  35.084  29.056  1.00  0.00     0.163 HD
ATOM     36  O   UNL A   1      32.354  35.157  31.496  1.00  0.00    -0.269 OA
BRANCH  34  37
ATOM     37  C   UNL A   1      34.516  34.241  31.541  1.00  0.00     0.039 A 
ATOM     38  C   UNL A   1      34.595  32.886  31.861  1.00  0.00     0.014 A 
ATOM     39  C   UNL A   1      35.596  35.096  31.781  1.00  0.00     0.014 A 
ATOM     40  C   UNL A   1      35.795  32.371  32.356  1.00  0.00     0.010 A 
ATOM     41  C   UNL A   1      36.812  34.566  32.200  1.00  0.00     0.010 A 
ATOM     42  C   UNL A   1      36.925  33.198  32.489  1.00  0.00    -0.014 A 
BRANCH  42  43
ATOM     43  C   UNL A   1      38.231  32.629  32.904  1.00  0.00     0.031 A 
ATOM     44  C   UNL A   1      38.776  32.893  34.279  1.00  0.00     0.074 A 
ATOM     45  C   UNL A   1      38.943  31.898  32.022  1.00  0.00     0.049 A 
ATOM     46  N   UNL A   1      39.866  32.429  34.836  1.00  0.00    -0.248 NA
ATOM     47  C   UNL A   1      38.013  33.816  35.134  1.00  0.00     0.031 C 
ATOM     48  C   UNL A   1      38.552  31.630  30.635  1.00  0.00     0.029 A 
ATOM     49  N   UNL A   1      40.137  31.237  32.162  1.00  0.00    -0.354 N 
ATOM     50  C   UNL A   1      39.920  33.004  36.099  1.00  0.00     0.074 A 
ATOM     51  C   UNL A   1      38.789  33.900  36.204  1.00  0.00     0.031 C 
ATOM     52  C   UNL A   1      39.460  30.818  30.071  1.00  0.00     0.029 A 
ATOM     53  C   UNL A   1      40.513  30.535  31.042  1.00  0.00     0.049 A 
ATOM     54  H   UNL A   1      40.674  31.262  32.987  1.00  0.00     0.167 HD
ATOM     55  C   UNL A   1      40.814  32.788  37.093  1.00  0.00     0.031 A 
ATOM     56  C   UNL A   1      41.577  29.737  30.824  1.00  0.00     0.031 A 
ATOM     57  C   UNL A   1      41.940  31.899  36.981  1.00  0.00     0.049 A 
ATOM     58  C   UNL A   1      42.552  29.502  31.944  1.00  0.00     0.074 A 
ATOM     59  C   UNL A   1      42.875  31.564  37.945  1.00  0.00     0.029 A 
ATOM     60  N   UNL A   1      42.290  31.209  35.829  1.00  0.00    -0.354 N 
ATOM     61  N   UNL A   1      42.538  29.986  33.164  1.00  0.00    -0.248 NA
ATOM     62  C   UNL A   1      43.676  28.600  31.662  1.00  0.00     0.031 C 
ATOM     63  C   UNL A   1      43.821  30.715  37.359  1.00  0.00     0.029 A 
ATOM     64  C   UNL A   1      43.443  30.472  36.049  1.00  0.00     0.049 A 
ATOM     65  H   UNL A   1      41.793  31.240  34.980  1.00  0.00     0.167 HD
ATOM     66  C   UNL A   1      43.641  29.432  33.802  1.00  0.00     0.074 A 
ATOM     67  C   UNL A   1      44.284  28.559  32.840  1.00  0.00     0.031 C 
ATOM     68  C   UNL A   1      44.082  29.627  35.071  1.00  0.00     0.031 A 
BRANCH  55  69
ATOM     69  C   UNL A   1      40.607  33.538  38.384  1.00  0.00    -0.014 A 
ATOM     70  C   UNL A   1      39.857  32.979  39.438  1.00  0.00     0.010 A 
ATOM     71  C   UNL A   1      41.175  34.813  38.555  1.00  0.00     0.010 A 
ATOM     72  C   UNL A   1      39.634  33.703  40.611  1.00  0.00     0.020 A 
ATOM     73  C   UNL A   1      40.980  35.528  39.741  1.00  0.00     0.020 A 
ATOM     74  C   UNL A   1      40.192  34.976  40.753  1.00  0.00     0.054 A 
BRANCH  74  75
ATOM     75  S   UNL A   1      39.887  35.894  42.288  1.00  0.00     0.124 S 
ATOM     76  O   UNL A   1      40.484  37.193  41.986  1.00  0.00    -0.237 OA
ATOM     77  O   UNL A   1      38.430  35.880  42.385  1.00  0.00    -0.237 OA
ATOM     78  O   UNL A   1      40.584  35.110  43.304  1.00  0.00    -0.744 OA
ENDBRANCH  74  75
ENDBRANCH  55  69
BRANCH  56  79
ATOM     79  C   UNL A   1      41.741  29.068  29.504  1.00  0.00    -0.014 A 
ATOM     80  C   UNL A   1      42.375  29.733  28.440  1.00  0.00     0.010 A 
ATOM     81  C   UNL A   1      41.298  27.746  29.315  1.00  0.00     0.010 A 
ATOM     82  C   UNL A   1      42.555  29.094  27.210  1.00  0.00     0.020 A 
ATOM     83  C   UNL A   1      41.500  27.094  28.096  1.00  0.00     0.020 A 
ATOM     84  C   UNL A   1      42.122  27.776  27.048  1.00  0.00     0.054 A 
BRANCH  84  85
ATOM     85  S   UNL A   1      42.433  26.940  25.467  1.00  0.00     0.124 S 
ATOM     86  O   UNL A   1      41.222  26.143  25.300  1.00  0.00    -0.237 OA
ATOM     87  O   UNL A   1      42.587  28.060  24.543  1.00  0.00    -0.237 OA
ATOM     88  O   UNL A   1      43.655  26.178  25.719  1.00  0.00    -0.744 OA
ENDBRANCH  84  85
ENDBRANCH  56  79
BRANCH  68  89
ATOM     89  C   UNL A   1      45.315  28.869  35.489  1.00  0.00    -0.014 A 
ATOM     90  C   UNL A   1      46.596  29.436  35.365  1.00  0.00     0.010 A 
ATOM     91  C   UNL A   1      45.188  27.579  36.035  1.00  0.00     0.010 A 
ATOM     92  C   UNL A   1      47.730  28.708  35.731  1.00  0.00     0.020 A 
ATOM     93  C   UNL A   1      46.316  26.860  36.433  1.00  0.00     0.020 A 
ATOM     94  C   UNL A   1      47.582  27.421  36.258  1.00  0.00     0.054 A 
BRANCH  94  95
ATOM     95  S   UNL A   1      49.069  26.498  36.736  1.00  0.00     0.124 S 
ATOM     96  O   UNL A   1      50.028  26.918  35.718  1.00  0.00    -0.237 OA
ATOM     97  O   UNL A   1      49.330  26.988  38.088  1.00  0.00    -0.237 OA
ATOM     98  O   UNL A   1      48.649  25.101  36.658  1.00  0.00    -0.744 OA
ENDBRANCH  94  95
ENDBRANCH  68  89
ENDBRANCH  42  43
ENDBRANCH  34  37
ENDBRANCH  32  33
ENDBRANCH  31  32
ENDBRANCH  30  31
ENDBRANCH   1  30
TORSDOF 20
ENDMDL
