MODEL 1
REMARK VINA RESULT:     -11.2      0.000      0.000
REMARK SMILES CC(C)=C1[C@H]2CC[C@@H]1[C@@H](C(=O)Nc1cc(C)cc(C)c1)[C@@H]2C(=O)NCCCCCCNC(=O)c1ccc(-c2c3nc(c(-c4ccc(S(=O)(=O)[O-])cc4)c4ccc([nH]4)c(-c4ccc(S(=O)(=O)[O-])cc4)c4nc(c(-c5ccc(S(=O)(=O)[O-])cc5)c5ccc2[nH]5)C=C4)C=C3)cc1
REMARK SMILES IDX 28 1 27 2 26 3 25 4 24 5 22 6 23 7 21 9 1 10 2 11 3 12 4 13
REMARK SMILES IDX 5 14 8 15 6 16 7 17 9 18 10 19 11 20 12 21 13 23 14 24 20 25
REMARK SMILES IDX 15 26 18 27 16 28 17 29 19 30 29 31 30 32 31 33 32 34 33 36
REMARK SMILES IDX 34 37 35 38 93 39 36 40 92 41 37 42 38 43 39 44 86 45 40 46
REMARK SMILES IDX 91 47 85 48 87 49 41 50 90 51 84 52 83 53 42 55 72 56 53 57
REMARK SMILES IDX 71 58 54 59 57 60 70 61 88 62 55 63 56 64 69 66 89 67 58 68
REMARK SMILES IDX 43 69 44 70 52 71 45 72 51 73 46 74 47 75 48 76 49 77 50 78
REMARK SMILES IDX 73 79 74 80 82 81 75 82 81 83 76 84 77 85 78 86 79 87 80 88
REMARK SMILES IDX 59 89 60 90 68 91 61 92 67 93 62 94 63 95 64 96 65 97 66 98
REMARK H PARENT 24 8 12 22 31 35 87 54 57 65
REMARK Flexibility Score: inf
ROOT
ATOM      1  C   UNL A   1      32.160  28.734  26.457  1.00  0.00     0.002 C 
ENDROOT
BRANCH   1   2
ATOM      2  C   UNL A   1      31.116  27.688  26.871  1.00  0.00     0.002 C 
BRANCH   2   3
ATOM      3  C   UNL A   1      31.021  26.421  26.030  1.00  0.00     0.021 C 
BRANCH   3   4
ATOM      4  C   UNL A   1      31.335  25.118  26.733  1.00  0.00     0.116 C 
BRANCH   4   5
ATOM      5  N   UNL A   1      30.526  23.968  26.530  1.00  0.00    -0.356 N 
ATOM      6  C   UNL A   1      30.978  22.771  26.061  1.00  0.00     0.224 C 
ATOM      7  O   UNL A   1      30.180  21.827  26.139  1.00  0.00    -0.275 OA
ATOM      8  H   UNL A   1      29.568  24.041  26.743  1.00  0.00     0.163 HD
BRANCH   6   9
ATOM      9  C   UNL A   1      32.336  22.541  25.339  1.00  0.00     0.098 C 
ATOM     10  C   UNL A   1      36.783  22.594  23.519  1.00  0.00     0.039 C 
ATOM     11  C   UNL A   1      35.823  21.858  24.418  1.00  0.00    -0.077 C 
ATOM     12  C   UNL A   1      36.351  20.595  25.033  1.00  0.00     0.039 C 
ATOM     13  C   UNL A   1      34.656  22.417  24.797  1.00  0.00    -0.064 C 
ATOM     14  C   UNL A   1      33.703  22.087  25.943  1.00  0.00     0.028 C 
ATOM     15  C   UNL A   1      34.230  23.835  24.560  1.00  0.00     0.028 C 
ATOM     16  C   UNL A   1      34.455  23.057  26.857  1.00  0.00     0.009 C 
ATOM     17  C   UNL A   1      34.639  24.322  25.970  1.00  0.00     0.009 C 
ATOM     18  C   UNL A   1      32.704  23.695  24.402  1.00  0.00     0.099 C 
BRANCH  18  19
ATOM     19  C   UNL A   1      32.283  23.612  22.913  1.00  0.00     0.228 C 
ATOM     20  O   UNL A   1      32.217  22.481  22.401  1.00  0.00    -0.274 OA
ATOM     21  N   UNL A   1      31.800  24.630  22.138  1.00  0.00    -0.326 N 
ATOM     22  H   UNL A   1      31.344  24.319  21.323  1.00  0.00     0.169 HD
BRANCH  21  23
ATOM     23  C   UNL A   1      31.822  26.024  22.268  1.00  0.00     0.041 A 
ATOM     24  C   UNL A   1      33.005  26.756  22.253  1.00  0.00     0.029 A 
ATOM     25  C   UNL A   1      30.605  26.703  22.382  1.00  0.00     0.029 A 
ATOM     26  C   UNL A   1      33.017  28.111  22.601  1.00  0.00    -0.049 A 
ATOM     27  C   UNL A   1      30.586  28.075  22.681  1.00  0.00    -0.049 A 
ATOM     28  C   UNL A   1      34.314  28.807  22.890  1.00  0.00     0.044 C 
ATOM     29  C   UNL A   1      31.799  28.763  22.819  1.00  0.00     0.007 A 
ATOM     30  C   UNL A   1      29.298  28.771  23.015  1.00  0.00     0.044 C 
ENDBRANCH  21  23
ENDBRANCH  18  19
ENDBRANCH   6   9
ENDBRANCH   4   5
ENDBRANCH   3   4
ENDBRANCH   2   3
ENDBRANCH   1   2
BRANCH   1  31
ATOM     31  C   UNL A   1      33.636  28.434  26.745  1.00  0.00     0.021 C 
BRANCH  31  32
ATOM     32  C   UNL A   1      34.630  29.566  26.500  1.00  0.00     0.116 C 
BRANCH  32  33
ATOM     33  N   UNL A   1      34.306  30.772  27.242  1.00  0.00    -0.352 N 
ATOM     34  C   UNL A   1      34.894  31.317  28.349  1.00  0.00     0.251 C 
ATOM     35  H   UNL A   1      33.539  31.279  26.890  1.00  0.00     0.163 HD
ATOM     36  O   UNL A   1      34.352  32.279  28.907  1.00  0.00    -0.269 OA
BRANCH  34  37
ATOM     37  C   UNL A   1      36.149  30.765  28.901  1.00  0.00     0.039 A 
ATOM     38  C   UNL A   1      37.362  31.331  28.496  1.00  0.00     0.014 A 
ATOM     39  C   UNL A   1      36.145  29.678  29.779  1.00  0.00     0.014 A 
ATOM     40  C   UNL A   1      38.565  30.845  29.015  1.00  0.00     0.010 A 
ATOM     41  C   UNL A   1      37.341  29.237  30.345  1.00  0.00     0.010 A 
ATOM     42  C   UNL A   1      38.563  29.815  29.969  1.00  0.00    -0.014 A 
BRANCH  42  43
ATOM     43  C   UNL A   1      39.827  29.346  30.591  1.00  0.00     0.031 A 
ATOM     44  C   UNL A   1      40.371  30.023  31.820  1.00  0.00     0.074 A 
ATOM     45  C   UNL A   1      40.516  28.343  30.011  1.00  0.00     0.049 A 
ATOM     46  N   UNL A   1      41.479  29.778  32.472  1.00  0.00    -0.248 NA
ATOM     47  C   UNL A   1      39.579  31.131  32.376  1.00  0.00     0.031 C 
ATOM     48  C   UNL A   1      40.112  27.631  28.796  1.00  0.00     0.029 A 
ATOM     49  N   UNL A   1      41.703  27.749  30.362  1.00  0.00    -0.354 N 
ATOM     50  C   UNL A   1      41.526  30.709  33.504  1.00  0.00     0.074 A 
ATOM     51  C   UNL A   1      40.358  31.551  33.363  1.00  0.00     0.031 C 
ATOM     52  C   UNL A   1      41.021  26.683  28.517  1.00  0.00     0.029 A 
ATOM     53  C   UNL A   1      42.093  26.745  29.507  1.00  0.00     0.049 A 
ATOM     54  H   UNL A   1      42.226  28.018  31.152  1.00  0.00     0.167 HD
ATOM     55  C   UNL A   1      42.448  30.840  34.488  1.00  0.00     0.031 A 
ATOM     56  C   UNL A   1      43.191  25.966  29.511  1.00  0.00     0.031 A 
ATOM     57  C   UNL A   1      43.605  29.995  34.626  1.00  0.00     0.049 A 
ATOM     58  C   UNL A   1      44.207  26.139  30.606  1.00  0.00     0.074 A 
ATOM     59  C   UNL A   1      44.568  30.011  35.620  1.00  0.00     0.029 A 
ATOM     60  N   UNL A   1      43.962  28.988  33.741  1.00  0.00    -0.354 N 
ATOM     61  N   UNL A   1      44.197  26.981  31.611  1.00  0.00    -0.248 NA
ATOM     62  C   UNL A   1      45.375  25.249  30.573  1.00  0.00     0.031 C 
ATOM     63  C   UNL A   1      45.536  29.051  35.307  1.00  0.00     0.029 A 
ATOM     64  C   UNL A   1      45.144  28.395  34.150  1.00  0.00     0.049 A 
ATOM     65  H   UNL A   1      43.449  28.732  32.941  1.00  0.00     0.167 HD
ATOM     66  C   UNL A   1      45.346  26.706  32.344  1.00  0.00     0.074 A 
ATOM     67  C   UNL A   1      46.016  25.610  31.677  1.00  0.00     0.031 C 
ATOM     68  C   UNL A   1      45.804  27.309  33.470  1.00  0.00     0.031 A 
BRANCH  55  69
ATOM     69  C   UNL A   1      42.245  31.948  35.490  1.00  0.00    -0.014 A 
ATOM     70  C   UNL A   1      41.514  31.736  36.674  1.00  0.00     0.010 A 
ATOM     71  C   UNL A   1      42.826  33.210  35.264  1.00  0.00     0.010 A 
ATOM     72  C   UNL A   1      41.329  32.775  37.589  1.00  0.00     0.020 A 
ATOM     73  C   UNL A   1      42.669  34.244  36.192  1.00  0.00     0.020 A 
ATOM     74  C   UNL A   1      41.905  34.025  37.340  1.00  0.00     0.054 A 
BRANCH  74  75
ATOM     75  S   UNL A   1      41.661  35.351  38.553  1.00  0.00     0.124 S 
ATOM     76  O   UNL A   1      40.519  36.067  37.990  1.00  0.00    -0.237 OA
ATOM     77  O   UNL A   1      41.394  34.614  39.785  1.00  0.00    -0.237 OA
ATOM     78  O   UNL A   1      42.926  36.082  38.528  1.00  0.00    -0.744 OA
ENDBRANCH  74  75
ENDBRANCH  55  69
BRANCH  56  79
ATOM     79  C   UNL A   1      43.377  24.943  28.445  1.00  0.00    -0.014 A 
ATOM     80  C   UNL A   1      44.098  25.250  27.278  1.00  0.00     0.010 A 
ATOM     81  C   UNL A   1      42.851  23.648  28.603  1.00  0.00     0.010 A 
ATOM     82  C   UNL A   1      44.280  24.283  26.283  1.00  0.00     0.020 A 
ATOM     83  C   UNL A   1      43.054  22.672  27.623  1.00  0.00     0.020 A 
ATOM     84  C   UNL A   1      43.759  22.999  26.464  1.00  0.00     0.054 A 
BRANCH  84  85
ATOM     85  S   UNL A   1      44.056  21.746  25.188  1.00  0.00     0.124 S 
ATOM     86  O   UNL A   1      43.892  22.517  23.960  1.00  0.00    -0.237 OA
ATOM     87  O   UNL A   1      45.419  21.310  25.485  1.00  0.00    -0.237 OA
ATOM     88  O   UNL A   1      43.022  20.745  25.443  1.00  0.00    -0.744 OA
ENDBRANCH  84  85
ENDBRANCH  56  79
BRANCH  68  89
ATOM     89  C   UNL A   1      47.081  26.777  34.068  1.00  0.00    -0.014 A 
ATOM     90  C   UNL A   1      48.321  27.376  33.787  1.00  0.00     0.010 A 
ATOM     91  C   UNL A   1      47.029  25.695  34.964  1.00  0.00     0.010 A 
ATOM     92  C   UNL A   1      49.492  26.881  34.367  1.00  0.00     0.020 A 
ATOM     93  C   UNL A   1      48.193  25.216  35.569  1.00  0.00     0.020 A 
ATOM     94  C   UNL A   1      49.420  25.803  35.255  1.00  0.00     0.054 A 
BRANCH  94  95
ATOM     95  S   UNL A   1      50.948  25.206  36.028  1.00  0.00     0.124 S 
ATOM     96  O   UNL A   1      51.284  24.057  35.192  1.00  0.00    -0.237 OA
ATOM     97  O   UNL A   1      51.841  26.356  35.904  1.00  0.00    -0.237 OA
ATOM     98  O   UNL A   1      50.544  24.885  37.395  1.00  0.00    -0.744 OA
ENDBRANCH  94  95
ENDBRANCH  68  89
ENDBRANCH  42  43
ENDBRANCH  34  37
ENDBRANCH  32  33
ENDBRANCH  31  32
ENDBRANCH   1  31
TORSDOF 18
ENDMDL
MODEL 2
REMARK VINA RESULT:     -11.0      2.636      4.521
REMARK SMILES CC(C)=C1[C@H]2CC[C@@H]1[C@@H](C(=O)Nc1cc(C)cc(C)c1)[C@@H]2C(=O)NCCCCCCNC(=O)c1ccc(-c2c3nc(c(-c4ccc(S(=O)(=O)[O-])cc4)c4ccc([nH]4)c(-c4ccc(S(=O)(=O)[O-])cc4)c4nc(c(-c5ccc(S(=O)(=O)[O-])cc5)c5ccc2[nH]5)C=C4)C=C3)cc1
REMARK SMILES IDX 28 1 27 2 26 3 25 4 24 5 22 6 23 7 21 9 1 10 2 11 3 12 4 13
REMARK SMILES IDX 5 14 8 15 6 16 7 17 9 18 10 19 11 20 12 21 13 23 14 24 20 25
REMARK SMILES IDX 15 26 18 27 16 28 17 29 19 30 29 31 30 32 31 33 32 34 33 36
REMARK SMILES IDX 34 37 35 38 93 39 36 40 92 41 37 42 38 43 39 44 86 45 40 46
REMARK SMILES IDX 91 47 85 48 87 49 41 50 90 51 84 52 83 53 42 55 72 56 53 57
REMARK SMILES IDX 71 58 54 59 57 60 70 61 88 62 55 63 56 64 69 66 89 67 58 68
REMARK SMILES IDX 43 69 44 70 52 71 45 72 51 73 46 74 47 75 48 76 49 77 50 78
REMARK SMILES IDX 73 79 74 80 82 81 75 82 81 83 76 84 77 85 78 86 79 87 80 88
REMARK SMILES IDX 59 89 60 90 68 91 61 92 67 93 62 94 63 95 64 96 65 97 66 98
REMARK H PARENT 24 8 12 22 31 35 87 54 57 65
REMARK Flexibility Score: inf
ROOT
ATOM      1  C   UNL A   1      32.146  29.811  26.703  1.00  0.00     0.002 C 
ENDROOT
BRANCH   1   2
ATOM      2  C   UNL A   1      32.899  29.320  25.460  1.00  0.00     0.002 C 
BRANCH   2   3
ATOM      3  C   UNL A   1      33.615  27.978  25.559  1.00  0.00     0.021 C 
BRANCH   3   4
ATOM      4  C   UNL A   1      32.991  26.944  26.472  1.00  0.00     0.116 C 
BRANCH   4   5
ATOM      5  N   UNL A   1      32.074  25.985  25.965  1.00  0.00    -0.356 N 
ATOM      6  C   UNL A   1      32.309  24.645  25.894  1.00  0.00     0.224 C 
ATOM      7  O   UNL A   1      31.327  23.941  25.617  1.00  0.00    -0.275 OA
ATOM      8  H   UNL A   1      31.204  26.314  25.642  1.00  0.00     0.163 HD
BRANCH   6   9
ATOM      9  C   UNL A   1      33.704  23.967  26.007  1.00  0.00     0.098 C 
ATOM     10  C   UNL A   1      37.916  21.717  25.473  1.00  0.00     0.039 C 
ATOM     11  C   UNL A   1      37.245  23.025  25.811  1.00  0.00    -0.077 C 
ATOM     12  C   UNL A   1      38.168  24.151  26.170  1.00  0.00     0.039 C 
ATOM     13  C   UNL A   1      35.927  23.206  25.596  1.00  0.00    -0.064 C 
ATOM     14  C   UNL A   1      35.087  24.477  25.492  1.00  0.00     0.028 C 
ATOM     15  C   UNL A   1      35.008  22.275  24.865  1.00  0.00     0.028 C 
ATOM     16  C   UNL A   1      35.331  24.523  23.981  1.00  0.00     0.009 C 
ATOM     17  C   UNL A   1      35.083  23.055  23.530  1.00  0.00     0.009 C 
ATOM     18  C   UNL A   1      33.671  22.491  25.600  1.00  0.00     0.099 C 
BRANCH  18  19
ATOM     19  C   UNL A   1      33.436  21.418  26.695  1.00  0.00     0.228 C 
ATOM     20  O   UNL A   1      33.504  21.788  27.879  1.00  0.00    -0.274 OA
ATOM     21  N   UNL A   1      32.983  20.141  26.509  1.00  0.00    -0.326 N 
ATOM     22  H   UNL A   1      32.647  19.721  27.333  1.00  0.00     0.169 HD
BRANCH  21  23
ATOM     23  C   UNL A   1      32.898  19.310  25.385  1.00  0.00     0.041 A 
ATOM     24  C   UNL A   1      33.336  17.990  25.400  1.00  0.00     0.029 A 
ATOM     25  C   UNL A   1      32.320  19.821  24.219  1.00  0.00     0.029 A 
ATOM     26  C   UNL A   1      33.442  17.254  24.215  1.00  0.00    -0.049 A 
ATOM     27  C   UNL A   1      32.367  19.083  23.025  1.00  0.00    -0.049 A 
ATOM     28  C   UNL A   1      34.202  15.961  24.192  1.00  0.00     0.044 C 
ATOM     29  C   UNL A   1      32.958  17.813  23.027  1.00  0.00     0.007 A 
ATOM     30  C   UNL A   1      31.944  19.701  21.723  1.00  0.00     0.044 C 
ENDBRANCH  21  23
ENDBRANCH  18  19
ENDBRANCH   6   9
ENDBRANCH   4   5
ENDBRANCH   3   4
ENDBRANCH   2   3
ENDBRANCH   1   2
BRANCH   1  31
ATOM     31  C   UNL A   1      31.949  31.323  26.876  1.00  0.00     0.021 C 
BRANCH  31  32
ATOM     32  C   UNL A   1      33.179  32.139  27.264  1.00  0.00     0.116 C 
BRANCH  32  33
ATOM     33  N   UNL A   1      32.846  33.479  27.714  1.00  0.00    -0.352 N 
ATOM     34  C   UNL A   1      33.379  34.234  28.721  1.00  0.00     0.251 C 
ATOM     35  H   UNL A   1      32.121  33.915  27.210  1.00  0.00     0.163 HD
ATOM     36  O   UNL A   1      32.833  35.302  29.026  1.00  0.00    -0.269 OA
BRANCH  34  37
ATOM     37  C   UNL A   1      34.576  33.788  29.463  1.00  0.00     0.039 A 
ATOM     38  C   UNL A   1      34.411  32.882  30.516  1.00  0.00     0.014 A 
ATOM     39  C   UNL A   1      35.849  34.279  29.158  1.00  0.00     0.014 A 
ATOM     40  C   UNL A   1      35.526  32.427  31.224  1.00  0.00     0.010 A 
ATOM     41  C   UNL A   1      36.967  33.775  29.823  1.00  0.00     0.010 A 
ATOM     42  C   UNL A   1      36.817  32.844  30.862  1.00  0.00    -0.014 A 
BRANCH  42  43
ATOM     43  C   UNL A   1      38.016  32.302  31.551  1.00  0.00     0.031 A 
ATOM     44  C   UNL A   1      38.452  32.860  32.879  1.00  0.00     0.074 A 
ATOM     45  C   UNL A   1      38.746  31.342  30.949  1.00  0.00     0.049 A 
ATOM     46  N   UNL A   1      39.495  32.542  33.603  1.00  0.00    -0.248 NA
ATOM     47  C   UNL A   1      37.622  33.929  33.457  1.00  0.00     0.031 C 
ATOM     48  C   UNL A   1      38.447  30.746  29.644  1.00  0.00     0.029 A 
ATOM     49  N   UNL A   1      39.891  30.701  31.351  1.00  0.00    -0.354 N 
ATOM     50  C   UNL A   1      39.455  33.378  34.713  1.00  0.00     0.074 A 
ATOM     51  C   UNL A   1      38.312  34.249  34.543  1.00  0.00     0.031 C 
ATOM     52  C   UNL A   1      39.370  29.811  29.366  1.00  0.00     0.029 A 
ATOM     53  C   UNL A   1      40.348  29.769  30.449  1.00  0.00     0.049 A 
ATOM     54  H   UNL A   1      40.343  30.891  32.204  1.00  0.00     0.167 HD
ATOM     55  C   UNL A   1      40.285  33.409  35.784  1.00  0.00     0.031 A 
ATOM     56  C   UNL A   1      41.435  28.975  30.482  1.00  0.00     0.031 A 
ATOM     57  C   UNL A   1      41.418  32.536  35.949  1.00  0.00     0.049 A 
ATOM     58  C   UNL A   1      42.349  29.035  31.674  1.00  0.00     0.074 A 
ATOM     59  C   UNL A   1      42.288  32.450  37.022  1.00  0.00     0.029 A 
ATOM     60  N   UNL A   1      41.845  31.604  35.014  1.00  0.00    -0.354 N 
ATOM     61  N   UNL A   1      42.256  29.787  32.745  1.00  0.00    -0.248 NA
ATOM     62  C   UNL A   1      43.508  28.132  31.668  1.00  0.00     0.031 C 
ATOM     63  C   UNL A   1      43.272  31.505  36.713  1.00  0.00     0.029 A 
ATOM     64  C   UNL A   1      42.981  30.959  35.474  1.00  0.00     0.049 A 
ATOM     65  H   UNL A   1      41.405  31.428  34.152  1.00  0.00     0.167 HD
ATOM     66  C   UNL A   1      43.331  29.431  33.551  1.00  0.00     0.074 A 
ATOM     67  C   UNL A   1      44.050  28.386  32.852  1.00  0.00     0.031 C 
ATOM     68  C   UNL A   1      43.690  29.925  34.762  1.00  0.00     0.031 A 
BRANCH  55  69
ATOM     69  C   UNL A   1      40.002  34.428  36.857  1.00  0.00    -0.014 A 
ATOM     70  C   UNL A   1      39.175  34.122  37.953  1.00  0.00     0.010 A 
ATOM     71  C   UNL A   1      40.603  35.699  36.790  1.00  0.00     0.010 A 
ATOM     72  C   UNL A   1      38.916  35.081  38.936  1.00  0.00     0.020 A 
ATOM     73  C   UNL A   1      40.371  36.651  37.787  1.00  0.00     0.020 A 
ATOM     74  C   UNL A   1      39.513  36.342  38.844  1.00  0.00     0.054 A 
BRANCH  74  75
ATOM     75  S   UNL A   1      39.172  37.561  40.143  1.00  0.00     0.124 S 
ATOM     76  O   UNL A   1      38.135  38.381  39.520  1.00  0.00    -0.237 OA
ATOM     77  O   UNL A   1      38.729  36.728  41.257  1.00  0.00    -0.237 OA
ATOM     78  O   UNL A   1      40.457  38.229  40.340  1.00  0.00    -0.744 OA
ENDBRANCH  74  75
ENDBRANCH  55  69
BRANCH  56  79
ATOM     79  C   UNL A   1      41.708  28.046  29.351  1.00  0.00    -0.014 A 
ATOM     80  C   UNL A   1      42.662  28.373  28.372  1.00  0.00     0.010 A 
ATOM     81  C   UNL A   1      41.029  26.817  29.261  1.00  0.00     0.010 A 
ATOM     82  C   UNL A   1      42.923  27.493  27.316  1.00  0.00     0.020 A 
ATOM     83  C   UNL A   1      41.308  25.923  28.223  1.00  0.00     0.020 A 
ATOM     84  C   UNL A   1      42.247  26.272  27.251  1.00  0.00     0.054 A 
BRANCH  84  85
ATOM     85  S   UNL A   1      42.644  25.122  25.906  1.00  0.00     0.124 S 
ATOM     86  O   UNL A   1      44.055  24.846  26.148  1.00  0.00    -0.237 OA
ATOM     87  O   UNL A   1      41.728  24.013  26.159  1.00  0.00    -0.237 OA
ATOM     88  O   UNL A   1      42.354  25.894  24.699  1.00  0.00    -0.744 OA
ENDBRANCH  84  85
ENDBRANCH  56  79
BRANCH  68  89
ATOM     89  C   UNL A   1      44.904  29.323  35.422  1.00  0.00    -0.014 A 
ATOM     90  C   UNL A   1      44.793  28.209  36.273  1.00  0.00     0.010 A 
ATOM     91  C   UNL A   1      46.177  29.850  35.144  1.00  0.00     0.010 A 
ATOM     92  C   UNL A   1      45.933  27.654  36.860  1.00  0.00     0.020 A 
ATOM     93  C   UNL A   1      47.322  29.279  35.705  1.00  0.00     0.020 A 
ATOM     94  C   UNL A   1      47.191  28.192  36.571  1.00  0.00     0.054 A 
BRANCH  94  95
ATOM     95  S   UNL A   1      48.658  27.426  37.312  1.00  0.00     0.124 S 
ATOM     96  O   UNL A   1      48.144  26.964  38.599  1.00  0.00    -0.237 OA
ATOM     97  O   UNL A   1      48.989  26.374  36.354  1.00  0.00    -0.237 OA
ATOM     98  O   UNL A   1      49.623  28.521  37.383  1.00  0.00    -0.744 OA
ENDBRANCH  94  95
ENDBRANCH  68  89
ENDBRANCH  42  43
ENDBRANCH  34  37
ENDBRANCH  32  33
ENDBRANCH  31  32
ENDBRANCH   1  31
TORSDOF 18
ENDMDL
MODEL 3
REMARK VINA RESULT:     -10.7      0.561      7.900
REMARK SMILES CC(C)=C1[C@H]2CC[C@@H]1[C@@H](C(=O)Nc1cc(C)cc(C)c1)[C@@H]2C(=O)NCCCCCCNC(=O)c1ccc(-c2c3nc(c(-c4ccc(S(=O)(=O)[O-])cc4)c4ccc([nH]4)c(-c4ccc(S(=O)(=O)[O-])cc4)c4nc(c(-c5ccc(S(=O)(=O)[O-])cc5)c5ccc2[nH]5)C=C4)C=C3)cc1
REMARK SMILES IDX 28 1 27 2 26 3 25 4 24 5 22 6 23 7 21 9 1 10 2 11 3 12 4 13
REMARK SMILES IDX 5 14 8 15 6 16 7 17 9 18 10 19 11 20 12 21 13 23 14 24 20 25
REMARK SMILES IDX 15 26 18 27 16 28 17 29 19 30 29 31 30 32 31 33 32 34 33 36
REMARK SMILES IDX 34 37 35 38 93 39 36 40 92 41 37 42 38 43 39 44 86 45 40 46
REMARK SMILES IDX 91 47 85 48 87 49 41 50 90 51 84 52 83 53 42 55 72 56 53 57
REMARK SMILES IDX 71 58 54 59 57 60 70 61 88 62 55 63 56 64 69 66 89 67 58 68
REMARK SMILES IDX 43 69 44 70 52 71 45 72 51 73 46 74 47 75 48 76 49 77 50 78
REMARK SMILES IDX 73 79 74 80 82 81 75 82 81 83 76 84 77 85 78 86 79 87 80 88
REMARK SMILES IDX 59 89 60 90 68 91 61 92 67 93 62 94 63 95 64 96 65 97 66 98
REMARK H PARENT 24 8 12 22 31 35 87 54 57 65
REMARK Flexibility Score: inf
ROOT
ATOM      1  C   UNL A   1      32.272  28.535  26.628  1.00  0.00     0.002 C 
ENDROOT
BRANCH   1   2
ATOM      2  C   UNL A   1      31.332  27.434  27.137  1.00  0.00     0.002 C 
BRANCH   2   3
ATOM      3  C   UNL A   1      30.572  26.624  26.095  1.00  0.00     0.021 C 
BRANCH   3   4
ATOM      4  C   UNL A   1      31.200  25.315  25.665  1.00  0.00     0.116 C 
BRANCH   4   5
ATOM      5  N   UNL A   1      30.475  24.096  25.753  1.00  0.00    -0.356 N 
ATOM      6  C   UNL A   1      31.024  22.854  25.639  1.00  0.00     0.224 C 
ATOM      7  O   UNL A   1      30.282  21.909  25.944  1.00  0.00    -0.275 OA
ATOM      8  H   UNL A   1      29.505  24.154  25.909  1.00  0.00     0.163 HD
BRANCH   6   9
ATOM      9  C   UNL A   1      32.428  22.540  25.050  1.00  0.00     0.098 C 
ATOM     10  C   UNL A   1      37.030  22.300  23.689  1.00  0.00     0.039 C 
ATOM     11  C   UNL A   1      35.930  21.615  24.460  1.00  0.00    -0.077 C 
ATOM     12  C   UNL A   1      36.297  20.298  25.079  1.00  0.00     0.039 C 
ATOM     13  C   UNL A   1      34.776  22.252  24.740  1.00  0.00    -0.064 C 
ATOM     14  C   UNL A   1      33.688  21.964  25.771  1.00  0.00     0.028 C 
ATOM     15  C   UNL A   1      34.483  23.705  24.512  1.00  0.00     0.028 C 
ATOM     16  C   UNL A   1      34.412  22.846  26.791  1.00  0.00     0.009 C 
ATOM     17  C   UNL A   1      34.779  24.118  25.974  1.00  0.00     0.009 C 
ATOM     18  C   UNL A   1      32.975  23.688  24.197  1.00  0.00     0.099 C 
BRANCH  18  19
ATOM     19  C   UNL A   1      32.705  23.680  22.671  1.00  0.00     0.228 C 
ATOM     20  O   UNL A   1      32.797  22.591  22.081  1.00  0.00    -0.274 OA
ATOM     21  N   UNL A   1      32.199  24.707  21.921  1.00  0.00    -0.326 N 
ATOM     22  H   UNL A   1      31.854  24.419  21.046  1.00  0.00     0.169 HD
BRANCH  21  23
ATOM     23  C   UNL A   1      32.073  26.084  22.145  1.00  0.00     0.041 A 
ATOM     24  C   UNL A   1      33.175  26.923  22.267  1.00  0.00     0.029 A 
ATOM     25  C   UNL A   1      30.789  26.633  22.214  1.00  0.00     0.029 A 
ATOM     26  C   UNL A   1      33.028  28.244  22.705  1.00  0.00    -0.049 A 
ATOM     27  C   UNL A   1      30.613  27.971  22.602  1.00  0.00    -0.049 A 
ATOM     28  C   UNL A   1      34.227  29.036  23.136  1.00  0.00     0.044 C 
ATOM     29  C   UNL A   1      31.739  28.759  22.876  1.00  0.00     0.007 A 
ATOM     30  C   UNL A   1      29.243  28.515  22.885  1.00  0.00     0.044 C 
ENDBRANCH  21  23
ENDBRANCH  18  19
ENDBRANCH   6   9
ENDBRANCH   4   5
ENDBRANCH   3   4
ENDBRANCH   2   3
ENDBRANCH   1   2
BRANCH   1  31
ATOM     31  C   UNL A   1      33.700  28.581  27.185  1.00  0.00     0.021 C 
BRANCH  31  32
ATOM     32  C   UNL A   1      34.557  29.779  26.788  1.00  0.00     0.116 C 
BRANCH  32  33
ATOM     33  N   UNL A   1      34.206  30.988  27.513  1.00  0.00    -0.352 N 
ATOM     34  C   UNL A   1      34.800  31.580  28.593  1.00  0.00     0.251 C 
ATOM     35  H   UNL A   1      33.410  31.457  27.171  1.00  0.00     0.163 HD
ATOM     36  O   UNL A   1      34.235  32.533  29.143  1.00  0.00    -0.269 OA
BRANCH  34  37
ATOM     37  C   UNL A   1      36.089  31.090  29.122  1.00  0.00     0.039 A 
ATOM     38  C   UNL A   1      37.262  31.748  28.741  1.00  0.00     0.014 A 
ATOM     39  C   UNL A   1      36.157  29.970  29.957  1.00  0.00     0.014 A 
ATOM     40  C   UNL A   1      38.495  31.320  29.240  1.00  0.00     0.010 A 
ATOM     41  C   UNL A   1      37.380  29.585  30.506  1.00  0.00     0.010 A 
ATOM     42  C   UNL A   1      38.562  30.256  30.153  1.00  0.00    -0.014 A 
BRANCH  42  43
ATOM     43  C   UNL A   1      39.855  29.846  30.757  1.00  0.00     0.031 A 
ATOM     44  C   UNL A   1      40.645  28.707  30.171  1.00  0.00     0.074 A 
ATOM     45  C   UNL A   1      40.291  30.468  31.871  1.00  0.00     0.049 A 
ATOM     46  N   UNL A   1      41.770  28.184  30.590  1.00  0.00    -0.248 NA
ATOM     47  C   UNL A   1      40.089  28.057  28.974  1.00  0.00     0.031 C 
ATOM     48  C   UNL A   1      39.596  31.561  32.555  1.00  0.00     0.029 A 
ATOM     49  N   UNL A   1      41.418  30.268  32.627  1.00  0.00    -0.354 N 
ATOM     50  C   UNL A   1      42.048  27.137  29.719  1.00  0.00     0.074 A 
ATOM     51  C   UNL A   1      40.952  27.070  28.777  1.00  0.00     0.031 C 
ATOM     52  C   UNL A   1      40.323  31.951  33.614  1.00  0.00     0.029 A 
ATOM     53  C   UNL A   1      41.513  31.110  33.710  1.00  0.00     0.049 A 
ATOM     54  H   UNL A   1      42.094  29.584  32.415  1.00  0.00     0.167 HD
ATOM     55  C   UNL A   1      43.126  26.316  29.695  1.00  0.00     0.031 A 
ATOM     56  C   UNL A   1      42.446  31.194  34.677  1.00  0.00     0.031 A 
ATOM     57  C   UNL A   1      44.216  26.391  30.632  1.00  0.00     0.049 A 
ATOM     58  C   UNL A   1      43.627  30.264  34.638  1.00  0.00     0.074 A 
ATOM     59  C   UNL A   1      45.381  25.642  30.659  1.00  0.00     0.029 A 
ATOM     60  N   UNL A   1      44.277  27.260  31.711  1.00  0.00    -0.354 N 
ATOM     61  N   UNL A   1      43.905  29.325  33.766  1.00  0.00    -0.248 NA
ATOM     62  C   UNL A   1      44.625  30.413  35.706  1.00  0.00     0.031 C 
ATOM     63  C   UNL A   1      46.118  26.020  31.786  1.00  0.00     0.029 A 
ATOM     64  C   UNL A   1      45.443  27.048  32.427  1.00  0.00     0.049 A 
ATOM     65  H   UNL A   1      43.591  27.930  31.935  1.00  0.00     0.167 HD
ATOM     66  C   UNL A   1      45.122  28.786  34.167  1.00  0.00     0.074 A 
ATOM     67  C   UNL A   1      45.534  29.516  35.349  1.00  0.00     0.031 C 
ATOM     68  C   UNL A   1      45.835  27.777  33.606  1.00  0.00     0.031 A 
BRANCH  55  69
ATOM     69  C   UNL A   1      43.173  25.257  28.624  1.00  0.00    -0.014 A 
ATOM     70  C   UNL A   1      43.605  25.558  27.319  1.00  0.00     0.010 A 
ATOM     71  C   UNL A   1      42.816  23.931  28.936  1.00  0.00     0.010 A 
ATOM     72  C   UNL A   1      43.635  24.566  26.335  1.00  0.00     0.020 A 
ATOM     73  C   UNL A   1      42.874  22.929  27.962  1.00  0.00     0.020 A 
ATOM     74  C   UNL A   1      43.265  23.257  26.663  1.00  0.00     0.054 A 
BRANCH  74  75
ATOM     75  S   UNL A   1      43.329  21.987  25.369  1.00  0.00     0.124 S 
ATOM     76  O   UNL A   1      44.483  21.193  25.785  1.00  0.00    -0.237 OA
ATOM     77  O   UNL A   1      42.032  21.329  25.502  1.00  0.00    -0.237 OA
ATOM     78  O   UNL A   1      43.513  22.754  24.138  1.00  0.00    -0.744 OA
ENDBRANCH  74  75
ENDBRANCH  55  69
BRANCH  56  79
ATOM     79  C   UNL A   1      42.303  32.207  35.759  1.00  0.00    -0.014 A 
ATOM     80  C   UNL A   1      42.841  33.497  35.607  1.00  0.00     0.010 A 
ATOM     81  C   UNL A   1      41.605  31.893  36.940  1.00  0.00     0.010 A 
ATOM     82  C   UNL A   1      42.695  34.450  36.620  1.00  0.00     0.020 A 
ATOM     83  C   UNL A   1      41.434  32.851  37.943  1.00  0.00     0.020 A 
ATOM     84  C   UNL A   1      41.989  34.121  37.781  1.00  0.00     0.054 A 
BRANCH  84  85
ATOM     85  S   UNL A   1      41.763  35.390  39.057  1.00  0.00     0.124 S 
ATOM     86  O   UNL A   1      40.458  35.942  38.708  1.00  0.00    -0.237 OA
ATOM     87  O   UNL A   1      41.812  34.609  40.290  1.00  0.00    -0.237 OA
ATOM     88  O   UNL A   1      42.898  36.287  38.853  1.00  0.00    -0.744 OA
ENDBRANCH  84  85
ENDBRANCH  56  79
BRANCH  68  89
ATOM     89  C   UNL A   1      47.150  27.419  34.250  1.00  0.00    -0.014 A 
ATOM     90  C   UNL A   1      47.228  26.428  35.245  1.00  0.00     0.010 A 
ATOM     91  C   UNL A   1      48.329  28.047  33.813  1.00  0.00     0.010 A 
ATOM     92  C   UNL A   1      48.459  26.097  35.816  1.00  0.00     0.020 A 
ATOM     93  C   UNL A   1      49.566  27.697  34.360  1.00  0.00     0.020 A 
ATOM     94  C   UNL A   1      49.621  26.733  35.368  1.00  0.00     0.054 A 
BRANCH  94  95
ATOM     95  S   UNL A   1      51.213  26.254  36.095  1.00  0.00     0.124 S 
ATOM     96  O   UNL A   1      50.835  25.122  36.936  1.00  0.00    -0.237 OA
ATOM     97  O   UNL A   1      52.015  25.924  34.920  1.00  0.00    -0.237 OA
ATOM     98  O   UNL A   1      51.640  27.451  36.816  1.00  0.00    -0.744 OA
ENDBRANCH  94  95
ENDBRANCH  68  89
ENDBRANCH  42  43
ENDBRANCH  34  37
ENDBRANCH  32  33
ENDBRANCH  31  32
ENDBRANCH   1  31
TORSDOF 18
ENDMDL
