MODEL 1
REMARK VINA RESULT:     -12.0      0.000      0.000
REMARK SMILES CC(C)[C@H](NC(=O)[C@H](Cc1ccccc1)n1c(=O)[nH]c2ccccc2c1=O)C(=O)NCCCCCCNC(=O)c1ccc(-c2c3nc(c(-c4ccc(S(=O)(=O)[O-])cc4)c4ccc([nH]4)c(-c4ccc(S(=O)(=O)[O-])cc4)c4nc(c(-c5ccc(S(=O)(=O)[O-])cc5)c5ccc2[nH]5)C=C4)C=C3)cc1
REMARK SMILES IDX 33 1 32 2 31 3 30 4 28 5 29 6 4 8 2 9 1 10 3 11 5 12 6 13
REMARK SMILES IDX 7 15 8 16 16 17 17 18 26 19 18 20 19 21 25 22 27 23 20 24
REMARK SMILES IDX 24 26 21 27 23 28 22 29 9 30 10 31 11 32 15 33 12 34 14 35
REMARK SMILES IDX 13 36 34 37 35 38 36 39 37 40 38 41 39 43 40 44 41 45 99 46
REMARK SMILES IDX 42 47 98 48 43 49 44 50 45 51 92 52 46 53 97 54 91 55 93 56
REMARK SMILES IDX 47 57 96 58 90 59 89 60 48 62 78 63 59 64 77 65 60 66 63 67
REMARK SMILES IDX 76 68 94 69 61 70 62 71 75 73 95 74 64 75 49 76 50 77 58 78
REMARK SMILES IDX 51 79 57 80 52 81 53 82 54 83 55 84 56 85 79 86 80 87 88 88
REMARK SMILES IDX 81 89 87 90 82 91 83 92 84 93 85 94 86 95 65 96 66 97 74 98
REMARK SMILES IDX 67 99 73 100 68 101 69 102 70 103 71 104 72 105
REMARK H PARENT 30 7 5 14 19 25 37 42 93 61 63 72
REMARK Flexibility Score: inf
ROOT
ATOM      1  C   UNL A   1      38.421  22.322  26.037  1.00  0.00     0.002 C 
ENDROOT
BRANCH   1   2
ATOM      2  C   UNL A   1      37.633  21.517  25.005  1.00  0.00     0.021 C 
BRANCH   2   3
ATOM      3  C   UNL A   1      36.320  22.206  24.638  1.00  0.00     0.116 C 
BRANCH   3   4
ATOM      4  N   UNL A   1      35.648  22.665  25.820  1.00  0.00    -0.354 N 
ATOM      5  C   UNL A   1      34.397  23.186  25.908  1.00  0.00     0.242 C 
ATOM      6  O   UNL A   1      34.001  23.513  27.032  1.00  0.00    -0.273 OA
ATOM      7  H   UNL A   1      36.152  22.594  26.662  1.00  0.00     0.163 HD
BRANCH   5   8
ATOM      8  C   UNL A   1      33.430  23.224  24.687  1.00  0.00     0.173 C 
BRANCH   8   9
ATOM      9  C   UNL A   1      32.832  21.855  24.320  1.00  0.00     0.015 C 
ATOM     10  C   UNL A   1      32.922  20.754  25.379  1.00  0.00     0.010 C 
ATOM     11  C   UNL A   1      31.389  21.996  23.831  1.00  0.00     0.010 C 
ENDBRANCH   8   9
BRANCH   8  12
ATOM     12  N   UNL A   1      33.810  24.133  23.557  1.00  0.00    -0.342 N 
ATOM     13  C   UNL A   1      33.924  25.433  23.162  1.00  0.00     0.244 C 
ATOM     14  H   UNL A   1      34.089  23.568  22.801  1.00  0.00     0.164 HD
ATOM     15  O   UNL A   1      34.148  25.534  21.944  1.00  0.00    -0.273 OA
BRANCH  13  16
ATOM     16  C   UNL A   1      33.595  26.724  23.976  1.00  0.00     0.189 C 
BRANCH  16  17
ATOM     17  N   UNL A   1      32.480  27.546  23.505  1.00  0.00    -0.247 N 
ATOM     18  C   UNL A   1      32.787  28.782  22.950  1.00  0.00     0.329 A 
ATOM     19  C   UNL A   1      31.187  27.025  23.573  1.00  0.00     0.264 A 
ATOM     20  O   UNL A   1      33.878  29.338  23.058  1.00  0.00    -0.248 OA
ATOM     21  N   UNL A   1      31.772  29.431  22.306  1.00  0.00    -0.307 N 
ATOM     22  C   UNL A   1      30.100  27.910  23.114  1.00  0.00     0.064 A 
ATOM     23  O   UNL A   1      30.908  25.923  24.037  1.00  0.00    -0.268 OA
ATOM     24  C   UNL A   1      30.438  29.053  22.400  1.00  0.00     0.055 A 
ATOM     25  H   UNL A   1      31.997  30.208  21.744  1.00  0.00     0.171 HD
ATOM     26  C   UNL A   1      28.764  27.641  23.423  1.00  0.00     0.016 A 
ATOM     27  C   UNL A   1      29.443  29.875  21.878  1.00  0.00     0.027 A 
ATOM     28  C   UNL A   1      27.768  28.502  22.963  1.00  0.00     0.001 A 
ATOM     29  C   UNL A   1      28.104  29.598  22.165  1.00  0.00     0.002 A 
ENDBRANCH  16  17
BRANCH  16  30
ATOM     30  C   UNL A   1      33.627  26.548  25.535  1.00  0.00     0.071 C 
BRANCH  30  31
ATOM     31  C   UNL A   1      33.393  27.806  26.340  1.00  0.00    -0.045 A 
ATOM     32  C   UNL A   1      32.109  28.128  26.791  1.00  0.00     0.004 A 
ATOM     33  C   UNL A   1      34.433  28.737  26.504  1.00  0.00     0.004 A 
ATOM     34  C   UNL A   1      31.848  29.401  27.297  1.00  0.00     0.000 A 
ATOM     35  C   UNL A   1      34.161  30.018  26.983  1.00  0.00     0.000 A 
ATOM     36  C   UNL A   1      32.864  30.355  27.361  1.00  0.00     0.000 A 
ENDBRANCH  30  31
ENDBRANCH  16  30
ENDBRANCH  13  16
ENDBRANCH   8  12
ENDBRANCH   5   8
ENDBRANCH   3   4
ENDBRANCH   2   3
ENDBRANCH   1   2
BRANCH   1  37
ATOM     37  C   UNL A   1      39.909  21.954  26.089  1.00  0.00     0.002 C 
BRANCH  37  38
ATOM     38  C   UNL A   1      40.530  21.990  27.488  1.00  0.00     0.021 C 
BRANCH  38  39
ATOM     39  C   UNL A   1      41.456  23.176  27.726  1.00  0.00     0.116 C 
BRANCH  39  40
ATOM     40  N   UNL A   1      41.521  24.048  26.560  1.00  0.00    -0.352 N 
ATOM     41  C   UNL A   1      41.265  25.391  26.475  1.00  0.00     0.251 C 
ATOM     42  H   UNL A   1      41.785  23.612  25.718  1.00  0.00     0.163 HD
ATOM     43  O   UNL A   1      41.122  25.931  25.380  1.00  0.00    -0.269 OA
BRANCH  41  44
ATOM     44  C   UNL A   1      41.160  26.177  27.718  1.00  0.00     0.039 A 
ATOM     45  C   UNL A   1      42.196  27.038  28.080  1.00  0.00     0.014 A 
ATOM     46  C   UNL A   1      40.011  26.070  28.507  1.00  0.00     0.014 A 
ATOM     47  C   UNL A   1      42.055  27.842  29.213  1.00  0.00     0.010 A 
ATOM     48  C   UNL A   1      39.840  26.927  29.584  1.00  0.00     0.010 A 
ATOM     49  C   UNL A   1      40.863  27.813  29.955  1.00  0.00    -0.014 A 
BRANCH  49  50
ATOM     50  C   UNL A   1      40.656  28.673  31.144  1.00  0.00     0.031 A 
ATOM     51  C   UNL A   1      39.608  29.751  31.100  1.00  0.00     0.074 A 
ATOM     52  C   UNL A   1      41.465  28.551  32.214  1.00  0.00     0.049 A 
ATOM     53  N   UNL A   1      39.364  30.702  31.963  1.00  0.00    -0.248 NA
ATOM     54  C   UNL A   1      38.739  29.782  29.910  1.00  0.00     0.031 C 
ATOM     55  C   UNL A   1      42.531  27.557  32.365  1.00  0.00     0.029 A 
ATOM     56  N   UNL A   1      41.529  29.283  33.373  1.00  0.00    -0.354 N 
ATOM     57  C   UNL A   1      38.336  31.457  31.411  1.00  0.00     0.074 A 
ATOM     58  C   UNL A   1      38.038  30.886  30.116  1.00  0.00     0.031 C 
ATOM     59  C   UNL A   1      43.128  27.731  33.555  1.00  0.00     0.029 A 
ATOM     60  C   UNL A   1      42.527  28.879  34.227  1.00  0.00     0.049 A 
ATOM     61  H   UNL A   1      40.917  30.027  33.574  1.00  0.00     0.167 HD
ATOM     62  C   UNL A   1      37.686  32.519  31.942  1.00  0.00     0.031 A 
ATOM     63  C   UNL A   1      42.927  29.386  35.410  1.00  0.00     0.031 A 
ATOM     64  C   UNL A   1      37.986  33.075  33.234  1.00  0.00     0.049 A 
ATOM     65  C   UNL A   1      42.212  30.590  35.966  1.00  0.00     0.074 A 
ATOM     66  C   UNL A   1      37.360  34.123  33.884  1.00  0.00     0.029 A 
ATOM     67  N   UNL A   1      38.996  32.627  34.072  1.00  0.00    -0.354 N 
ATOM     68  N   UNL A   1      41.211  31.264  35.452  1.00  0.00    -0.248 NA
ATOM     69  C   UNL A   1      42.675  31.096  37.266  1.00  0.00     0.031 C 
ATOM     70  C   UNL A   1      38.028  34.346  35.091  1.00  0.00     0.029 A 
ATOM     71  C   UNL A   1      39.023  33.391  35.226  1.00  0.00     0.049 A 
ATOM     72  H   UNL A   1      39.603  31.878  33.875  1.00  0.00     0.167 HD
ATOM     73  C   UNL A   1      40.896  32.247  36.384  1.00  0.00     0.074 A 
ATOM     74  C   UNL A   1      41.812  32.077  37.494  1.00  0.00     0.031 C 
ATOM     75  C   UNL A   1      39.931  33.197  36.329  1.00  0.00     0.031 A 
BRANCH  62  76
ATOM     76  C   UNL A   1      36.597  33.153  31.116  1.00  0.00    -0.014 A 
ATOM     77  C   UNL A   1      36.881  33.758  29.877  1.00  0.00     0.010 A 
ATOM     78  C   UNL A   1      35.266  33.120  31.570  1.00  0.00     0.010 A 
ATOM     79  C   UNL A   1      35.863  34.359  29.133  1.00  0.00     0.020 A 
ATOM     80  C   UNL A   1      34.239  33.689  30.812  1.00  0.00     0.020 A 
ATOM     81  C   UNL A   1      34.548  34.322  29.607  1.00  0.00     0.054 A 
BRANCH  81  82
ATOM     82  S   UNL A   1      33.246  35.096  28.610  1.00  0.00     0.124 S 
ATOM     83  O   UNL A   1      32.408  35.713  29.635  1.00  0.00    -0.237 OA
ATOM     84  O   UNL A   1      33.997  36.026  27.770  1.00  0.00    -0.237 OA
ATOM     85  O   UNL A   1      32.636  33.973  27.902  1.00  0.00    -0.744 OA
ENDBRANCH  81  82
ENDBRANCH  62  76
BRANCH  63  86
ATOM     86  C   UNL A   1      44.049  28.751  36.154  1.00  0.00    -0.014 A 
ATOM     87  C   UNL A   1      43.806  27.678  37.029  1.00  0.00     0.010 A 
ATOM     88  C   UNL A   1      45.370  29.206  35.983  1.00  0.00     0.010 A 
ATOM     89  C   UNL A   1      44.858  27.084  37.735  1.00  0.00     0.020 A 
ATOM     90  C   UNL A   1      46.428  28.595  36.664  1.00  0.00     0.020 A 
ATOM     91  C   UNL A   1      46.163  27.545  37.546  1.00  0.00     0.054 A 
BRANCH  91  92
ATOM     92  S   UNL A   1      47.516  26.728  38.437  1.00  0.00     0.124 S 
ATOM     93  O   UNL A   1      47.431  25.362  37.934  1.00  0.00    -0.237 OA
ATOM     94  O   UNL A   1      48.684  27.492  38.005  1.00  0.00    -0.237 OA
ATOM     95  O   UNL A   1      47.154  26.902  39.842  1.00  0.00    -0.744 OA
ENDBRANCH  91  92
ENDBRANCH  63  86
BRANCH  75  96
ATOM     96  C   UNL A   1      39.759  34.095  37.526  1.00  0.00    -0.014 A 
ATOM     97  C   UNL A   1      38.920  33.742  38.596  1.00  0.00     0.010 A 
ATOM     98  C   UNL A   1      40.532  35.267  37.617  1.00  0.00     0.010 A 
ATOM     99  C   UNL A   1      38.846  34.557  39.731  1.00  0.00     0.020 A 
ATOM    100  C   UNL A   1      40.484  36.067  38.761  1.00  0.00     0.020 A 
ATOM    101  C   UNL A   1      39.635  35.709  39.809  1.00  0.00     0.054 A 
BRANCH 101 102
ATOM    102  S   UNL A   1      39.579  36.704  41.323  1.00  0.00     0.124 S 
ATOM    103  O   UNL A   1      38.670  35.930  42.164  1.00  0.00    -0.237 OA
ATOM    104  O   UNL A   1      40.977  36.713  41.751  1.00  0.00    -0.237 OA
ATOM    105  O   UNL A   1      39.064  37.996  40.874  1.00  0.00    -0.744 OA
ENDBRANCH 101 102
ENDBRANCH  75  96
ENDBRANCH  49  50
ENDBRANCH  41  44
ENDBRANCH  39  40
ENDBRANCH  38  39
ENDBRANCH  37  38
ENDBRANCH   1  37
TORSDOF 22
ENDMDL
MODEL 2
REMARK VINA RESULT:     -10.8      5.948     11.412
REMARK SMILES CC(C)[C@H](NC(=O)[C@H](Cc1ccccc1)n1c(=O)[nH]c2ccccc2c1=O)C(=O)NCCCCCCNC(=O)c1ccc(-c2c3nc(c(-c4ccc(S(=O)(=O)[O-])cc4)c4ccc([nH]4)c(-c4ccc(S(=O)(=O)[O-])cc4)c4nc(c(-c5ccc(S(=O)(=O)[O-])cc5)c5ccc2[nH]5)C=C4)C=C3)cc1
REMARK SMILES IDX 33 1 32 2 31 3 30 4 28 5 29 6 4 8 2 9 1 10 3 11 5 12 6 13
REMARK SMILES IDX 7 15 8 16 16 17 17 18 26 19 18 20 19 21 25 22 27 23 20 24
REMARK SMILES IDX 24 26 21 27 23 28 22 29 9 30 10 31 11 32 15 33 12 34 14 35
REMARK SMILES IDX 13 36 34 37 35 38 36 39 37 40 38 41 39 43 40 44 41 45 99 46
REMARK SMILES IDX 42 47 98 48 43 49 44 50 45 51 92 52 46 53 97 54 91 55 93 56
REMARK SMILES IDX 47 57 96 58 90 59 89 60 48 62 78 63 59 64 77 65 60 66 63 67
REMARK SMILES IDX 76 68 94 69 61 70 62 71 75 73 95 74 64 75 49 76 50 77 58 78
REMARK SMILES IDX 51 79 57 80 52 81 53 82 54 83 55 84 56 85 79 86 80 87 88 88
REMARK SMILES IDX 81 89 87 90 82 91 83 92 84 93 85 94 86 95 65 96 66 97 74 98
REMARK SMILES IDX 67 99 73 100 68 101 69 102 70 103 71 104 72 105
REMARK H PARENT 30 7 5 14 19 25 37 42 93 61 63 72
REMARK Flexibility Score: inf
ROOT
ATOM      1  C   UNL A   1      35.723  31.929  27.995  1.00  0.00     0.002 C 
ENDROOT
BRANCH   1   2
ATOM      2  C   UNL A   1      35.969  30.478  27.581  1.00  0.00     0.021 C 
BRANCH   2   3
ATOM      3  C   UNL A   1      34.659  29.735  27.331  1.00  0.00     0.116 C 
BRANCH   3   4
ATOM      4  N   UNL A   1      33.549  30.645  27.385  1.00  0.00    -0.354 N 
ATOM      5  C   UNL A   1      32.396  30.583  26.671  1.00  0.00     0.242 C 
ATOM      6  O   UNL A   1      31.557  31.467  26.877  1.00  0.00    -0.273 OA
ATOM      7  H   UNL A   1      33.635  31.399  28.011  1.00  0.00     0.163 HD
BRANCH   5   8
ATOM      8  C   UNL A   1      32.057  29.370  25.753  1.00  0.00     0.173 C 
BRANCH   8   9
ATOM      9  C   UNL A   1      31.994  28.023  26.493  1.00  0.00     0.015 C 
ATOM     10  C   UNL A   1      33.269  27.176  26.501  1.00  0.00     0.010 C 
ATOM     11  C   UNL A   1      31.474  28.202  27.922  1.00  0.00     0.010 C 
ENDBRANCH   8   9
BRANCH   8  12
ATOM     12  N   UNL A   1      32.667  29.374  24.383  1.00  0.00    -0.342 N 
ATOM     13  C   UNL A   1      32.597  28.841  23.131  1.00  0.00     0.244 C 
ATOM     14  H   UNL A   1      33.414  30.015  24.392  1.00  0.00     0.164 HD
ATOM     15  O   UNL A   1      33.578  29.153  22.434  1.00  0.00    -0.273 OA
BRANCH  13  16
ATOM     16  C   UNL A   1      31.602  27.767  22.590  1.00  0.00     0.189 C 
BRANCH  16  17
ATOM     17  N   UNL A   1      31.956  26.363  22.793  1.00  0.00    -0.247 N 
ATOM     18  C   UNL A   1      32.910  25.814  21.944  1.00  0.00     0.329 A 
ATOM     19  C   UNL A   1      31.380  25.673  23.860  1.00  0.00     0.264 A 
ATOM     20  O   UNL A   1      33.279  26.332  20.892  1.00  0.00    -0.248 OA
ATOM     21  N   UNL A   1      33.401  24.587  22.289  1.00  0.00    -0.307 N 
ATOM     22  C   UNL A   1      31.749  24.251  23.999  1.00  0.00     0.064 A 
ATOM     23  O   UNL A   1      30.557  26.156  24.634  1.00  0.00    -0.268 OA
ATOM     24  C   UNL A   1      32.829  23.778  23.264  1.00  0.00     0.055 A 
ATOM     25  H   UNL A   1      34.203  24.258  21.822  1.00  0.00     0.171 HD
ATOM     26  C   UNL A   1      31.013  23.384  24.809  1.00  0.00     0.016 A 
ATOM     27  C   UNL A   1      33.265  22.465  23.422  1.00  0.00     0.027 A 
ATOM     28  C   UNL A   1      31.403  22.049  24.914  1.00  0.00     0.001 A 
ATOM     29  C   UNL A   1      32.546  21.599  24.248  1.00  0.00     0.002 A 
ENDBRANCH  16  17
BRANCH  16  30
ATOM     30  C   UNL A   1      30.087  28.074  22.862  1.00  0.00     0.071 C 
BRANCH  30  31
ATOM     31  C   UNL A   1      29.672  29.518  22.694  1.00  0.00    -0.045 A 
ATOM     32  C   UNL A   1      29.373  30.302  23.812  1.00  0.00     0.004 A 
ATOM     33  C   UNL A   1      29.432  30.034  21.409  1.00  0.00     0.004 A 
ATOM     34  C   UNL A   1      28.743  31.536  23.650  1.00  0.00     0.000 A 
ATOM     35  C   UNL A   1      28.777  31.254  21.252  1.00  0.00     0.000 A 
ATOM     36  C   UNL A   1      28.414  31.995  22.374  1.00  0.00     0.000 A 
ENDBRANCH  30  31
ENDBRANCH  16  30
ENDBRANCH  13  16
ENDBRANCH   8  12
ENDBRANCH   5   8
ENDBRANCH   3   4
ENDBRANCH   2   3
ENDBRANCH   1   2
BRANCH   1  37
ATOM     37  C   UNL A   1      36.304  32.276  29.372  1.00  0.00     0.002 C 
BRANCH  37  38
ATOM     38  C   UNL A   1      35.540  31.682  30.558  1.00  0.00     0.021 C 
BRANCH  38  39
ATOM     39  C   UNL A   1      36.278  30.557  31.272  1.00  0.00     0.116 C 
BRANCH  39  40
ATOM     40  N   UNL A   1      36.784  30.987  32.569  1.00  0.00    -0.352 N 
ATOM     41  C   UNL A   1      38.040  30.838  33.096  1.00  0.00     0.251 C 
ATOM     42  H   UNL A   1      36.134  31.447  33.148  1.00  0.00     0.163 HD
ATOM     43  O   UNL A   1      38.242  31.030  34.293  1.00  0.00    -0.269 OA
BRANCH  41  44
ATOM     44  C   UNL A   1      39.144  30.439  32.204  1.00  0.00     0.039 A 
ATOM     45  C   UNL A   1      39.263  31.032  30.946  1.00  0.00     0.014 A 
ATOM     46  C   UNL A   1      40.074  29.491  32.637  1.00  0.00     0.014 A 
ATOM     47  C   UNL A   1      40.357  30.713  30.139  1.00  0.00     0.010 A 
ATOM     48  C   UNL A   1      41.200  29.236  31.869  1.00  0.00     0.010 A 
ATOM     49  C   UNL A   1      41.349  29.836  30.608  1.00  0.00    -0.014 A 
BRANCH  49  50
ATOM     50  C   UNL A   1      42.543  29.495  29.800  1.00  0.00     0.031 A 
ATOM     51  C   UNL A   1      42.630  28.140  29.151  1.00  0.00     0.074 A 
ATOM     52  C   UNL A   1      43.578  30.354  29.730  1.00  0.00     0.049 A 
ATOM     53  N   UNL A   1      43.639  27.586  28.531  1.00  0.00    -0.248 NA
ATOM     54  C   UNL A   1      41.435  27.284  29.242  1.00  0.00     0.031 C 
ATOM     55  C   UNL A   1      43.618  31.688  30.333  1.00  0.00     0.029 A 
ATOM     56  N   UNL A   1      44.806  30.224  29.132  1.00  0.00    -0.354 N 
ATOM     57  C   UNL A   1      43.209  26.311  28.181  1.00  0.00     0.074 A 
ATOM     58  C   UNL A   1      41.870  26.156  28.704  1.00  0.00     0.031 C 
ATOM     59  C   UNL A   1      44.802  32.259  30.059  1.00  0.00     0.029 A 
ATOM     60  C   UNL A   1      45.625  31.315  29.310  1.00  0.00     0.049 A 
ATOM     61  H   UNL A   1      45.076  29.426  28.624  1.00  0.00     0.167 HD
ATOM     62  C   UNL A   1      43.864  25.361  27.473  1.00  0.00     0.031 A 
ATOM     63  C   UNL A   1      46.900  31.524  28.928  1.00  0.00     0.031 A 
ATOM     64  C   UNL A   1      45.195  25.528  26.952  1.00  0.00     0.049 A 
ATOM     65  C   UNL A   1      47.622  30.440  28.171  1.00  0.00     0.074 A 
ATOM     66  C   UNL A   1      45.933  24.646  26.185  1.00  0.00     0.029 A 
ATOM     67  N   UNL A   1      45.983  26.654  27.144  1.00  0.00    -0.354 N 
ATOM     68  N   UNL A   1      47.185  29.257  27.808  1.00  0.00    -0.248 NA
ATOM     69  C   UNL A   1      49.005  30.723  27.764  1.00  0.00     0.031 C 
ATOM     70  C   UNL A   1      47.191  25.214  25.961  1.00  0.00     0.029 A 
ATOM     71  C   UNL A   1      47.209  26.480  26.525  1.00  0.00     0.049 A 
ATOM     72  H   UNL A   1      45.711  27.456  27.645  1.00  0.00     0.167 HD
ATOM     73  C   UNL A   1      48.225  28.672  27.094  1.00  0.00     0.074 A 
ATOM     74  C   UNL A   1      49.310  29.631  27.074  1.00  0.00     0.031 C 
ATOM     75  C   UNL A   1      48.272  27.453  26.500  1.00  0.00     0.031 A 
BRANCH  62  76
ATOM     76  C   UNL A   1      43.154  24.055  27.235  1.00  0.00    -0.014 A 
ATOM     77  C   UNL A   1      43.090  23.066  28.236  1.00  0.00     0.010 A 
ATOM     78  C   UNL A   1      42.514  23.821  26.004  1.00  0.00     0.010 A 
ATOM     79  C   UNL A   1      42.444  21.852  27.993  1.00  0.00     0.020 A 
ATOM     80  C   UNL A   1      41.836  22.621  25.769  1.00  0.00     0.020 A 
ATOM     81  C   UNL A   1      41.822  21.637  26.759  1.00  0.00     0.054 A 
BRANCH  81  82
ATOM     82  S   UNL A   1      40.977  20.058  26.479  1.00  0.00     0.124 S 
ATOM     83  O   UNL A   1      41.922  19.358  25.613  1.00  0.00    -0.237 OA
ATOM     84  O   UNL A   1      40.849  19.520  27.832  1.00  0.00    -0.237 OA
ATOM     85  O   UNL A   1      39.719  20.444  25.844  1.00  0.00    -0.744 OA
ENDBRANCH  81  82
ENDBRANCH  62  76
BRANCH  63  86
ATOM     86  C   UNL A   1      47.571  32.815  29.243  1.00  0.00    -0.014 A 
ATOM     87  C   UNL A   1      47.479  33.901  28.355  1.00  0.00     0.010 A 
ATOM     88  C   UNL A   1      48.296  32.972  30.439  1.00  0.00     0.010 A 
ATOM     89  C   UNL A   1      48.115  35.112  28.645  1.00  0.00     0.020 A 
ATOM     90  C   UNL A   1      48.908  34.192  30.747  1.00  0.00     0.020 A 
ATOM     91  C   UNL A   1      48.824  35.251  29.841  1.00  0.00     0.054 A 
BRANCH  91  92
ATOM     92  S   UNL A   1      49.600  36.847  30.216  1.00  0.00     0.124 S 
ATOM     93  O   UNL A   1      49.633  37.485  28.905  1.00  0.00    -0.237 OA
ATOM     94  O   UNL A   1      48.672  37.429  31.182  1.00  0.00    -0.237 OA
ATOM     95  O   UNL A   1      50.903  36.474  30.764  1.00  0.00    -0.744 OA
ENDBRANCH  91  92
ENDBRANCH  63  86
BRANCH  75  96
ATOM     96  C   UNL A   1      49.510  27.100  25.718  1.00  0.00    -0.014 A 
ATOM     97  C   UNL A   1      49.650  27.450  24.365  1.00  0.00     0.010 A 
ATOM     98  C   UNL A   1      50.588  26.490  26.386  1.00  0.00     0.010 A 
ATOM     99  C   UNL A   1      50.844  27.182  23.689  1.00  0.00     0.020 A 
ATOM    100  C   UNL A   1      51.792  26.248  25.722  1.00  0.00     0.020 A 
ATOM    101  C   UNL A   1      51.911  26.590  24.374  1.00  0.00     0.054 A 
BRANCH 101 102
ATOM    102  S   UNL A   1      53.475  26.326  23.496  1.00  0.00     0.124 S 
ATOM    103  O   UNL A   1      53.015  25.955  22.160  1.00  0.00    -0.237 OA
ATOM    104  O   UNL A   1      54.122  27.633  23.597  1.00  0.00    -0.237 OA
ATOM    105  O   UNL A   1      54.123  25.257  24.251  1.00  0.00    -0.744 OA
ENDBRANCH 101 102
ENDBRANCH  75  96
ENDBRANCH  49  50
ENDBRANCH  41  44
ENDBRANCH  39  40
ENDBRANCH  38  39
ENDBRANCH  37  38
ENDBRANCH   1  37
TORSDOF 22
ENDMDL
MODEL 3
REMARK VINA RESULT:     -10.7      6.408     10.744
REMARK SMILES CC(C)[C@H](NC(=O)[C@H](Cc1ccccc1)n1c(=O)[nH]c2ccccc2c1=O)C(=O)NCCCCCCNC(=O)c1ccc(-c2c3nc(c(-c4ccc(S(=O)(=O)[O-])cc4)c4ccc([nH]4)c(-c4ccc(S(=O)(=O)[O-])cc4)c4nc(c(-c5ccc(S(=O)(=O)[O-])cc5)c5ccc2[nH]5)C=C4)C=C3)cc1
REMARK SMILES IDX 33 1 32 2 31 3 30 4 28 5 29 6 4 8 2 9 1 10 3 11 5 12 6 13
REMARK SMILES IDX 7 15 8 16 16 17 17 18 26 19 18 20 19 21 25 22 27 23 20 24
REMARK SMILES IDX 24 26 21 27 23 28 22 29 9 30 10 31 11 32 15 33 12 34 14 35
REMARK SMILES IDX 13 36 34 37 35 38 36 39 37 40 38 41 39 43 40 44 41 45 99 46
REMARK SMILES IDX 42 47 98 48 43 49 44 50 45 51 92 52 46 53 97 54 91 55 93 56
REMARK SMILES IDX 47 57 96 58 90 59 89 60 48 62 78 63 59 64 77 65 60 66 63 67
REMARK SMILES IDX 76 68 94 69 61 70 62 71 75 73 95 74 64 75 49 76 50 77 58 78
REMARK SMILES IDX 51 79 57 80 52 81 53 82 54 83 55 84 56 85 79 86 80 87 88 88
REMARK SMILES IDX 81 89 87 90 82 91 83 92 84 93 85 94 86 95 65 96 66 97 74 98
REMARK SMILES IDX 67 99 73 100 68 101 69 102 70 103 71 104 72 105
REMARK H PARENT 30 7 5 14 19 25 37 42 93 61 63 72
REMARK Flexibility Score: inf
ROOT
ATOM      1  C   UNL A   1      39.733  22.264  27.200  1.00  0.00     0.002 C 
ENDROOT
BRANCH   1   2
ATOM      2  C   UNL A   1      38.744  21.788  26.137  1.00  0.00     0.021 C 
BRANCH   2   3
ATOM      3  C   UNL A   1      37.695  22.854  25.829  1.00  0.00     0.116 C 
BRANCH   3   4
ATOM      4  N   UNL A   1      37.754  23.230  24.445  1.00  0.00    -0.354 N 
ATOM      5  C   UNL A   1      36.743  23.205  23.539  1.00  0.00     0.242 C 
ATOM      6  O   UNL A   1      37.004  23.583  22.392  1.00  0.00    -0.273 OA
ATOM      7  H   UNL A   1      38.627  23.543  24.116  1.00  0.00     0.163 HD
BRANCH   5   8
ATOM      8  C   UNL A   1      35.276  22.874  23.947  1.00  0.00     0.173 C 
BRANCH   8   9
ATOM      9  C   UNL A   1      34.480  24.088  24.456  1.00  0.00     0.015 C 
ATOM     10  C   UNL A   1      35.076  24.861  25.635  1.00  0.00     0.010 C 
ATOM     11  C   UNL A   1      34.147  25.049  23.313  1.00  0.00     0.010 C 
ENDBRANCH   8   9
BRANCH   8  12
ATOM     12  N   UNL A   1      35.051  21.564  24.640  1.00  0.00    -0.342 N 
ATOM     13  C   UNL A   1      34.123  20.619  24.963  1.00  0.00     0.244 C 
ATOM     14  H   UNL A   1      35.915  21.269  25.007  1.00  0.00     0.164 HD
ATOM     15  O   UNL A   1      34.567  19.782  25.767  1.00  0.00    -0.273 OA
BRANCH  13  16
ATOM     16  C   UNL A   1      32.597  20.609  24.634  1.00  0.00     0.189 C 
BRANCH  16  17
ATOM     17  N   UNL A   1      31.960  21.898  24.369  1.00  0.00    -0.247 N 
ATOM     18  C   UNL A   1      31.777  22.261  23.040  1.00  0.00     0.329 A 
ATOM     19  C   UNL A   1      31.509  22.658  25.450  1.00  0.00     0.264 A 
ATOM     20  O   UNL A   1      32.333  21.713  22.091  1.00  0.00    -0.248 OA
ATOM     21  N   UNL A   1      30.978  23.344  22.808  1.00  0.00    -0.307 N 
ATOM     22  C   UNL A   1      30.903  23.963  25.126  1.00  0.00     0.064 A 
ATOM     23  O   UNL A   1      31.641  22.334  26.627  1.00  0.00    -0.268 OA
ATOM     24  C   UNL A   1      30.566  24.222  23.803  1.00  0.00     0.055 A 
ATOM     25  H   UNL A   1      30.677  23.511  21.885  1.00  0.00     0.171 HD
ATOM     26  C   UNL A   1      30.711  24.939  26.107  1.00  0.00     0.016 A 
ATOM     27  C   UNL A   1      29.919  25.407  23.462  1.00  0.00     0.027 A 
ATOM     28  C   UNL A   1      30.128  26.157  25.756  1.00  0.00     0.001 A 
ATOM     29  C   UNL A   1      29.703  26.377  24.444  1.00  0.00     0.002 A 
ENDBRANCH  16  17
BRANCH  16  30
ATOM     30  C   UNL A   1      32.141  19.474  23.650  1.00  0.00     0.071 C 
BRANCH  30  31
ATOM     31  C   UNL A   1      32.615  18.080  23.995  1.00  0.00    -0.045 A 
ATOM     32  C   UNL A   1      32.245  17.488  25.207  1.00  0.00     0.004 A 
ATOM     33  C   UNL A   1      33.555  17.434  23.174  1.00  0.00     0.004 A 
ATOM     34  C   UNL A   1      32.887  16.328  25.640  1.00  0.00     0.000 A 
ATOM     35  C   UNL A   1      34.214  16.292  23.623  1.00  0.00     0.000 A 
ATOM     36  C   UNL A   1      33.894  15.750  24.866  1.00  0.00     0.000 A 
ENDBRANCH  30  31
ENDBRANCH  16  30
ENDBRANCH  13  16
ENDBRANCH   8  12
ENDBRANCH   5   8
ENDBRANCH   3   4
ENDBRANCH   2   3
ENDBRANCH   1   2
BRANCH   1  37
ATOM     37  C   UNL A   1      41.184  22.317  26.702  1.00  0.00     0.002 C 
BRANCH  37  38
ATOM     38  C   UNL A   1      41.534  21.277  25.636  1.00  0.00     0.021 C 
BRANCH  38  39
ATOM     39  C   UNL A   1      42.195  20.020  26.189  1.00  0.00     0.116 C 
BRANCH  39  40
ATOM     40  N   UNL A   1      43.153  19.458  25.245  1.00  0.00    -0.352 N 
ATOM     41  C   UNL A   1      44.154  20.090  24.556  1.00  0.00     0.251 C 
ATOM     42  H   UNL A   1      43.069  18.491  25.078  1.00  0.00     0.163 HD
ATOM     43  O   UNL A   1      44.714  19.533  23.615  1.00  0.00    -0.269 OA
BRANCH  41  44
ATOM     44  C   UNL A   1      44.546  21.453  24.960  1.00  0.00     0.039 A 
ATOM     45  C   UNL A   1      44.145  22.544  24.187  1.00  0.00     0.014 A 
ATOM     46  C   UNL A   1      45.292  21.640  26.127  1.00  0.00     0.014 A 
ATOM     47  C   UNL A   1      44.447  23.837  24.619  1.00  0.00     0.010 A 
ATOM     48  C   UNL A   1      45.519  22.926  26.595  1.00  0.00     0.010 A 
ATOM     49  C   UNL A   1      45.109  24.037  25.842  1.00  0.00    -0.014 A 
BRANCH  49  50
ATOM     50  C   UNL A   1      45.419  25.392  26.355  1.00  0.00     0.031 A 
ATOM     51  C   UNL A   1      46.783  25.977  26.111  1.00  0.00     0.074 A 
ATOM     52  C   UNL A   1      44.520  26.048  27.114  1.00  0.00     0.049 A 
ATOM     53  N   UNL A   1      47.310  27.072  26.593  1.00  0.00    -0.248 NA
ATOM     54  C   UNL A   1      47.685  25.211  25.233  1.00  0.00     0.031 C 
ATOM     55  C   UNL A   1      43.172  25.574  27.436  1.00  0.00     0.029 A 
ATOM     56  N   UNL A   1      44.613  27.251  27.768  1.00  0.00    -0.354 N 
ATOM     57  C   UNL A   1      48.609  27.113  26.099  1.00  0.00     0.074 A 
ATOM     58  C   UNL A   1      48.807  25.908  25.325  1.00  0.00     0.031 C 
ATOM     59  C   UNL A   1      42.560  26.484  28.211  1.00  0.00     0.029 A 
ATOM     60  C   UNL A   1      43.486  27.578  28.485  1.00  0.00     0.049 A 
ATOM     61  H   UNL A   1      45.411  27.825  27.728  1.00  0.00     0.167 HD
ATOM     62  C   UNL A   1      49.547  28.075  26.262  1.00  0.00     0.031 A 
ATOM     63  C   UNL A   1      43.234  28.631  29.287  1.00  0.00     0.031 A 
ATOM     64  C   UNL A   1      49.337  29.274  27.030  1.00  0.00     0.049 A 
ATOM     65  C   UNL A   1      44.304  29.673  29.482  1.00  0.00     0.074 A 
ATOM     66  C   UNL A   1      50.206  30.332  27.223  1.00  0.00     0.029 A 
ATOM     67  N   UNL A   1      48.177  29.572  27.729  1.00  0.00    -0.354 N 
ATOM     68  N   UNL A   1      45.512  29.719  28.971  1.00  0.00    -0.248 NA
ATOM     69  C   UNL A   1      43.975  30.809  30.354  1.00  0.00     0.031 C 
ATOM     70  C   UNL A   1      49.592  31.245  28.086  1.00  0.00     0.029 A 
ATOM     71  C   UNL A   1      48.314  30.790  28.371  1.00  0.00     0.049 A 
ATOM     72  H   UNL A   1      47.375  29.002  27.763  1.00  0.00     0.167 HD
ATOM     73  C   UNL A   1      46.071  30.909  29.425  1.00  0.00     0.074 A 
ATOM     74  C   UNL A   1      45.068  31.553  30.250  1.00  0.00     0.031 C 
ATOM     75  C   UNL A   1      47.299  31.425  29.174  1.00  0.00     0.031 A 
BRANCH  62  76
ATOM     76  C   UNL A   1      50.886  27.861  25.607  1.00  0.00    -0.014 A 
ATOM     77  C   UNL A   1      51.144  28.333  24.306  1.00  0.00     0.010 A 
ATOM     78  C   UNL A   1      51.913  27.206  26.311  1.00  0.00     0.010 A 
ATOM     79  C   UNL A   1      52.385  28.110  23.705  1.00  0.00     0.020 A 
ATOM     80  C   UNL A   1      53.167  27.011  25.726  1.00  0.00     0.020 A 
ATOM     81  C   UNL A   1      53.389  27.448  24.419  1.00  0.00     0.054 A 
BRANCH  81  82
ATOM     82  S   UNL A   1      54.994  27.188  23.618  1.00  0.00     0.124 S 
ATOM     83  O   UNL A   1      54.604  26.929  22.235  1.00  0.00    -0.237 OA
ATOM     84  O   UNL A   1      55.676  28.460  23.850  1.00  0.00    -0.237 OA
ATOM     85  O   UNL A   1      55.558  26.044  24.331  1.00  0.00    -0.744 OA
ENDBRANCH  81  82
ENDBRANCH  62  76
BRANCH  63  86
ATOM     86  C   UNL A   1      41.910  28.760  29.956  1.00  0.00    -0.014 A 
ATOM     87  C   UNL A   1      40.844  29.406  29.306  1.00  0.00     0.010 A 
ATOM     88  C   UNL A   1      41.702  28.226  31.241  1.00  0.00     0.010 A 
ATOM     89  C   UNL A   1      39.601  29.534  29.934  1.00  0.00     0.020 A 
ATOM     90  C   UNL A   1      40.452  28.326  31.861  1.00  0.00     0.020 A 
ATOM     91  C   UNL A   1      39.412  28.991  31.208  1.00  0.00     0.054 A 
BRANCH  91  92
ATOM     92  S   UNL A   1      37.778  29.130  31.983  1.00  0.00     0.124 S 
ATOM     93  O   UNL A   1      37.735  27.936  32.820  1.00  0.00    -0.237 OA
ATOM     94  O   UNL A   1      37.874  30.402  32.695  1.00  0.00    -0.237 OA
ATOM     95  O   UNL A   1      36.859  29.130  30.846  1.00  0.00    -0.744 OA
ENDBRANCH  91  92
ENDBRANCH  63  86
BRANCH  75  96
ATOM     96  C   UNL A   1      47.619  32.784  29.738  1.00  0.00    -0.014 A 
ATOM     97  C   UNL A   1      48.487  32.941  30.832  1.00  0.00     0.010 A 
ATOM     98  C   UNL A   1      47.112  33.928  29.094  1.00  0.00     0.010 A 
ATOM     99  C   UNL A   1      48.831  34.220  31.280  1.00  0.00     0.020 A 
ATOM    100  C   UNL A   1      47.477  35.207  29.520  1.00  0.00     0.020 A 
ATOM    101  C   UNL A   1      48.329  35.345  30.616  1.00  0.00     0.054 A 
BRANCH 101 102
ATOM    102  S   UNL A   1      48.853  36.990  31.168  1.00  0.00     0.124 S 
ATOM    103  O   UNL A   1      48.573  36.935  32.601  1.00  0.00    -0.237 OA
ATOM    104  O   UNL A   1      50.268  37.014  30.805  1.00  0.00    -0.237 OA
ATOM    105  O   UNL A   1      48.005  37.901  30.403  1.00  0.00    -0.744 OA
ENDBRANCH 101 102
ENDBRANCH  75  96
ENDBRANCH  49  50
ENDBRANCH  41  44
ENDBRANCH  39  40
ENDBRANCH  38  39
ENDBRANCH  37  38
ENDBRANCH   1  37
TORSDOF 22
ENDMDL
