MODEL 1
REMARK VINA RESULT:     -11.4      0.000      0.000
REMARK SMILES C[C@@H](C(=O)NCCCCCCNC(=O)c1ccc(-c2c3nc(c(-c4ccc(S(=O)(=O)[O-])cc4)c4ccc([nH]4)c(-c4ccc(S(=O)(=O)[O-])cc4)c4nc(c(-c5ccc(S(=O)(=O)[O-])cc5)c5ccc2[nH]5)C=C4)C=C3)cc1)c1ccc(-c2ccn(C(F)F)c(=O)c2)cc1
REMARK SMILES IDX 8 1 7 2 6 3 5 4 3 5 4 6 2 8 1 9 75 10 76 11 90 12 77 13
REMARK SMILES IDX 89 14 78 15 79 16 80 17 88 18 81 19 86 20 82 21 87 22 83 23
REMARK SMILES IDX 84 24 85 25 9 26 10 27 11 28 12 29 13 30 14 32 15 33 16 34
REMARK SMILES IDX 74 35 17 36 73 37 18 38 19 39 20 40 67 41 21 42 72 43 66 44
REMARK SMILES IDX 68 45 22 46 71 47 65 48 64 49 23 51 53 52 34 53 52 54 35 55
REMARK SMILES IDX 38 56 51 57 69 58 36 59 37 60 50 62 70 63 39 64 24 65 25 66
REMARK SMILES IDX 33 67 26 68 32 69 27 70 28 71 29 72 30 73 31 74 54 75 55 76
REMARK SMILES IDX 63 77 56 78 62 79 57 80 58 81 59 82 60 83 61 84 40 85 41 86
REMARK SMILES IDX 49 87 42 88 48 89 43 90 44 91 45 92 46 93 47 94
REMARK H PARENT 5 7 12 31 68 50 38 61
REMARK Flexibility Score: inf
ROOT
ATOM      1  C   UNL A   1      33.639  24.589  26.097  1.00  0.00     0.002 C 
ENDROOT
BRANCH   1   2
ATOM      2  C   UNL A   1      34.092  25.953  25.557  1.00  0.00     0.021 C 
BRANCH   2   3
ATOM      3  C   UNL A   1      32.955  26.815  24.997  1.00  0.00     0.116 C 
BRANCH   3   4
ATOM      4  N   UNL A   1      33.349  27.390  23.726  1.00  0.00    -0.356 N 
ATOM      5  C   UNL A   1      33.059  26.983  22.456  1.00  0.00     0.227 C 
ATOM      6  O   UNL A   1      33.774  27.430  21.557  1.00  0.00    -0.274 OA
ATOM      7  H   UNL A   1      33.912  28.195  23.789  1.00  0.00     0.163 HD
BRANCH   5   8
ATOM      8  C   UNL A   1      31.851  26.055  22.202  1.00  0.00     0.105 C 
ATOM      9  C   UNL A   1      30.581  26.692  22.778  1.00  0.00     0.023 C 
BRANCH   8  10
ATOM     10  C   UNL A   1      32.091  24.621  22.706  1.00  0.00    -0.036 A 
ATOM     11  C   UNL A   1      33.245  23.890  22.378  1.00  0.00     0.005 A 
ATOM     12  C   UNL A   1      31.148  24.006  23.548  1.00  0.00     0.005 A 
ATOM     13  C   UNL A   1      33.419  22.576  22.819  1.00  0.00     0.009 A 
ATOM     14  C   UNL A   1      31.313  22.685  23.978  1.00  0.00     0.009 A 
ATOM     15  C   UNL A   1      32.448  21.960  23.610  1.00  0.00    -0.018 A 
BRANCH  15  16
ATOM     16  C   UNL A   1      32.602  20.559  24.033  1.00  0.00    -0.011 A 
ATOM     17  C   UNL A   1      32.800  20.181  25.418  1.00  0.00     0.027 A 
ATOM     18  C   UNL A   1      32.563  19.604  23.089  1.00  0.00     0.080 A 
ATOM     19  C   UNL A   1      32.965  18.896  25.752  1.00  0.00     0.095 A 
ATOM     20  C   UNL A   1      32.738  18.170  23.446  1.00  0.00     0.255 A 
ATOM     21  N   UNL A   1      32.943  17.902  24.792  1.00  0.00    -0.258 N 
ATOM     22  O   UNL A   1      32.695  17.331  22.552  1.00  0.00    -0.269 OA
BRANCH  21  23
ATOM     23  C   UNL A   1      33.152  16.527  25.157  1.00  0.00     0.451 C 
ATOM     24  F   UNL A   1      32.168  15.731  24.672  1.00  0.00    -0.185 F 
ATOM     25  F   UNL A   1      34.336  16.071  24.678  1.00  0.00    -0.185 F 
ENDBRANCH  21  23
ENDBRANCH  15  16
ENDBRANCH   8  10
ENDBRANCH   5   8
ENDBRANCH   3   4
ENDBRANCH   2   3
ENDBRANCH   1   2
BRANCH   1  26
ATOM     26  C   UNL A   1      34.772  23.622  26.447  1.00  0.00     0.002 C 
BRANCH  26  27
ATOM     27  C   UNL A   1      35.630  23.182  25.260  1.00  0.00     0.021 C 
BRANCH  27  28
ATOM     28  C   UNL A   1      37.031  23.782  25.240  1.00  0.00     0.116 C 
BRANCH  28  29
ATOM     29  N   UNL A   1      38.055  22.793  25.542  1.00  0.00    -0.352 N 
ATOM     30  C   UNL A   1      39.256  22.980  26.183  1.00  0.00     0.251 C 
ATOM     31  H   UNL A   1      37.862  21.873  25.252  1.00  0.00     0.163 HD
ATOM     32  O   UNL A   1      40.100  22.090  26.202  1.00  0.00    -0.269 OA
BRANCH  30  33
ATOM     33  C   UNL A   1      39.524  24.280  26.832  1.00  0.00     0.039 A 
ATOM     34  C   UNL A   1      39.051  24.513  28.125  1.00  0.00     0.014 A 
ATOM     35  C   UNL A   1      40.276  25.251  26.164  1.00  0.00     0.014 A 
ATOM     36  C   UNL A   1      39.386  25.702  28.778  1.00  0.00     0.010 A 
ATOM     37  C   UNL A   1      40.661  26.404  26.838  1.00  0.00     0.010 A 
ATOM     38  C   UNL A   1      40.216  26.642  28.149  1.00  0.00    -0.014 A 
BRANCH  38  39
ATOM     39  C   UNL A   1      40.629  27.903  28.815  1.00  0.00     0.031 A 
ATOM     40  C   UNL A   1      41.955  27.966  29.518  1.00  0.00     0.074 A 
ATOM     41  C   UNL A   1      39.771  28.939  28.891  1.00  0.00     0.049 A 
ATOM     42  N   UNL A   1      42.427  28.891  30.312  1.00  0.00    -0.248 NA
ATOM     43  C   UNL A   1      42.851  26.813  29.333  1.00  0.00     0.031 C 
ATOM     44  C   UNL A   1      38.443  28.989  28.276  1.00  0.00     0.029 A 
ATOM     45  N   UNL A   1      39.880  30.138  29.551  1.00  0.00    -0.354 N 
ATOM     46  C   UNL A   1      43.655  28.414  30.753  1.00  0.00     0.074 A 
ATOM     47  C   UNL A   1      43.837  27.104  30.167  1.00  0.00     0.031 C 
ATOM     48  C   UNL A   1      37.860  30.157  28.588  1.00  0.00     0.029 A 
ATOM     49  C   UNL A   1      38.751  30.919  29.460  1.00  0.00     0.049 A 
ATOM     50  H   UNL A   1      40.688  30.413  30.041  1.00  0.00     0.167 HD
ATOM     51  C   UNL A   1      44.554  29.016  31.569  1.00  0.00     0.031 A 
ATOM     52  C   UNL A   1      38.455  32.102  30.033  1.00  0.00     0.031 A 
ATOM     53  C   UNL A   1      44.374  30.324  32.135  1.00  0.00     0.049 A 
ATOM     54  C   UNL A   1      39.470  32.765  30.922  1.00  0.00     0.074 A 
ATOM     55  C   UNL A   1      45.249  31.049  32.925  1.00  0.00     0.029 A 
ATOM     56  N   UNL A   1      43.239  31.105  31.972  1.00  0.00    -0.354 N 
ATOM     57  N   UNL A   1      40.649  32.324  31.291  1.00  0.00    -0.248 NA
ATOM     58  C   UNL A   1      39.123  34.085  31.465  1.00  0.00     0.031 C 
ATOM     59  C   UNL A   1      44.625  32.252  33.273  1.00  0.00     0.029 A 
ATOM     60  C   UNL A   1      43.384  32.298  32.657  1.00  0.00     0.049 A 
ATOM     61  H   UNL A   1      42.447  30.849  31.446  1.00  0.00     0.167 HD
ATOM     62  C   UNL A   1      41.198  33.326  32.083  1.00  0.00     0.074 A 
ATOM     63  C   UNL A   1      40.222  34.394  32.143  1.00  0.00     0.031 C 
ATOM     64  C   UNL A   1      42.406  33.358  32.696  1.00  0.00     0.031 A 
BRANCH  51  65
ATOM     65  C   UNL A   1      45.796  28.238  31.913  1.00  0.00    -0.014 A 
ATOM     66  C   UNL A   1      46.985  28.393  31.175  1.00  0.00     0.010 A 
ATOM     67  C   UNL A   1      45.770  27.322  32.981  1.00  0.00     0.010 A 
ATOM     68  C   UNL A   1      48.098  27.594  31.450  1.00  0.00     0.020 A 
ATOM     69  C   UNL A   1      46.892  26.544  33.280  1.00  0.00     0.020 A 
ATOM     70  C   UNL A   1      48.038  26.664  32.491  1.00  0.00     0.054 A 
BRANCH  70  71
ATOM     71  S   UNL A   1      49.483  25.614  32.808  1.00  0.00     0.124 S 
ATOM     72  O   UNL A   1      48.931  24.615  33.721  1.00  0.00    -0.237 OA
ATOM     73  O   UNL A   1      49.826  25.124  31.475  1.00  0.00    -0.237 OA
ATOM     74  O   UNL A   1      50.454  26.530  33.401  1.00  0.00    -0.744 OA
ENDBRANCH  70  71
ENDBRANCH  51  65
BRANCH  52  75
ATOM     75  C   UNL A   1      37.133  32.729  29.762  1.00  0.00    -0.014 A 
ATOM     76  C   UNL A   1      36.088  32.615  30.694  1.00  0.00     0.010 A 
ATOM     77  C   UNL A   1      36.940  33.507  28.606  1.00  0.00     0.010 A 
ATOM     78  C   UNL A   1      34.876  33.277  30.480  1.00  0.00     0.020 A 
ATOM     79  C   UNL A   1      35.736  34.188  28.399  1.00  0.00     0.020 A 
ATOM     80  C   UNL A   1      34.711  34.068  29.339  1.00  0.00     0.054 A 
BRANCH  80  81
ATOM     81  S   UNL A   1      33.167  35.002  29.137  1.00  0.00     0.124 S 
ATOM     82  O   UNL A   1      33.655  36.305  28.697  1.00  0.00    -0.237 OA
ATOM     83  O   UNL A   1      32.455  34.219  28.131  1.00  0.00    -0.237 OA
ATOM     84  O   UNL A   1      32.574  34.971  30.472  1.00  0.00    -0.744 OA
ENDBRANCH  80  81
ENDBRANCH  52  75
BRANCH  64  85
ATOM     85  C   UNL A   1      42.779  34.603  33.453  1.00  0.00    -0.014 A 
ATOM     86  C   UNL A   1      42.563  34.708  34.838  1.00  0.00     0.010 A 
ATOM     87  C   UNL A   1      43.461  35.635  32.782  1.00  0.00     0.010 A 
ATOM     88  C   UNL A   1      43.024  35.826  35.539  1.00  0.00     0.020 A 
ATOM     89  C   UNL A   1      43.941  36.743  33.483  1.00  0.00     0.020 A 
ATOM     90  C   UNL A   1      43.717  36.833  34.858  1.00  0.00     0.054 A 
BRANCH  90  91
ATOM     91  S   UNL A   1      44.390  38.226  35.806  1.00  0.00     0.124 S 
ATOM     92  O   UNL A   1      45.819  37.927  35.814  1.00  0.00    -0.237 OA
ATOM     93  O   UNL A   1      43.994  39.382  35.006  1.00  0.00    -0.237 OA
ATOM     94  O   UNL A   1      43.723  38.116  37.103  1.00  0.00    -0.744 OA
ENDBRANCH  90  91
ENDBRANCH  64  85
ENDBRANCH  38  39
ENDBRANCH  30  33
ENDBRANCH  28  29
ENDBRANCH  27  28
ENDBRANCH  26  27
ENDBRANCH   1  26
TORSDOF 19
ENDMDL
MODEL 2
REMARK VINA RESULT:     -10.9      2.829      8.278
REMARK SMILES C[C@@H](C(=O)NCCCCCCNC(=O)c1ccc(-c2c3nc(c(-c4ccc(S(=O)(=O)[O-])cc4)c4ccc([nH]4)c(-c4ccc(S(=O)(=O)[O-])cc4)c4nc(c(-c5ccc(S(=O)(=O)[O-])cc5)c5ccc2[nH]5)C=C4)C=C3)cc1)c1ccc(-c2ccn(C(F)F)c(=O)c2)cc1
REMARK SMILES IDX 8 1 7 2 6 3 5 4 3 5 4 6 2 8 1 9 75 10 76 11 90 12 77 13
REMARK SMILES IDX 89 14 78 15 79 16 80 17 88 18 81 19 86 20 82 21 87 22 83 23
REMARK SMILES IDX 84 24 85 25 9 26 10 27 11 28 12 29 13 30 14 32 15 33 16 34
REMARK SMILES IDX 74 35 17 36 73 37 18 38 19 39 20 40 67 41 21 42 72 43 66 44
REMARK SMILES IDX 68 45 22 46 71 47 65 48 64 49 23 51 53 52 34 53 52 54 35 55
REMARK SMILES IDX 38 56 51 57 69 58 36 59 37 60 50 62 70 63 39 64 24 65 25 66
REMARK SMILES IDX 33 67 26 68 32 69 27 70 28 71 29 72 30 73 31 74 54 75 55 76
REMARK SMILES IDX 63 77 56 78 62 79 57 80 58 81 59 82 60 83 61 84 40 85 41 86
REMARK SMILES IDX 49 87 42 88 48 89 43 90 44 91 45 92 46 93 47 94
REMARK H PARENT 5 7 12 31 68 50 38 61
REMARK Flexibility Score: inf
ROOT
ATOM      1  C   UNL A   1      33.227  24.914  26.110  1.00  0.00     0.002 C 
ENDROOT
BRANCH   1   2
ATOM      2  C   UNL A   1      33.892  26.182  25.557  1.00  0.00     0.021 C 
BRANCH   2   3
ATOM      3  C   UNL A   1      32.906  27.212  24.994  1.00  0.00     0.116 C 
BRANCH   3   4
ATOM      4  N   UNL A   1      33.410  27.747  23.745  1.00  0.00    -0.356 N 
ATOM      5  C   UNL A   1      33.174  27.341  22.463  1.00  0.00     0.227 C 
ATOM      6  O   UNL A   1      33.968  27.735  21.605  1.00  0.00    -0.274 OA
ATOM      7  H   UNL A   1      34.013  28.520  23.834  1.00  0.00     0.163 HD
BRANCH   5   8
ATOM      8  C   UNL A   1      31.933  26.480  22.143  1.00  0.00     0.105 C 
ATOM      9  C   UNL A   1      30.681  27.142  22.731  1.00  0.00     0.023 C 
BRANCH   8  10
ATOM     10  C   UNL A   1      32.104  25.014  22.577  1.00  0.00    -0.036 A 
ATOM     11  C   UNL A   1      33.231  24.250  22.230  1.00  0.00     0.005 A 
ATOM     12  C   UNL A   1      31.121  24.399  23.373  1.00  0.00     0.005 A 
ATOM     13  C   UNL A   1      33.341  22.910  22.606  1.00  0.00     0.009 A 
ATOM     14  C   UNL A   1      31.223  23.052  23.739  1.00  0.00     0.009 A 
ATOM     15  C   UNL A   1      32.332  22.298  23.351  1.00  0.00    -0.018 A 
BRANCH  15  16
ATOM     16  C   UNL A   1      32.419  20.872  23.705  1.00  0.00    -0.011 A 
ATOM     17  C   UNL A   1      32.653  20.420  25.062  1.00  0.00     0.027 A 
ATOM     18  C   UNL A   1      32.283  19.966  22.723  1.00  0.00     0.080 A 
ATOM     19  C   UNL A   1      32.754  19.113  25.332  1.00  0.00     0.095 A 
ATOM     20  C   UNL A   1      32.386  18.509  23.010  1.00  0.00     0.255 A 
ATOM     21  N   UNL A   1      32.632  18.168  24.331  1.00  0.00    -0.258 N 
ATOM     22  O   UNL A   1      32.254  17.717  22.082  1.00  0.00    -0.269 OA
BRANCH  21  23
ATOM     23  C   UNL A   1      32.773  16.767  24.626  1.00  0.00     0.451 C 
ATOM     24  F   UNL A   1      33.745  16.198  23.871  1.00  0.00    -0.185 F 
ATOM     25  F   UNL A   1      33.087  16.574  25.931  1.00  0.00    -0.185 F 
ENDBRANCH  21  23
ENDBRANCH  15  16
ENDBRANCH   8  10
ENDBRANCH   5   8
ENDBRANCH   3   4
ENDBRANCH   2   3
ENDBRANCH   1   2
BRANCH   1  26
ATOM     26  C   UNL A   1      34.185  23.762  26.422  1.00  0.00     0.002 C 
BRANCH  26  27
ATOM     27  C   UNL A   1      35.360  23.625  25.453  1.00  0.00     0.021 C 
BRANCH  27  28
ATOM     28  C   UNL A   1      36.732  23.726  26.110  1.00  0.00     0.116 C 
BRANCH  28  29
ATOM     29  N   UNL A   1      37.459  22.467  26.054  1.00  0.00    -0.352 N 
ATOM     30  C   UNL A   1      38.811  22.259  26.189  1.00  0.00     0.251 C 
ATOM     31  H   UNL A   1      36.913  21.662  25.902  1.00  0.00     0.163 HD
ATOM     32  O   UNL A   1      39.303  21.165  25.934  1.00  0.00    -0.269 OA
BRANCH  30  33
ATOM     33  C   UNL A   1      39.666  23.382  26.627  1.00  0.00     0.039 A 
ATOM     34  C   UNL A   1      39.692  24.558  25.875  1.00  0.00     0.014 A 
ATOM     35  C   UNL A   1      40.411  23.273  27.804  1.00  0.00     0.014 A 
ATOM     36  C   UNL A   1      40.422  25.655  26.337  1.00  0.00     0.010 A 
ATOM     37  C   UNL A   1      41.085  24.385  28.294  1.00  0.00     0.010 A 
ATOM     38  C   UNL A   1      41.100  25.585  27.564  1.00  0.00    -0.014 A 
BRANCH  38  39
ATOM     39  C   UNL A   1      41.860  26.736  28.114  1.00  0.00     0.031 A 
ATOM     40  C   UNL A   1      41.112  27.903  28.695  1.00  0.00     0.074 A 
ATOM     41  C   UNL A   1      43.199  26.786  27.982  1.00  0.00     0.049 A 
ATOM     42  N   UNL A   1      41.561  29.076  29.056  1.00  0.00    -0.248 NA
ATOM     43  C   UNL A   1      39.658  27.737  28.854  1.00  0.00     0.031 C 
ATOM     44  C   UNL A   1      44.037  25.731  27.408  1.00  0.00     0.029 A 
ATOM     45  N   UNL A   1      44.087  27.786  28.295  1.00  0.00    -0.354 N 
ATOM     46  C   UNL A   1      40.442  29.802  29.444  1.00  0.00     0.074 A 
ATOM     47  C   UNL A   1      39.292  28.949  29.241  1.00  0.00     0.031 C 
ATOM     48  C   UNL A   1      45.315  26.139  27.409  1.00  0.00     0.029 A 
ATOM     49  C   UNL A   1      45.384  27.499  27.939  1.00  0.00     0.049 A 
ATOM     50  H   UNL A   1      43.822  28.627  28.732  1.00  0.00     0.167 HD
ATOM     51  C   UNL A   1      40.378  31.065  29.932  1.00  0.00     0.031 A 
ATOM     52  C   UNL A   1      46.500  28.252  28.008  1.00  0.00     0.031 A 
ATOM     53  C   UNL A   1      41.527  31.901  30.146  1.00  0.00     0.049 A 
ATOM     54  C   UNL A   1      46.415  29.644  28.567  1.00  0.00     0.074 A 
ATOM     55  C   UNL A   1      41.578  33.172  30.691  1.00  0.00     0.029 A 
ATOM     56  N   UNL A   1      42.831  31.550  29.824  1.00  0.00    -0.354 N 
ATOM     57  N   UNL A   1      45.356  30.300  28.977  1.00  0.00    -0.248 NA
ATOM     58  C   UNL A   1      47.673  30.395  28.683  1.00  0.00     0.031 C 
ATOM     59  C   UNL A   1      42.908  33.605  30.660  1.00  0.00     0.029 A 
ATOM     60  C   UNL A   1      43.692  32.584  30.145  1.00  0.00     0.049 A 
ATOM     61  H   UNL A   1      43.102  30.691  29.426  1.00  0.00     0.167 HD
ATOM     62  C   UNL A   1      45.823  31.529  29.430  1.00  0.00     0.074 A 
ATOM     63  C   UNL A   1      47.259  31.527  29.241  1.00  0.00     0.031 C 
ATOM     64  C   UNL A   1      45.122  32.560  29.962  1.00  0.00     0.031 A 
BRANCH  51  65
ATOM     65  C   UNL A   1      39.010  31.614  30.234  1.00  0.00    -0.014 A 
ATOM     66  C   UNL A   1      38.358  31.328  31.448  1.00  0.00     0.010 A 
ATOM     67  C   UNL A   1      38.357  32.418  29.281  1.00  0.00     0.010 A 
ATOM     68  C   UNL A   1      37.052  31.770  31.671  1.00  0.00     0.020 A 
ATOM     69  C   UNL A   1      37.062  32.889  29.514  1.00  0.00     0.020 A 
ATOM     70  C   UNL A   1      36.407  32.534  30.695  1.00  0.00     0.054 A 
BRANCH  70  71
ATOM     71  S   UNL A   1      34.699  33.068  30.992  1.00  0.00     0.124 S 
ATOM     72  O   UNL A   1      34.357  32.318  32.198  1.00  0.00    -0.237 OA
ATOM     73  O   UNL A   1      34.836  34.511  31.170  1.00  0.00    -0.237 OA
ATOM     74  O   UNL A   1      33.992  32.657  29.781  1.00  0.00    -0.744 OA
ENDBRANCH  70  71
ENDBRANCH  51  65
BRANCH  52  75
ATOM     75  C   UNL A   1      47.791  27.680  27.538  1.00  0.00    -0.014 A 
ATOM     76  C   UNL A   1      48.227  27.900  26.220  1.00  0.00     0.010 A 
ATOM     77  C   UNL A   1      48.625  26.980  28.429  1.00  0.00     0.010 A 
ATOM     78  C   UNL A   1      49.479  27.438  25.805  1.00  0.00     0.020 A 
ATOM     79  C   UNL A   1      49.887  26.536  28.023  1.00  0.00     0.020 A 
ATOM     80  C   UNL A   1      50.306  26.768  26.712  1.00  0.00     0.054 A 
BRANCH  80  81
ATOM     81  S   UNL A   1      51.969  26.273  26.180  1.00  0.00     0.124 S 
ATOM     82  O   UNL A   1      51.932  26.568  24.751  1.00  0.00    -0.237 OA
ATOM     83  O   UNL A   1      52.828  27.139  26.984  1.00  0.00    -0.237 OA
ATOM     84  O   UNL A   1      52.029  24.855  26.527  1.00  0.00    -0.744 OA
ENDBRANCH  80  81
ENDBRANCH  52  75
BRANCH  64  85
ATOM     85  C   UNL A   1      45.890  33.767  30.428  1.00  0.00    -0.014 A 
ATOM     86  C   UNL A   1      46.412  33.841  31.731  1.00  0.00     0.010 A 
ATOM     87  C   UNL A   1      46.188  34.788  29.507  1.00  0.00     0.010 A 
ATOM     88  C   UNL A   1      47.220  34.919  32.104  1.00  0.00     0.020 A 
ATOM     89  C   UNL A   1      47.013  35.855  29.870  1.00  0.00     0.020 A 
ATOM     90  C   UNL A   1      47.522  35.915  31.168  1.00  0.00     0.054 A 
BRANCH  90  91
ATOM     91  S   UNL A   1      48.653  37.251  31.648  1.00  0.00     0.124 S 
ATOM     92  O   UNL A   1      49.639  37.215  30.572  1.00  0.00    -0.237 OA
ATOM     93  O   UNL A   1      47.780  38.422  31.661  1.00  0.00    -0.237 OA
ATOM     94  O   UNL A   1      49.145  36.833  32.959  1.00  0.00    -0.744 OA
ENDBRANCH  90  91
ENDBRANCH  64  85
ENDBRANCH  38  39
ENDBRANCH  30  33
ENDBRANCH  28  29
ENDBRANCH  27  28
ENDBRANCH  26  27
ENDBRANCH   1  26
TORSDOF 19
ENDMDL
MODEL 3
REMARK VINA RESULT:     -10.3      4.954     10.099
REMARK SMILES C[C@@H](C(=O)NCCCCCCNC(=O)c1ccc(-c2c3nc(c(-c4ccc(S(=O)(=O)[O-])cc4)c4ccc([nH]4)c(-c4ccc(S(=O)(=O)[O-])cc4)c4nc(c(-c5ccc(S(=O)(=O)[O-])cc5)c5ccc2[nH]5)C=C4)C=C3)cc1)c1ccc(-c2ccn(C(F)F)c(=O)c2)cc1
REMARK SMILES IDX 8 1 7 2 6 3 5 4 3 5 4 6 2 8 1 9 75 10 76 11 90 12 77 13
REMARK SMILES IDX 89 14 78 15 79 16 80 17 88 18 81 19 86 20 82 21 87 22 83 23
REMARK SMILES IDX 84 24 85 25 9 26 10 27 11 28 12 29 13 30 14 32 15 33 16 34
REMARK SMILES IDX 74 35 17 36 73 37 18 38 19 39 20 40 67 41 21 42 72 43 66 44
REMARK SMILES IDX 68 45 22 46 71 47 65 48 64 49 23 51 53 52 34 53 52 54 35 55
REMARK SMILES IDX 38 56 51 57 69 58 36 59 37 60 50 62 70 63 39 64 24 65 25 66
REMARK SMILES IDX 33 67 26 68 32 69 27 70 28 71 29 72 30 73 31 74 54 75 55 76
REMARK SMILES IDX 63 77 56 78 62 79 57 80 58 81 59 82 60 83 61 84 40 85 41 86
REMARK SMILES IDX 49 87 42 88 48 89 43 90 44 91 45 92 46 93 47 94
REMARK H PARENT 5 7 12 31 68 50 38 61
REMARK Flexibility Score: inf
ROOT
ATOM      1  C   UNL A   1      36.690  22.710  24.730  1.00  0.00     0.002 C 
ENDROOT
BRANCH   1   2
ATOM      2  C   UNL A   1      35.481  23.415  24.097  1.00  0.00     0.021 C 
BRANCH   2   3
ATOM      3  C   UNL A   1      34.592  24.158  25.100  1.00  0.00     0.116 C 
BRANCH   3   4
ATOM      4  N   UNL A   1      34.428  23.361  26.300  1.00  0.00    -0.356 N 
ATOM      5  C   UNL A   1      33.341  22.663  26.743  1.00  0.00     0.227 C 
ATOM      6  O   UNL A   1      33.337  22.348  27.935  1.00  0.00    -0.274 OA
ATOM      7  H   UNL A   1      35.219  23.317  26.884  1.00  0.00     0.163 HD
BRANCH   5   8
ATOM      8  C   UNL A   1      32.227  22.263  25.752  1.00  0.00     0.105 C 
ATOM      9  C   UNL A   1      32.793  21.304  24.698  1.00  0.00     0.023 C 
BRANCH   8  10
ATOM     10  C   UNL A   1      31.514  23.481  25.141  1.00  0.00    -0.036 A 
ATOM     11  C   UNL A   1      31.184  23.557  23.778  1.00  0.00     0.005 A 
ATOM     12  C   UNL A   1      31.145  24.563  25.961  1.00  0.00     0.005 A 
ATOM     13  C   UNL A   1      30.570  24.693  23.243  1.00  0.00     0.009 A 
ATOM     14  C   UNL A   1      30.545  25.707  25.425  1.00  0.00     0.009 A 
ATOM     15  C   UNL A   1      30.259  25.780  24.060  1.00  0.00    -0.018 A 
BRANCH  15  16
ATOM     16  C   UNL A   1      29.661  26.999  23.492  1.00  0.00    -0.011 A 
ATOM     17  C   UNL A   1      30.426  27.954  22.717  1.00  0.00     0.027 A 
ATOM     18  C   UNL A   1      28.356  27.227  23.716  1.00  0.00     0.080 A 
ATOM     19  C   UNL A   1      29.846  29.064  22.245  1.00  0.00     0.095 A 
ATOM     20  C   UNL A   1      27.695  28.453  23.191  1.00  0.00     0.255 A 
ATOM     21  N   UNL A   1      28.509  29.321  22.478  1.00  0.00    -0.258 N 
ATOM     22  O   UNL A   1      26.501  28.621  23.418  1.00  0.00    -0.269 OA
BRANCH  21  23
ATOM     23  C   UNL A   1      27.901  30.532  21.994  1.00  0.00     0.451 C 
ATOM     24  F   UNL A   1      27.297  31.218  22.994  1.00  0.00    -0.185 F 
ATOM     25  F   UNL A   1      28.825  31.345  21.424  1.00  0.00    -0.185 F 
ENDBRANCH  21  23
ENDBRANCH  15  16
ENDBRANCH   8  10
ENDBRANCH   5   8
ENDBRANCH   3   4
ENDBRANCH   2   3
ENDBRANCH   1   2
BRANCH   1  26
ATOM     26  C   UNL A   1      36.858  21.239  24.342  1.00  0.00     0.002 C 
BRANCH  26  27
ATOM     27  C   UNL A   1      37.635  20.394  25.352  1.00  0.00     0.021 C 
BRANCH  27  28
ATOM     28  C   UNL A   1      39.028  20.922  25.674  1.00  0.00     0.116 C 
BRANCH  28  29
ATOM     29  N   UNL A   1      39.980  19.846  25.907  1.00  0.00    -0.352 N 
ATOM     30  C   UNL A   1      41.299  19.943  26.281  1.00  0.00     0.251 C 
ATOM     31  H   UNL A   1      39.635  18.933  25.783  1.00  0.00     0.163 HD
ATOM     32  O   UNL A   1      42.029  18.958  26.259  1.00  0.00    -0.269 OA
BRANCH  30  33
ATOM     33  C   UNL A   1      41.830  21.260  26.689  1.00  0.00     0.039 A 
ATOM     34  C   UNL A   1      42.161  21.482  28.028  1.00  0.00     0.014 A 
ATOM     35  C   UNL A   1      42.030  22.259  25.732  1.00  0.00     0.014 A 
ATOM     36  C   UNL A   1      42.754  22.691  28.400  1.00  0.00     0.010 A 
ATOM     37  C   UNL A   1      42.677  23.434  26.092  1.00  0.00     0.010 A 
ATOM     38  C   UNL A   1      43.042  23.664  27.429  1.00  0.00    -0.014 A 
BRANCH  38  39
ATOM     39  C   UNL A   1      43.703  24.949  27.770  1.00  0.00     0.031 A 
ATOM     40  C   UNL A   1      42.867  26.107  28.237  1.00  0.00     0.074 A 
ATOM     41  C   UNL A   1      45.021  25.110  27.547  1.00  0.00     0.049 A 
ATOM     42  N   UNL A   1      43.208  27.357  28.407  1.00  0.00    -0.248 NA
ATOM     43  C   UNL A   1      41.449  25.824  28.509  1.00  0.00     0.031 C 
ATOM     44  C   UNL A   1      45.935  24.072  27.066  1.00  0.00     0.029 A 
ATOM     45  N   UNL A   1      45.814  26.225  27.664  1.00  0.00    -0.354 N 
ATOM     46  C   UNL A   1      42.039  28.018  28.766  1.00  0.00     0.074 A 
ATOM     47  C   UNL A   1      40.976  27.036  28.753  1.00  0.00     0.031 C 
ATOM     48  C   UNL A   1      47.162  24.599  26.929  1.00  0.00     0.029 A 
ATOM     49  C   UNL A   1      47.114  26.019  27.267  1.00  0.00     0.049 A 
ATOM     50  H   UNL A   1      45.484  27.089  28.001  1.00  0.00     0.167 HD
ATOM     51  C   UNL A   1      41.867  29.324  29.083  1.00  0.00     0.031 A 
ATOM     52  C   UNL A   1      48.146  26.880  27.162  1.00  0.00     0.031 A 
ATOM     53  C   UNL A   1      42.931  30.290  29.108  1.00  0.00     0.049 A 
ATOM     54  C   UNL A   1      47.944  28.321  27.534  1.00  0.00     0.074 A 
ATOM     55  C   UNL A   1      42.875  31.623  29.474  1.00  0.00     0.029 A 
ATOM     56  N   UNL A   1      44.246  30.025  28.753  1.00  0.00    -0.354 N 
ATOM     57  N   UNL A   1      46.843  28.922  27.920  1.00  0.00    -0.248 NA
ATOM     58  C   UNL A   1      49.119  29.201  27.467  1.00  0.00     0.031 C 
ATOM     59  C   UNL A   1      44.148  32.175  29.299  1.00  0.00     0.029 A 
ATOM     60  C   UNL A   1      45.008  31.173  28.876  1.00  0.00     0.049 A 
ATOM     61  H   UNL A   1      44.586  29.150  28.457  1.00  0.00     0.167 HD
ATOM     62  C   UNL A   1      47.200  30.242  28.173  1.00  0.00     0.074 A 
ATOM     63  C   UNL A   1      48.617  30.354  27.893  1.00  0.00     0.031 C 
ATOM     64  C   UNL A   1      46.422  31.264  28.606  1.00  0.00     0.031 A 
BRANCH  51  65
ATOM     65  C   UNL A   1      40.466  29.774  29.397  1.00  0.00    -0.014 A 
ATOM     66  C   UNL A   1      39.494  29.903  28.387  1.00  0.00     0.010 A 
ATOM     67  C   UNL A   1      40.119  30.092  30.723  1.00  0.00     0.010 A 
ATOM     68  C   UNL A   1      38.227  30.411  28.684  1.00  0.00     0.020 A 
ATOM     69  C   UNL A   1      38.842  30.571  31.030  1.00  0.00     0.020 A 
ATOM     70  C   UNL A   1      37.915  30.756  30.002  1.00  0.00     0.054 A 
BRANCH  70  71
ATOM     71  S   UNL A   1      36.276  31.447  30.358  1.00  0.00     0.124 S 
ATOM     72  O   UNL A   1      36.564  32.878  30.429  1.00  0.00    -0.237 OA
ATOM     73  O   UNL A   1      35.488  31.023  29.205  1.00  0.00    -0.237 OA
ATOM     74  O   UNL A   1      35.906  30.823  31.626  1.00  0.00    -0.744 OA
ENDBRANCH  70  71
ENDBRANCH  51  65
BRANCH  52  75
ATOM     75  C   UNL A   1      49.465  26.377  26.691  1.00  0.00    -0.014 A 
ATOM     76  C   UNL A   1      49.826  26.492  25.338  1.00  0.00     0.010 A 
ATOM     77  C   UNL A   1      50.394  25.851  27.608  1.00  0.00     0.010 A 
ATOM     78  C   UNL A   1      51.099  26.101  24.911  1.00  0.00     0.020 A 
ATOM     79  C   UNL A   1      51.675  25.478  27.188  1.00  0.00     0.020 A 
ATOM     80  C   UNL A   1      52.019  25.606  25.841  1.00  0.00     0.054 A 
BRANCH  80  81
ATOM     81  S   UNL A   1      53.698  25.204  25.282  1.00  0.00     0.124 S 
ATOM     82  O   UNL A   1      53.530  23.852  24.758  1.00  0.00    -0.237 OA
ATOM     83  O   UNL A   1      53.956  26.241  24.286  1.00  0.00    -0.237 OA
ATOM     84  O   UNL A   1      54.497  25.311  26.500  1.00  0.00    -0.744 OA
ENDBRANCH  80  81
ENDBRANCH  52  75
BRANCH  64  85
ATOM     85  C   UNL A   1      47.081  32.593  28.856  1.00  0.00    -0.014 A 
ATOM     86  C   UNL A   1      47.669  32.895  30.097  1.00  0.00     0.010 A 
ATOM     87  C   UNL A   1      47.211  33.504  27.792  1.00  0.00     0.010 A 
ATOM     88  C   UNL A   1      48.376  34.088  30.268  1.00  0.00     0.020 A 
ATOM     89  C   UNL A   1      47.936  34.687  27.954  1.00  0.00     0.020 A 
ATOM     90  C   UNL A   1      48.512  34.973  29.192  1.00  0.00     0.054 A 
BRANCH  90  91
ATOM     91  S   UNL A   1      49.517  36.468  29.412  1.00  0.00     0.124 S 
ATOM     92  O   UNL A   1      50.679  35.950  30.130  1.00  0.00    -0.237 OA
ATOM     93  O   UNL A   1      49.766  36.893  28.037  1.00  0.00    -0.237 OA
ATOM     94  O   UNL A   1      48.652  37.356  30.185  1.00  0.00    -0.744 OA
ENDBRANCH  90  91
ENDBRANCH  64  85
ENDBRANCH  38  39
ENDBRANCH  30  33
ENDBRANCH  28  29
ENDBRANCH  27  28
ENDBRANCH  26  27
ENDBRANCH   1  26
TORSDOF 19
ENDMDL
