MODEL 1
REMARK VINA RESULT:     -11.2      0.000      0.000
REMARK SMILES CC(C)c1ccc(NC(=O)C[C@H]2SC[C@@H](C(=O)NCCCCCCNC(=O)c3ccc(-c4c5nc(c(-c6ccc(S(=O)(=O)[O-])cc6)c6ccc([nH]6)c(-c6ccc(S(=O)(=O)[O-])cc6)c6nc(c(-c7ccc(S(=O)(=O)[O-])cc7)c7ccc4[nH]7)C=C6)C=C5)cc3)NC2=O)cc1
REMARK SMILES IDX 21 1 20 2 19 3 18 4 16 5 17 6 15 8 12 9 13 10 89 11 14 12
REMARK SMILES IDX 88 13 90 14 11 16 9 17 8 18 10 20 7 21 4 22 5 23 92 24 6 25
REMARK SMILES IDX 91 26 2 27 1 28 3 29 22 30 23 31 24 32 25 33 26 34 27 36
REMARK SMILES IDX 28 37 29 38 87 39 30 40 86 41 31 42 32 43 33 44 80 45 34 46
REMARK SMILES IDX 85 47 79 48 81 49 35 50 84 51 78 52 77 53 36 55 66 56 47 57
REMARK SMILES IDX 65 58 48 59 51 60 64 61 82 62 49 63 50 64 63 66 83 67 52 68
REMARK SMILES IDX 37 69 38 70 46 71 39 72 45 73 40 74 41 75 42 76 43 77 44 78
REMARK SMILES IDX 67 79 68 80 76 81 69 82 75 83 70 84 71 85 72 86 73 87 74 88
REMARK SMILES IDX 53 89 54 90 62 91 55 92 61 93 56 94 57 95 58 96 59 97 60 98
REMARK H PARENT 18 7 88 15 8 19 25 35 81 54 51 65
REMARK Flexibility Score: inf
ROOT
ATOM      1  C   UNL A   1      34.003  28.559  26.854  1.00  0.00     0.002 C 
ENDROOT
BRANCH   1   2
ATOM      2  C   UNL A   1      32.660  29.302  26.790  1.00  0.00     0.021 C 
BRANCH   2   3
ATOM      3  C   UNL A   1      32.345  29.874  25.407  1.00  0.00     0.116 C 
BRANCH   3   4
ATOM      4  N   UNL A   1      33.285  29.334  24.450  1.00  0.00    -0.354 N 
ATOM      5  C   UNL A   1      33.082  28.265  23.623  1.00  0.00     0.243 C 
ATOM      6  O   UNL A   1      34.060  27.581  23.327  1.00  0.00    -0.273 OA
ATOM      7  H   UNL A   1      34.159  29.781  24.389  1.00  0.00     0.163 HD
BRANCH   5   8
ATOM      8  C   UNL A   1      31.729  28.176  22.885  1.00  0.00     0.181 C 
ATOM      9  C   UNL A   1      30.647  25.438  23.696  1.00  0.00     0.145 C 
ATOM     10  S   UNL A   1      30.252  26.807  24.871  1.00  0.00    -0.145 SA
ATOM     11  C   UNL A   1      31.848  25.736  22.791  1.00  0.00     0.234 C 
ATOM     12  C   UNL A   1      30.509  28.245  23.790  1.00  0.00     0.105 C 
ATOM     13  N   UNL A   1      31.854  26.940  22.127  1.00  0.00    -0.343 N 
ATOM     14  O   UNL A   1      32.747  24.950  22.506  1.00  0.00    -0.274 OA
ATOM     15  H   UNL A   1      31.943  26.965  21.147  1.00  0.00     0.164 HD
BRANCH   9  16
ATOM     16  C   UNL A   1      30.662  24.127  24.495  1.00  0.00     0.124 C 
BRANCH  16  17
ATOM     17  C   UNL A   1      30.763  24.153  26.008  1.00  0.00     0.226 C 
ATOM     18  N   UNL A   1      31.935  24.080  26.693  1.00  0.00    -0.326 N 
ATOM     19  H   UNL A   1      31.828  24.131  27.671  1.00  0.00     0.169 HD
ATOM     20  O   UNL A   1      29.726  24.221  26.680  1.00  0.00    -0.275 OA
BRANCH  18  21
ATOM     21  C   UNL A   1      33.264  23.946  26.277  1.00  0.00     0.041 A 
ATOM     22  C   UNL A   1      36.001  23.555  25.702  1.00  0.00    -0.045 A 
ATOM     23  C   UNL A   1      35.391  24.801  25.506  1.00  0.00     0.006 A 
ATOM     24  C   UNL A   1      35.202  22.493  26.150  1.00  0.00     0.006 A 
ATOM     25  C   UNL A   1      34.030  24.988  25.770  1.00  0.00     0.026 A 
ATOM     26  C   UNL A   1      33.846  22.684  26.421  1.00  0.00     0.026 A 
BRANCH  22  27
ATOM     27  C   UNL A   1      37.482  23.312  25.464  1.00  0.00     0.013 C 
ATOM     28  C   UNL A   1      38.411  24.110  26.385  1.00  0.00     0.012 C 
ATOM     29  C   UNL A   1      37.807  21.818  25.566  1.00  0.00     0.012 C 
ENDBRANCH  22  27
ENDBRANCH  18  21
ENDBRANCH  16  17
ENDBRANCH   9  16
ENDBRANCH   5   8
ENDBRANCH   3   4
ENDBRANCH   2   3
ENDBRANCH   1   2
BRANCH   1  30
ATOM     30  C   UNL A   1      35.115  29.307  27.598  1.00  0.00     0.002 C 
BRANCH  30  31
ATOM     31  C   UNL A   1      34.925  30.822  27.669  1.00  0.00     0.021 C 
BRANCH  31  32
ATOM     32  C   UNL A   1      35.940  31.539  28.551  1.00  0.00     0.116 C 
BRANCH  32  33
ATOM     33  N   UNL A   1      35.752  31.227  29.958  1.00  0.00    -0.352 N 
ATOM     34  C   UNL A   1      36.512  30.420  30.764  1.00  0.00     0.251 C 
ATOM     35  H   UNL A   1      34.976  31.653  30.390  1.00  0.00     0.163 HD
ATOM     36  O   UNL A   1      36.103  30.102  31.880  1.00  0.00    -0.269 OA
BRANCH  34  37
ATOM     37  C   UNL A   1      37.810  29.913  30.274  1.00  0.00     0.039 A 
ATOM     38  C   UNL A   1      38.140  30.082  28.928  1.00  0.00     0.014 A 
ATOM     39  C   UNL A   1      38.705  29.284  31.147  1.00  0.00     0.014 A 
ATOM     40  C   UNL A   1      39.391  29.669  28.467  1.00  0.00     0.010 A 
ATOM     41  C   UNL A   1      39.978  28.940  30.701  1.00  0.00     0.010 A 
ATOM     42  C   UNL A   1      40.333  29.123  29.356  1.00  0.00    -0.014 A 
BRANCH  42  43
ATOM     43  C   UNL A   1      41.692  28.737  28.895  1.00  0.00     0.031 A 
ATOM     44  C   UNL A   1      42.782  29.773  28.806  1.00  0.00     0.074 A 
ATOM     45  C   UNL A   1      41.926  27.469  28.499  1.00  0.00     0.049 A 
ATOM     46  N   UNL A   1      44.012  29.637  28.380  1.00  0.00    -0.248 NA
ATOM     47  C   UNL A   1      42.441  31.142  29.224  1.00  0.00     0.031 C 
ATOM     48  C   UNL A   1      40.943  26.383  28.499  1.00  0.00     0.029 A 
ATOM     49  N   UNL A   1      43.067  26.879  28.013  1.00  0.00    -0.354 N 
ATOM     50  C   UNL A   1      44.581  30.903  28.456  1.00  0.00     0.074 A 
ATOM     51  C   UNL A   1      43.552  31.803  28.930  1.00  0.00     0.031 C 
ATOM     52  C   UNL A   1      41.528  25.257  28.061  1.00  0.00     0.029 A 
ATOM     53  C   UNL A   1      42.915  25.546  27.710  1.00  0.00     0.049 A 
ATOM     54  H   UNL A   1      43.915  27.365  27.893  1.00  0.00     0.167 HD
ATOM     55  C   UNL A   1      45.850  31.280  28.169  1.00  0.00     0.031 A 
ATOM     56  C   UNL A   1      43.789  24.658  27.198  1.00  0.00     0.031 A 
ATOM     57  C   UNL A   1      46.877  30.377  27.725  1.00  0.00     0.049 A 
ATOM     58  C   UNL A   1      45.192  25.106  26.887  1.00  0.00     0.074 A 
ATOM     59  C   UNL A   1      48.214  30.649  27.490  1.00  0.00     0.029 A 
ATOM     60  N   UNL A   1      46.686  29.034  27.444  1.00  0.00    -0.354 N 
ATOM     61  N   UNL A   1      45.734  26.290  27.052  1.00  0.00    -0.248 NA
ATOM     62  C   UNL A   1      46.106  24.097  26.335  1.00  0.00     0.031 C 
ATOM     63  C   UNL A   1      48.818  29.484  27.006  1.00  0.00     0.029 A 
ATOM     64  C   UNL A   1      47.872  28.471  27.004  1.00  0.00     0.049 A 
ATOM     65  H   UNL A   1      45.834  28.551  27.542  1.00  0.00     0.167 HD
ATOM     66  C   UNL A   1      47.060  26.156  26.653  1.00  0.00     0.074 A 
ATOM     67  C   UNL A   1      47.241  24.776  26.256  1.00  0.00     0.031 C 
ATOM     68  C   UNL A   1      48.040  27.093  26.621  1.00  0.00     0.031 A 
BRANCH  55  69
ATOM     69  C   UNL A   1      46.205  32.737  28.315  1.00  0.00    -0.014 A 
ATOM     70  C   UNL A   1      46.729  33.246  29.516  1.00  0.00     0.010 A 
ATOM     71  C   UNL A   1      46.085  33.592  27.204  1.00  0.00     0.010 A 
ATOM     72  C   UNL A   1      47.101  34.589  29.612  1.00  0.00     0.020 A 
ATOM     73  C   UNL A   1      46.482  34.930  27.287  1.00  0.00     0.020 A 
ATOM     74  C   UNL A   1      46.978  35.422  28.496  1.00  0.00     0.054 A 
BRANCH  74  75
ATOM     75  S   UNL A   1      47.518  37.149  28.636  1.00  0.00     0.124 S 
ATOM     76  O   UNL A   1      46.320  37.797  29.162  1.00  0.00    -0.237 OA
ATOM     77  O   UNL A   1      48.642  37.057  29.564  1.00  0.00    -0.237 OA
ATOM     78  O   UNL A   1      47.872  37.513  27.266  1.00  0.00    -0.744 OA
ENDBRANCH  74  75
ENDBRANCH  55  69
BRANCH  56  79
ATOM     79  C   UNL A   1      43.371  23.251  26.943  1.00  0.00    -0.014 A 
ATOM     80  C   UNL A   1      43.281  22.328  28.000  1.00  0.00     0.010 A 
ATOM     81  C   UNL A   1      43.088  22.819  25.635  1.00  0.00     0.010 A 
ATOM     82  C   UNL A   1      42.954  20.992  27.751  1.00  0.00     0.020 A 
ATOM     83  C   UNL A   1      42.728  21.491  25.385  1.00  0.00     0.020 A 
ATOM     84  C   UNL A   1      42.682  20.582  26.443  1.00  0.00     0.054 A 
BRANCH  84  85
ATOM     85  S   UNL A   1      42.245  18.847  26.140  1.00  0.00     0.124 S 
ATOM     86  O   UNL A   1      42.475  18.245  27.450  1.00  0.00    -0.237 OA
ATOM     87  O   UNL A   1      40.849  18.942  25.722  1.00  0.00    -0.237 OA
ATOM     88  O   UNL A   1      43.175  18.440  25.090  1.00  0.00    -0.744 OA
ENDBRANCH  84  85
ENDBRANCH  56  79
BRANCH  68  89
ATOM     89  C   UNL A   1      49.411  26.650  26.183  1.00  0.00    -0.014 A 
ATOM     90  C   UNL A   1      49.826  26.765  24.845  1.00  0.00     0.010 A 
ATOM     91  C   UNL A   1      50.318  26.162  27.142  1.00  0.00     0.010 A 
ATOM     92  C   UNL A   1      51.111  26.369  24.468  1.00  0.00     0.020 A 
ATOM     93  C   UNL A   1      51.615  25.794  26.775  1.00  0.00     0.020 A 
ATOM     94  C   UNL A   1      51.998  25.887  25.436  1.00  0.00     0.054 A 
BRANCH  94  95
ATOM     95  S   UNL A   1      53.676  25.423  24.930  1.00  0.00     0.124 S 
ATOM     96  O   UNL A   1      53.830  26.159  23.677  1.00  0.00    -0.237 OA
ATOM     97  O   UNL A   1      54.491  25.901  26.043  1.00  0.00    -0.237 OA
ATOM     98  O   UNL A   1      53.609  23.970  24.794  1.00  0.00    -0.744 OA
ENDBRANCH  94  95
ENDBRANCH  68  89
ENDBRANCH  42  43
ENDBRANCH  34  37
ENDBRANCH  32  33
ENDBRANCH  31  32
ENDBRANCH  30  31
ENDBRANCH   1  30
TORSDOF 20
ENDMDL
MODEL 2
REMARK VINA RESULT:     -11.0      6.087     11.551
REMARK SMILES CC(C)c1ccc(NC(=O)C[C@H]2SC[C@@H](C(=O)NCCCCCCNC(=O)c3ccc(-c4c5nc(c(-c6ccc(S(=O)(=O)[O-])cc6)c6ccc([nH]6)c(-c6ccc(S(=O)(=O)[O-])cc6)c6nc(c(-c7ccc(S(=O)(=O)[O-])cc7)c7ccc4[nH]7)C=C6)C=C5)cc3)NC2=O)cc1
REMARK SMILES IDX 21 1 20 2 19 3 18 4 16 5 17 6 15 8 12 9 13 10 89 11 14 12
REMARK SMILES IDX 88 13 90 14 11 16 9 17 8 18 10 20 7 21 4 22 5 23 92 24 6 25
REMARK SMILES IDX 91 26 2 27 1 28 3 29 22 30 23 31 24 32 25 33 26 34 27 36
REMARK SMILES IDX 28 37 29 38 87 39 30 40 86 41 31 42 32 43 33 44 80 45 34 46
REMARK SMILES IDX 85 47 79 48 81 49 35 50 84 51 78 52 77 53 36 55 66 56 47 57
REMARK SMILES IDX 65 58 48 59 51 60 64 61 82 62 49 63 50 64 63 66 83 67 52 68
REMARK SMILES IDX 37 69 38 70 46 71 39 72 45 73 40 74 41 75 42 76 43 77 44 78
REMARK SMILES IDX 67 79 68 80 76 81 69 82 75 83 70 84 71 85 72 86 73 87 74 88
REMARK SMILES IDX 53 89 54 90 62 91 55 92 61 93 56 94 57 95 58 96 59 97 60 98
REMARK H PARENT 18 7 88 15 8 19 25 35 81 54 51 65
REMARK Flexibility Score: inf
ROOT
ATOM      1  C   UNL A   1      36.706  22.292  24.389  1.00  0.00     0.002 C 
ENDROOT
BRANCH   1   2
ATOM      2  C   UNL A   1      36.311  20.919  24.956  1.00  0.00     0.021 C 
BRANCH   2   3
ATOM      3  C   UNL A   1      34.799  20.726  25.087  1.00  0.00     0.116 C 
BRANCH   3   4
ATOM      4  N   UNL A   1      34.375  21.209  26.382  1.00  0.00    -0.354 N 
ATOM      5  C   UNL A   1      33.492  22.224  26.623  1.00  0.00     0.243 C 
ATOM      6  O   UNL A   1      33.658  22.891  27.643  1.00  0.00    -0.273 OA
ATOM      7  H   UNL A   1      34.760  20.762  27.169  1.00  0.00     0.163 HD
BRANCH   5   8
ATOM      8  C   UNL A   1      32.197  22.264  25.785  1.00  0.00     0.181 C 
ATOM      9  C   UNL A   1      32.793  24.355  23.640  1.00  0.00     0.145 C 
ATOM     10  S   UNL A   1      33.356  22.644  23.233  1.00  0.00    -0.145 SA
ATOM     11  C   UNL A   1      32.587  24.590  25.142  1.00  0.00     0.234 C 
ATOM     12  C   UNL A   1      32.332  21.683  24.386  1.00  0.00     0.105 C 
ATOM     13  N   UNL A   1      31.828  23.671  25.825  1.00  0.00    -0.343 N 
ATOM     14  O   UNL A   1      32.935  25.586  25.768  1.00  0.00    -0.274 OA
ATOM     15  H   UNL A   1      31.040  23.962  26.338  1.00  0.00     0.164 HD
BRANCH   9  16
ATOM     16  C   UNL A   1      33.696  25.337  22.880  1.00  0.00     0.124 C 
BRANCH  16  17
ATOM     17  C   UNL A   1      33.146  26.146  21.723  1.00  0.00     0.226 C 
ATOM     18  N   UNL A   1      32.589  27.380  21.854  1.00  0.00    -0.326 N 
ATOM     19  H   UNL A   1      32.298  27.778  21.001  1.00  0.00     0.169 HD
ATOM     20  O   UNL A   1      33.173  25.663  20.583  1.00  0.00    -0.275 OA
BRANCH  18  21
ATOM     21  C   UNL A   1      32.348  28.192  22.966  1.00  0.00     0.041 A 
ATOM     22  C   UNL A   1      32.077  29.682  25.350  1.00  0.00    -0.045 A 
ATOM     23  C   UNL A   1      30.965  29.098  24.731  1.00  0.00     0.006 A 
ATOM     24  C   UNL A   1      33.327  29.545  24.726  1.00  0.00     0.006 A 
ATOM     25  C   UNL A   1      31.097  28.380  23.538  1.00  0.00     0.026 A 
ATOM     26  C   UNL A   1      33.457  28.819  23.541  1.00  0.00     0.026 A 
BRANCH  22  27
ATOM     27  C   UNL A   1      31.991  30.442  26.664  1.00  0.00     0.013 C 
ATOM     28  C   UNL A   1      33.341  30.682  27.346  1.00  0.00     0.012 C 
ATOM     29  C   UNL A   1      31.263  31.776  26.469  1.00  0.00     0.012 C 
ENDBRANCH  22  27
ENDBRANCH  18  21
ENDBRANCH  16  17
ENDBRANCH   9  16
ENDBRANCH   5   8
ENDBRANCH   3   4
ENDBRANCH   2   3
ENDBRANCH   1   2
BRANCH   1  30
ATOM     30  C   UNL A   1      36.968  23.371  25.445  1.00  0.00     0.002 C 
BRANCH  30  31
ATOM     31  C   UNL A   1      38.293  23.220  26.194  1.00  0.00     0.021 C 
BRANCH  31  32
ATOM     32  C   UNL A   1      38.911  24.537  26.642  1.00  0.00     0.116 C 
BRANCH  32  33
ATOM     33  N   UNL A   1      40.079  24.886  25.851  1.00  0.00    -0.352 N 
ATOM     34  C   UNL A   1      40.970  25.910  26.045  1.00  0.00     0.251 C 
ATOM     35  H   UNL A   1      40.254  24.310  25.070  1.00  0.00     0.163 HD
ATOM     36  O   UNL A   1      41.789  26.190  25.171  1.00  0.00    -0.269 OA
BRANCH  34  37
ATOM     37  C   UNL A   1      40.923  26.689  27.299  1.00  0.00     0.039 A 
ATOM     38  C   UNL A   1      41.439  27.986  27.312  1.00  0.00     0.014 A 
ATOM     39  C   UNL A   1      40.358  26.143  28.457  1.00  0.00     0.014 A 
ATOM     40  C   UNL A   1      41.341  28.757  28.472  1.00  0.00     0.010 A 
ATOM     41  C   UNL A   1      40.195  26.938  29.588  1.00  0.00     0.010 A 
ATOM     42  C   UNL A   1      40.690  28.251  29.610  1.00  0.00    -0.014 A 
BRANCH  42  43
ATOM     43  C   UNL A   1      40.519  29.081  30.830  1.00  0.00     0.031 A 
ATOM     44  C   UNL A   1      39.429  30.119  30.893  1.00  0.00     0.074 A 
ATOM     45  C   UNL A   1      41.383  28.942  31.857  1.00  0.00     0.049 A 
ATOM     46  N   UNL A   1      39.158  30.970  31.849  1.00  0.00    -0.248 NA
ATOM     47  C   UNL A   1      38.547  30.235  29.720  1.00  0.00     0.031 C 
ATOM     48  C   UNL A   1      42.505  28.001  31.902  1.00  0.00     0.029 A 
ATOM     49  N   UNL A   1      41.456  29.598  33.061  1.00  0.00    -0.354 N 
ATOM     50  C   UNL A   1      38.094  31.734  31.385  1.00  0.00     0.074 A 
ATOM     51  C   UNL A   1      37.794  31.276  30.046  1.00  0.00     0.031 C 
ATOM     52  C   UNL A   1      43.137  28.122  33.081  1.00  0.00     0.029 A 
ATOM     53  C   UNL A   1      42.494  29.176  33.859  1.00  0.00     0.049 A 
ATOM     54  H   UNL A   1      40.825  30.305  33.327  1.00  0.00     0.167 HD
ATOM     55  C   UNL A   1      37.419  32.721  32.021  1.00  0.00     0.031 A 
ATOM     56  C   UNL A   1      42.890  29.596  35.076  1.00  0.00     0.031 A 
ATOM     57  C   UNL A   1      37.703  33.155  33.363  1.00  0.00     0.049 A 
ATOM     58  C   UNL A   1      42.122  30.695  35.759  1.00  0.00     0.074 A 
ATOM     59  C   UNL A   1      37.021  34.089  34.124  1.00  0.00     0.029 A 
ATOM     60  N   UNL A   1      38.752  32.693  34.142  1.00  0.00    -0.354 N 
ATOM     61  N   UNL A   1      41.062  31.344  35.337  1.00  0.00    -0.248 NA
ATOM     62  C   UNL A   1      42.594  31.112  37.087  1.00  0.00     0.031 C 
ATOM     63  C   UNL A   1      37.695  34.237  35.340  1.00  0.00     0.029 A 
ATOM     64  C   UNL A   1      38.757  33.348  35.362  1.00  0.00     0.049 A 
ATOM     65  H   UNL A   1      39.398  32.002  33.868  1.00  0.00     0.167 HD
ATOM     66  C   UNL A   1      40.723  32.220  36.363  1.00  0.00     0.074 A 
ATOM     67  C   UNL A   1      41.679  32.007  37.429  1.00  0.00     0.031 C 
ATOM     68  C   UNL A   1      39.710  33.119  36.417  1.00  0.00     0.031 A 
BRANCH  55  69
ATOM     69  C   UNL A   1      36.309  33.415  31.275  1.00  0.00    -0.014 A 
ATOM     70  C   UNL A   1      35.145  33.850  31.934  1.00  0.00     0.010 A 
ATOM     71  C   UNL A   1      36.469  33.702  29.908  1.00  0.00     0.010 A 
ATOM     72  C   UNL A   1      34.152  34.538  31.233  1.00  0.00     0.020 A 
ATOM     73  C   UNL A   1      35.491  34.415  29.209  1.00  0.00     0.020 A 
ATOM     74  C   UNL A   1      34.332  34.818  29.875  1.00  0.00     0.054 A 
BRANCH  74  75
ATOM     75  S   UNL A   1      33.048  35.758  29.004  1.00  0.00     0.124 S 
ATOM     76  O   UNL A   1      32.235  36.255  30.111  1.00  0.00    -0.237 OA
ATOM     77  O   UNL A   1      33.822  36.770  28.289  1.00  0.00    -0.237 OA
ATOM     78  O   UNL A   1      32.402  34.759  28.156  1.00  0.00    -0.744 OA
ENDBRANCH  74  75
ENDBRANCH  55  69
BRANCH  56  79
ATOM     79  C   UNL A   1      44.074  28.978  35.738  1.00  0.00    -0.014 A 
ATOM     80  C   UNL A   1      45.367  29.479  35.505  1.00  0.00     0.010 A 
ATOM     81  C   UNL A   1      43.916  27.864  36.583  1.00  0.00     0.010 A 
ATOM     82  C   UNL A   1      46.483  28.858  36.074  1.00  0.00     0.020 A 
ATOM     83  C   UNL A   1      45.026  27.259  37.179  1.00  0.00     0.020 A 
ATOM     84  C   UNL A   1      46.304  27.749  36.905  1.00  0.00     0.054 A 
BRANCH  84  85
ATOM     85  S   UNL A   1      47.763  26.963  37.646  1.00  0.00     0.124 S 
ATOM     86  O   UNL A   1      48.390  28.085  38.341  1.00  0.00    -0.237 OA
ATOM     87  O   UNL A   1      47.170  25.939  38.501  1.00  0.00    -0.237 OA
ATOM     88  O   UNL A   1      48.497  26.452  36.491  1.00  0.00    -0.744 OA
ENDBRANCH  84  85
ENDBRANCH  56  79
BRANCH  68  89
ATOM     89  C   UNL A   1      39.551  33.912  37.688  1.00  0.00    -0.014 A 
ATOM     90  C   UNL A   1      38.852  33.395  38.792  1.00  0.00     0.010 A 
ATOM     91  C   UNL A   1      40.162  35.176  37.793  1.00  0.00     0.010 A 
ATOM     92  C   UNL A   1      38.739  34.140  39.968  1.00  0.00     0.020 A 
ATOM     93  C   UNL A   1      40.077  35.912  38.978  1.00  0.00     0.020 A 
ATOM     94  C   UNL A   1      39.353  35.394  40.053  1.00  0.00     0.054 A 
BRANCH  94  95
ATOM     95  S   UNL A   1      39.230  36.323  41.606  1.00  0.00     0.124 S 
ATOM     96  O   UNL A   1      38.002  35.784  42.185  1.00  0.00    -0.237 OA
ATOM     97  O   UNL A   1      40.463  35.956  42.297  1.00  0.00    -0.237 OA
ATOM     98  O   UNL A   1      39.155  37.715  41.174  1.00  0.00    -0.744 OA
ENDBRANCH  94  95
ENDBRANCH  68  89
ENDBRANCH  42  43
ENDBRANCH  34  37
ENDBRANCH  32  33
ENDBRANCH  31  32
ENDBRANCH  30  31
ENDBRANCH   1  30
TORSDOF 20
ENDMDL
MODEL 3
REMARK VINA RESULT:     -10.5      1.983      8.918
REMARK SMILES CC(C)c1ccc(NC(=O)C[C@H]2SC[C@@H](C(=O)NCCCCCCNC(=O)c3ccc(-c4c5nc(c(-c6ccc(S(=O)(=O)[O-])cc6)c6ccc([nH]6)c(-c6ccc(S(=O)(=O)[O-])cc6)c6nc(c(-c7ccc(S(=O)(=O)[O-])cc7)c7ccc4[nH]7)C=C6)C=C5)cc3)NC2=O)cc1
REMARK SMILES IDX 21 1 20 2 19 3 18 4 16 5 17 6 15 8 12 9 13 10 89 11 14 12
REMARK SMILES IDX 88 13 90 14 11 16 9 17 8 18 10 20 7 21 4 22 5 23 92 24 6 25
REMARK SMILES IDX 91 26 2 27 1 28 3 29 22 30 23 31 24 32 25 33 26 34 27 36
REMARK SMILES IDX 28 37 29 38 87 39 30 40 86 41 31 42 32 43 33 44 80 45 34 46
REMARK SMILES IDX 85 47 79 48 81 49 35 50 84 51 78 52 77 53 36 55 66 56 47 57
REMARK SMILES IDX 65 58 48 59 51 60 64 61 82 62 49 63 50 64 63 66 83 67 52 68
REMARK SMILES IDX 37 69 38 70 46 71 39 72 45 73 40 74 41 75 42 76 43 77 44 78
REMARK SMILES IDX 67 79 68 80 76 81 69 82 75 83 70 84 71 85 72 86 73 87 74 88
REMARK SMILES IDX 53 89 54 90 62 91 55 92 61 93 56 94 57 95 58 96 59 97 60 98
REMARK H PARENT 18 7 88 15 8 19 25 35 81 54 51 65
REMARK Flexibility Score: inf
ROOT
ATOM      1  C   UNL A   1      36.557  21.901  24.930  1.00  0.00     0.002 C 
ENDROOT
BRANCH   1   2
ATOM      2  C   UNL A   1      36.075  20.449  25.074  1.00  0.00     0.021 C 
BRANCH   2   3
ATOM      3  C   UNL A   1      34.553  20.315  25.140  1.00  0.00     0.116 C 
BRANCH   3   4
ATOM      4  N   UNL A   1      34.069  21.028  26.301  1.00  0.00    -0.354 N 
ATOM      5  C   UNL A   1      33.212  22.092  26.305  1.00  0.00     0.243 C 
ATOM      6  O   UNL A   1      33.341  22.922  27.204  1.00  0.00    -0.273 OA
ATOM      7  H   UNL A   1      34.389  20.714  27.177  1.00  0.00     0.163 HD
BRANCH   5   8
ATOM      8  C   UNL A   1      31.973  22.020  25.388  1.00  0.00     0.181 C 
ATOM      9  C   UNL A   1      32.621  23.992  23.148  1.00  0.00     0.145 C 
ATOM     10  S   UNL A   1      33.277  22.286  22.892  1.00  0.00    -0.145 SA
ATOM     11  C   UNL A   1      32.310  24.315  24.615  1.00  0.00     0.234 C 
ATOM     12  C   UNL A   1      32.221  21.357  24.042  1.00  0.00     0.105 C 
ATOM     13  N   UNL A   1      31.546  23.409  25.310  1.00  0.00    -0.343 N 
ATOM     14  O   UNL A   1      32.576  25.364  25.192  1.00  0.00    -0.274 OA
ATOM     15  H   UNL A   1      30.715  23.698  25.753  1.00  0.00     0.164 HD
BRANCH   9  16
ATOM     16  C   UNL A   1      33.531  24.962  22.381  1.00  0.00     0.124 C 
BRANCH  16  17
ATOM     17  C   UNL A   1      32.957  25.862  21.304  1.00  0.00     0.226 C 
ATOM     18  N   UNL A   1      32.379  27.069  21.548  1.00  0.00    -0.326 N 
ATOM     19  H   UNL A   1      32.075  27.536  20.736  1.00  0.00     0.169 HD
ATOM     20  O   UNL A   1      32.984  25.484  20.125  1.00  0.00    -0.275 OA
BRANCH  18  21
ATOM     21  C   UNL A   1      32.133  27.774  22.731  1.00  0.00     0.041 A 
ATOM     22  C   UNL A   1      31.851  29.035  25.242  1.00  0.00    -0.045 A 
ATOM     23  C   UNL A   1      30.741  28.510  24.566  1.00  0.00     0.006 A 
ATOM     24  C   UNL A   1      33.103  28.956  24.614  1.00  0.00     0.006 A 
ATOM     25  C   UNL A   1      30.879  27.906  23.313  1.00  0.00     0.026 A 
ATOM     26  C   UNL A   1      33.239  28.344  23.366  1.00  0.00     0.026 A 
BRANCH  22  27
ATOM     27  C   UNL A   1      31.758  29.668  26.620  1.00  0.00     0.013 C 
ATOM     28  C   UNL A   1      31.606  28.665  27.769  1.00  0.00     0.012 C 
ATOM     29  C   UNL A   1      32.966  30.575  26.880  1.00  0.00     0.012 C 
ENDBRANCH  22  27
ENDBRANCH  18  21
ENDBRANCH  16  17
ENDBRANCH   9  16
ENDBRANCH   5   8
ENDBRANCH   3   4
ENDBRANCH   2   3
ENDBRANCH   1   2
BRANCH   1  30
ATOM     30  C   UNL A   1      37.994  22.150  25.401  1.00  0.00     0.002 C 
BRANCH  30  31
ATOM     31  C   UNL A   1      38.650  20.959  26.101  1.00  0.00     0.021 C 
BRANCH  31  32
ATOM     32  C   UNL A   1      39.704  20.246  25.265  1.00  0.00     0.116 C 
BRANCH  32  33
ATOM     33  N   UNL A   1      40.539  19.373  26.073  1.00  0.00    -0.352 N 
ATOM     34  C   UNL A   1      41.671  19.686  26.780  1.00  0.00     0.251 C 
ATOM     35  H   UNL A   1      40.253  18.432  26.120  1.00  0.00     0.163 HD
ATOM     36  O   UNL A   1      42.373  18.791  27.248  1.00  0.00    -0.269 OA
BRANCH  34  37
ATOM     37  C   UNL A   1      42.056  21.102  26.952  1.00  0.00     0.039 A 
ATOM     38  C   UNL A   1      42.243  21.602  28.242  1.00  0.00     0.014 A 
ATOM     39  C   UNL A   1      42.244  21.930  25.840  1.00  0.00     0.014 A 
ATOM     40  C   UNL A   1      42.672  22.919  28.416  1.00  0.00     0.010 A 
ATOM     41  C   UNL A   1      42.741  23.218  26.014  1.00  0.00     0.010 A 
ATOM     42  C   UNL A   1      42.955  23.729  27.304  1.00  0.00    -0.014 A 
BRANCH  42  43
ATOM     43  C   UNL A   1      43.473  25.111  27.470  1.00  0.00     0.031 A 
ATOM     44  C   UNL A   1      44.910  25.424  27.145  1.00  0.00     0.074 A 
ATOM     45  C   UNL A   1      42.667  26.069  27.973  1.00  0.00     0.049 A 
ATOM     46  N   UNL A   1      45.555  26.555  27.274  1.00  0.00    -0.248 NA
ATOM     47  C   UNL A   1      45.737  24.319  26.633  1.00  0.00     0.031 C 
ATOM     48  C   UNL A   1      41.268  25.883  28.365  1.00  0.00     0.029 A 
ATOM     49  N   UNL A   1      42.912  27.393  28.245  1.00  0.00    -0.354 N 
ATOM     50  C   UNL A   1      46.863  26.292  26.885  1.00  0.00     0.074 A 
ATOM     51  C   UNL A   1      46.932  24.886  26.552  1.00  0.00     0.031 C 
ATOM     52  C   UNL A   1      40.772  27.052  28.802  1.00  0.00     0.029 A 
ATOM     53  C   UNL A   1      41.826  28.061  28.761  1.00  0.00     0.049 A 
ATOM     54  H   UNL A   1      43.783  27.823  28.086  1.00  0.00     0.167 HD
ATOM     55  C   UNL A   1      47.910  27.147  26.799  1.00  0.00     0.031 A 
ATOM     56  C   UNL A   1      41.694  29.339  29.166  1.00  0.00     0.031 A 
ATOM     57  C   UNL A   1      47.830  28.551  27.103  1.00  0.00     0.049 A 
ATOM     58  C   UNL A   1      42.876  30.267  29.060  1.00  0.00     0.074 A 
ATOM     59  C   UNL A   1      48.814  29.515  26.966  1.00  0.00     0.029 A 
ATOM     60  N   UNL A   1      46.710  29.191  27.609  1.00  0.00    -0.354 N 
ATOM     61  N   UNL A   1      44.080  30.017  28.604  1.00  0.00    -0.248 NA
ATOM     62  C   UNL A   1      42.676  31.651  29.512  1.00  0.00     0.031 C 
ATOM     63  C   UNL A   1      48.308  30.726  27.448  1.00  0.00     0.029 A 
ATOM     64  C   UNL A   1      46.988  30.530  27.823  1.00  0.00     0.049 A 
ATOM     65  H   UNL A   1      45.844  28.758  27.790  1.00  0.00     0.167 HD
ATOM     66  C   UNL A   1      44.770  31.223  28.683  1.00  0.00     0.074 A 
ATOM     67  C   UNL A   1      43.845  32.201  29.215  1.00  0.00     0.031 C 
ATOM     68  C   UNL A   1      46.054  31.494  28.345  1.00  0.00     0.031 A 
BRANCH  55  69
ATOM     69  C   UNL A   1      49.243  26.594  26.367  1.00  0.00    -0.014 A 
ATOM     70  C   UNL A   1      49.710  26.754  25.050  1.00  0.00     0.010 A 
ATOM     71  C   UNL A   1      50.073  25.972  27.317  1.00  0.00     0.010 A 
ATOM     72  C   UNL A   1      50.972  26.278  24.686  1.00  0.00     0.020 A 
ATOM     73  C   UNL A   1      51.348  25.520  26.964  1.00  0.00     0.020 A 
ATOM     74  C   UNL A   1      51.785  25.667  25.645  1.00  0.00     0.054 A 
BRANCH  74  75
ATOM     75  S   UNL A   1      53.439  25.107  25.155  1.00  0.00     0.124 S 
ATOM     76  O   UNL A   1      54.288  25.787  26.129  1.00  0.00    -0.237 OA
ATOM     77  O   UNL A   1      53.344  23.657  25.307  1.00  0.00    -0.237 OA
ATOM     78  O   UNL A   1      53.570  25.579  23.778  1.00  0.00    -0.744 OA
ENDBRANCH  74  75
ENDBRANCH  55  69
BRANCH  56  79
ATOM     79  C   UNL A   1      40.397  29.827  29.711  1.00  0.00    -0.014 A 
ATOM     80  C   UNL A   1      39.360  30.221  28.846  1.00  0.00     0.010 A 
ATOM     81  C   UNL A   1      40.200  29.928  31.100  1.00  0.00     0.010 A 
ATOM     82  C   UNL A   1      38.167  30.741  29.358  1.00  0.00     0.020 A 
ATOM     83  C   UNL A   1      38.997  30.416  31.617  1.00  0.00     0.020 A 
ATOM     84  C   UNL A   1      37.996  30.838  30.741  1.00  0.00     0.054 A 
BRANCH  84  85
ATOM     85  S   UNL A   1      36.435  31.503  31.387  1.00  0.00     0.124 S 
ATOM     86  O   UNL A   1      36.873  32.743  32.020  1.00  0.00    -0.237 OA
ATOM     87  O   UNL A   1      35.632  31.657  30.177  1.00  0.00    -0.237 OA
ATOM     88  O   UNL A   1      35.975  30.461  32.302  1.00  0.00    -0.744 OA
ENDBRANCH  84  85
ENDBRANCH  56  79
BRANCH  68  89
ATOM     89  C   UNL A   1      46.527  32.916  28.495  1.00  0.00    -0.014 A 
ATOM     90  C   UNL A   1      47.173  33.354  29.664  1.00  0.00     0.010 A 
ATOM     91  C   UNL A   1      46.370  33.813  27.421  1.00  0.00     0.010 A 
ATOM     92  C   UNL A   1      47.624  34.673  29.770  1.00  0.00     0.020 A 
ATOM     93  C   UNL A   1      46.847  35.123  27.510  1.00  0.00     0.020 A 
ATOM     94  C   UNL A   1      47.458  35.548  28.691  1.00  0.00     0.054 A 
BRANCH  94  95
ATOM     95  S   UNL A   1      48.093  37.241  28.836  1.00  0.00     0.124 S 
ATOM     96  O   UNL A   1      49.370  37.147  28.133  1.00  0.00    -0.237 OA
ATOM     97  O   UNL A   1      47.063  38.028  28.164  1.00  0.00    -0.237 OA
ATOM     98  O   UNL A   1      48.191  37.454  30.278  1.00  0.00    -0.744 OA
ENDBRANCH  94  95
ENDBRANCH  68  89
ENDBRANCH  42  43
ENDBRANCH  34  37
ENDBRANCH  32  33
ENDBRANCH  31  32
ENDBRANCH  30  31
ENDBRANCH   1  30
TORSDOF 20
ENDMDL
