MODEL 1
REMARK VINA RESULT:     -10.2      0.000      0.000
REMARK SMILES C[C@@H](C(=O)NCCCCCCNC(=O)c1ccc(-c2c3nc(c(-c4ccc(S(=O)(=O)[O-])cc4)c4ccc([nH]4)c(-c4ccc(S(=O)(=O)[O-])cc4)c4nc(c(-c5ccc(S(=O)(=O)[O-])cc5)c5ccc2[nH]5)C=C4)C=C3)cc1)c1ccc(-c2cccc(OC(=O)NCCCc3ccccc3)c2)c(F)c1
REMARK SMILES IDX 6 1 5 2 3 3 4 4 2 6 1 7 75 8 76 9 100 10 77 11 98 12 78 13
REMARK SMILES IDX 99 14 79 15 80 16 97 17 81 18 83 19 82 20 84 21 85 22 86 23
REMARK SMILES IDX 87 24 88 26 89 27 90 28 91 29 92 30 96 31 93 32 95 33 94 34
REMARK SMILES IDX 7 35 8 36 9 37 10 38 11 39 12 40 13 41 14 43 15 44 16 45
REMARK SMILES IDX 74 46 17 47 73 48 18 49 19 50 20 51 67 52 21 53 72 54 66 55
REMARK SMILES IDX 68 56 22 57 71 58 65 59 64 60 23 62 53 63 34 64 52 65 35 66
REMARK SMILES IDX 38 67 51 68 69 69 36 70 37 71 50 73 70 74 39 75 24 76 25 77
REMARK SMILES IDX 33 78 26 79 32 80 27 81 28 82 29 83 30 84 31 85 54 86 55 87
REMARK SMILES IDX 63 88 56 89 62 90 57 91 58 92 59 93 60 94 61 95 40 96 41 97
REMARK SMILES IDX 49 98 42 99 48 100 43 101 44 102 45 103 46 104 47 105
REMARK H PARENT 5 5 87 25 12 42 68 61 38 72
REMARK Flexibility Score: inf
ROOT
ATOM      1  C   UNL A   1      43.044  23.322  25.248  1.00  0.00     0.116 C 
ENDROOT
BRANCH   1   2
ATOM      2  N   UNL A   1      43.158  23.571  26.666  1.00  0.00    -0.356 N 
ATOM      3  C   UNL A   1      42.521  22.986  27.713  1.00  0.00     0.227 C 
ATOM      4  O   UNL A   1      42.737  23.487  28.819  1.00  0.00    -0.274 OA
ATOM      5  H   UNL A   1      43.800  24.276  26.913  1.00  0.00     0.163 HD
BRANCH   3   6
ATOM      6  C   UNL A   1      41.647  21.738  27.485  1.00  0.00     0.105 C 
ATOM      7  C   UNL A   1      42.290  20.687  26.572  1.00  0.00     0.023 C 
BRANCH   6   8
ATOM      8  C   UNL A   1      40.275  22.065  26.912  1.00  0.00    -0.033 A 
ATOM      9  C   UNL A   1      39.575  21.114  26.156  1.00  0.00     0.005 A 
ATOM     10  C   UNL A   1      39.730  23.348  27.051  1.00  0.00     0.044 A 
ATOM     11  C   UNL A   1      38.363  21.448  25.540  1.00  0.00     0.012 A 
ATOM     12  C   UNL A   1      38.517  23.662  26.461  1.00  0.00     0.131 A 
ATOM     13  C   UNL A   1      37.824  22.736  25.669  1.00  0.00     0.018 A 
ATOM     14  F   UNL A   1      38.038  24.905  26.634  1.00  0.00    -0.206 F 
BRANCH  13  15
ATOM     15  C   UNL A   1      36.645  23.154  24.905  1.00  0.00    -0.012 A 
ATOM     16  C   UNL A   1      36.523  22.956  23.524  1.00  0.00     0.009 A 
ATOM     17  C   UNL A   1      35.593  23.788  25.587  1.00  0.00     0.056 A 
ATOM     18  C   UNL A   1      35.373  23.372  22.847  1.00  0.00     0.004 A 
ATOM     19  C   UNL A   1      34.454  24.205  24.916  1.00  0.00     0.133 A 
ATOM     20  C   UNL A   1      34.336  23.996  23.544  1.00  0.00     0.047 A 
BRANCH  19  21
ATOM     21  O   UNL A   1      33.350  24.813  25.554  1.00  0.00    -0.410 OA
BRANCH  21  22
ATOM     22  C   UNL A   1      32.059  24.898  25.034  1.00  0.00     0.412 C 
ATOM     23  O   UNL A   1      31.616  25.760  24.287  1.00  0.00    -0.224 OA
ATOM     24  N   UNL A   1      31.259  23.863  25.428  1.00  0.00    -0.321 N 
ATOM     25  H   UNL A   1      30.305  23.913  25.190  1.00  0.00     0.167 HD
BRANCH  24  26
ATOM     26  C   UNL A   1      31.698  22.703  26.160  1.00  0.00     0.120 C 
BRANCH  26  27
ATOM     27  C   UNL A   1      31.830  21.440  25.313  1.00  0.00     0.026 C 
BRANCH  27  28
ATOM     28  C   UNL A   1      33.235  20.891  25.035  1.00  0.00     0.037 C 
BRANCH  28  29
ATOM     29  C   UNL A   1      33.424  19.522  24.423  1.00  0.00    -0.048 A 
ATOM     30  C   UNL A   1      34.489  18.662  24.705  1.00  0.00     0.004 A 
ATOM     31  C   UNL A   1      32.494  19.115  23.449  1.00  0.00     0.004 A 
ATOM     32  C   UNL A   1      34.629  17.443  24.032  1.00  0.00     0.000 A 
ATOM     33  C   UNL A   1      32.625  17.894  22.783  1.00  0.00     0.000 A 
ATOM     34  C   UNL A   1      33.699  17.059  23.072  1.00  0.00     0.000 A 
ENDBRANCH  28  29
ENDBRANCH  27  28
ENDBRANCH  26  27
ENDBRANCH  24  26
ENDBRANCH  21  22
ENDBRANCH  19  21
ENDBRANCH  13  15
ENDBRANCH   6   8
ENDBRANCH   3   6
ENDBRANCH   1   2
BRANCH   1  35
ATOM     35  C   UNL A   1      44.432  23.160  24.626  1.00  0.00     0.021 C 
BRANCH  35  36
ATOM     36  C   UNL A   1      45.526  22.787  25.637  1.00  0.00     0.002 C 
BRANCH  36  37
ATOM     37  C   UNL A   1      46.599  23.858  25.846  1.00  0.00     0.002 C 
BRANCH  37  38
ATOM     38  C   UNL A   1      47.248  24.367  24.559  1.00  0.00     0.021 C 
BRANCH  38  39
ATOM     39  C   UNL A   1      48.190  25.544  24.763  1.00  0.00     0.116 C 
BRANCH  39  40
ATOM     40  N   UNL A   1      48.040  26.540  23.718  1.00  0.00    -0.352 N 
ATOM     41  C   UNL A   1      47.301  27.696  23.734  1.00  0.00     0.251 C 
ATOM     42  H   UNL A   1      48.534  26.363  22.885  1.00  0.00     0.163 HD
ATOM     43  O   UNL A   1      47.101  28.312  22.692  1.00  0.00    -0.269 OA
BRANCH  41  44
ATOM     44  C   UNL A   1      46.740  28.185  25.012  1.00  0.00     0.039 A 
ATOM     45  C   UNL A   1      47.548  28.944  25.860  1.00  0.00     0.014 A 
ATOM     46  C   UNL A   1      45.425  27.880  25.377  1.00  0.00     0.014 A 
ATOM     47  C   UNL A   1      47.027  29.418  27.066  1.00  0.00     0.010 A 
ATOM     48  C   UNL A   1      44.882  28.427  26.534  1.00  0.00     0.010 A 
ATOM     49  C   UNL A   1      45.685  29.175  27.406  1.00  0.00    -0.014 A 
BRANCH  49  50
ATOM     50  C   UNL A   1      45.124  29.642  28.699  1.00  0.00     0.031 A 
ATOM     51  C   UNL A   1      44.563  31.036  28.810  1.00  0.00     0.074 A 
ATOM     52  C   UNL A   1      45.153  28.834  29.776  1.00  0.00     0.049 A 
ATOM     53  N   UNL A   1      44.046  31.638  29.850  1.00  0.00    -0.248 NA
ATOM     54  C   UNL A   1      44.617  31.876  27.601  1.00  0.00     0.031 C 
ATOM     55  C   UNL A   1      45.699  27.476  29.805  1.00  0.00     0.029 A 
ATOM     56  N   UNL A   1      44.705  29.038  31.057  1.00  0.00    -0.354 N 
ATOM     57  C   UNL A   1      43.738  32.926  29.428  1.00  0.00     0.074 A 
ATOM     58  C   UNL A   1      44.179  33.039  28.056  1.00  0.00     0.031 C 
ATOM     59  C   UNL A   1      45.516  26.954  31.028  1.00  0.00     0.029 A 
ATOM     60  C   UNL A   1      44.878  27.952  31.883  1.00  0.00     0.049 A 
ATOM     61  H   UNL A   1      44.298  29.883  31.357  1.00  0.00     0.167 HD
ATOM     62  C   UNL A   1      43.124  33.921  30.113  1.00  0.00     0.031 A 
ATOM     63  C   UNL A   1      44.553  27.777  33.179  1.00  0.00     0.031 A 
ATOM     64  C   UNL A   1      42.670  33.796  31.471  1.00  0.00     0.049 A 
ATOM     65  C   UNL A   1      43.872  28.897  33.918  1.00  0.00     0.074 A 
ATOM     66  C   UNL A   1      41.980  34.720  32.236  1.00  0.00     0.029 A 
ATOM     67  N   UNL A   1      42.862  32.679  32.270  1.00  0.00    -0.354 N 
ATOM     68  N   UNL A   1      43.528  30.086  33.482  1.00  0.00    -0.248 NA
ATOM     69  C   UNL A   1      43.519  28.643  35.321  1.00  0.00     0.031 C 
ATOM     70  C   UNL A   1      41.808  34.184  33.517  1.00  0.00     0.029 A 
ATOM     71  C   UNL A   1      42.326  32.899  33.527  1.00  0.00     0.049 A 
ATOM     72  H   UNL A   1      43.314  31.852  31.985  1.00  0.00     0.167 HD
ATOM     73  C   UNL A   1      42.878  30.705  34.546  1.00  0.00     0.074 A 
ATOM     74  C   UNL A   1      42.872  29.755  35.640  1.00  0.00     0.031 C 
ATOM     75  C   UNL A   1      42.325  31.942  34.606  1.00  0.00     0.031 A 
BRANCH  62  76
ATOM     76  C   UNL A   1      42.927  35.237  29.403  1.00  0.00    -0.014 A 
ATOM     77  C   UNL A   1      41.814  35.467  28.574  1.00  0.00     0.010 A 
ATOM     78  C   UNL A   1      43.862  36.272  29.589  1.00  0.00     0.010 A 
ATOM     79  C   UNL A   1      41.667  36.683  27.902  1.00  0.00     0.020 A 
ATOM     80  C   UNL A   1      43.701  37.503  28.947  1.00  0.00     0.020 A 
ATOM     81  C   UNL A   1      42.615  37.693  28.091  1.00  0.00     0.054 A 
BRANCH  81  82
ATOM     82  S   UNL A   1      42.395  39.266  27.216  1.00  0.00     0.124 S 
ATOM     83  O   UNL A   1      42.185  40.199  28.321  1.00  0.00    -0.237 OA
ATOM     84  O   UNL A   1      43.660  39.415  26.502  1.00  0.00    -0.237 OA
ATOM     85  O   UNL A   1      41.227  39.032  26.370  1.00  0.00    -0.744 OA
ENDBRANCH  81  82
ENDBRANCH  62  76
BRANCH  63  86
ATOM     86  C   UNL A   1      44.830  26.475  33.847  1.00  0.00    -0.014 A 
ATOM     87  C   UNL A   1      43.895  25.427  33.776  1.00  0.00     0.010 A 
ATOM     88  C   UNL A   1      46.031  26.273  34.550  1.00  0.00     0.010 A 
ATOM     89  C   UNL A   1      44.145  24.208  34.413  1.00  0.00     0.020 A 
ATOM     90  C   UNL A   1      46.299  25.045  35.163  1.00  0.00     0.020 A 
ATOM     91  C   UNL A   1      45.349  24.024  35.100  1.00  0.00     0.054 A 
BRANCH  91  92
ATOM     92  S   UNL A   1      45.673  22.417  35.876  1.00  0.00     0.124 S 
ATOM     93  O   UNL A   1      45.440  22.709  37.288  1.00  0.00    -0.237 OA
ATOM     94  O   UNL A   1      44.684  21.553  35.237  1.00  0.00    -0.237 OA
ATOM     95  O   UNL A   1      47.060  22.136  35.515  1.00  0.00    -0.744 OA
ENDBRANCH  91  92
ENDBRANCH  63  86
BRANCH  75  96
ATOM     96  C   UNL A   1      41.613  32.323  35.879  1.00  0.00    -0.014 A 
ATOM     97  C   UNL A   1      40.222  32.180  36.020  1.00  0.00     0.010 A 
ATOM     98  C   UNL A   1      42.368  32.795  36.969  1.00  0.00     0.010 A 
ATOM     99  C   UNL A   1      39.593  32.544  37.214  1.00  0.00     0.020 A 
ATOM    100  C   UNL A   1      41.748  33.128  38.175  1.00  0.00     0.020 A 
ATOM    101  C   UNL A   1      40.360  33.018  38.283  1.00  0.00     0.054 A 
BRANCH 101 102
ATOM    102  S   UNL A   1      39.525  33.459  39.831  1.00  0.00     0.124 S 
ATOM    103  O   UNL A   1      40.390  34.514  40.352  1.00  0.00    -0.237 OA
ATOM    104  O   UNL A   1      38.209  33.895  39.372  1.00  0.00    -0.237 OA
ATOM    105  O   UNL A   1      39.531  32.215  40.596  1.00  0.00    -0.744 OA
ENDBRANCH 101 102
ENDBRANCH  75  96
ENDBRANCH  49  50
ENDBRANCH  41  44
ENDBRANCH  39  40
ENDBRANCH  38  39
ENDBRANCH  37  38
ENDBRANCH  36  37
ENDBRANCH  35  36
ENDBRANCH   1  35
TORSDOF 24
ENDMDL
MODEL 2
REMARK VINA RESULT:     -10.2      6.251     13.324
REMARK SMILES C[C@@H](C(=O)NCCCCCCNC(=O)c1ccc(-c2c3nc(c(-c4ccc(S(=O)(=O)[O-])cc4)c4ccc([nH]4)c(-c4ccc(S(=O)(=O)[O-])cc4)c4nc(c(-c5ccc(S(=O)(=O)[O-])cc5)c5ccc2[nH]5)C=C4)C=C3)cc1)c1ccc(-c2cccc(OC(=O)NCCCc3ccccc3)c2)c(F)c1
REMARK SMILES IDX 6 1 5 2 3 3 4 4 2 6 1 7 75 8 76 9 100 10 77 11 98 12 78 13
REMARK SMILES IDX 99 14 79 15 80 16 97 17 81 18 83 19 82 20 84 21 85 22 86 23
REMARK SMILES IDX 87 24 88 26 89 27 90 28 91 29 92 30 96 31 93 32 95 33 94 34
REMARK SMILES IDX 7 35 8 36 9 37 10 38 11 39 12 40 13 41 14 43 15 44 16 45
REMARK SMILES IDX 74 46 17 47 73 48 18 49 19 50 20 51 67 52 21 53 72 54 66 55
REMARK SMILES IDX 68 56 22 57 71 58 65 59 64 60 23 62 53 63 34 64 52 65 35 66
REMARK SMILES IDX 38 67 51 68 69 69 36 70 37 71 50 73 70 74 39 75 24 76 25 77
REMARK SMILES IDX 33 78 26 79 32 80 27 81 28 82 29 83 30 84 31 85 54 86 55 87
REMARK SMILES IDX 63 88 56 89 62 90 57 91 58 92 59 93 60 94 61 95 40 96 41 97
REMARK SMILES IDX 49 98 42 99 48 100 43 101 44 102 45 103 46 104 47 105
REMARK H PARENT 5 5 87 25 12 42 68 61 38 72
REMARK Flexibility Score: inf
ROOT
ATOM      1  C   UNL A   1      33.412  35.436  30.003  1.00  0.00     0.116 C 
ENDROOT
BRANCH   1   2
ATOM      2  N   UNL A   1      33.727  36.232  31.166  1.00  0.00    -0.356 N 
ATOM      3  C   UNL A   1      34.287  35.873  32.350  1.00  0.00     0.227 C 
ATOM      4  O   UNL A   1      34.332  36.755  33.211  1.00  0.00    -0.274 OA
ATOM      5  H   UNL A   1      33.499  37.187  31.088  1.00  0.00     0.163 HD
BRANCH   3   6
ATOM      6  C   UNL A   1      34.873  34.460  32.528  1.00  0.00     0.105 C 
ATOM      7  C   UNL A   1      34.041  33.550  33.440  1.00  0.00     0.023 C 
BRANCH   6   8
ATOM      8  C   UNL A   1      36.299  34.467  33.066  1.00  0.00    -0.033 A 
ATOM      9  C   UNL A   1      37.384  34.649  32.197  1.00  0.00     0.005 A 
ATOM     10  C   UNL A   1      36.554  34.201  34.417  1.00  0.00     0.044 A 
ATOM     11  C   UNL A   1      38.698  34.550  32.672  1.00  0.00     0.012 A 
ATOM     12  C   UNL A   1      37.856  34.133  34.883  1.00  0.00     0.131 A 
ATOM     13  C   UNL A   1      38.953  34.272  34.022  1.00  0.00     0.018 A 
ATOM     14  F   UNL A   1      38.042  33.882  36.190  1.00  0.00    -0.206 F 
BRANCH  13  15
ATOM     15  C   UNL A   1      40.310  34.005  34.507  1.00  0.00    -0.012 A 
ATOM     16  C   UNL A   1      40.677  32.802  35.123  1.00  0.00     0.009 A 
ATOM     17  C   UNL A   1      41.286  35.003  34.351  1.00  0.00     0.056 A 
ATOM     18  C   UNL A   1      41.989  32.600  35.561  1.00  0.00     0.004 A 
ATOM     19  C   UNL A   1      42.587  34.807  34.791  1.00  0.00     0.133 A 
ATOM     20  C   UNL A   1      42.946  33.604  35.394  1.00  0.00     0.047 A 
BRANCH  19  21
ATOM     21  O   UNL A   1      43.618  35.759  34.630  1.00  0.00    -0.410 OA
BRANCH  21  22
ATOM     22  C   UNL A   1      43.436  37.109  34.332  1.00  0.00     0.412 C 
ATOM     23  O   UNL A   1      43.096  37.998  35.101  1.00  0.00    -0.224 OA
ATOM     24  N   UNL A   1      43.703  37.405  33.025  1.00  0.00    -0.321 N 
ATOM     25  H   UNL A   1      43.491  38.316  32.716  1.00  0.00     0.167 HD
BRANCH  24  26
ATOM     26  C   UNL A   1      44.270  36.495  32.063  1.00  0.00     0.120 C 
BRANCH  26  27
ATOM     27  C   UNL A   1      43.559  36.488  30.712  1.00  0.00     0.026 C 
BRANCH  27  28
ATOM     28  C   UNL A   1      43.486  35.168  29.934  1.00  0.00     0.037 C 
BRANCH  28  29
ATOM     29  C   UNL A   1      42.865  33.938  30.554  1.00  0.00    -0.048 A 
ATOM     30  C   UNL A   1      41.538  33.537  30.374  1.00  0.00     0.004 A 
ATOM     31  C   UNL A   1      43.666  33.179  31.427  1.00  0.00     0.004 A 
ATOM     32  C   UNL A   1      41.023  32.425  31.049  1.00  0.00     0.000 A 
ATOM     33  C   UNL A   1      43.157  32.063  32.095  1.00  0.00     0.000 A 
ATOM     34  C   UNL A   1      41.831  31.689  31.909  1.00  0.00     0.000 A 
ENDBRANCH  28  29
ENDBRANCH  27  28
ENDBRANCH  26  27
ENDBRANCH  24  26
ENDBRANCH  21  22
ENDBRANCH  19  21
ENDBRANCH  13  15
ENDBRANCH   6   8
ENDBRANCH   3   6
ENDBRANCH   1   2
BRANCH   1  35
ATOM     35  C   UNL A   1      34.442  34.319  29.832  1.00  0.00     0.021 C 
BRANCH  35  36
ATOM     36  C   UNL A   1      35.072  34.263  28.433  1.00  0.00     0.002 C 
BRANCH  36  37
ATOM     37  C   UNL A   1      35.925  33.021  28.162  1.00  0.00     0.002 C 
BRANCH  37  38
ATOM     38  C   UNL A   1      37.324  33.065  28.778  1.00  0.00     0.021 C 
BRANCH  38  39
ATOM     39  C   UNL A   1      37.643  31.880  29.676  1.00  0.00     0.116 C 
BRANCH  39  40
ATOM     40  N   UNL A   1      36.853  30.713  29.328  1.00  0.00    -0.352 N 
ATOM     41  C   UNL A   1      37.230  29.604  28.614  1.00  0.00     0.251 C 
ATOM     42  H   UNL A   1      35.922  30.718  29.646  1.00  0.00     0.163 HD
ATOM     43  O   UNL A   1      36.381  28.812  28.215  1.00  0.00    -0.269 OA
BRANCH  41  44
ATOM     44  C   UNL A   1      38.661  29.378  28.320  1.00  0.00     0.039 A 
ATOM     45  C   UNL A   1      39.527  29.061  29.369  1.00  0.00     0.014 A 
ATOM     46  C   UNL A   1      39.149  29.494  27.015  1.00  0.00     0.014 A 
ATOM     47  C   UNL A   1      40.879  28.837  29.103  1.00  0.00     0.010 A 
ATOM     48  C   UNL A   1      40.476  29.183  26.740  1.00  0.00     0.010 A 
ATOM     49  C   UNL A   1      41.362  28.883  27.784  1.00  0.00    -0.014 A 
BRANCH  49  50
ATOM     50  C   UNL A   1      42.802  28.681  27.486  1.00  0.00     0.031 A 
ATOM     51  C   UNL A   1      43.777  29.809  27.708  1.00  0.00     0.074 A 
ATOM     52  C   UNL A   1      43.228  27.506  26.984  1.00  0.00     0.049 A 
ATOM     53  N   UNL A   1      45.067  29.841  27.493  1.00  0.00    -0.248 NA
ATOM     54  C   UNL A   1      43.225  31.080  28.209  1.00  0.00     0.031 C 
ATOM     55  C   UNL A   1      42.379  26.349  26.693  1.00  0.00     0.029 A 
ATOM     56  N   UNL A   1      44.487  27.089  26.633  1.00  0.00    -0.354 N 
ATOM     57  C   UNL A   1      45.471  31.133  27.808  1.00  0.00     0.074 A 
ATOM     58  C   UNL A   1      44.284  31.872  28.172  1.00  0.00     0.031 C 
ATOM     59  C   UNL A   1      43.146  25.340  26.250  1.00  0.00     0.029 A 
ATOM     60  C   UNL A   1      44.534  25.790  26.184  1.00  0.00     0.049 A 
ATOM     61  H   UNL A   1      45.283  27.665  26.696  1.00  0.00     0.167 HD
ATOM     62  C   UNL A   1      46.722  31.654  27.815  1.00  0.00     0.031 A 
ATOM     63  C   UNL A   1      45.577  25.043  25.773  1.00  0.00     0.031 A 
ATOM     64  C   UNL A   1      47.902  30.908  27.471  1.00  0.00     0.049 A 
ATOM     65  C   UNL A   1      46.957  25.643  25.789  1.00  0.00     0.074 A 
ATOM     66  C   UNL A   1      49.222  31.321  27.507  1.00  0.00     0.029 A 
ATOM     67  N   UNL A   1      47.906  29.595  27.024  1.00  0.00    -0.354 N 
ATOM     68  N   UNL A   1      47.329  26.848  26.154  1.00  0.00    -0.248 NA
ATOM     69  C   UNL A   1      48.060  24.777  25.354  1.00  0.00     0.031 C 
ATOM     70  C   UNL A   1      50.019  30.278  27.024  1.00  0.00     0.029 A 
ATOM     71  C   UNL A   1      49.202  29.191  26.757  1.00  0.00     0.049 A 
ATOM     72  H   UNL A   1      47.105  29.034  26.913  1.00  0.00     0.167 HD
ATOM     73  C   UNL A   1      48.716  26.867  26.035  1.00  0.00     0.074 A 
ATOM     74  C   UNL A   1      49.112  25.553  25.571  1.00  0.00     0.031 C 
ATOM     75  C   UNL A   1      49.582  27.877  26.299  1.00  0.00     0.031 A 
BRANCH  62  76
ATOM     76  C   UNL A   1      46.870  33.107  28.191  1.00  0.00    -0.014 A 
ATOM     77  C   UNL A   1      46.715  34.133  27.240  1.00  0.00     0.010 A 
ATOM     78  C   UNL A   1      47.148  33.453  29.526  1.00  0.00     0.010 A 
ATOM     79  C   UNL A   1      46.887  35.470  27.604  1.00  0.00     0.020 A 
ATOM     80  C   UNL A   1      47.286  34.792  29.902  1.00  0.00     0.020 A 
ATOM     81  C   UNL A   1      47.175  35.791  28.934  1.00  0.00     0.054 A 
BRANCH  81  82
ATOM     82  S   UNL A   1      47.382  37.536  29.381  1.00  0.00     0.124 S 
ATOM     83  O   UNL A   1      48.812  37.737  29.159  1.00  0.00    -0.237 OA
ATOM     84  O   UNL A   1      46.500  38.216  28.437  1.00  0.00    -0.237 OA
ATOM     85  O   UNL A   1      46.956  37.590  30.778  1.00  0.00    -0.744 OA
ENDBRANCH  81  82
ENDBRANCH  62  76
BRANCH  63  86
ATOM     86  C   UNL A   1      45.362  23.631  25.352  1.00  0.00    -0.014 A 
ATOM     87  C   UNL A   1      45.560  22.579  26.264  1.00  0.00     0.010 A 
ATOM     88  C   UNL A   1      44.951  23.329  24.041  1.00  0.00     0.010 A 
ATOM     89  C   UNL A   1      45.372  21.251  25.868  1.00  0.00     0.020 A 
ATOM     90  C   UNL A   1      44.732  22.005  23.649  1.00  0.00     0.020 A 
ATOM     91  C   UNL A   1      44.955  20.973  24.563  1.00  0.00     0.054 A 
BRANCH  91  92
ATOM     92  S   UNL A   1      44.670  19.246  24.088  1.00  0.00     0.124 S 
ATOM     93  O   UNL A   1      45.871  18.589  24.595  1.00  0.00    -0.237 OA
ATOM     94  O   UNL A   1      43.429  18.927  24.788  1.00  0.00    -0.237 OA
ATOM     95  O   UNL A   1      44.556  19.307  22.632  1.00  0.00    -0.744 OA
ENDBRANCH  91  92
ENDBRANCH  63  86
BRANCH  75  96
ATOM     96  C   UNL A   1      51.053  27.587  26.148  1.00  0.00    -0.014 A 
ATOM     97  C   UNL A   1      51.793  28.061  25.051  1.00  0.00     0.010 A 
ATOM     98  C   UNL A   1      51.713  26.858  27.155  1.00  0.00     0.010 A 
ATOM     99  C   UNL A   1      53.156  27.772  24.941  1.00  0.00     0.020 A 
ATOM    100  C   UNL A   1      53.082  26.596  27.067  1.00  0.00     0.020 A 
ATOM    101  C   UNL A   1      53.791  27.040  25.949  1.00  0.00     0.054 A 
BRANCH 101 102
ATOM    102  S   UNL A   1      55.566  26.701  25.798  1.00  0.00     0.124 S 
ATOM    103  O   UNL A   1      55.860  26.051  27.072  1.00  0.00    -0.237 OA
ATOM    104  O   UNL A   1      55.628  25.836  24.622  1.00  0.00    -0.237 OA
ATOM    105  O   UNL A   1      56.159  28.025  25.623  1.00  0.00    -0.744 OA
ENDBRANCH 101 102
ENDBRANCH  75  96
ENDBRANCH  49  50
ENDBRANCH  41  44
ENDBRANCH  39  40
ENDBRANCH  38  39
ENDBRANCH  37  38
ENDBRANCH  36  37
ENDBRANCH  35  36
ENDBRANCH   1  35
TORSDOF 24
ENDMDL
MODEL 3
REMARK VINA RESULT:     -10.1      5.720     14.551
REMARK SMILES C[C@@H](C(=O)NCCCCCCNC(=O)c1ccc(-c2c3nc(c(-c4ccc(S(=O)(=O)[O-])cc4)c4ccc([nH]4)c(-c4ccc(S(=O)(=O)[O-])cc4)c4nc(c(-c5ccc(S(=O)(=O)[O-])cc5)c5ccc2[nH]5)C=C4)C=C3)cc1)c1ccc(-c2cccc(OC(=O)NCCCc3ccccc3)c2)c(F)c1
REMARK SMILES IDX 6 1 5 2 3 3 4 4 2 6 1 7 75 8 76 9 100 10 77 11 98 12 78 13
REMARK SMILES IDX 99 14 79 15 80 16 97 17 81 18 83 19 82 20 84 21 85 22 86 23
REMARK SMILES IDX 87 24 88 26 89 27 90 28 91 29 92 30 96 31 93 32 95 33 94 34
REMARK SMILES IDX 7 35 8 36 9 37 10 38 11 39 12 40 13 41 14 43 15 44 16 45
REMARK SMILES IDX 74 46 17 47 73 48 18 49 19 50 20 51 67 52 21 53 72 54 66 55
REMARK SMILES IDX 68 56 22 57 71 58 65 59 64 60 23 62 53 63 34 64 52 65 35 66
REMARK SMILES IDX 38 67 51 68 69 69 36 70 37 71 50 73 70 74 39 75 24 76 25 77
REMARK SMILES IDX 33 78 26 79 32 80 27 81 28 82 29 83 30 84 31 85 54 86 55 87
REMARK SMILES IDX 63 88 56 89 62 90 57 91 58 92 59 93 60 94 61 95 40 96 41 97
REMARK SMILES IDX 49 98 42 99 48 100 43 101 44 102 45 103 46 104 47 105
REMARK H PARENT 5 5 87 25 12 42 68 61 38 72
REMARK Flexibility Score: inf
ROOT
ATOM      1  C   UNL A   1      33.128  35.859  30.135  1.00  0.00     0.116 C 
ENDROOT
BRANCH   1   2
ATOM      2  N   UNL A   1      33.600  36.581  31.292  1.00  0.00    -0.356 N 
ATOM      3  C   UNL A   1      34.169  36.126  32.439  1.00  0.00     0.227 C 
ATOM      4  O   UNL A   1      34.370  36.975  33.310  1.00  0.00    -0.274 OA
ATOM      5  H   UNL A   1      33.493  37.559  31.243  1.00  0.00     0.163 HD
BRANCH   3   6
ATOM      6  C   UNL A   1      34.579  34.646  32.562  1.00  0.00     0.105 C 
ATOM      7  C   UNL A   1      33.532  33.766  33.255  1.00  0.00     0.023 C 
BRANCH   6   8
ATOM      8  C   UNL A   1      35.900  34.450  33.294  1.00  0.00    -0.033 A 
ATOM      9  C   UNL A   1      37.117  34.659  32.631  1.00  0.00     0.005 A 
ATOM     10  C   UNL A   1      35.923  33.970  34.610  1.00  0.00     0.044 A 
ATOM     11  C   UNL A   1      38.331  34.377  33.269  1.00  0.00     0.012 A 
ATOM     12  C   UNL A   1      37.129  33.720  35.243  1.00  0.00     0.131 A 
ATOM     13  C   UNL A   1      38.354  33.885  34.582  1.00  0.00     0.018 A 
ATOM     14  F   UNL A   1      37.092  33.268  36.507  1.00  0.00    -0.206 F 
BRANCH  13  15
ATOM     15  C   UNL A   1      39.598  33.433  35.210  1.00  0.00    -0.012 A 
ATOM     16  C   UNL A   1      39.765  32.142  35.728  1.00  0.00     0.009 A 
ATOM     17  C   UNL A   1      40.670  34.335  35.301  1.00  0.00     0.056 A 
ATOM     18  C   UNL A   1      40.977  31.763  36.312  1.00  0.00     0.004 A 
ATOM     19  C   UNL A   1      41.872  33.962  35.885  1.00  0.00     0.133 A 
ATOM     20  C   UNL A   1      42.033  32.674  36.390  1.00  0.00     0.047 A 
BRANCH  19  21
ATOM     21  O   UNL A   1      42.995  34.814  35.972  1.00  0.00    -0.410 OA
BRANCH  21  22
ATOM     22  C   UNL A   1      42.980  36.198  35.795  1.00  0.00     0.412 C 
ATOM     23  O   UNL A   1      42.700  37.048  36.629  1.00  0.00    -0.224 OA
ATOM     24  N   UNL A   1      43.348  36.575  34.535  1.00  0.00    -0.321 N 
ATOM     25  H   UNL A   1      43.255  37.528  34.303  1.00  0.00     0.167 HD
BRANCH  24  26
ATOM     26  C   UNL A   1      43.861  35.695  33.517  1.00  0.00     0.120 C 
BRANCH  26  27
ATOM     27  C   UNL A   1      43.543  36.134  32.090  1.00  0.00     0.026 C 
BRANCH  27  28
ATOM     28  C   UNL A   1      43.195  35.056  31.055  1.00  0.00     0.037 C 
BRANCH  28  29
ATOM     29  C   UNL A   1      42.270  33.914  31.409  1.00  0.00    -0.048 A 
ATOM     30  C   UNL A   1      42.591  32.869  32.280  1.00  0.00     0.004 A 
ATOM     31  C   UNL A   1      41.022  33.869  30.762  1.00  0.00     0.004 A 
ATOM     32  C   UNL A   1      41.702  31.809  32.491  1.00  0.00     0.000 A 
ATOM     33  C   UNL A   1      40.129  32.817  30.980  1.00  0.00     0.000 A 
ATOM     34  C   UNL A   1      40.473  31.783  31.841  1.00  0.00     0.000 A 
ENDBRANCH  28  29
ENDBRANCH  27  28
ENDBRANCH  26  27
ENDBRANCH  24  26
ENDBRANCH  21  22
ENDBRANCH  19  21
ENDBRANCH  13  15
ENDBRANCH   6   8
ENDBRANCH   3   6
ENDBRANCH   1   2
BRANCH   1  35
ATOM     35  C   UNL A   1      34.043  34.669  29.844  1.00  0.00     0.021 C 
BRANCH  35  36
ATOM     36  C   UNL A   1      34.597  34.647  28.412  1.00  0.00     0.002 C 
BRANCH  36  37
ATOM     37  C   UNL A   1      35.436  33.414  28.068  1.00  0.00     0.002 C 
BRANCH  37  38
ATOM     38  C   UNL A   1      36.685  33.234  28.930  1.00  0.00     0.021 C 
BRANCH  38  39
ATOM     39  C   UNL A   1      36.568  32.128  29.967  1.00  0.00     0.116 C 
BRANCH  39  40
ATOM     40  N   UNL A   1      35.745  31.030  29.492  1.00  0.00    -0.352 N 
ATOM     41  C   UNL A   1      36.122  29.924  28.773  1.00  0.00     0.251 C 
ATOM     42  H   UNL A   1      34.788  31.087  29.716  1.00  0.00     0.163 HD
ATOM     43  O   UNL A   1      35.269  29.207  28.258  1.00  0.00    -0.269 OA
BRANCH  41  44
ATOM     44  C   UNL A   1      37.558  29.612  28.614  1.00  0.00     0.039 A 
ATOM     45  C   UNL A   1      38.289  29.201  29.731  1.00  0.00     0.014 A 
ATOM     46  C   UNL A   1      38.183  29.740  27.370  1.00  0.00     0.014 A 
ATOM     47  C   UNL A   1      39.645  28.896  29.592  1.00  0.00     0.010 A 
ATOM     48  C   UNL A   1      39.508  29.350  27.217  1.00  0.00     0.010 A 
ATOM     49  C   UNL A   1      40.262  28.954  28.331  1.00  0.00    -0.014 A 
BRANCH  49  50
ATOM     50  C   UNL A   1      41.709  28.666  28.171  1.00  0.00     0.031 A 
ATOM     51  C   UNL A   1      42.158  27.274  27.807  1.00  0.00     0.074 A 
ATOM     52  C   UNL A   1      42.618  29.637  28.387  1.00  0.00     0.049 A 
ATOM     53  N   UNL A   1      43.372  26.815  27.639  1.00  0.00    -0.248 NA
ATOM     54  C   UNL A   1      41.108  26.255  27.640  1.00  0.00     0.031 C 
ATOM     55  C   UNL A   1      42.311  31.015  28.776  1.00  0.00     0.029 A 
ATOM     56  N   UNL A   1      43.987  29.613  28.305  1.00  0.00    -0.354 N 
ATOM     57  C   UNL A   1      43.230  25.458  27.372  1.00  0.00     0.074 A 
ATOM     58  C   UNL A   1      41.820  25.155  27.458  1.00  0.00     0.031 C 
ATOM     59  C   UNL A   1      43.454  31.714  28.856  1.00  0.00     0.029 A 
ATOM     60  C   UNL A   1      44.578  30.827  28.567  1.00  0.00     0.049 A 
ATOM     61  H   UNL A   1      44.499  28.803  28.080  1.00  0.00     0.167 HD
ATOM     62  C   UNL A   1      44.185  24.549  27.062  1.00  0.00     0.031 A 
ATOM     63  C   UNL A   1      45.876  31.186  28.566  1.00  0.00     0.031 A 
ATOM     64  C   UNL A   1      45.585  24.860  26.958  1.00  0.00     0.049 A 
ATOM     65  C   UNL A   1      46.919  30.159  28.219  1.00  0.00     0.074 A 
ATOM     66  C   UNL A   1      46.626  24.029  26.587  1.00  0.00     0.029 A 
ATOM     67  N   UNL A   1      46.141  26.102  27.229  1.00  0.00    -0.354 N 
ATOM     68  N   UNL A   1      46.759  28.895  27.903  1.00  0.00    -0.248 NA
ATOM     69  C   UNL A   1      48.316  30.611  28.210  1.00  0.00     0.031 C 
ATOM     70  C   UNL A   1      47.819  24.751  26.692  1.00  0.00     0.029 A 
ATOM     71  C   UNL A   1      47.513  26.052  27.057  1.00  0.00     0.049 A 
ATOM     72  H   UNL A   1      45.634  26.900  27.502  1.00  0.00     0.167 HD
ATOM     73  C   UNL A   1      48.033  28.414  27.615  1.00  0.00     0.074 A 
ATOM     74  C   UNL A   1      48.947  29.525  27.788  1.00  0.00     0.031 C 
ATOM     75  C   UNL A   1      48.410  27.168  27.230  1.00  0.00     0.031 A 
BRANCH  62  76
ATOM     76  C   UNL A   1      43.743  23.125  26.830  1.00  0.00    -0.014 A 
ATOM     77  C   UNL A   1      44.021  22.455  25.625  1.00  0.00     0.010 A 
ATOM     78  C   UNL A   1      43.057  22.438  27.849  1.00  0.00     0.010 A 
ATOM     79  C   UNL A   1      43.575  21.147  25.420  1.00  0.00     0.020 A 
ATOM     80  C   UNL A   1      42.640  21.117  27.662  1.00  0.00     0.020 A 
ATOM     81  C   UNL A   1      42.884  20.487  26.441  1.00  0.00     0.054 A 
BRANCH  81  82
ATOM     82  S   UNL A   1      42.327  18.785  26.154  1.00  0.00     0.124 S 
ATOM     83  O   UNL A   1      43.264  18.330  25.129  1.00  0.00    -0.237 OA
ATOM     84  O   UNL A   1      42.488  18.169  27.468  1.00  0.00    -0.237 OA
ATOM     85  O   UNL A   1      40.945  18.943  25.707  1.00  0.00    -0.744 OA
ENDBRANCH  81  82
ENDBRANCH  62  76
BRANCH  63  86
ATOM     86  C   UNL A   1      46.260  32.594  28.865  1.00  0.00    -0.014 A 
ATOM     87  C   UNL A   1      46.117  33.593  27.885  1.00  0.00     0.010 A 
ATOM     88  C   UNL A   1      46.760  32.947  30.131  1.00  0.00     0.010 A 
ATOM     89  C   UNL A   1      46.488  34.913  28.158  1.00  0.00     0.020 A 
ATOM     90  C   UNL A   1      47.104  34.271  30.418  1.00  0.00     0.020 A 
ATOM     91  C   UNL A   1      46.976  35.244  29.425  1.00  0.00     0.054 A 
BRANCH  91  92
ATOM     92  S   UNL A   1      47.404  36.973  29.771  1.00  0.00     0.124 S 
ATOM     93  O   UNL A   1      47.334  37.574  28.442  1.00  0.00    -0.237 OA
ATOM     94  O   UNL A   1      46.357  37.376  30.705  1.00  0.00    -0.237 OA
ATOM     95  O   UNL A   1      48.743  36.884  30.349  1.00  0.00    -0.744 OA
ENDBRANCH  91  92
ENDBRANCH  63  86
BRANCH  75  96
ATOM     96  C   UNL A   1      49.867  26.951  26.910  1.00  0.00    -0.014 A 
ATOM     97  C   UNL A   1      50.786  26.537  27.889  1.00  0.00     0.010 A 
ATOM     98  C   UNL A   1      50.310  27.127  25.586  1.00  0.00     0.010 A 
ATOM     99  C   UNL A   1      52.130  26.346  27.560  1.00  0.00     0.020 A 
ATOM    100  C   UNL A   1      51.646  26.904  25.245  1.00  0.00     0.020 A 
ATOM    101  C   UNL A   1      52.552  26.533  26.240  1.00  0.00     0.054 A 
BRANCH 101 102
ATOM    102  S   UNL A   1      54.296  26.253  25.830  1.00  0.00     0.124 S 
ATOM    103  O   UNL A   1      54.827  25.752  27.095  1.00  0.00    -0.237 OA
ATOM    104  O   UNL A   1      54.218  25.275  24.749  1.00  0.00    -0.237 OA
ATOM    105  O   UNL A   1      54.776  27.575  25.434  1.00  0.00    -0.744 OA
ENDBRANCH 101 102
ENDBRANCH  75  96
ENDBRANCH  49  50
ENDBRANCH  41  44
ENDBRANCH  39  40
ENDBRANCH  38  39
ENDBRANCH  37  38
ENDBRANCH  36  37
ENDBRANCH  35  36
ENDBRANCH   1  35
TORSDOF 24
ENDMDL
