MODEL 1
REMARK VINA RESULT:     -10.4      0.000      0.000
REMARK SMILES CC(C)Cc1cc(C(=O)N[C@@H](Cc2ccco2)C(=O)NCCCCCCNC(=O)c2ccc(-c3c4nc(c(-c5ccc(S(=O)(=O)[O-])cc5)c5ccc([nH]5)c(-c5ccc(S(=O)(=O)[O-])cc5)c5nc(c(-c6ccc(S(=O)(=O)[O-])cc6)c6ccc3[nH]6)C=C5)C=C4)cc2)on1
REMARK SMILES IDX 23 1 22 2 21 3 20 4 18 5 19 6 11 8 10 9 8 10 9 11 7 13 5 14
REMARK SMILES IDX 6 15 91 16 90 17 4 18 2 19 1 20 3 21 12 22 13 23 14 24 17 25
REMARK SMILES IDX 15 26 16 27 24 28 25 29 26 30 27 31 28 32 29 34 30 35 31 36
REMARK SMILES IDX 89 37 32 38 88 39 33 40 34 41 35 42 82 43 36 44 87 45 81 46
REMARK SMILES IDX 83 47 37 48 86 49 80 50 79 51 38 53 68 54 49 55 67 56 50 57
REMARK SMILES IDX 53 58 66 59 84 60 51 61 52 62 65 64 85 65 54 66 39 67 40 68
REMARK SMILES IDX 48 69 41 70 47 71 42 72 43 73 44 74 45 75 46 76 69 77 70 78
REMARK SMILES IDX 78 79 71 80 77 81 72 82 73 83 74 84 75 85 76 86 55 87 56 88
REMARK SMILES IDX 64 89 57 90 63 91 58 92 59 93 60 94 61 95 62 96
REMARK H PARENT 20 7 10 12 27 33 83 52 53 63
REMARK Flexibility Score: inf
ROOT
ATOM      1  C   UNL A   1      31.517  28.210  23.999  1.00  0.00     0.002 C 
ENDROOT
BRANCH   1   2
ATOM      2  C   UNL A   1      31.605  26.874  23.254  1.00  0.00     0.021 C 
BRANCH   2   3
ATOM      3  C   UNL A   1      32.994  26.261  23.228  1.00  0.00     0.116 C 
BRANCH   3   4
ATOM      4  N   UNL A   1      33.061  25.018  22.496  1.00  0.00    -0.354 N 
ATOM      5  C   UNL A   1      33.653  23.846  22.848  1.00  0.00     0.243 C 
ATOM      6  O   UNL A   1      33.239  22.824  22.285  1.00  0.00    -0.273 OA
ATOM      7  H   UNL A   1      32.614  25.019  21.619  1.00  0.00     0.163 HD
BRANCH   5   8
ATOM      8  C   UNL A   1      34.708  23.721  23.968  1.00  0.00     0.179 C 
BRANCH   8   9
ATOM      9  N   UNL A   1      34.219  23.716  25.353  1.00  0.00    -0.337 N 
ATOM     10  C   UNL A   1      33.730  22.691  26.138  1.00  0.00     0.290 C 
ATOM     11  O   UNL A   1      33.608  22.939  27.335  1.00  0.00    -0.266 OA
ATOM     12  H   UNL A   1      34.243  24.594  25.798  1.00  0.00     0.164 HD
BRANCH  10  13
ATOM     13  C   UNL A   1      33.406  21.403  25.566  1.00  0.00     0.224 A 
ATOM     14  C   UNL A   1      33.067  19.291  25.041  1.00  0.00     0.085 A 
ATOM     15  C   UNL A   1      34.075  20.213  25.388  1.00  0.00     0.083 A 
ATOM     16  N   UNL A   1      31.922  19.913  24.750  1.00  0.00    -0.084 NA
ATOM     17  O   UNL A   1      32.138  21.245  25.071  1.00  0.00    -0.351 OA
BRANCH  14  18
ATOM     18  C   UNL A   1      33.146  17.805  25.132  1.00  0.00     0.063 C 
BRANCH  18  19
ATOM     19  C   UNL A   1      34.425  17.282  24.430  1.00  0.00    -0.011 C 
ATOM     20  C   UNL A   1      35.047  16.102  25.186  1.00  0.00     0.008 C 
ATOM     21  C   UNL A   1      34.130  16.881  22.987  1.00  0.00     0.008 C 
ENDBRANCH  18  19
ENDBRANCH  14  18
ENDBRANCH  10  13
ENDBRANCH   8   9
BRANCH   8  22
ATOM     22  C   UNL A   1      35.799  22.673  23.711  1.00  0.00     0.110 C 
BRANCH  22  23
ATOM     23  C   UNL A   1      36.913  22.631  24.689  1.00  0.00     0.106 A 
ATOM     24  C   UNL A   1      37.878  21.685  24.974  1.00  0.00     0.045 A 
ATOM     25  O   UNL A   1      37.094  23.732  25.473  1.00  0.00    -0.469 OA
ATOM     26  C   UNL A   1      38.690  22.237  25.994  1.00  0.00     0.042 A 
ATOM     27  C   UNL A   1      38.180  23.488  26.255  1.00  0.00     0.195 A 
ENDBRANCH  22  23
ENDBRANCH   8  22
ENDBRANCH   5   8
ENDBRANCH   3   4
ENDBRANCH   2   3
ENDBRANCH   1   2
BRANCH   1  28
ATOM     28  C   UNL A   1      32.700  28.547  24.915  1.00  0.00     0.002 C 
BRANCH  28  29
ATOM     29  C   UNL A   1      32.640  27.959  26.327  1.00  0.00     0.021 C 
BRANCH  29  30
ATOM     30  C   UNL A   1      33.733  28.438  27.273  1.00  0.00     0.116 C 
BRANCH  30  31
ATOM     31  N   UNL A   1      33.697  29.876  27.475  1.00  0.00    -0.352 N 
ATOM     32  C   UNL A   1      34.642  30.699  28.031  1.00  0.00     0.251 C 
ATOM     33  H   UNL A   1      32.876  30.324  27.165  1.00  0.00     0.163 HD
ATOM     34  O   UNL A   1      34.364  31.868  28.280  1.00  0.00    -0.269 OA
BRANCH  32  35
ATOM     35  C   UNL A   1      35.983  30.166  28.354  1.00  0.00     0.039 A 
ATOM     36  C   UNL A   1      36.968  30.179  27.363  1.00  0.00     0.014 A 
ATOM     37  C   UNL A   1      36.270  29.656  29.623  1.00  0.00     0.014 A 
ATOM     38  C   UNL A   1      38.255  29.730  27.664  1.00  0.00     0.010 A 
ATOM     39  C   UNL A   1      37.572  29.284  29.943  1.00  0.00     0.010 A 
ATOM     40  C   UNL A   1      38.577  29.310  28.965  1.00  0.00    -0.014 A 
BRANCH  40  41
ATOM     41  C   UNL A   1      39.957  28.887  29.314  1.00  0.00     0.031 A 
ATOM     42  C   UNL A   1      40.887  29.845  30.011  1.00  0.00     0.074 A 
ATOM     43  C   UNL A   1      40.387  27.658  28.962  1.00  0.00     0.049 A 
ATOM     44  N   UNL A   1      42.139  29.677  30.351  1.00  0.00    -0.248 NA
ATOM     45  C   UNL A   1      40.348  31.173  30.351  1.00  0.00     0.031 C 
ATOM     46  C   UNL A   1      39.593  26.652  28.252  1.00  0.00     0.029 A 
ATOM     47  N   UNL A   1      41.601  27.046  29.151  1.00  0.00    -0.354 N 
ATOM     48  C   UNL A   1      42.537  30.874  30.934  1.00  0.00     0.074 A 
ATOM     49  C   UNL A   1      41.414  31.780  30.852  1.00  0.00     0.031 C 
ATOM     50  C   UNL A   1      40.331  25.543  28.090  1.00  0.00     0.029 A 
ATOM     51  C   UNL A   1      41.663  25.770  28.642  1.00  0.00     0.049 A 
ATOM     52  H   UNL A   1      42.358  27.480  29.609  1.00  0.00     0.167 HD
ATOM     53  C   UNL A   1      43.724  31.184  31.510  1.00  0.00     0.031 A 
ATOM     54  C   UNL A   1      42.679  24.886  28.610  1.00  0.00     0.031 A 
ATOM     55  C   UNL A   1      44.836  30.275  31.597  1.00  0.00     0.049 A 
ATOM     56  C   UNL A   1      43.996  25.266  29.231  1.00  0.00     0.074 A 
ATOM     57  C   UNL A   1      46.066  30.480  32.198  1.00  0.00     0.029 A 
ATOM     58  N   UNL A   1      44.857  28.992  31.071  1.00  0.00    -0.354 N 
ATOM     59  N   UNL A   1      44.332  26.383  29.833  1.00  0.00    -0.248 NA
ATOM     60  C   UNL A   1      45.069  24.263  29.181  1.00  0.00     0.031 C 
ATOM     61  C   UNL A   1      46.851  29.343  31.985  1.00  0.00     0.029 A 
ATOM     62  C   UNL A   1      46.086  28.403  31.314  1.00  0.00     0.049 A 
ATOM     63  H   UNL A   1      44.108  28.564  30.597  1.00  0.00     0.167 HD
ATOM     64  C   UNL A   1      45.643  26.202  30.260  1.00  0.00     0.074 A 
ATOM     65  C   UNL A   1      46.031  24.865  29.865  1.00  0.00     0.031 C 
ATOM     66  C   UNL A   1      46.455  27.067  30.919  1.00  0.00     0.031 A 
BRANCH  53  67
ATOM     67  C   UNL A   1      43.881  32.561  32.099  1.00  0.00    -0.014 A 
ATOM     68  C   UNL A   1      44.297  33.645  31.304  1.00  0.00     0.010 A 
ATOM     69  C   UNL A   1      43.541  32.791  33.445  1.00  0.00     0.010 A 
ATOM     70  C   UNL A   1      44.397  34.927  31.851  1.00  0.00     0.020 A 
ATOM     71  C   UNL A   1      43.611  34.077  33.988  1.00  0.00     0.020 A 
ATOM     72  C   UNL A   1      44.050  35.136  33.189  1.00  0.00     0.054 A 
BRANCH  72  73
ATOM     73  S   UNL A   1      44.140  36.821  33.853  1.00  0.00     0.124 S 
ATOM     74  O   UNL A   1      44.465  36.574  35.256  1.00  0.00    -0.237 OA
ATOM     75  O   UNL A   1      45.208  37.420  33.057  1.00  0.00    -0.237 OA
ATOM     76  O   UNL A   1      42.806  37.363  33.611  1.00  0.00    -0.744 OA
ENDBRANCH  72  73
ENDBRANCH  53  67
BRANCH  54  77
ATOM     77  C   UNL A   1      42.498  23.557  27.961  1.00  0.00    -0.014 A 
ATOM     78  C   UNL A   1      42.100  22.438  28.714  1.00  0.00     0.010 A 
ATOM     79  C   UNL A   1      42.745  23.399  26.585  1.00  0.00     0.010 A 
ATOM     80  C   UNL A   1      41.985  21.181  28.110  1.00  0.00     0.020 A 
ATOM     81  C   UNL A   1      42.598  22.154  25.971  1.00  0.00     0.020 A 
ATOM     82  C   UNL A   1      42.237  21.048  26.742  1.00  0.00     0.054 A 
BRANCH  82  83
ATOM     83  S   UNL A   1      42.063  19.412  25.975  1.00  0.00     0.124 S 
ATOM     84  O   UNL A   1      42.877  19.553  24.773  1.00  0.00    -0.237 OA
ATOM     85  O   UNL A   1      42.598  18.524  27.004  1.00  0.00    -0.237 OA
ATOM     86  O   UNL A   1      40.624  19.294  25.747  1.00  0.00    -0.744 OA
ENDBRANCH  82  83
ENDBRANCH  54  77
BRANCH  66  87
ATOM     87  C   UNL A   1      47.829  26.580  31.298  1.00  0.00    -0.014 A 
ATOM     88  C   UNL A   1      48.088  26.030  32.565  1.00  0.00     0.010 A 
ATOM     89  C   UNL A   1      48.864  26.626  30.347  1.00  0.00     0.010 A 
ATOM     90  C   UNL A   1      49.366  25.565  32.886  1.00  0.00     0.020 A 
ATOM     91  C   UNL A   1      50.135  26.133  30.651  1.00  0.00     0.020 A 
ATOM     92  C   UNL A   1      50.381  25.618  31.926  1.00  0.00     0.054 A 
BRANCH  92  93
ATOM     93  S   UNL A   1      52.019  24.967  32.352  1.00  0.00     0.124 S 
ATOM     94  O   UNL A   1      52.872  25.620  31.363  1.00  0.00    -0.237 OA
ATOM     95  O   UNL A   1      52.194  25.421  33.730  1.00  0.00    -0.237 OA
ATOM     96  O   UNL A   1      51.872  23.522  32.191  1.00  0.00    -0.744 OA
ENDBRANCH  92  93
ENDBRANCH  66  87
ENDBRANCH  40  41
ENDBRANCH  32  35
ENDBRANCH  30  31
ENDBRANCH  29  30
ENDBRANCH  28  29
ENDBRANCH   1  28
TORSDOF 22
ENDMDL
MODEL 2
REMARK VINA RESULT:      -9.8      3.227      9.731
REMARK SMILES CC(C)Cc1cc(C(=O)N[C@@H](Cc2ccco2)C(=O)NCCCCCCNC(=O)c2ccc(-c3c4nc(c(-c5ccc(S(=O)(=O)[O-])cc5)c5ccc([nH]5)c(-c5ccc(S(=O)(=O)[O-])cc5)c5nc(c(-c6ccc(S(=O)(=O)[O-])cc6)c6ccc3[nH]6)C=C5)C=C4)cc2)on1
REMARK SMILES IDX 23 1 22 2 21 3 20 4 18 5 19 6 11 8 10 9 8 10 9 11 7 13 5 14
REMARK SMILES IDX 6 15 91 16 90 17 4 18 2 19 1 20 3 21 12 22 13 23 14 24 17 25
REMARK SMILES IDX 15 26 16 27 24 28 25 29 26 30 27 31 28 32 29 34 30 35 31 36
REMARK SMILES IDX 89 37 32 38 88 39 33 40 34 41 35 42 82 43 36 44 87 45 81 46
REMARK SMILES IDX 83 47 37 48 86 49 80 50 79 51 38 53 68 54 49 55 67 56 50 57
REMARK SMILES IDX 53 58 66 59 84 60 51 61 52 62 65 64 85 65 54 66 39 67 40 68
REMARK SMILES IDX 48 69 41 70 47 71 42 72 43 73 44 74 45 75 46 76 69 77 70 78
REMARK SMILES IDX 78 79 71 80 77 81 72 82 73 83 74 84 75 85 76 86 55 87 56 88
REMARK SMILES IDX 64 89 57 90 63 91 58 92 59 93 60 94 61 95 62 96
REMARK H PARENT 20 7 10 12 27 33 83 52 53 63
REMARK Flexibility Score: inf
ROOT
ATOM      1  C   UNL A   1      34.620  23.021  22.876  1.00  0.00     0.002 C 
ENDROOT
BRANCH   1   2
ATOM      2  C   UNL A   1      33.319  22.707  23.622  1.00  0.00     0.021 C 
BRANCH   2   3
ATOM      3  C   UNL A   1      32.133  23.555  23.196  1.00  0.00     0.116 C 
BRANCH   3   4
ATOM      4  N   UNL A   1      32.408  24.399  22.057  1.00  0.00    -0.354 N 
ATOM      5  C   UNL A   1      32.735  25.718  22.025  1.00  0.00     0.243 C 
ATOM      6  O   UNL A   1      33.323  26.121  21.013  1.00  0.00    -0.273 OA
ATOM      7  H   UNL A   1      32.353  23.956  21.180  1.00  0.00     0.163 HD
BRANCH   5   8
ATOM      8  C   UNL A   1      32.514  26.685  23.209  1.00  0.00     0.179 C 
BRANCH   8   9
ATOM      9  N   UNL A   1      31.585  26.254  24.262  1.00  0.00    -0.337 N 
ATOM     10  C   UNL A   1      30.272  26.597  24.509  1.00  0.00     0.290 C 
ATOM     11  O   UNL A   1      29.677  25.903  25.331  1.00  0.00    -0.266 OA
ATOM     12  H   UNL A   1      31.965  25.609  24.903  1.00  0.00     0.164 HD
BRANCH  10  13
ATOM     13  C   UNL A   1      29.646  27.701  23.815  1.00  0.00     0.224 A 
ATOM     14  C   UNL A   1      29.026  29.373  22.524  1.00  0.00     0.085 A 
ATOM     15  C   UNL A   1      30.045  28.952  23.401  1.00  0.00     0.083 A 
ATOM     16  N   UNL A   1      27.955  28.580  22.608  1.00  0.00    -0.084 NA
ATOM     17  O   UNL A   1      28.342  27.531  23.430  1.00  0.00    -0.351 OA
BRANCH  14  18
ATOM     18  C   UNL A   1      29.124  30.443  21.490  1.00  0.00     0.063 C 
BRANCH  18  19
ATOM     19  C   UNL A   1      28.047  31.532  21.726  1.00  0.00    -0.011 C 
ATOM     20  C   UNL A   1      28.329  32.346  22.994  1.00  0.00     0.008 C 
ATOM     21  C   UNL A   1      27.939  32.462  20.521  1.00  0.00     0.008 C 
ENDBRANCH  18  19
ENDBRANCH  14  18
ENDBRANCH  10  13
ENDBRANCH   8   9
BRANCH   8  22
ATOM     22  C   UNL A   1      33.793  27.329  23.761  1.00  0.00     0.110 C 
BRANCH  22  23
ATOM     23  C   UNL A   1      33.641  28.138  24.995  1.00  0.00     0.106 A 
ATOM     24  C   UNL A   1      34.134  27.997  26.277  1.00  0.00     0.045 A 
ATOM     25  O   UNL A   1      32.904  29.281  24.902  1.00  0.00    -0.469 OA
ATOM     26  C   UNL A   1      33.667  29.114  27.010  1.00  0.00     0.042 A 
ATOM     27  C   UNL A   1      32.933  29.872  26.128  1.00  0.00     0.195 A 
ENDBRANCH  22  23
ENDBRANCH   8  22
ENDBRANCH   5   8
ENDBRANCH   3   4
ENDBRANCH   2   3
ENDBRANCH   1   2
BRANCH   1  28
ATOM     28  C   UNL A   1      35.890  23.076  23.736  1.00  0.00     0.002 C 
BRANCH  28  29
ATOM     29  C   UNL A   1      35.677  22.975  25.248  1.00  0.00     0.021 C 
BRANCH  29  30
ATOM     30  C   UNL A   1      36.866  23.407  26.098  1.00  0.00     0.116 C 
BRANCH  30  31
ATOM     31  N   UNL A   1      37.937  22.428  26.086  1.00  0.00    -0.352 N 
ATOM     32  C   UNL A   1      39.278  22.604  26.313  1.00  0.00     0.251 C 
ATOM     33  H   UNL A   1      37.661  21.502  25.888  1.00  0.00     0.163 HD
ATOM     34  O   UNL A   1      40.062  21.688  26.087  1.00  0.00    -0.269 OA
BRANCH  32  35
ATOM     35  C   UNL A   1      39.775  23.907  26.804  1.00  0.00     0.039 A 
ATOM     36  C   UNL A   1      40.069  24.045  28.163  1.00  0.00     0.014 A 
ATOM     37  C   UNL A   1      39.950  24.986  25.933  1.00  0.00     0.014 A 
ATOM     38  C   UNL A   1      40.589  25.251  28.637  1.00  0.00     0.010 A 
ATOM     39  C   UNL A   1      40.544  26.158  26.393  1.00  0.00     0.010 A 
ATOM     40  C   UNL A   1      40.862  26.307  27.751  1.00  0.00    -0.014 A 
BRANCH  40  41
ATOM     41  C   UNL A   1      41.473  27.572  28.231  1.00  0.00     0.031 A 
ATOM     42  C   UNL A   1      42.970  27.736  28.233  1.00  0.00     0.074 A 
ATOM     43  C   UNL A   1      40.682  28.555  28.708  1.00  0.00     0.049 A 
ATOM     44  N   UNL A   1      43.687  28.743  28.660  1.00  0.00    -0.248 NA
ATOM     45  C   UNL A   1      43.767  26.613  27.709  1.00  0.00     0.031 C 
ATOM     46  C   UNL A   1      39.220  28.502  28.791  1.00  0.00     0.029 A 
ATOM     47  N   UNL A   1      40.997  29.790  29.216  1.00  0.00    -0.354 N 
ATOM     48  C   UNL A   1      45.013  28.374  28.464  1.00  0.00     0.074 A 
ATOM     49  C   UNL A   1      45.005  27.029  27.933  1.00  0.00     0.031 C 
ATOM     50  C   UNL A   1      38.766  29.661  29.294  1.00  0.00     0.029 A 
ATOM     51  C   UNL A   1      39.901  30.522  29.610  1.00  0.00     0.049 A 
ATOM     52  H   UNL A   1      41.921  30.122  29.292  1.00  0.00     0.167 HD
ATOM     53  C   UNL A   1      46.137  29.098  28.682  1.00  0.00     0.031 A 
ATOM     54  C   UNL A   1      39.818  31.743  30.175  1.00  0.00     0.031 A 
ATOM     55  C   UNL A   1      46.140  30.439  29.203  1.00  0.00     0.049 A 
ATOM     56  C   UNL A   1      41.084  32.515  30.433  1.00  0.00     0.074 A 
ATOM     57  C   UNL A   1      47.224  31.273  29.420  1.00  0.00     0.029 A 
ATOM     58  N   UNL A   1      45.009  31.145  29.586  1.00  0.00    -0.354 N 
ATOM     59  N   UNL A   1      42.325  32.171  30.182  1.00  0.00    -0.248 NA
ATOM     60  C   UNL A   1      40.938  33.846  31.040  1.00  0.00     0.031 C 
ATOM     61  C   UNL A   1      46.754  32.460  29.989  1.00  0.00     0.029 A 
ATOM     62  C   UNL A   1      45.372  32.394  30.061  1.00  0.00     0.049 A 
ATOM     63  H   UNL A   1      44.087  30.807  29.529  1.00  0.00     0.167 HD
ATOM     64  C   UNL A   1      43.103  33.256  30.571  1.00  0.00     0.074 A 
ATOM     65  C   UNL A   1      42.193  34.272  31.054  1.00  0.00     0.031 C 
ATOM     66  C   UNL A   1      44.452  33.398  30.532  1.00  0.00     0.031 A 
BRANCH  53  67
ATOM     67  C   UNL A   1      47.460  28.458  28.352  1.00  0.00    -0.014 A 
ATOM     68  C   UNL A   1      48.153  27.693  29.308  1.00  0.00     0.010 A 
ATOM     69  C   UNL A   1      47.985  28.564  27.050  1.00  0.00     0.010 A 
ATOM     70  C   UNL A   1      49.358  27.068  28.978  1.00  0.00     0.020 A 
ATOM     71  C   UNL A   1      49.175  27.916  26.708  1.00  0.00     0.020 A 
ATOM     72  C   UNL A   1      49.860  27.181  27.678  1.00  0.00     0.054 A 
BRANCH  72  73
ATOM     73  S   UNL A   1      51.400  26.315  27.267  1.00  0.00     0.124 S 
ATOM     74  O   UNL A   1      52.227  26.600  28.436  1.00  0.00    -0.237 OA
ATOM     75  O   UNL A   1      50.959  24.929  27.131  1.00  0.00    -0.237 OA
ATOM     76  O   UNL A   1      51.836  26.952  26.026  1.00  0.00    -0.744 OA
ENDBRANCH  72  73
ENDBRANCH  53  67
BRANCH  54  77
ATOM     77  C   UNL A   1      38.490  32.311  30.542  1.00  0.00    -0.014 A 
ATOM     78  C   UNL A   1      37.779  33.120  29.638  1.00  0.00     0.010 A 
ATOM     79  C   UNL A   1      37.938  32.061  31.812  1.00  0.00     0.010 A 
ATOM     80  C   UNL A   1      36.559  33.696  30.009  1.00  0.00     0.020 A 
ATOM     81  C   UNL A   1      36.704  32.606  32.175  1.00  0.00     0.020 A 
ATOM     82  C   UNL A   1      36.031  33.436  31.277  1.00  0.00     0.054 A 
BRANCH  82  83
ATOM     83  S   UNL A   1      34.437  34.177  31.731  1.00  0.00     0.124 S 
ATOM     84  O   UNL A   1      33.869  33.159  32.606  1.00  0.00    -0.237 OA
ATOM     85  O   UNL A   1      34.843  35.420  32.381  1.00  0.00    -0.237 OA
ATOM     86  O   UNL A   1      33.762  34.347  30.445  1.00  0.00    -0.744 OA
ENDBRANCH  82  83
ENDBRANCH  54  77
BRANCH  66  87
ATOM     87  C   UNL A   1      45.026  34.716  30.982  1.00  0.00    -0.014 A 
ATOM     88  C   UNL A   1      45.185  35.789  30.088  1.00  0.00     0.010 A 
ATOM     89  C   UNL A   1      45.360  34.897  32.337  1.00  0.00     0.010 A 
ATOM     90  C   UNL A   1      45.699  37.009  30.534  1.00  0.00     0.020 A 
ATOM     91  C   UNL A   1      45.844  36.126  32.793  1.00  0.00     0.020 A 
ATOM     92  C   UNL A   1      46.024  37.170  31.885  1.00  0.00     0.054 A 
BRANCH  92  93
ATOM     93  S   UNL A   1      46.647  38.778  32.446  1.00  0.00     0.124 S 
ATOM     94  O   UNL A   1      45.450  39.384  33.020  1.00  0.00    -0.237 OA
ATOM     95  O   UNL A   1      47.683  38.401  33.405  1.00  0.00    -0.237 OA
ATOM     96  O   UNL A   1      47.138  39.407  31.222  1.00  0.00    -0.744 OA
ENDBRANCH  92  93
ENDBRANCH  66  87
ENDBRANCH  40  41
ENDBRANCH  32  35
ENDBRANCH  30  31
ENDBRANCH  29  30
ENDBRANCH  28  29
ENDBRANCH   1  28
TORSDOF 22
ENDMDL
MODEL 3
REMARK VINA RESULT:      -9.8      3.520      9.161
REMARK SMILES CC(C)Cc1cc(C(=O)N[C@@H](Cc2ccco2)C(=O)NCCCCCCNC(=O)c2ccc(-c3c4nc(c(-c5ccc(S(=O)(=O)[O-])cc5)c5ccc([nH]5)c(-c5ccc(S(=O)(=O)[O-])cc5)c5nc(c(-c6ccc(S(=O)(=O)[O-])cc6)c6ccc3[nH]6)C=C5)C=C4)cc2)on1
REMARK SMILES IDX 23 1 22 2 21 3 20 4 18 5 19 6 11 8 10 9 8 10 9 11 7 13 5 14
REMARK SMILES IDX 6 15 91 16 90 17 4 18 2 19 1 20 3 21 12 22 13 23 14 24 17 25
REMARK SMILES IDX 15 26 16 27 24 28 25 29 26 30 27 31 28 32 29 34 30 35 31 36
REMARK SMILES IDX 89 37 32 38 88 39 33 40 34 41 35 42 82 43 36 44 87 45 81 46
REMARK SMILES IDX 83 47 37 48 86 49 80 50 79 51 38 53 68 54 49 55 67 56 50 57
REMARK SMILES IDX 53 58 66 59 84 60 51 61 52 62 65 64 85 65 54 66 39 67 40 68
REMARK SMILES IDX 48 69 41 70 47 71 42 72 43 73 44 74 45 75 46 76 69 77 70 78
REMARK SMILES IDX 78 79 71 80 77 81 72 82 73 83 74 84 75 85 76 86 55 87 56 88
REMARK SMILES IDX 64 89 57 90 63 91 58 92 59 93 60 94 61 95 62 96
REMARK H PARENT 20 7 10 12 27 33 83 52 53 63
REMARK Flexibility Score: inf
ROOT
ATOM      1  C   UNL A   1      34.823  30.666  27.923  1.00  0.00     0.002 C 
ENDROOT
BRANCH   1   2
ATOM      2  C   UNL A   1      35.346  29.435  27.176  1.00  0.00     0.021 C 
BRANCH   2   3
ATOM      3  C   UNL A   1      34.290  28.383  26.884  1.00  0.00     0.116 C 
BRANCH   3   4
ATOM      4  N   UNL A   1      32.995  28.699  27.439  1.00  0.00    -0.354 N 
ATOM      5  C   UNL A   1      31.826  28.014  27.333  1.00  0.00     0.243 C 
ATOM      6  O   UNL A   1      30.974  28.228  28.206  1.00  0.00    -0.273 OA
ATOM      7  H   UNL A   1      32.953  29.526  27.971  1.00  0.00     0.163 HD
BRANCH   5   8
ATOM      8  C   UNL A   1      31.563  26.927  26.267  1.00  0.00     0.179 C 
BRANCH   8   9
ATOM      9  N   UNL A   1      30.631  25.849  26.625  1.00  0.00    -0.337 N 
ATOM     10  C   UNL A   1      30.774  24.477  26.585  1.00  0.00     0.290 C 
ATOM     11  O   UNL A   1      29.904  23.827  27.160  1.00  0.00    -0.266 OA
ATOM     12  H   UNL A   1      29.754  26.159  26.949  1.00  0.00     0.164 HD
BRANCH  10  13
ATOM     13  C   UNL A   1      31.899  23.863  25.915  1.00  0.00     0.224 A 
ATOM     14  C   UNL A   1      33.649  22.713  25.237  1.00  0.00     0.085 A 
ATOM     15  C   UNL A   1      33.208  23.596  26.243  1.00  0.00     0.083 A 
ATOM     16  N   UNL A   1      32.784  22.664  24.221  1.00  0.00    -0.084 NA
ATOM     17  O   UNL A   1      31.685  23.398  24.644  1.00  0.00    -0.351 OA
BRANCH  14  18
ATOM     18  C   UNL A   1      34.823  21.795  25.306  1.00  0.00     0.063 C 
BRANCH  18  19
ATOM     19  C   UNL A   1      35.948  22.276  24.356  1.00  0.00    -0.011 C 
ATOM     20  C   UNL A   1      36.270  23.760  24.560  1.00  0.00     0.008 C 
ATOM     21  C   UNL A   1      37.212  21.437  24.539  1.00  0.00     0.008 C 
ENDBRANCH  18  19
ENDBRANCH  14  18
ENDBRANCH  10  13
ENDBRANCH   8   9
BRANCH   8  22
ATOM     22  C   UNL A   1      31.350  27.460  24.844  1.00  0.00     0.110 C 
BRANCH  22  23
ATOM     23  C   UNL A   1      31.967  26.672  23.749  1.00  0.00     0.106 A 
ATOM     24  C   UNL A   1      31.472  26.158  22.567  1.00  0.00     0.045 A 
ATOM     25  O   UNL A   1      33.298  26.394  23.857  1.00  0.00    -0.469 OA
ATOM     26  C   UNL A   1      32.560  25.525  21.920  1.00  0.00     0.042 A 
ATOM     27  C   UNL A   1      33.651  25.706  22.738  1.00  0.00     0.195 A 
ENDBRANCH  22  23
ENDBRANCH   8  22
ENDBRANCH   5   8
ENDBRANCH   3   4
ENDBRANCH   2   3
ENDBRANCH   1   2
BRANCH   1  28
ATOM     28  C   UNL A   1      35.629  31.958  27.737  1.00  0.00     0.002 C 
BRANCH  28  29
ATOM     29  C   UNL A   1      35.596  32.940  28.910  1.00  0.00     0.021 C 
BRANCH  29  30
ATOM     30  C   UNL A   1      36.711  32.761  29.933  1.00  0.00     0.116 C 
BRANCH  30  31
ATOM     31  N   UNL A   1      36.325  31.881  31.021  1.00  0.00    -0.352 N 
ATOM     32  C   UNL A   1      36.897  30.704  31.430  1.00  0.00     0.251 C 
ATOM     33  H   UNL A   1      35.540  32.172  31.541  1.00  0.00     0.163 HD
ATOM     34  O   UNL A   1      36.327  30.003  32.261  1.00  0.00    -0.269 OA
BRANCH  32  35
ATOM     35  C   UNL A   1      38.186  30.272  30.849  1.00  0.00     0.039 A 
ATOM     36  C   UNL A   1      38.298  30.174  29.459  1.00  0.00     0.014 A 
ATOM     37  C   UNL A   1      39.278  29.964  31.665  1.00  0.00     0.014 A 
ATOM     38  C   UNL A   1      39.522  29.819  28.889  1.00  0.00     0.010 A 
ATOM     39  C   UNL A   1      40.517  29.689  31.092  1.00  0.00     0.010 A 
ATOM     40  C   UNL A   1      40.650  29.606  29.698  1.00  0.00    -0.014 A 
BRANCH  40  41
ATOM     41  C   UNL A   1      41.972  29.288  29.102  1.00  0.00     0.031 A 
ATOM     42  C   UNL A   1      42.255  27.902  28.587  1.00  0.00     0.074 A 
ATOM     43  C   UNL A   1      42.933  30.234  29.068  1.00  0.00     0.049 A 
ATOM     44  N   UNL A   1      43.362  27.422  28.082  1.00  0.00    -0.248 NA
ATOM     45  C   UNL A   1      41.160  26.920  28.670  1.00  0.00     0.031 C 
ATOM     46  C   UNL A   1      42.793  31.604  29.569  1.00  0.00     0.029 A 
ATOM     47  N   UNL A   1      44.220  30.187  28.594  1.00  0.00    -0.354 N 
ATOM     48  C   UNL A   1      43.100  26.087  27.795  1.00  0.00     0.074 A 
ATOM     49  C   UNL A   1      41.750  25.816  28.235  1.00  0.00     0.031 C 
ATOM     50  C   UNL A   1      43.937  32.272  29.351  1.00  0.00     0.029 A 
ATOM     51  C   UNL A   1      44.907  31.370  28.738  1.00  0.00     0.049 A 
ATOM     52  H   UNL A   1      44.615  29.381  28.188  1.00  0.00     0.167 HD
ATOM     53  C   UNL A   1      43.902  25.174  27.197  1.00  0.00     0.031 A 
ATOM     54  C   UNL A   1      46.178  31.690  28.426  1.00  0.00     0.031 A 
ATOM     55  C   UNL A   1      45.243  25.450  26.754  1.00  0.00     0.049 A 
ATOM     56  C   UNL A   1      47.057  30.649  27.788  1.00  0.00     0.074 A 
ATOM     57  C   UNL A   1      46.121  24.604  26.099  1.00  0.00     0.029 A 
ATOM     58  N   UNL A   1      45.899  26.660  26.916  1.00  0.00    -0.354 N 
ATOM     59  N   UNL A   1      46.769  29.409  27.470  1.00  0.00    -0.248 NA
ATOM     60  C   UNL A   1      48.431  31.051  27.455  1.00  0.00     0.031 C 
ATOM     61  C   UNL A   1      47.329  25.284  25.917  1.00  0.00     0.029 A 
ATOM     62  C   UNL A   1      47.179  26.576  26.395  1.00  0.00     0.049 A 
ATOM     63  H   UNL A   1      45.512  27.461  27.339  1.00  0.00     0.167 HD
ATOM     64  C   UNL A   1      47.914  28.896  26.871  1.00  0.00     0.074 A 
ATOM     65  C   UNL A   1      48.891  29.964  26.854  1.00  0.00     0.031 C 
ATOM     66  C   UNL A   1      48.138  27.651  26.380  1.00  0.00     0.031 A 
BRANCH  53  67
ATOM     67  C   UNL A   1      43.351  23.789  26.980  1.00  0.00    -0.014 A 
ATOM     68  C   UNL A   1      43.319  22.849  28.027  1.00  0.00     0.010 A 
ATOM     69  C   UNL A   1      42.793  23.443  25.735  1.00  0.00     0.010 A 
ATOM     70  C   UNL A   1      42.766  21.582  27.826  1.00  0.00     0.020 A 
ATOM     71  C   UNL A   1      42.211  22.188  25.539  1.00  0.00     0.020 A 
ATOM     72  C   UNL A   1      42.211  21.261  26.584  1.00  0.00     0.054 A 
BRANCH  72  73
ATOM     73  S   UNL A   1      41.453  19.627  26.371  1.00  0.00     0.124 S 
ATOM     74  O   UNL A   1      41.630  19.038  27.696  1.00  0.00    -0.237 OA
ATOM     75  O   UNL A   1      40.078  19.959  26.009  1.00  0.00    -0.237 OA
ATOM     76  O   UNL A   1      42.245  19.012  25.308  1.00  0.00    -0.744 OA
ENDBRANCH  72  73
ENDBRANCH  53  67
BRANCH  54  77
ATOM     77  C   UNL A   1      46.701  33.055  28.715  1.00  0.00    -0.014 A 
ATOM     78  C   UNL A   1      46.610  34.080  27.756  1.00  0.00     0.010 A 
ATOM     79  C   UNL A   1      47.314  33.333  29.951  1.00  0.00     0.010 A 
ATOM     80  C   UNL A   1      47.152  35.343  28.013  1.00  0.00     0.020 A 
ATOM     81  C   UNL A   1      47.826  34.603  30.225  1.00  0.00     0.020 A 
ATOM     82  C   UNL A   1      47.759  35.595  29.246  1.00  0.00     0.054 A 
BRANCH  82  83
ATOM     83  S   UNL A   1      48.438  37.247  29.567  1.00  0.00     0.124 S 
ATOM     84  O   UNL A   1      49.856  37.051  29.291  1.00  0.00    -0.237 OA
ATOM     85  O   UNL A   1      47.713  38.077  28.608  1.00  0.00    -0.237 OA
ATOM     86  O   UNL A   1      48.099  37.489  30.969  1.00  0.00    -0.744 OA
ENDBRANCH  82  83
ENDBRANCH  54  77
BRANCH  66  87
ATOM     87  C   UNL A   1      49.476  27.386  25.740  1.00  0.00    -0.014 A 
ATOM     88  C   UNL A   1      50.558  26.885  26.484  1.00  0.00     0.010 A 
ATOM     89  C   UNL A   1      49.632  27.593  24.357  1.00  0.00     0.010 A 
ATOM     90  C   UNL A   1      51.782  26.626  25.863  1.00  0.00     0.020 A 
ATOM     91  C   UNL A   1      50.845  27.305  23.726  1.00  0.00     0.020 A 
ATOM     92  C   UNL A   1      51.918  26.837  24.487  1.00  0.00     0.054 A 
BRANCH  92  93
ATOM     93  S   UNL A   1      53.504  26.451  23.699  1.00  0.00     0.124 S 
ATOM     94  O   UNL A   1      54.219  27.718  23.820  1.00  0.00    -0.237 OA
ATOM     95  O   UNL A   1      54.014  25.359  24.525  1.00  0.00    -0.237 OA
ATOM     96  O   UNL A   1      53.133  26.073  22.337  1.00  0.00    -0.744 OA
ENDBRANCH  92  93
ENDBRANCH  66  87
ENDBRANCH  40  41
ENDBRANCH  32  35
ENDBRANCH  30  31
ENDBRANCH  29  30
ENDBRANCH  28  29
ENDBRANCH   1  28
TORSDOF 22
ENDMDL
