MODEL 1
REMARK VINA RESULT:      -9.0      0.000      0.000
REMARK SMILES O=C(NCCCCCCNC(=O)c1cc(-c2ccc(Cl)cc2)nc2c3c(C4CC4)cc(C(F)(F)F)nc3nn12)c1ccc(-c2c3nc(c(-c4ccc(S(=O)(=O)[O-])cc4)c4ccc([nH]4)c(-c4ccc(S(=O)(=O)[O-])cc4)c4nc(c(-c5ccc(S(=O)(=O)[O-])cc5)c5ccc2[nH]5)C=C4)C=C3)cc1
REMARK SMILES IDX 5 1 4 2 3 3 1 4 2 5 40 7 41 8 99 9 42 10 98 11 43 12 44 13
REMARK SMILES IDX 45 14 92 15 46 16 97 17 91 18 93 19 47 20 96 21 90 22 89 23
REMARK SMILES IDX 48 25 78 26 59 27 77 28 60 29 63 30 76 31 94 32 61 33 62 34
REMARK SMILES IDX 75 36 95 37 64 38 49 39 50 40 58 41 51 42 57 43 52 44 53 45
REMARK SMILES IDX 54 46 55 47 56 48 79 49 80 50 88 51 81 52 87 53 82 54 83 55
REMARK SMILES IDX 84 56 85 57 86 58 65 59 66 60 74 61 67 62 73 63 68 64 69 65
REMARK SMILES IDX 70 66 71 67 72 68 6 69 7 70 8 71 9 72 10 73 11 74 12 76
REMARK SMILES IDX 13 77 14 78 39 79 15 80 24 81 38 82 23 83 25 84 37 85 26 86
REMARK SMILES IDX 36 87 30 88 31 89 16 90 17 91 22 92 18 93 21 94 19 95 20 96
REMARK SMILES IDX 27 97 28 98 29 99 32 100 33 101 34 102 35 103
REMARK H PARENT 3 6 93 24 63 35 10 75
REMARK Flexibility Score: inf
ROOT
ATOM      1  C   UNL A   1      46.843  22.738  36.478  1.00  0.00     0.021 C 
ENDROOT
BRANCH   1   2
ATOM      2  C   UNL A   1      45.413  22.708  35.951  1.00  0.00     0.116 C 
BRANCH   2   3
ATOM      3  N   UNL A   1      44.572  23.743  36.530  1.00  0.00    -0.352 N 
ATOM      4  O   UNL A   1      43.481  25.741  36.519  1.00  0.00    -0.269 OA
ATOM      5  C   UNL A   1      44.195  24.933  35.946  1.00  0.00     0.251 C 
ATOM      6  H   UNL A   1      44.234  23.576  37.440  1.00  0.00     0.163 HD
BRANCH   5   7
ATOM      7  C   UNL A   1      44.707  25.196  34.591  1.00  0.00     0.039 A 
ATOM      8  C   UNL A   1      45.932  25.855  34.443  1.00  0.00     0.014 A 
ATOM      9  C   UNL A   1      43.856  24.981  33.506  1.00  0.00     0.014 A 
ATOM     10  C   UNL A   1      46.264  26.393  33.206  1.00  0.00     0.010 A 
ATOM     11  C   UNL A   1      44.205  25.503  32.264  1.00  0.00     0.010 A 
ATOM     12  C   UNL A   1      45.391  26.238  32.119  1.00  0.00    -0.014 A 
BRANCH  12  13
ATOM     13  C   UNL A   1      45.758  26.865  30.839  1.00  0.00     0.031 A 
ATOM     14  C   UNL A   1      45.696  25.978  29.645  1.00  0.00     0.074 A 
ATOM     15  C   UNL A   1      45.618  28.191  30.632  1.00  0.00     0.049 A 
ATOM     16  N   UNL A   1      44.580  25.722  29.029  1.00  0.00    -0.248 NA
ATOM     17  C   UNL A   1      46.822  25.150  29.219  1.00  0.00     0.031 C 
ATOM     18  C   UNL A   1      44.691  29.054  31.378  1.00  0.00     0.029 A 
ATOM     19  N   UNL A   1      46.066  28.985  29.605  1.00  0.00    -0.354 N 
ATOM     20  C   UNL A   1      44.823  24.660  28.185  1.00  0.00     0.074 A 
ATOM     21  C   UNL A   1      46.232  24.353  28.314  1.00  0.00     0.031 C 
ATOM     22  C   UNL A   1      44.485  30.181  30.664  1.00  0.00     0.029 A 
ATOM     23  C   UNL A   1      45.390  30.198  29.524  1.00  0.00     0.049 A 
ATOM     24  H   UNL A   1      46.788  28.722  28.990  1.00  0.00     0.167 HD
ATOM     25  C   UNL A   1      43.853  24.058  27.451  1.00  0.00     0.031 A 
ATOM     26  C   UNL A   1      45.220  30.934  28.394  1.00  0.00     0.031 A 
ATOM     27  C   UNL A   1      42.537  24.608  27.578  1.00  0.00     0.049 A 
ATOM     28  C   UNL A   1      44.298  30.042  27.596  1.00  0.00     0.074 A 
ATOM     29  C   UNL A   1      41.422  24.378  28.355  1.00  0.00     0.029 A 
ATOM     30  N   UNL A   1      42.220  25.719  26.833  1.00  0.00    -0.354 N 
ATOM     31  N   UNL A   1      43.005  29.925  27.745  1.00  0.00    -0.248 NA
ATOM     32  C   UNL A   1      44.914  28.987  26.787  1.00  0.00     0.031 C 
ATOM     33  C   UNL A   1      40.690  25.607  28.354  1.00  0.00     0.029 A 
ATOM     34  C   UNL A   1      41.441  26.528  27.624  1.00  0.00     0.049 A 
ATOM     35  H   UNL A   1      42.499  25.901  25.907  1.00  0.00     0.167 HD
ATOM     36  C   UNL A   1      42.698  28.632  27.313  1.00  0.00     0.074 A 
ATOM     37  C   UNL A   1      43.912  28.123  26.708  1.00  0.00     0.031 C 
ATOM     38  C   UNL A   1      41.546  27.974  27.637  1.00  0.00     0.031 A 
BRANCH  25  39
ATOM     39  C   UNL A   1      44.118  22.954  26.508  1.00  0.00    -0.014 A 
ATOM     40  C   UNL A   1      43.071  22.078  26.185  1.00  0.00     0.010 A 
ATOM     41  C   UNL A   1      45.420  22.678  26.067  1.00  0.00     0.010 A 
ATOM     42  C   UNL A   1      43.328  20.910  25.469  1.00  0.00     0.020 A 
ATOM     43  C   UNL A   1      45.680  21.510  25.342  1.00  0.00     0.020 A 
ATOM     44  C   UNL A   1      44.635  20.625  25.065  1.00  0.00     0.054 A 
BRANCH  44  45
ATOM     45  S   UNL A   1      44.949  19.041  24.241  1.00  0.00     0.124 S 
ATOM     46  O   UNL A   1      44.515  19.309  22.872  1.00  0.00    -0.237 OA
ATOM     47  O   UNL A   1      46.389  18.881  24.427  1.00  0.00    -0.237 OA
ATOM     48  O   UNL A   1      44.118  18.095  24.982  1.00  0.00    -0.744 OA
ENDBRANCH  44  45
ENDBRANCH  25  39
BRANCH  26  49
ATOM     49  C   UNL A   1      46.492  31.489  27.813  1.00  0.00    -0.014 A 
ATOM     50  C   UNL A   1      46.403  32.621  26.971  1.00  0.00     0.010 A 
ATOM     51  C   UNL A   1      47.772  30.960  28.050  1.00  0.00     0.010 A 
ATOM     52  C   UNL A   1      47.542  33.282  26.509  1.00  0.00     0.020 A 
ATOM     53  C   UNL A   1      48.925  31.631  27.610  1.00  0.00     0.020 A 
ATOM     54  C   UNL A   1      48.801  32.805  26.868  1.00  0.00     0.054 A 
BRANCH  54  55
ATOM     55  S   UNL A   1      50.256  33.769  26.381  1.00  0.00     0.124 S 
ATOM     56  O   UNL A   1      49.737  35.134  26.370  1.00  0.00    -0.237 OA
ATOM     57  O   UNL A   1      51.195  33.463  27.458  1.00  0.00    -0.237 OA
ATOM     58  O   UNL A   1      50.609  33.224  25.074  1.00  0.00    -0.744 OA
ENDBRANCH  54  55
ENDBRANCH  26  49
BRANCH  38  59
ATOM     59  C   UNL A   1      40.451  28.777  28.265  1.00  0.00    -0.014 A 
ATOM     60  C   UNL A   1      39.390  29.246  27.474  1.00  0.00     0.010 A 
ATOM     61  C   UNL A   1      40.398  28.965  29.659  1.00  0.00     0.010 A 
ATOM     62  C   UNL A   1      38.268  29.829  28.069  1.00  0.00     0.020 A 
ATOM     63  C   UNL A   1      39.272  29.537  30.260  1.00  0.00     0.020 A 
ATOM     64  C   UNL A   1      38.203  29.942  29.461  1.00  0.00     0.054 A 
BRANCH  64  65
ATOM     65  S   UNL A   1      36.673  30.569  30.208  1.00  0.00     0.124 S 
ATOM     66  O   UNL A   1      36.336  29.530  31.176  1.00  0.00    -0.237 OA
ATOM     67  O   UNL A   1      37.108  31.840  30.783  1.00  0.00    -0.237 OA
ATOM     68  O   UNL A   1      35.752  30.689  29.079  1.00  0.00    -0.744 OA
ENDBRANCH  64  65
ENDBRANCH  38  59
ENDBRANCH  12  13
ENDBRANCH   5   7
ENDBRANCH   2   3
ENDBRANCH   1   2
BRANCH   1  69
ATOM     69  C   UNL A   1      47.890  22.197  35.504  1.00  0.00     0.002 C 
BRANCH  69  70
ATOM     70  C   UNL A   1      48.308  20.738  35.723  1.00  0.00     0.002 C 
BRANCH  70  71
ATOM     71  C   UNL A   1      49.485  20.242  34.873  1.00  0.00     0.021 C 
BRANCH  71  72
ATOM     72  C   UNL A   1      49.639  20.925  33.519  1.00  0.00     0.116 C 
BRANCH  72  73
ATOM     73  N   UNL A   1      51.036  21.143  33.189  1.00  0.00    -0.351 N 
ATOM     74  C   UNL A   1      51.730  22.310  33.092  1.00  0.00     0.270 C 
ATOM     75  H   UNL A   1      51.558  20.327  33.010  1.00  0.00     0.163 HD
ATOM     76  O   UNL A   1      52.892  22.296  32.684  1.00  0.00    -0.268 OA
BRANCH  74  77
ATOM     77  C   UNL A   1      51.049  23.591  33.360  1.00  0.00     0.134 A 
ATOM     78  C   UNL A   1      50.846  23.875  34.654  1.00  0.00     0.063 A 
ATOM     79  N   UNL A   1      50.617  24.465  32.365  1.00  0.00    -0.207 N 
ATOM     80  C   UNL A   1      50.139  25.156  34.923  1.00  0.00     0.075 A 
ATOM     81  C   UNL A   1      50.002  25.686  32.709  1.00  0.00     0.166 A 
ATOM     82  N   UNL A   1      50.745  24.310  31.030  1.00  0.00    -0.145 NA
ATOM     83  N   UNL A   1      49.731  26.002  34.022  1.00  0.00    -0.228 NA
ATOM     84  C   UNL A   1      49.839  26.355  31.509  1.00  0.00     0.069 A 
ATOM     85  C   UNL A   1      50.321  25.454  30.513  1.00  0.00     0.184 A 
ATOM     86  C   UNL A   1      49.333  27.646  31.284  1.00  0.00    -0.028 A 
ATOM     87  N   UNL A   1      50.353  25.760  29.200  1.00  0.00    -0.222 NA
ATOM     88  C   UNL A   1      49.374  27.924  29.899  1.00  0.00     0.038 A 
ATOM     89  C   UNL A   1      49.870  27.010  28.920  1.00  0.00     0.147 A 
BRANCH  80  90
ATOM     90  C   UNL A   1      49.881  25.402  36.358  1.00  0.00     0.000 A 
ATOM     91  C   UNL A   1      49.198  26.561  36.734  1.00  0.00     0.012 A 
ATOM     92  C   UNL A   1      50.239  24.442  37.313  1.00  0.00     0.012 A 
ATOM     93  C   UNL A   1      48.836  26.742  38.072  1.00  0.00     0.021 A 
ATOM     94  C   UNL A   1      49.886  24.633  38.649  1.00  0.00     0.021 A 
ATOM     95  C   UNL A   1      49.176  25.776  39.021  1.00  0.00     0.041 A 
ATOM     96  Cl  UNL A   1      48.701  25.986  40.662  1.00  0.00    -0.084 Cl
ENDBRANCH  80  90
BRANCH  86  97
ATOM     97  C   UNL A   1      48.841  28.546  32.374  1.00  0.00     0.020 C 
ATOM     98  C   UNL A   1      49.690  29.654  32.955  1.00  0.00     0.009 C 
ATOM     99  C   UNL A   1      48.546  29.992  32.046  1.00  0.00     0.009 C 
ENDBRANCH  86  97
BRANCH  89 100
ATOM    100  C   UNL A   1      49.835  27.437  27.448  1.00  0.00     0.433 C 
ATOM    101  F   UNL A   1      48.572  27.554  26.961  1.00  0.00    -0.165 F 
ATOM    102  F   UNL A   1      50.470  28.619  27.241  1.00  0.00    -0.165 F 
ATOM    103  F   UNL A   1      50.464  26.535  26.635  1.00  0.00    -0.165 F 
ENDBRANCH  89 100
ENDBRANCH  74  77
ENDBRANCH  72  73
ENDBRANCH  71  72
ENDBRANCH  70  71
ENDBRANCH  69  70
ENDBRANCH   1  69
TORSDOF 19
ENDMDL
MODEL 2
REMARK VINA RESULT:      -8.8      4.397      6.695
REMARK SMILES O=C(NCCCCCCNC(=O)c1cc(-c2ccc(Cl)cc2)nc2c3c(C4CC4)cc(C(F)(F)F)nc3nn12)c1ccc(-c2c3nc(c(-c4ccc(S(=O)(=O)[O-])cc4)c4ccc([nH]4)c(-c4ccc(S(=O)(=O)[O-])cc4)c4nc(c(-c5ccc(S(=O)(=O)[O-])cc5)c5ccc2[nH]5)C=C4)C=C3)cc1
REMARK SMILES IDX 5 1 4 2 3 3 1 4 2 5 40 7 41 8 99 9 42 10 98 11 43 12 44 13
REMARK SMILES IDX 45 14 92 15 46 16 97 17 91 18 93 19 47 20 96 21 90 22 89 23
REMARK SMILES IDX 48 25 78 26 59 27 77 28 60 29 63 30 76 31 94 32 61 33 62 34
REMARK SMILES IDX 75 36 95 37 64 38 49 39 50 40 58 41 51 42 57 43 52 44 53 45
REMARK SMILES IDX 54 46 55 47 56 48 79 49 80 50 88 51 81 52 87 53 82 54 83 55
REMARK SMILES IDX 84 56 85 57 86 58 65 59 66 60 74 61 67 62 73 63 68 64 69 65
REMARK SMILES IDX 70 66 71 67 72 68 6 69 7 70 8 71 9 72 10 73 11 74 12 76
REMARK SMILES IDX 13 77 14 78 39 79 15 80 24 81 38 82 23 83 25 84 37 85 26 86
REMARK SMILES IDX 36 87 30 88 31 89 16 90 17 91 22 92 18 93 21 94 19 95 20 96
REMARK SMILES IDX 27 97 28 98 29 99 32 100 33 101 34 102 35 103
REMARK H PARENT 3 6 93 24 63 35 10 75
REMARK Flexibility Score: inf
ROOT
ATOM      1  C   UNL A   1      44.750  26.311  37.723  1.00  0.00     0.021 C 
ENDROOT
BRANCH   1   2
ATOM      2  C   UNL A   1      43.335  26.289  37.158  1.00  0.00     0.116 C 
BRANCH   2   3
ATOM      3  N   UNL A   1      42.919  24.967  36.717  1.00  0.00    -0.352 N 
ATOM      4  O   UNL A   1      42.685  23.296  35.190  1.00  0.00    -0.269 OA
ATOM      5  C   UNL A   1      43.071  24.422  35.461  1.00  0.00     0.251 C 
ATOM      6  H   UNL A   1      42.480  24.399  37.391  1.00  0.00     0.163 HD
BRANCH   5   7
ATOM      7  C   UNL A   1      43.715  25.271  34.445  1.00  0.00     0.039 A 
ATOM      8  C   UNL A   1      42.993  26.333  33.891  1.00  0.00     0.014 A 
ATOM      9  C   UNL A   1      44.935  24.857  33.909  1.00  0.00     0.014 A 
ATOM     10  C   UNL A   1      43.455  26.926  32.722  1.00  0.00     0.010 A 
ATOM     11  C   UNL A   1      45.404  25.470  32.752  1.00  0.00     0.010 A 
ATOM     12  C   UNL A   1      44.650  26.481  32.137  1.00  0.00    -0.014 A 
BRANCH  12  13
ATOM     13  C   UNL A   1      45.078  27.104  30.874  1.00  0.00     0.031 A 
ATOM     14  C   UNL A   1      45.086  26.209  29.685  1.00  0.00     0.074 A 
ATOM     15  C   UNL A   1      44.937  28.427  30.651  1.00  0.00     0.049 A 
ATOM     16  N   UNL A   1      44.006  25.938  29.014  1.00  0.00    -0.248 NA
ATOM     17  C   UNL A   1      46.240  25.389  29.323  1.00  0.00     0.031 C 
ATOM     18  C   UNL A   1      43.965  29.286  31.342  1.00  0.00     0.029 A 
ATOM     19  N   UNL A   1      45.430  29.218  29.643  1.00  0.00    -0.354 N 
ATOM     20  C   UNL A   1      44.302  24.873  28.190  1.00  0.00     0.074 A 
ATOM     21  C   UNL A   1      45.706  24.581  28.395  1.00  0.00     0.031 C 
ATOM     22  C   UNL A   1      43.785  30.407  30.611  1.00  0.00     0.029 A 
ATOM     23  C   UNL A   1      44.748  30.424  29.519  1.00  0.00     0.049 A 
ATOM     24  H   UNL A   1      46.185  28.959  29.069  1.00  0.00     0.167 HD
ATOM     25  C   UNL A   1      43.377  24.257  27.410  1.00  0.00     0.031 A 
ATOM     26  C   UNL A   1      44.630  31.152  28.376  1.00  0.00     0.031 A 
ATOM     27  C   UNL A   1      42.052  24.795  27.466  1.00  0.00     0.049 A 
ATOM     28  C   UNL A   1      43.759  30.246  27.538  1.00  0.00     0.074 A 
ATOM     29  C   UNL A   1      40.899  24.560  28.185  1.00  0.00     0.029 A 
ATOM     30  N   UNL A   1      41.763  25.898  26.698  1.00  0.00    -0.354 N 
ATOM     31  N   UNL A   1      42.461  30.117  27.620  1.00  0.00    -0.248 NA
ATOM     32  C   UNL A   1      44.426  29.192  26.770  1.00  0.00     0.031 C 
ATOM     33  C   UNL A   1      40.157  25.781  28.138  1.00  0.00     0.029 A 
ATOM     34  C   UNL A   1      40.937  26.705  27.442  1.00  0.00     0.049 A 
ATOM     35  H   UNL A   1      42.089  26.078  25.786  1.00  0.00     0.167 HD
ATOM     36  C   UNL A   1      42.189  28.819  27.182  1.00  0.00     0.074 A 
ATOM     37  C   UNL A   1      43.437  28.318  26.644  1.00  0.00     0.031 C 
ATOM     38  C   UNL A   1      41.028  28.152  27.450  1.00  0.00     0.031 A 
BRANCH  25  39
ATOM     39  C   UNL A   1      43.701  23.150  26.491  1.00  0.00    -0.014 A 
ATOM     40  C   UNL A   1      42.961  21.961  26.580  1.00  0.00     0.010 A 
ATOM     41  C   UNL A   1      44.825  23.210  25.655  1.00  0.00     0.010 A 
ATOM     42  C   UNL A   1      43.367  20.826  25.880  1.00  0.00     0.020 A 
ATOM     43  C   UNL A   1      45.231  22.076  24.944  1.00  0.00     0.020 A 
ATOM     44  C   UNL A   1      44.510  20.887  25.077  1.00  0.00     0.054 A 
BRANCH  44  45
ATOM     45  S   UNL A   1      45.073  19.360  24.277  1.00  0.00     0.124 S 
ATOM     46  O   UNL A   1      44.495  19.476  22.940  1.00  0.00    -0.237 OA
ATOM     47  O   UNL A   1      46.525  19.496  24.350  1.00  0.00    -0.237 OA
ATOM     48  O   UNL A   1      44.505  18.303  25.109  1.00  0.00    -0.744 OA
ENDBRANCH  44  45
ENDBRANCH  25  39
BRANCH  26  49
ATOM     49  C   UNL A   1      45.925  31.715  27.859  1.00  0.00    -0.014 A 
ATOM     50  C   UNL A   1      45.878  32.580  26.741  1.00  0.00     0.010 A 
ATOM     51  C   UNL A   1      47.189  31.443  28.410  1.00  0.00     0.010 A 
ATOM     52  C   UNL A   1      47.012  33.257  26.289  1.00  0.00     0.020 A 
ATOM     53  C   UNL A   1      48.331  32.136  27.979  1.00  0.00     0.020 A 
ATOM     54  C   UNL A   1      48.228  33.061  26.941  1.00  0.00     0.054 A 
BRANCH  54  55
ATOM     55  S   UNL A   1      49.647  34.066  26.430  1.00  0.00     0.124 S 
ATOM     56  O   UNL A   1      49.245  34.523  25.102  1.00  0.00    -0.237 OA
ATOM     57  O   UNL A   1      49.678  35.094  27.466  1.00  0.00    -0.237 OA
ATOM     58  O   UNL A   1      50.763  33.124  26.455  1.00  0.00    -0.744 OA
ENDBRANCH  54  55
ENDBRANCH  26  49
BRANCH  38  59
ATOM     59  C   UNL A   1      39.894  28.949  28.016  1.00  0.00    -0.014 A 
ATOM     60  C   UNL A   1      39.975  29.437  29.330  1.00  0.00     0.010 A 
ATOM     61  C   UNL A   1      38.802  29.326  27.213  1.00  0.00     0.010 A 
ATOM     62  C   UNL A   1      39.020  30.338  29.809  1.00  0.00     0.020 A 
ATOM     63  C   UNL A   1      37.851  30.237  27.683  1.00  0.00     0.020 A 
ATOM     64  C   UNL A   1      37.981  30.756  28.972  1.00  0.00     0.054 A 
BRANCH  64  65
ATOM     65  S   UNL A   1      36.845  32.035  29.574  1.00  0.00     0.124 S 
ATOM     66  O   UNL A   1      37.592  32.642  30.672  1.00  0.00    -0.237 OA
ATOM     67  O   UNL A   1      36.676  32.880  28.393  1.00  0.00    -0.237 OA
ATOM     68  O   UNL A   1      35.652  31.290  29.971  1.00  0.00    -0.744 OA
ENDBRANCH  64  65
ENDBRANCH  38  59
ENDBRANCH  12  13
ENDBRANCH   5   7
ENDBRANCH   2   3
ENDBRANCH   1   2
BRANCH   1  69
ATOM     69  C   UNL A   1      44.969  25.387  38.922  1.00  0.00     0.002 C 
BRANCH  69  70
ATOM     70  C   UNL A   1      46.068  24.331  38.753  1.00  0.00     0.002 C 
BRANCH  70  71
ATOM     71  C   UNL A   1      45.640  23.015  38.091  1.00  0.00     0.021 C 
BRANCH  71  72
ATOM     72  C   UNL A   1      45.905  22.929  36.593  1.00  0.00     0.116 C 
BRANCH  72  73
ATOM     73  N   UNL A   1      45.312  21.735  36.016  1.00  0.00    -0.351 N 
ATOM     74  C   UNL A   1      45.815  20.473  35.935  1.00  0.00     0.270 C 
ATOM     75  H   UNL A   1      44.416  21.856  35.627  1.00  0.00     0.163 HD
ATOM     76  O   UNL A   1      45.204  19.613  35.300  1.00  0.00    -0.268 OA
BRANCH  74  77
ATOM     77  C   UNL A   1      47.143  20.176  36.506  1.00  0.00     0.134 A 
ATOM     78  C   UNL A   1      48.186  20.468  35.716  1.00  0.00     0.063 A 
ATOM     79  N   UNL A   1      47.341  19.619  37.767  1.00  0.00    -0.207 N 
ATOM     80  C   UNL A   1      49.524  20.148  36.283  1.00  0.00     0.075 A 
ATOM     81  C   UNL A   1      48.646  19.396  38.250  1.00  0.00     0.166 A 
ATOM     82  N   UNL A   1      46.392  19.268  38.662  1.00  0.00    -0.145 NA
ATOM     83  N   UNL A   1      49.748  19.637  37.459  1.00  0.00    -0.228 NA
ATOM     84  C   UNL A   1      48.478  18.980  39.558  1.00  0.00     0.069 A 
ATOM     85  C   UNL A   1      47.065  18.926  39.752  1.00  0.00     0.184 A 
ATOM     86  C   UNL A   1      49.458  18.685  40.520  1.00  0.00    -0.028 A 
ATOM     87  N   UNL A   1      46.497  18.583  40.926  1.00  0.00    -0.222 NA
ATOM     88  C   UNL A   1      48.824  18.322  41.730  1.00  0.00     0.038 A 
ATOM     89  C   UNL A   1      47.407  18.285  41.904  1.00  0.00     0.147 A 
BRANCH  80  90
ATOM     90  C   UNL A   1      50.644  20.427  35.359  1.00  0.00     0.000 A 
ATOM     91  C   UNL A   1      51.383  19.358  34.848  1.00  0.00     0.012 A 
ATOM     92  C   UNL A   1      50.898  21.738  34.936  1.00  0.00     0.012 A 
ATOM     93  C   UNL A   1      52.358  19.599  33.876  1.00  0.00     0.021 A 
ATOM     94  C   UNL A   1      51.881  21.974  33.974  1.00  0.00     0.021 A 
ATOM     95  C   UNL A   1      52.599  20.903  33.440  1.00  0.00     0.041 A 
ATOM     96  Cl  UNL A   1      53.778  21.192  32.221  1.00  0.00    -0.084 Cl
ENDBRANCH  80  90
BRANCH  86  97
ATOM     97  C   UNL A   1      50.928  18.761  40.256  1.00  0.00     0.020 C 
ATOM     98  C   UNL A   1      51.959  18.339  41.279  1.00  0.00     0.009 C 
ATOM     99  C   UNL A   1      51.704  17.475  40.080  1.00  0.00     0.009 C 
ENDBRANCH  86  97
BRANCH  89 100
ATOM    100  C   UNL A   1      46.857  17.851  43.268  1.00  0.00     0.433 C 
ATOM    101  F   UNL A   1      46.776  18.875  44.156  1.00  0.00    -0.165 F 
ATOM    102  F   UNL A   1      45.626  17.288  43.170  1.00  0.00    -0.165 F 
ATOM    103  F   UNL A   1      47.646  16.905  43.863  1.00  0.00    -0.165 F 
ENDBRANCH  89 100
ENDBRANCH  74  77
ENDBRANCH  72  73
ENDBRANCH  71  72
ENDBRANCH  70  71
ENDBRANCH  69  70
ENDBRANCH   1  69
TORSDOF 19
ENDMDL
MODEL 3
REMARK VINA RESULT:      -8.5      3.262      4.816
REMARK SMILES O=C(NCCCCCCNC(=O)c1cc(-c2ccc(Cl)cc2)nc2c3c(C4CC4)cc(C(F)(F)F)nc3nn12)c1ccc(-c2c3nc(c(-c4ccc(S(=O)(=O)[O-])cc4)c4ccc([nH]4)c(-c4ccc(S(=O)(=O)[O-])cc4)c4nc(c(-c5ccc(S(=O)(=O)[O-])cc5)c5ccc2[nH]5)C=C4)C=C3)cc1
REMARK SMILES IDX 5 1 4 2 3 3 1 4 2 5 40 7 41 8 99 9 42 10 98 11 43 12 44 13
REMARK SMILES IDX 45 14 92 15 46 16 97 17 91 18 93 19 47 20 96 21 90 22 89 23
REMARK SMILES IDX 48 25 78 26 59 27 77 28 60 29 63 30 76 31 94 32 61 33 62 34
REMARK SMILES IDX 75 36 95 37 64 38 49 39 50 40 58 41 51 42 57 43 52 44 53 45
REMARK SMILES IDX 54 46 55 47 56 48 79 49 80 50 88 51 81 52 87 53 82 54 83 55
REMARK SMILES IDX 84 56 85 57 86 58 65 59 66 60 74 61 67 62 73 63 68 64 69 65
REMARK SMILES IDX 70 66 71 67 72 68 6 69 7 70 8 71 9 72 10 73 11 74 12 76
REMARK SMILES IDX 13 77 14 78 39 79 15 80 24 81 38 82 23 83 25 84 37 85 26 86
REMARK SMILES IDX 36 87 30 88 31 89 16 90 17 91 22 92 18 93 21 94 19 95 20 96
REMARK SMILES IDX 27 97 28 98 29 99 32 100 33 101 34 102 35 103
REMARK H PARENT 3 6 93 24 63 35 10 75
REMARK Flexibility Score: inf
ROOT
ATOM      1  C   UNL A   1      45.992  21.824  37.033  1.00  0.00     0.021 C 
ENDROOT
BRANCH   1   2
ATOM      2  C   UNL A   1      45.279  22.538  35.890  1.00  0.00     0.116 C 
BRANCH   2   3
ATOM      3  N   UNL A   1      44.098  23.267  36.323  1.00  0.00    -0.352 N 
ATOM      4  O   UNL A   1      42.542  24.920  36.174  1.00  0.00    -0.269 OA
ATOM      5  C   UNL A   1      43.541  24.379  35.730  1.00  0.00     0.251 C 
ATOM      6  H   UNL A   1      43.645  22.928  37.129  1.00  0.00     0.163 HD
BRANCH   5   7
ATOM      7  C   UNL A   1      44.221  24.898  34.531  1.00  0.00     0.039 A 
ATOM      8  C   UNL A   1      44.724  26.203  34.547  1.00  0.00     0.014 A 
ATOM      9  C   UNL A   1      44.142  24.158  33.351  1.00  0.00     0.014 A 
ATOM     10  C   UNL A   1      45.065  26.810  33.344  1.00  0.00     0.010 A 
ATOM     11  C   UNL A   1      44.506  24.764  32.152  1.00  0.00     0.010 A 
ATOM     12  C   UNL A   1      44.935  26.099  32.141  1.00  0.00    -0.014 A 
BRANCH  12  13
ATOM     13  C   UNL A   1      45.261  26.795  30.885  1.00  0.00     0.031 A 
ATOM     14  C   UNL A   1      45.276  25.946  29.663  1.00  0.00     0.074 A 
ATOM     15  C   UNL A   1      45.018  28.112  30.721  1.00  0.00     0.049 A 
ATOM     16  N   UNL A   1      44.188  25.624  29.029  1.00  0.00    -0.248 NA
ATOM     17  C   UNL A   1      46.466  25.223  29.221  1.00  0.00     0.031 C 
ATOM     18  C   UNL A   1      44.022  28.875  31.486  1.00  0.00     0.029 A 
ATOM     19  N   UNL A   1      45.409  28.972  29.724  1.00  0.00    -0.354 N 
ATOM     20  C   UNL A   1      44.519  24.613  28.152  1.00  0.00     0.074 A 
ATOM     21  C   UNL A   1      45.947  24.414  28.285  1.00  0.00     0.031 C 
ATOM     22  C   UNL A   1      43.732  30.006  30.808  1.00  0.00     0.029 A 
ATOM     23  C   UNL A   1      44.640  30.131  29.677  1.00  0.00     0.049 A 
ATOM     24  H   UNL A   1      46.153  28.788  29.108  1.00  0.00     0.167 HD
ATOM     25  C   UNL A   1      43.604  23.962  27.390  1.00  0.00     0.031 A 
ATOM     26  C   UNL A   1      44.421  30.889  28.570  1.00  0.00     0.031 A 
ATOM     27  C   UNL A   1      42.248  24.403  27.524  1.00  0.00     0.049 A 
ATOM     28  C   UNL A   1      43.576  29.954  27.735  1.00  0.00     0.074 A 
ATOM     29  C   UNL A   1      41.149  24.060  28.282  1.00  0.00     0.029 A 
ATOM     30  N   UNL A   1      41.850  25.509  26.813  1.00  0.00    -0.354 N 
ATOM     31  N   UNL A   1      42.296  29.731  27.868  1.00  0.00    -0.248 NA
ATOM     32  C   UNL A   1      44.279  28.979  26.898  1.00  0.00     0.031 C 
ATOM     33  C   UNL A   1      40.323  25.227  28.314  1.00  0.00     0.029 A 
ATOM     34  C   UNL A   1      41.004  26.228  27.622  1.00  0.00     0.049 A 
ATOM     35  H   UNL A   1      42.120  25.744  25.895  1.00  0.00     0.167 HD
ATOM     36  C   UNL A   1      42.094  28.434  27.391  1.00  0.00     0.074 A 
ATOM     37  C   UNL A   1      43.348  28.041  26.781  1.00  0.00     0.031 C 
ATOM     38  C   UNL A   1      40.996  27.677  27.683  1.00  0.00     0.031 A 
BRANCH  25  39
ATOM     39  C   UNL A   1      43.961  22.914  26.415  1.00  0.00    -0.014 A 
ATOM     40  C   UNL A   1      43.143  21.778  26.316  1.00  0.00     0.010 A 
ATOM     41  C   UNL A   1      45.174  22.963  25.714  1.00  0.00     0.010 A 
ATOM     42  C   UNL A   1      43.556  20.679  25.564  1.00  0.00     0.020 A 
ATOM     43  C   UNL A   1      45.588  21.865  24.952  1.00  0.00     0.020 A 
ATOM     44  C   UNL A   1      44.783  20.724  24.899  1.00  0.00     0.054 A 
BRANCH  44  45
ATOM     45  S   UNL A   1      45.338  19.232  24.030  1.00  0.00     0.124 S 
ATOM     46  O   UNL A   1      44.631  19.331  22.756  1.00  0.00    -0.237 OA
ATOM     47  O   UNL A   1      46.783  19.437  23.966  1.00  0.00    -0.237 OA
ATOM     48  O   UNL A   1      44.903  18.142  24.899  1.00  0.00    -0.744 OA
ENDBRANCH  44  45
ENDBRANCH  25  39
BRANCH  26  49
ATOM     49  C   UNL A   1      45.648  31.561  28.019  1.00  0.00    -0.014 A 
ATOM     50  C   UNL A   1      45.492  32.450  26.931  1.00  0.00     0.010 A 
ATOM     51  C   UNL A   1      46.950  31.368  28.513  1.00  0.00     0.010 A 
ATOM     52  C   UNL A   1      46.554  33.220  26.455  1.00  0.00     0.020 A 
ATOM     53  C   UNL A   1      48.020  32.155  28.059  1.00  0.00     0.020 A 
ATOM     54  C   UNL A   1      47.807  33.098  27.053  1.00  0.00     0.054 A 
BRANCH  54  55
ATOM     55  S   UNL A   1      49.127  34.219  26.518  1.00  0.00     0.124 S 
ATOM     56  O   UNL A   1      49.952  34.326  27.718  1.00  0.00    -0.237 OA
ATOM     57  O   UNL A   1      49.722  33.476  25.409  1.00  0.00    -0.237 OA
ATOM     58  O   UNL A   1      48.414  35.435  26.139  1.00  0.00    -0.744 OA
ENDBRANCH  54  55
ENDBRANCH  26  49
BRANCH  38  59
ATOM     59  C   UNL A   1      39.837  28.371  28.328  1.00  0.00    -0.014 A 
ATOM     60  C   UNL A   1      39.707  28.355  29.726  1.00  0.00     0.010 A 
ATOM     61  C   UNL A   1      38.942  29.146  27.568  1.00  0.00     0.010 A 
ATOM     62  C   UNL A   1      38.747  29.152  30.356  1.00  0.00     0.020 A 
ATOM     63  C   UNL A   1      37.988  29.954  28.193  1.00  0.00     0.020 A 
ATOM     64  C   UNL A   1      37.914  29.970  29.587  1.00  0.00     0.054 A 
BRANCH  64  65
ATOM     65  S   UNL A   1      36.780  31.099  30.442  1.00  0.00     0.124 S 
ATOM     66  O   UNL A   1      37.688  32.033  31.099  1.00  0.00    -0.237 OA
ATOM     67  O   UNL A   1      36.005  31.656  29.334  1.00  0.00    -0.237 OA
ATOM     68  O   UNL A   1      36.025  30.228  31.341  1.00  0.00    -0.744 OA
ENDBRANCH  64  65
ENDBRANCH  38  59
ENDBRANCH  12  13
ENDBRANCH   5   7
ENDBRANCH   2   3
ENDBRANCH   1   2
BRANCH   1  69
ATOM     69  C   UNL A   1      46.603  20.474  36.655  1.00  0.00     0.002 C 
BRANCH  69  70
ATOM     70  C   UNL A   1      46.037  19.259  37.401  1.00  0.00     0.002 C 
BRANCH  70  71
ATOM     71  C   UNL A   1      46.706  18.921  38.739  1.00  0.00     0.021 C 
BRANCH  71  72
ATOM     72  C   UNL A   1      46.513  19.959  39.838  1.00  0.00     0.116 C 
BRANCH  72  73
ATOM     73  N   UNL A   1      47.649  19.992  40.744  1.00  0.00    -0.351 N 
ATOM     74  C   UNL A   1      48.860  20.594  40.590  1.00  0.00     0.270 C 
ATOM     75  H   UNL A   1      47.524  19.509  41.593  1.00  0.00     0.163 HD
ATOM     76  O   UNL A   1      49.743  20.410  41.429  1.00  0.00    -0.268 OA
BRANCH  74  77
ATOM     77  C   UNL A   1      49.144  21.362  39.362  1.00  0.00     0.134 A 
ATOM     78  C   UNL A   1      49.896  20.730  38.450  1.00  0.00     0.063 A 
ATOM     79  N   UNL A   1      48.694  22.660  39.136  1.00  0.00    -0.207 N 
ATOM     80  C   UNL A   1      50.201  21.513  37.222  1.00  0.00     0.075 A 
ATOM     81  C   UNL A   1      48.985  23.312  37.920  1.00  0.00     0.166 A 
ATOM     82  N   UNL A   1      47.942  23.419  39.961  1.00  0.00    -0.145 NA
ATOM     83  N   UNL A   1      49.791  22.722  36.972  1.00  0.00    -0.228 NA
ATOM     84  C   UNL A   1      48.279  24.500  37.973  1.00  0.00     0.069 A 
ATOM     85  C   UNL A   1      47.653  24.503  39.255  1.00  0.00     0.184 A 
ATOM     86  C   UNL A   1      48.163  25.499  36.991  1.00  0.00    -0.028 A 
ATOM     87  N   UNL A   1      46.845  25.498  39.675  1.00  0.00    -0.222 NA
ATOM     88  C   UNL A   1      47.318  26.525  37.473  1.00  0.00     0.038 A 
ATOM     89  C   UNL A   1      46.694  26.501  38.757  1.00  0.00     0.147 A 
BRANCH  80  90
ATOM     90  C   UNL A   1      51.083  20.804  36.269  1.00  0.00     0.000 A 
ATOM     91  C   UNL A   1      50.505  20.065  35.234  1.00  0.00     0.012 A 
ATOM     92  C   UNL A   1      52.473  20.949  36.355  1.00  0.00     0.012 A 
ATOM     93  C   UNL A   1      51.325  19.497  34.256  1.00  0.00     0.021 A 
ATOM     94  C   UNL A   1      53.288  20.371  35.381  1.00  0.00     0.021 A 
ATOM     95  C   UNL A   1      52.710  19.657  34.329  1.00  0.00     0.041 A 
ATOM     96  Cl  UNL A   1      53.715  18.985  33.105  1.00  0.00    -0.084 Cl
ENDBRANCH  80  90
BRANCH  86  97
ATOM     97  C   UNL A   1      48.846  25.437  35.662  1.00  0.00     0.020 C 
ATOM     98  C   UNL A   1      48.158  24.915  34.420  1.00  0.00     0.009 C 
ATOM     99  C   UNL A   1      48.403  26.387  34.571  1.00  0.00     0.009 C 
ENDBRANCH  86  97
BRANCH  89 100
ATOM    100  C   UNL A   1      45.818  27.695  39.156  1.00  0.00     0.433 C 
ATOM    101  F   UNL A   1      44.853  27.366  40.053  1.00  0.00    -0.165 F 
ATOM    102  F   UNL A   1      46.545  28.712  39.684  1.00  0.00    -0.165 F 
ATOM    103  F   UNL A   1      45.161  28.233  38.084  1.00  0.00    -0.165 F 
ENDBRANCH  89 100
ENDBRANCH  74  77
ENDBRANCH  72  73
ENDBRANCH  71  72
ENDBRANCH  70  71
ENDBRANCH  69  70
ENDBRANCH   1  69
TORSDOF 19
ENDMDL
