MODEL 1
REMARK VINA RESULT:     -11.0      0.000      0.000
REMARK SMILES Cc1cc2c(c(C)c1Cl)C=C(C(=O)NCCCCCCNC(=O)c1ccc(-c3c4nc(c(-c5ccc(S(=O)(=O)[O-])cc5)c5ccc([nH]5)c(-c5ccc(S(=O)(=O)[O-])cc5)c5nc(c(-c6ccc(S(=O)(=O)[O-])cc6)c6ccc3[nH]6)C=C5)C=C4)cc1)[C@@H](C(F)(F)F)O2
REMARK SMILES IDX 18 1 17 2 16 3 15 4 14 5 12 6 13 7 11 9 1 10 2 11 3 12 8 13
REMARK SMILES IDX 4 14 6 15 9 16 5 17 89 18 7 19 10 20 84 21 85 22 86 23 87 24
REMARK SMILES IDX 88 25 19 26 20 27 21 28 22 29 23 31 24 32 25 33 83 34 26 35
REMARK SMILES IDX 82 36 27 37 28 38 29 39 76 40 30 41 81 42 75 43 77 44 31 45
REMARK SMILES IDX 80 46 74 47 73 48 32 50 62 51 43 52 61 53 44 54 47 55 60 56
REMARK SMILES IDX 78 57 45 58 46 59 59 61 79 62 48 63 33 64 34 65 42 66 35 67
REMARK SMILES IDX 41 68 36 69 37 70 38 71 39 72 40 73 63 74 64 75 72 76 65 77
REMARK SMILES IDX 71 78 66 79 67 80 68 81 69 82 70 83 49 84 50 85 58 86 51 87
REMARK SMILES IDX 57 88 52 89 53 90 54 91 55 92 56 93
REMARK H PARENT 14 8 21 30 77 49 47 60
REMARK Flexibility Score: inf
ROOT
ATOM      1  C   UNL A   1      32.850  28.764  24.358  1.00  0.00     0.002 C 
ENDROOT
BRANCH   1   2
ATOM      2  C   UNL A   1      32.965  27.961  23.055  1.00  0.00     0.002 C 
BRANCH   2   3
ATOM      3  C   UNL A   1      33.152  26.453  23.238  1.00  0.00     0.021 C 
BRANCH   3   4
ATOM      4  C   UNL A   1      31.865  25.651  23.076  1.00  0.00     0.116 C 
BRANCH   4   5
ATOM      5  N   UNL A   1      31.343  25.202  24.355  1.00  0.00    -0.352 N 
ATOM      6  C   UNL A   1      31.596  24.202  25.232  1.00  0.00     0.251 C 
ATOM      7  O   UNL A   1      30.903  24.211  26.256  1.00  0.00    -0.270 OA
ATOM      8  H   UNL A   1      30.608  25.777  24.668  1.00  0.00     0.163 HD
BRANCH   6   9
ATOM      9  C   UNL A   1      32.620  23.128  25.045  1.00  0.00     0.067 C 
ATOM     10  C   UNL A   1      37.838  19.240  25.013  1.00  0.00     0.046 C 
ATOM     11  C   UNL A   1      36.887  20.402  25.095  1.00  0.00    -0.028 A 
ATOM     12  C   UNL A   1      35.541  20.145  24.827  1.00  0.00     0.052 A 
ATOM     13  C   UNL A   1      37.261  21.700  25.494  1.00  0.00     0.047 A 
ATOM     14  C   UNL A   1      34.591  21.157  24.924  1.00  0.00     0.128 A 
ATOM     15  C   UNL A   1      36.304  22.744  25.587  1.00  0.00    -0.021 A 
ATOM     16  Cl  UNL A   1      38.925  21.996  25.902  1.00  0.00    -0.084 Cl
ATOM     17  C   UNL A   1      34.947  22.451  25.309  1.00  0.00     0.022 A 
ATOM     18  O   UNL A   1      33.314  20.763  24.667  1.00  0.00    -0.475 OA
ATOM     19  C   UNL A   1      36.692  24.149  25.988  1.00  0.00     0.047 C 
ATOM     20  C   UNL A   1      33.865  23.430  25.458  1.00  0.00     0.026 C 
ATOM     21  C   UNL A   1      32.337  21.800  24.413  1.00  0.00     0.314 C 
BRANCH  21  22
ATOM     22  C   UNL A   1      32.093  21.900  22.897  1.00  0.00     0.429 C 
ATOM     23  F   UNL A   1      33.080  22.612  22.302  1.00  0.00    -0.167 F 
ATOM     24  F   UNL A   1      32.075  20.690  22.290  1.00  0.00    -0.167 F 
ATOM     25  F   UNL A   1      30.919  22.503  22.603  1.00  0.00    -0.167 F 
ENDBRANCH  21  22
ENDBRANCH   6   9
ENDBRANCH   4   5
ENDBRANCH   3   4
ENDBRANCH   2   3
ENDBRANCH   1   2
BRANCH   1  26
ATOM     26  C   UNL A   1      32.875  27.934  25.646  1.00  0.00     0.021 C 
BRANCH  26  27
ATOM     27  C   UNL A   1      33.940  28.357  26.654  1.00  0.00     0.116 C 
BRANCH  27  28
ATOM     28  N   UNL A   1      33.729  29.717  27.119  1.00  0.00    -0.352 N 
ATOM     29  C   UNL A   1      34.521  30.486  27.928  1.00  0.00     0.251 C 
ATOM     30  H   UNL A   1      32.899  30.145  26.809  1.00  0.00     0.163 HD
ATOM     31  O   UNL A   1      34.078  31.534  28.402  1.00  0.00    -0.269 OA
BRANCH  29  32
ATOM     32  C   UNL A   1      35.898  30.055  28.237  1.00  0.00     0.039 A 
ATOM     33  C   UNL A   1      36.865  30.107  27.230  1.00  0.00     0.014 A 
ATOM     34  C   UNL A   1      36.228  29.580  29.510  1.00  0.00     0.014 A 
ATOM     35  C   UNL A   1      38.179  29.728  27.514  1.00  0.00     0.010 A 
ATOM     36  C   UNL A   1      37.547  29.258  29.808  1.00  0.00     0.010 A 
ATOM     37  C   UNL A   1      38.534  29.326  28.812  1.00  0.00    -0.014 A 
BRANCH  37  38
ATOM     38  C   UNL A   1      39.930  28.966  29.156  1.00  0.00     0.031 A 
ATOM     39  C   UNL A   1      40.820  29.972  29.833  1.00  0.00     0.074 A 
ATOM     40  C   UNL A   1      40.412  27.760  28.801  1.00  0.00     0.049 A 
ATOM     41  N   UNL A   1      42.092  29.884  30.121  1.00  0.00    -0.248 NA
ATOM     42  C   UNL A   1      40.201  31.251  30.220  1.00  0.00     0.031 C 
ATOM     43  C   UNL A   1      39.645  26.704  28.135  1.00  0.00     0.029 A 
ATOM     44  N   UNL A   1      41.664  27.219  28.944  1.00  0.00    -0.354 N 
ATOM     45  C   UNL A   1      42.429  31.095  30.715  1.00  0.00     0.074 A 
ATOM     46  C   UNL A   1      41.239  31.918  30.704  1.00  0.00     0.031 C 
ATOM     47  C   UNL A   1      40.437  25.637  27.950  1.00  0.00     0.029 A 
ATOM     48  C   UNL A   1      41.777  25.947  28.438  1.00  0.00     0.049 A 
ATOM     49  H   UNL A   1      42.412  27.698  29.370  1.00  0.00     0.167 HD
ATOM     50  C   UNL A   1      43.619  31.478  31.239  1.00  0.00     0.031 A 
ATOM     51  C   UNL A   1      42.842  25.126  28.363  1.00  0.00     0.031 A 
ATOM     52  C   UNL A   1      44.798  30.654  31.242  1.00  0.00     0.049 A 
ATOM     53  C   UNL A   1      44.162  25.592  28.911  1.00  0.00     0.074 A 
ATOM     54  C   UNL A   1      46.049  30.945  31.759  1.00  0.00     0.029 A 
ATOM     55  N   UNL A   1      44.875  29.377  30.705  1.00  0.00    -0.354 N 
ATOM     56  N   UNL A   1      44.462  26.738  29.477  1.00  0.00    -0.248 NA
ATOM     57  C   UNL A   1      45.286  24.651  28.819  1.00  0.00     0.031 C 
ATOM     58  C   UNL A   1      46.895  29.864  31.493  1.00  0.00     0.029 A 
ATOM     59  C   UNL A   1      46.155  28.872  30.868  1.00  0.00     0.049 A 
ATOM     60  H   UNL A   1      44.130  28.901  30.273  1.00  0.00     0.167 HD
ATOM     61  C   UNL A   1      45.801  26.642  29.839  1.00  0.00     0.074 A 
ATOM     62  C   UNL A   1      46.248  25.323  29.437  1.00  0.00     0.031 C 
ATOM     63  C   UNL A   1      46.586  27.560  30.455  1.00  0.00     0.031 A 
BRANCH  50  64
ATOM     64  C   UNL A   1      43.702  32.852  31.850  1.00  0.00    -0.014 A 
ATOM     65  C   UNL A   1      43.999  33.979  31.061  1.00  0.00     0.010 A 
ATOM     66  C   UNL A   1      43.427  33.030  33.218  1.00  0.00     0.010 A 
ATOM     67  C   UNL A   1      44.048  35.252  31.633  1.00  0.00     0.020 A 
ATOM     68  C   UNL A   1      43.447  34.307  33.789  1.00  0.00     0.020 A 
ATOM     69  C   UNL A   1      43.770  35.409  32.994  1.00  0.00     0.054 A 
BRANCH  69  70
ATOM     70  S   UNL A   1      43.806  37.079  33.700  1.00  0.00     0.124 S 
ATOM     71  O   UNL A   1      44.978  37.014  34.569  1.00  0.00    -0.237 OA
ATOM     72  O   UNL A   1      43.947  37.922  32.515  1.00  0.00    -0.237 OA
ATOM     73  O   UNL A   1      42.525  37.191  34.393  1.00  0.00    -0.744 OA
ENDBRANCH  69  70
ENDBRANCH  50  64
BRANCH  51  74
ATOM     74  C   UNL A   1      42.691  23.771  27.767  1.00  0.00    -0.014 A 
ATOM     75  C   UNL A   1      42.888  23.575  26.389  1.00  0.00     0.010 A 
ATOM     76  C   UNL A   1      42.382  22.662  28.578  1.00  0.00     0.010 A 
ATOM     77  C   UNL A   1      42.770  22.300  25.830  1.00  0.00     0.020 A 
ATOM     78  C   UNL A   1      42.291  21.381  28.026  1.00  0.00     0.020 A 
ATOM     79  C   UNL A   1      42.478  21.210  26.654  1.00  0.00     0.054 A 
BRANCH  79  80
ATOM     80  S   UNL A   1      42.396  19.556  25.913  1.00  0.00     0.124 S 
ATOM     81  O   UNL A   1      41.027  19.516  25.409  1.00  0.00    -0.237 OA
ATOM     82  O   UNL A   1      43.444  19.615  24.898  1.00  0.00    -0.237 OA
ATOM     83  O   UNL A   1      42.676  18.663  27.036  1.00  0.00    -0.744 OA
ENDBRANCH  79  80
ENDBRANCH  51  74
BRANCH  63  84
ATOM     84  C   UNL A   1      48.002  27.155  30.772  1.00  0.00    -0.014 A 
ATOM     85  C   UNL A   1      48.310  26.390  31.911  1.00  0.00     0.010 A 
ATOM     86  C   UNL A   1      49.038  27.520  29.891  1.00  0.00     0.010 A 
ATOM     87  C   UNL A   1      49.632  26.033  32.184  1.00  0.00     0.020 A 
ATOM     88  C   UNL A   1      50.356  27.138  30.145  1.00  0.00     0.020 A 
ATOM     89  C   UNL A   1      50.648  26.412  31.301  1.00  0.00     0.054 A 
BRANCH  89  90
ATOM     90  S   UNL A   1      52.354  25.920  31.671  1.00  0.00     0.124 S 
ATOM     91  O   UNL A   1      52.174  24.569  32.195  1.00  0.00    -0.237 OA
ATOM     92  O   UNL A   1      53.001  26.006  30.364  1.00  0.00    -0.237 OA
ATOM     93  O   UNL A   1      52.797  26.914  32.646  1.00  0.00    -0.744 OA
ENDBRANCH  89  90
ENDBRANCH  63  84
ENDBRANCH  37  38
ENDBRANCH  29  32
ENDBRANCH  27  28
ENDBRANCH  26  27
ENDBRANCH   1  26
TORSDOF 17
ENDMDL
MODEL 2
REMARK VINA RESULT:     -11.0      2.984      9.122
REMARK SMILES Cc1cc2c(c(C)c1Cl)C=C(C(=O)NCCCCCCNC(=O)c1ccc(-c3c4nc(c(-c5ccc(S(=O)(=O)[O-])cc5)c5ccc([nH]5)c(-c5ccc(S(=O)(=O)[O-])cc5)c5nc(c(-c6ccc(S(=O)(=O)[O-])cc6)c6ccc3[nH]6)C=C5)C=C4)cc1)[C@@H](C(F)(F)F)O2
REMARK SMILES IDX 18 1 17 2 16 3 15 4 14 5 12 6 13 7 11 9 1 10 2 11 3 12 8 13
REMARK SMILES IDX 4 14 6 15 9 16 5 17 89 18 7 19 10 20 84 21 85 22 86 23 87 24
REMARK SMILES IDX 88 25 19 26 20 27 21 28 22 29 23 31 24 32 25 33 83 34 26 35
REMARK SMILES IDX 82 36 27 37 28 38 29 39 76 40 30 41 81 42 75 43 77 44 31 45
REMARK SMILES IDX 80 46 74 47 73 48 32 50 62 51 43 52 61 53 44 54 47 55 60 56
REMARK SMILES IDX 78 57 45 58 46 59 59 61 79 62 48 63 33 64 34 65 42 66 35 67
REMARK SMILES IDX 41 68 36 69 37 70 38 71 39 72 40 73 63 74 64 75 72 76 65 77
REMARK SMILES IDX 71 78 66 79 67 80 68 81 69 82 70 83 49 84 50 85 58 86 51 87
REMARK SMILES IDX 57 88 52 89 53 90 54 91 55 92 56 93
REMARK H PARENT 14 8 21 30 77 49 47 60
REMARK Flexibility Score: inf
ROOT
ATOM      1  C   UNL A   1      35.553  22.565  23.850  1.00  0.00     0.002 C 
ENDROOT
BRANCH   1   2
ATOM      2  C   UNL A   1      34.218  21.816  23.967  1.00  0.00     0.002 C 
BRANCH   2   3
ATOM      3  C   UNL A   1      34.293  20.469  24.689  1.00  0.00     0.021 C 
BRANCH   3   4
ATOM      4  C   UNL A   1      33.162  20.243  25.686  1.00  0.00     0.116 C 
BRANCH   4   5
ATOM      5  N   UNL A   1      33.325  21.050  26.883  1.00  0.00    -0.352 N 
ATOM      6  C   UNL A   1      32.927  22.268  27.318  1.00  0.00     0.251 C 
ATOM      7  O   UNL A   1      33.282  22.559  28.466  1.00  0.00    -0.270 OA
ATOM      8  H   UNL A   1      33.872  20.588  27.558  1.00  0.00     0.163 HD
BRANCH   6   9
ATOM      9  C   UNL A   1      32.118  23.245  26.525  1.00  0.00     0.067 C 
ATOM     10  C   UNL A   1      29.724  28.236  23.103  1.00  0.00     0.046 C 
ATOM     11  C   UNL A   1      30.511  27.343  24.023  1.00  0.00    -0.028 A 
ATOM     12  C   UNL A   1      30.105  26.011  24.122  1.00  0.00     0.052 A 
ATOM     13  C   UNL A   1      31.662  27.754  24.723  1.00  0.00     0.047 A 
ATOM     14  C   UNL A   1      30.807  25.112  24.918  1.00  0.00     0.128 A 
ATOM     15  C   UNL A   1      32.381  26.849  25.547  1.00  0.00    -0.021 A 
ATOM     16  Cl  UNL A   1      32.208  29.394  24.535  1.00  0.00    -0.084 Cl
ATOM     17  C   UNL A   1      31.944  25.505  25.626  1.00  0.00     0.022 A 
ATOM     18  O   UNL A   1      30.324  23.840  24.900  1.00  0.00    -0.475 OA
ATOM     19  C   UNL A   1      33.603  27.279  26.327  1.00  0.00     0.047 C 
ATOM     20  C   UNL A   1      32.661  24.468  26.377  1.00  0.00     0.026 C 
ATOM     21  C   UNL A   1      30.772  22.943  25.943  1.00  0.00     0.314 C 
BRANCH  21  22
ATOM     22  C   UNL A   1      29.672  22.825  27.012  1.00  0.00     0.429 C 
ATOM     23  F   UNL A   1      30.214  22.556  28.224  1.00  0.00    -0.167 F 
ATOM     24  F   UNL A   1      28.959  23.967  27.156  1.00  0.00    -0.167 F 
ATOM     25  F   UNL A   1      28.786  21.842  26.733  1.00  0.00    -0.167 F 
ENDBRANCH  21  22
ENDBRANCH   6   9
ENDBRANCH   4   5
ENDBRANCH   3   4
ENDBRANCH   2   3
ENDBRANCH   1   2
BRANCH   1  26
ATOM     26  C   UNL A   1      35.598  23.938  24.529  1.00  0.00     0.021 C 
BRANCH  26  27
ATOM     27  C   UNL A   1      36.361  23.968  25.850  1.00  0.00     0.116 C 
BRANCH  27  28
ATOM     28  N   UNL A   1      37.329  22.887  25.936  1.00  0.00    -0.352 N 
ATOM     29  C   UNL A   1      38.652  22.938  26.287  1.00  0.00     0.251 C 
ATOM     30  H   UNL A   1      36.985  21.993  25.710  1.00  0.00     0.163 HD
ATOM     31  O   UNL A   1      39.376  21.960  26.088  1.00  0.00    -0.269 OA
BRANCH  29  32
ATOM     32  C   UNL A   1      39.207  24.162  26.894  1.00  0.00     0.039 A 
ATOM     33  C   UNL A   1      39.956  25.033  26.099  1.00  0.00     0.014 A 
ATOM     34  C   UNL A   1      39.008  24.437  28.251  1.00  0.00     0.014 A 
ATOM     35  C   UNL A   1      40.466  26.208  26.654  1.00  0.00     0.010 A 
ATOM     36  C   UNL A   1      39.466  25.636  28.787  1.00  0.00     0.010 A 
ATOM     37  C   UNL A   1      40.202  26.530  27.995  1.00  0.00    -0.014 A 
BRANCH  37  38
ATOM     38  C   UNL A   1      40.687  27.795  28.597  1.00  0.00     0.031 A 
ATOM     39  C   UNL A   1      42.102  27.895  29.097  1.00  0.00     0.074 A 
ATOM     40  C   UNL A   1      39.837  28.828  28.749  1.00  0.00     0.049 A 
ATOM     41  N   UNL A   1      42.681  28.873  29.742  1.00  0.00    -0.248 NA
ATOM     42  C   UNL A   1      42.975  26.733  28.854  1.00  0.00     0.031 C 
ATOM     43  C   UNL A   1      38.440  28.846  28.309  1.00  0.00     0.029 A 
ATOM     44  N   UNL A   1      40.019  30.060  29.323  1.00  0.00    -0.354 N 
ATOM     45  C   UNL A   1      43.981  28.446  29.989  1.00  0.00     0.074 A 
ATOM     46  C   UNL A   1      44.091  27.101  29.466  1.00  0.00     0.031 C 
ATOM     47  C   UNL A   1      37.901  30.038  28.607  1.00  0.00     0.029 A 
ATOM     48  C   UNL A   1      38.896  30.850  29.302  1.00  0.00     0.049 A 
ATOM     49  H   UNL A   1      40.876  30.351  29.713  1.00  0.00     0.167 HD
ATOM     50  C   UNL A   1      44.994  29.121  30.582  1.00  0.00     0.031 A 
ATOM     51  C   UNL A   1      38.684  32.085  29.797  1.00  0.00     0.031 A 
ATOM     52  C   UNL A   1      44.874  30.457  31.103  1.00  0.00     0.049 A 
ATOM     53  C   UNL A   1      39.813  32.795  30.491  1.00  0.00     0.074 A 
ATOM     54  C   UNL A   1      45.846  31.234  31.711  1.00  0.00     0.029 A 
ATOM     55  N   UNL A   1      43.715  31.217  31.076  1.00  0.00    -0.354 N 
ATOM     56  N   UNL A   1      41.038  32.380  30.710  1.00  0.00    -0.248 NA
ATOM     57  C   UNL A   1      39.533  34.146  30.996  1.00  0.00     0.031 C 
ATOM     58  C   UNL A   1      45.261  32.444  32.095  1.00  0.00     0.029 A 
ATOM     59  C   UNL A   1      43.943  32.449  31.668  1.00  0.00     0.049 A 
ATOM     60  H   UNL A   1      42.857  30.925  30.693  1.00  0.00     0.167 HD
ATOM     61  C   UNL A   1      41.686  33.431  31.349  1.00  0.00     0.074 A 
ATOM     62  C   UNL A   1      40.719  34.503  31.470  1.00  0.00     0.031 C 
ATOM     63  C   UNL A   1      42.967  33.504  31.788  1.00  0.00     0.031 A 
BRANCH  50  64
ATOM     64  C   UNL A   1      46.323  28.421  30.703  1.00  0.00    -0.014 A 
ATOM     65  C   UNL A   1      47.302  28.548  29.700  1.00  0.00     0.010 A 
ATOM     66  C   UNL A   1      46.619  27.671  31.856  1.00  0.00     0.010 A 
ATOM     67  C   UNL A   1      48.540  27.916  29.835  1.00  0.00     0.020 A 
ATOM     68  C   UNL A   1      47.868  27.059  32.007  1.00  0.00     0.020 A 
ATOM     69  C   UNL A   1      48.816  27.176  30.989  1.00  0.00     0.054 A 
BRANCH  69  70
ATOM     70  S   UNL A   1      50.446  26.397  31.150  1.00  0.00     0.124 S 
ATOM     71  O   UNL A   1      50.102  24.977  31.162  1.00  0.00    -0.237 OA
ATOM     72  O   UNL A   1      51.142  26.865  29.953  1.00  0.00    -0.237 OA
ATOM     73  O   UNL A   1      50.960  26.923  32.412  1.00  0.00    -0.744 OA
ENDBRANCH  69  70
ENDBRANCH  50  64
BRANCH  51  74
ATOM     74  C   UNL A   1      37.355  32.733  29.628  1.00  0.00    -0.014 A 
ATOM     75  C   UNL A   1      36.447  32.780  30.700  1.00  0.00     0.010 A 
ATOM     76  C   UNL A   1      37.002  33.334  28.405  1.00  0.00     0.010 A 
ATOM     77  C   UNL A   1      35.208  33.408  30.551  1.00  0.00     0.020 A 
ATOM     78  C   UNL A   1      35.775  33.987  28.262  1.00  0.00     0.020 A 
ATOM     79  C   UNL A   1      34.882  34.013  29.335  1.00  0.00     0.054 A 
BRANCH  79  80
ATOM     80  S   UNL A   1      33.294  34.879  29.190  1.00  0.00     0.124 S 
ATOM     81  O   UNL A   1      32.590  34.060  28.207  1.00  0.00    -0.237 OA
ATOM     82  O   UNL A   1      32.777  34.816  30.554  1.00  0.00    -0.237 OA
ATOM     83  O   UNL A   1      33.673  36.215  28.735  1.00  0.00    -0.744 OA
ENDBRANCH  79  80
ENDBRANCH  51  74
BRANCH  63  84
ATOM     84  C   UNL A   1      43.412  34.803  32.404  1.00  0.00    -0.014 A 
ATOM     85  C   UNL A   1      43.879  35.869  31.615  1.00  0.00     0.010 A 
ATOM     86  C   UNL A   1      43.326  34.971  33.800  1.00  0.00     0.010 A 
ATOM     87  C   UNL A   1      44.291  37.062  32.214  1.00  0.00     0.020 A 
ATOM     88  C   UNL A   1      43.707  36.173  34.398  1.00  0.00     0.020 A 
ATOM     89  C   UNL A   1      44.206  37.206  33.602  1.00  0.00     0.054 A 
BRANCH  89  90
ATOM     90  S   UNL A   1      44.731  38.772  34.351  1.00  0.00     0.124 S 
ATOM     91  O   UNL A   1      44.443  39.729  33.286  1.00  0.00    -0.237 OA
ATOM     92  O   UNL A   1      43.873  38.865  35.529  1.00  0.00    -0.237 OA
ATOM     93  O   UNL A   1      46.149  38.562  34.634  1.00  0.00    -0.744 OA
ENDBRANCH  89  90
ENDBRANCH  63  84
ENDBRANCH  37  38
ENDBRANCH  29  32
ENDBRANCH  27  28
ENDBRANCH  26  27
ENDBRANCH   1  26
TORSDOF 17
ENDMDL
MODEL 3
REMARK VINA RESULT:     -10.8      1.807      2.433
REMARK SMILES Cc1cc2c(c(C)c1Cl)C=C(C(=O)NCCCCCCNC(=O)c1ccc(-c3c4nc(c(-c5ccc(S(=O)(=O)[O-])cc5)c5ccc([nH]5)c(-c5ccc(S(=O)(=O)[O-])cc5)c5nc(c(-c6ccc(S(=O)(=O)[O-])cc6)c6ccc3[nH]6)C=C5)C=C4)cc1)[C@@H](C(F)(F)F)O2
REMARK SMILES IDX 18 1 17 2 16 3 15 4 14 5 12 6 13 7 11 9 1 10 2 11 3 12 8 13
REMARK SMILES IDX 4 14 6 15 9 16 5 17 89 18 7 19 10 20 84 21 85 22 86 23 87 24
REMARK SMILES IDX 88 25 19 26 20 27 21 28 22 29 23 31 24 32 25 33 83 34 26 35
REMARK SMILES IDX 82 36 27 37 28 38 29 39 76 40 30 41 81 42 75 43 77 44 31 45
REMARK SMILES IDX 80 46 74 47 73 48 32 50 62 51 43 52 61 53 44 54 47 55 60 56
REMARK SMILES IDX 78 57 45 58 46 59 59 61 79 62 48 63 33 64 34 65 42 66 35 67
REMARK SMILES IDX 41 68 36 69 37 70 38 71 39 72 40 73 63 74 64 75 72 76 65 77
REMARK SMILES IDX 71 78 66 79 67 80 68 81 69 82 70 83 49 84 50 85 58 86 51 87
REMARK SMILES IDX 57 88 52 89 53 90 54 91 55 92 56 93
REMARK H PARENT 14 8 21 30 77 49 47 60
REMARK Flexibility Score: inf
ROOT
ATOM      1  C   UNL A   1      31.624  28.349  26.278  1.00  0.00     0.002 C 
ENDROOT
BRANCH   1   2
ATOM      2  C   UNL A   1      30.988  28.031  24.918  1.00  0.00     0.002 C 
BRANCH   2   3
ATOM      3  C   UNL A   1      30.152  26.749  24.877  1.00  0.00     0.021 C 
BRANCH   3   4
ATOM      4  C   UNL A   1      30.692  25.695  23.918  1.00  0.00     0.116 C 
BRANCH   4   5
ATOM      5  N   UNL A   1      32.139  25.762  23.798  1.00  0.00    -0.352 N 
ATOM      6  C   UNL A   1      33.187  24.924  23.971  1.00  0.00     0.251 C 
ATOM      7  O   UNL A   1      34.296  25.408  23.717  1.00  0.00    -0.270 OA
ATOM      8  H   UNL A   1      32.437  26.657  23.517  1.00  0.00     0.163 HD
BRANCH   6   9
ATOM      9  C   UNL A   1      33.090  23.505  24.434  1.00  0.00     0.067 C 
ATOM     10  C   UNL A   1      32.718  17.046  25.134  1.00  0.00     0.046 C 
ATOM     11  C   UNL A   1      32.665  18.463  24.633  1.00  0.00    -0.028 A 
ATOM     12  C   UNL A   1      33.045  19.469  25.524  1.00  0.00     0.052 A 
ATOM     13  C   UNL A   1      32.327  18.820  23.313  1.00  0.00     0.047 A 
ATOM     14  C   UNL A   1      33.065  20.801  25.125  1.00  0.00     0.128 A 
ATOM     15  C   UNL A   1      32.333  20.177  22.896  1.00  0.00    -0.021 A 
ATOM     16  Cl  UNL A   1      31.929  17.557  22.187  1.00  0.00    -0.084 Cl
ATOM     17  C   UNL A   1      32.724  21.173  23.823  1.00  0.00     0.022 A 
ATOM     18  O   UNL A   1      33.485  21.674  26.080  1.00  0.00    -0.475 OA
ATOM     19  C   UNL A   1      31.949  20.581  21.491  1.00  0.00     0.047 C 
ATOM     20  C   UNL A   1      32.849  22.593  23.473  1.00  0.00     0.026 C 
ATOM     21  C   UNL A   1      33.212  23.079  25.865  1.00  0.00     0.314 C 
BRANCH  21  22
ATOM     22  C   UNL A   1      31.998  23.491  26.715  1.00  0.00     0.429 C 
ATOM     23  F   UNL A   1      32.020  24.823  26.962  1.00  0.00    -0.167 F 
ATOM     24  F   UNL A   1      30.819  23.235  26.100  1.00  0.00    -0.167 F 
ATOM     25  F   UNL A   1      31.965  22.855  27.908  1.00  0.00    -0.167 F 
ENDBRANCH  21  22
ENDBRANCH   6   9
ENDBRANCH   4   5
ENDBRANCH   3   4
ENDBRANCH   2   3
ENDBRANCH   1   2
BRANCH   1  26
ATOM     26  C   UNL A   1      33.002  27.724  26.521  1.00  0.00     0.021 C 
BRANCH  26  27
ATOM     27  C   UNL A   1      34.177  28.666  26.281  1.00  0.00     0.116 C 
BRANCH  27  28
ATOM     28  N   UNL A   1      33.956  29.968  26.888  1.00  0.00    -0.352 N 
ATOM     29  C   UNL A   1      34.700  30.617  27.836  1.00  0.00     0.251 C 
ATOM     30  H   UNL A   1      33.158  30.450  26.573  1.00  0.00     0.163 HD
ATOM     31  O   UNL A   1      34.242  31.613  28.398  1.00  0.00    -0.269 OA
BRANCH  29  32
ATOM     32  C   UNL A   1      36.044  30.119  28.187  1.00  0.00     0.039 A 
ATOM     33  C   UNL A   1      37.059  30.176  27.230  1.00  0.00     0.014 A 
ATOM     34  C   UNL A   1      36.294  29.575  29.452  1.00  0.00     0.014 A 
ATOM     35  C   UNL A   1      38.342  29.732  27.556  1.00  0.00     0.010 A 
ATOM     36  C   UNL A   1      37.585  29.188  29.795  1.00  0.00     0.010 A 
ATOM     37  C   UNL A   1      38.620  29.260  28.850  1.00  0.00    -0.014 A 
BRANCH  37  38
ATOM     38  C   UNL A   1      39.984  28.830  29.240  1.00  0.00     0.031 A 
ATOM     39  C   UNL A   1      40.892  29.783  29.967  1.00  0.00     0.074 A 
ATOM     40  C   UNL A   1      40.423  27.608  28.884  1.00  0.00     0.049 A 
ATOM     41  N   UNL A   1      42.147  29.631  30.302  1.00  0.00    -0.248 NA
ATOM     42  C   UNL A   1      40.319  31.084  30.352  1.00  0.00     0.031 C 
ATOM     43  C   UNL A   1      39.634  26.600  28.171  1.00  0.00     0.029 A 
ATOM     44  N   UNL A   1      41.642  27.007  29.065  1.00  0.00    -0.354 N 
ATOM     45  C   UNL A   1      42.516  30.816  30.929  1.00  0.00     0.074 A 
ATOM     46  C   UNL A   1      41.367  31.694  30.887  1.00  0.00     0.031 C 
ATOM     47  C   UNL A   1      40.382  25.499  27.998  1.00  0.00     0.029 A 
ATOM     48  C   UNL A   1      41.715  25.739  28.542  1.00  0.00     0.049 A 
ATOM     49  H   UNL A   1      42.394  27.444  29.528  1.00  0.00     0.167 HD
ATOM     50  C   UNL A   1      43.701  31.134  31.504  1.00  0.00     0.031 A 
ATOM     51  C   UNL A   1      42.744  24.870  28.494  1.00  0.00     0.031 A 
ATOM     52  C   UNL A   1      44.840  30.257  31.538  1.00  0.00     0.049 A 
ATOM     53  C   UNL A   1      44.062  25.265  29.100  1.00  0.00     0.074 A 
ATOM     54  C   UNL A   1      46.082  30.480  32.107  1.00  0.00     0.029 A 
ATOM     55  N   UNL A   1      44.879  28.986  30.983  1.00  0.00    -0.354 N 
ATOM     56  N   UNL A   1      44.392  26.387  29.696  1.00  0.00    -0.248 NA
ATOM     57  C   UNL A   1      45.143  24.274  29.035  1.00  0.00     0.031 C 
ATOM     58  C   UNL A   1      46.886  29.365  31.855  1.00  0.00     0.029 A 
ATOM     59  C   UNL A   1      46.126  28.419  31.186  1.00  0.00     0.049 A 
ATOM     60  H   UNL A   1      44.130  28.551  30.515  1.00  0.00     0.167 HD
ATOM     61  C   UNL A   1      45.709  26.223  30.107  1.00  0.00     0.074 A 
ATOM     62  C   UNL A   1      46.110  24.891  29.701  1.00  0.00     0.031 C 
ATOM     63  C   UNL A   1      46.512  27.094  30.768  1.00  0.00     0.031 A 
BRANCH  50  64
ATOM     64  C   UNL A   1      43.824  32.495  32.140  1.00  0.00    -0.014 A 
ATOM     65  C   UNL A   1      43.626  32.668  33.523  1.00  0.00     0.010 A 
ATOM     66  C   UNL A   1      44.194  33.604  31.358  1.00  0.00     0.010 A 
ATOM     67  C   UNL A   1      43.769  33.929  34.106  1.00  0.00     0.020 A 
ATOM     68  C   UNL A   1      44.365  34.863  31.944  1.00  0.00     0.020 A 
ATOM     69  C   UNL A   1      44.139  35.019  33.313  1.00  0.00     0.054 A 
BRANCH  69  70
ATOM     70  S   UNL A   1      44.352  36.636  34.106  1.00  0.00     0.124 S 
ATOM     71  O   UNL A   1      45.505  36.399  34.971  1.00  0.00    -0.237 OA
ATOM     72  O   UNL A   1      44.591  37.520  32.967  1.00  0.00    -0.237 OA
ATOM     73  O   UNL A   1      43.086  36.851  34.804  1.00  0.00    -0.744 OA
ENDBRANCH  69  70
ENDBRANCH  50  64
BRANCH  51  74
ATOM     74  C   UNL A   1      42.553  23.532  27.871  1.00  0.00    -0.014 A 
ATOM     75  C   UNL A   1      42.911  23.318  26.528  1.00  0.00     0.010 A 
ATOM     76  C   UNL A   1      42.044  22.457  28.623  1.00  0.00     0.010 A 
ATOM     77  C   UNL A   1      42.756  22.057  25.946  1.00  0.00     0.020 A 
ATOM     78  C   UNL A   1      41.914  21.188  28.052  1.00  0.00     0.020 A 
ATOM     79  C   UNL A   1      42.263  20.998  26.713  1.00  0.00     0.054 A 
BRANCH  79  80
ATOM     80  S   UNL A   1      42.134  19.357  25.953  1.00  0.00     0.124 S 
ATOM     81  O   UNL A   1      40.700  19.249  25.703  1.00  0.00    -0.237 OA
ATOM     82  O   UNL A   1      42.975  19.494  24.767  1.00  0.00    -0.237 OA
ATOM     83  O   UNL A   1      42.660  18.460  26.980  1.00  0.00    -0.744 OA
ENDBRANCH  79  80
ENDBRANCH  51  74
BRANCH  63  84
ATOM     84  C   UNL A   1      47.894  26.619  31.132  1.00  0.00    -0.014 A 
ATOM     85  C   UNL A   1      48.991  26.828  30.279  1.00  0.00     0.010 A 
ATOM     86  C   UNL A   1      48.101  25.983  32.371  1.00  0.00     0.010 A 
ATOM     87  C   UNL A   1      50.262  26.373  30.639  1.00  0.00     0.020 A 
ATOM     88  C   UNL A   1      49.375  25.554  32.748  1.00  0.00     0.020 A 
ATOM     89  C   UNL A   1      50.445  25.735  31.871  1.00  0.00     0.054 A 
BRANCH  89  90
ATOM     90  S   UNL A   1      52.108  25.169  32.320  1.00  0.00     0.124 S 
ATOM     91  O   UNL A   1      52.921  25.726  31.242  1.00  0.00    -0.237 OA
ATOM     92  O   UNL A   1      52.307  25.776  33.635  1.00  0.00    -0.237 OA
ATOM     93  O   UNL A   1      51.990  23.713  32.324  1.00  0.00    -0.744 OA
ENDBRANCH  89  90
ENDBRANCH  63  84
ENDBRANCH  37  38
ENDBRANCH  29  32
ENDBRANCH  27  28
ENDBRANCH  26  27
ENDBRANCH   1  26
TORSDOF 17
ENDMDL
