MODEL 1
REMARK VINA RESULT:     -10.6      0.000      0.000
REMARK SMILES C=Cc1cccc(-c2ccc([C@@H](C)C(=O)NCCCCCCNC(=O)c3ccc(-c4c5nc(c(-c6ccc(S(=O)(=O)[O-])cc6)c6ccc([nH]6)c(-c6ccc(S(=O)(=O)[O-])cc6)c6nc(c(-c7ccc(S(=O)(=O)[O-])cc7)c7ccc4[nH]7)C=C6)C=C5)cc3)cc2)c1
REMARK SMILES IDX 19 1 18 2 17 3 16 4 14 5 15 6 12 8 13 9 11 10 8 11 9 12
REMARK SMILES IDX 87 13 10 14 86 15 7 16 3 17 4 18 88 19 5 20 6 21 2 22 1 23
REMARK SMILES IDX 20 24 21 25 22 26 23 27 24 28 25 30 26 31 27 32 85 33 28 34
REMARK SMILES IDX 84 35 29 36 30 37 31 38 78 39 32 40 83 41 77 42 79 43 33 44
REMARK SMILES IDX 82 45 76 46 75 47 34 49 64 50 45 51 63 52 46 53 49 54 62 55
REMARK SMILES IDX 80 56 47 57 48 58 61 60 81 61 50 62 35 63 36 64 44 65 37 66
REMARK SMILES IDX 43 67 38 68 39 69 40 70 41 71 42 72 65 73 66 74 74 75 67 76
REMARK SMILES IDX 73 77 68 78 69 79 70 80 71 81 72 82 51 83 52 84 60 85 53 86
REMARK SMILES IDX 59 87 54 88 55 89 56 90 57 91 58 92
REMARK H PARENT 16 7 23 29 79 48 49 59
REMARK Flexibility Score: inf
ROOT
ATOM      1  C   UNL A   1      33.351  25.451  26.211  1.00  0.00     0.002 C 
ENDROOT
BRANCH   1   2
ATOM      2  C   UNL A   1      33.783  26.888  25.900  1.00  0.00     0.021 C 
BRANCH   2   3
ATOM      3  C   UNL A   1      32.845  27.623  24.940  1.00  0.00     0.116 C 
BRANCH   3   4
ATOM      4  N   UNL A   1      33.468  27.858  23.655  1.00  0.00    -0.356 N 
ATOM      5  C   UNL A   1      33.132  27.443  22.403  1.00  0.00     0.227 C 
ATOM      6  O   UNL A   1      33.915  27.741  21.492  1.00  0.00    -0.274 OA
ATOM      7  H   UNL A   1      34.278  28.417  23.692  1.00  0.00     0.163 HD
BRANCH   5   8
ATOM      8  C   UNL A   1      31.846  26.663  22.082  1.00  0.00     0.105 C 
ATOM      9  C   UNL A   1      30.564  27.431  22.406  1.00  0.00     0.023 C 
BRANCH   8  10
ATOM     10  C   UNL A   1      31.897  25.210  22.527  1.00  0.00    -0.036 A 
ATOM     11  C   UNL A   1      32.202  22.528  23.474  1.00  0.00    -0.018 A 
ATOM     12  C   UNL A   1      31.144  23.345  23.899  1.00  0.00     0.009 A 
ATOM     13  C   UNL A   1      33.076  23.069  22.517  1.00  0.00     0.009 A 
ATOM     14  C   UNL A   1      30.976  24.647  23.413  1.00  0.00     0.005 A 
ATOM     15  C   UNL A   1      32.939  24.389  22.068  1.00  0.00     0.005 A 
BRANCH  11  16
ATOM     16  C   UNL A   1      32.396  21.172  24.036  1.00  0.00    -0.018 A 
ATOM     17  C   UNL A   1      32.776  18.762  23.721  1.00  0.00    -0.026 A 
ATOM     18  C   UNL A   1      32.857  18.597  25.106  1.00  0.00     0.008 A 
ATOM     19  C   UNL A   1      32.540  20.045  23.202  1.00  0.00     0.016 A 
ATOM     20  C   UNL A   1      32.716  19.691  25.954  1.00  0.00     0.001 A 
ATOM     21  C   UNL A   1      32.482  20.962  25.424  1.00  0.00     0.009 A 
BRANCH  17  22
ATOM     22  C   UNL A   1      32.894  17.578  22.860  1.00  0.00     0.000 C 
ATOM     23  C   UNL A   1      33.944  16.748  22.857  1.00  0.00     0.009 C 
ENDBRANCH  17  22
ENDBRANCH  11  16
ENDBRANCH   8  10
ENDBRANCH   5   8
ENDBRANCH   3   4
ENDBRANCH   2   3
ENDBRANCH   1   2
BRANCH   1  24
ATOM     24  C   UNL A   1      34.153  24.360  25.489  1.00  0.00     0.002 C 
BRANCH  24  25
ATOM     25  C   UNL A   1      35.271  23.708  26.310  1.00  0.00     0.021 C 
BRANCH  25  26
ATOM     26  C   UNL A   1      36.681  23.968  25.787  1.00  0.00     0.116 C 
BRANCH  26  27
ATOM     27  N   UNL A   1      37.564  22.843  26.044  1.00  0.00    -0.352 N 
ATOM     28  C   UNL A   1      38.893  22.834  26.385  1.00  0.00     0.251 C 
ATOM     29  H   UNL A   1      37.146  21.955  25.961  1.00  0.00     0.163 HD
ATOM     30  O   UNL A   1      39.529  21.786  26.322  1.00  0.00    -0.269 OA
BRANCH  28  31
ATOM     31  C   UNL A   1      39.559  24.079  26.829  1.00  0.00     0.039 A 
ATOM     32  C   UNL A   1      39.574  24.390  28.192  1.00  0.00     0.014 A 
ATOM     33  C   UNL A   1      40.114  24.968  25.903  1.00  0.00     0.014 A 
ATOM     34  C   UNL A   1      40.168  25.578  28.627  1.00  0.00     0.010 A 
ATOM     35  C   UNL A   1      40.768  26.115  26.344  1.00  0.00     0.010 A 
ATOM     36  C   UNL A   1      40.780  26.445  27.708  1.00  0.00    -0.014 A 
BRANCH  36  37
ATOM     37  C   UNL A   1      41.386  27.727  28.147  1.00  0.00     0.031 A 
ATOM     38  C   UNL A   1      42.877  27.923  28.050  1.00  0.00     0.074 A 
ATOM     39  C   UNL A   1      40.609  28.694  28.671  1.00  0.00     0.049 A 
ATOM     40  N   UNL A   1      43.602  28.947  28.424  1.00  0.00    -0.248 NA
ATOM     41  C   UNL A   1      43.659  26.811  27.485  1.00  0.00     0.031 C 
ATOM     42  C   UNL A   1      39.157  28.611  28.851  1.00  0.00     0.029 A 
ATOM     43  N   UNL A   1      40.933  29.937  29.152  1.00  0.00    -0.354 N 
ATOM     44  C   UNL A   1      44.920  28.595  28.159  1.00  0.00     0.074 A 
ATOM     45  C   UNL A   1      44.900  27.244  27.642  1.00  0.00     0.031 C 
ATOM     46  C   UNL A   1      38.714  29.765  29.378  1.00  0.00     0.029 A 
ATOM     47  C   UNL A   1      39.850  30.654  29.603  1.00  0.00     0.049 A 
ATOM     48  H   UNL A   1      41.854  30.284  29.173  1.00  0.00     0.167 HD
ATOM     49  C   UNL A   1      46.046  29.335  28.309  1.00  0.00     0.031 A 
ATOM     50  C   UNL A   1      39.779  31.890  30.135  1.00  0.00     0.031 A 
ATOM     51  C   UNL A   1      46.060  30.684  28.804  1.00  0.00     0.049 A 
ATOM     52  C   UNL A   1      41.040  32.700  30.275  1.00  0.00     0.074 A 
ATOM     53  C   UNL A   1      47.140  31.536  28.955  1.00  0.00     0.029 A 
ATOM     54  N   UNL A   1      44.938  31.384  29.223  1.00  0.00    -0.354 N 
ATOM     55  N   UNL A   1      42.272  32.366  29.977  1.00  0.00    -0.248 NA
ATOM     56  C   UNL A   1      40.893  34.064  30.801  1.00  0.00     0.031 C 
ATOM     57  C   UNL A   1      46.676  32.739  29.501  1.00  0.00     0.029 A 
ATOM     58  C   UNL A   1      45.299  32.654  29.637  1.00  0.00     0.049 A 
ATOM     59  H   UNL A   1      44.019  31.029  29.224  1.00  0.00     0.167 HD
ATOM     60  C   UNL A   1      43.044  33.492  30.244  1.00  0.00     0.074 A 
ATOM     61  C   UNL A   1      42.136  34.517  30.718  1.00  0.00     0.031 C 
ATOM     62  C   UNL A   1      44.382  33.664  30.102  1.00  0.00     0.031 A 
BRANCH  49  63
ATOM     63  C   UNL A   1      47.354  28.688  27.935  1.00  0.00    -0.014 A 
ATOM     64  C   UNL A   1      48.074  27.912  28.863  1.00  0.00     0.010 A 
ATOM     65  C   UNL A   1      47.863  28.839  26.633  1.00  0.00     0.010 A 
ATOM     66  C   UNL A   1      49.301  27.342  28.511  1.00  0.00     0.020 A 
ATOM     67  C   UNL A   1      49.075  28.246  26.267  1.00  0.00     0.020 A 
ATOM     68  C   UNL A   1      49.797  27.518  27.216  1.00  0.00     0.054 A 
BRANCH  68  69
ATOM     69  S   UNL A   1      51.387  26.761  26.783  1.00  0.00     0.124 S 
ATOM     70  O   UNL A   1      52.006  26.590  28.095  1.00  0.00    -0.237 OA
ATOM     71  O   UNL A   1      50.983  25.528  26.113  1.00  0.00    -0.237 OA
ATOM     72  O   UNL A   1      52.021  27.755  25.921  1.00  0.00    -0.744 OA
ENDBRANCH  68  69
ENDBRANCH  49  63
BRANCH  50  73
ATOM     73  C   UNL A   1      38.461  32.449  30.541  1.00  0.00    -0.014 A 
ATOM     74  C   UNL A   1      37.667  33.145  29.611  1.00  0.00     0.010 A 
ATOM     75  C   UNL A   1      37.987  32.279  31.853  1.00  0.00     0.010 A 
ATOM     76  C   UNL A   1      36.432  33.678  29.993  1.00  0.00     0.020 A 
ATOM     77  C   UNL A   1      36.741  32.787  32.231  1.00  0.00     0.020 A 
ATOM     78  C   UNL A   1      35.977  33.495  31.302  1.00  0.00     0.054 A 
BRANCH  78  79
ATOM     79  S   UNL A   1      34.349  34.151  31.762  1.00  0.00     0.124 S 
ATOM     80  O   UNL A   1      33.709  34.314  30.460  1.00  0.00    -0.237 OA
ATOM     81  O   UNL A   1      33.807  33.090  32.607  1.00  0.00    -0.237 OA
ATOM     82  O   UNL A   1      34.668  35.394  32.464  1.00  0.00    -0.744 OA
ENDBRANCH  78  79
ENDBRANCH  50  73
BRANCH  62  83
ATOM     83  C   UNL A   1      44.937  35.029  30.412  1.00  0.00    -0.014 A 
ATOM     84  C   UNL A   1      45.013  36.032  29.431  1.00  0.00     0.010 A 
ATOM     85  C   UNL A   1      45.362  35.315  31.723  1.00  0.00     0.010 A 
ATOM     86  C   UNL A   1      45.551  37.285  29.744  1.00  0.00     0.020 A 
ATOM     87  C   UNL A   1      45.873  36.575  32.046  1.00  0.00     0.020 A 
ATOM     88  C   UNL A   1      45.983  37.544  31.048  1.00  0.00     0.054 A 
BRANCH  88  89
ATOM     89  S   UNL A   1      46.663  39.181  31.436  1.00  0.00     0.124 S 
ATOM     90  O   UNL A   1      46.322  39.942  30.237  1.00  0.00    -0.237 OA
ATOM     91  O   UNL A   1      45.933  39.554  32.646  1.00  0.00    -0.237 OA
ATOM     92  O   UNL A   1      48.089  38.927  31.630  1.00  0.00    -0.744 OA
ENDBRANCH  88  89
ENDBRANCH  62  83
ENDBRANCH  36  37
ENDBRANCH  28  31
ENDBRANCH  26  27
ENDBRANCH  25  26
ENDBRANCH  24  25
ENDBRANCH   1  24
TORSDOF 19
ENDMDL
MODEL 2
REMARK VINA RESULT:     -10.6      5.014      7.037
REMARK SMILES C=Cc1cccc(-c2ccc([C@@H](C)C(=O)NCCCCCCNC(=O)c3ccc(-c4c5nc(c(-c6ccc(S(=O)(=O)[O-])cc6)c6ccc([nH]6)c(-c6ccc(S(=O)(=O)[O-])cc6)c6nc(c(-c7ccc(S(=O)(=O)[O-])cc7)c7ccc4[nH]7)C=C6)C=C5)cc3)cc2)c1
REMARK SMILES IDX 19 1 18 2 17 3 16 4 14 5 15 6 12 8 13 9 11 10 8 11 9 12
REMARK SMILES IDX 87 13 10 14 86 15 7 16 3 17 4 18 88 19 5 20 6 21 2 22 1 23
REMARK SMILES IDX 20 24 21 25 22 26 23 27 24 28 25 30 26 31 27 32 85 33 28 34
REMARK SMILES IDX 84 35 29 36 30 37 31 38 78 39 32 40 83 41 77 42 79 43 33 44
REMARK SMILES IDX 82 45 76 46 75 47 34 49 64 50 45 51 63 52 46 53 49 54 62 55
REMARK SMILES IDX 80 56 47 57 48 58 61 60 81 61 50 62 35 63 36 64 44 65 37 66
REMARK SMILES IDX 43 67 38 68 39 69 40 70 41 71 42 72 65 73 66 74 74 75 67 76
REMARK SMILES IDX 73 77 68 78 69 79 70 80 71 81 72 82 51 83 52 84 60 85 53 86
REMARK SMILES IDX 59 87 54 88 55 89 56 90 57 91 58 92
REMARK H PARENT 16 7 23 29 79 48 49 59
REMARK Flexibility Score: inf
ROOT
ATOM      1  C   UNL A   1      36.184  22.741  24.983  1.00  0.00     0.002 C 
ENDROOT
BRANCH   1   2
ATOM      2  C   UNL A   1      35.382  21.615  25.643  1.00  0.00     0.021 C 
BRANCH   2   3
ATOM      3  C   UNL A   1      35.256  20.357  24.782  1.00  0.00     0.116 C 
BRANCH   3   4
ATOM      4  N   UNL A   1      34.340  19.397  25.362  1.00  0.00    -0.356 N 
ATOM      5  C   UNL A   1      33.000  19.223  25.203  1.00  0.00     0.227 C 
ATOM      6  O   UNL A   1      32.467  18.355  25.906  1.00  0.00    -0.274 OA
ATOM      7  H   UNL A   1      34.761  18.758  25.982  1.00  0.00     0.163 HD
BRANCH   5   8
ATOM      8  C   UNL A   1      32.151  20.023  24.200  1.00  0.00     0.105 C 
ATOM      9  C   UNL A   1      32.355  19.595  22.745  1.00  0.00     0.023 C 
BRANCH   8  10
ATOM     10  C   UNL A   1      32.147  21.518  24.473  1.00  0.00    -0.036 A 
ATOM     11  C   UNL A   1      31.966  24.351  24.821  1.00  0.00    -0.018 A 
ATOM     12  C   UNL A   1      31.641  23.459  25.853  1.00  0.00     0.009 A 
ATOM     13  C   UNL A   1      32.438  23.791  23.624  1.00  0.00     0.009 A 
ATOM     14  C   UNL A   1      31.759  22.073  25.694  1.00  0.00     0.005 A 
ATOM     15  C   UNL A   1      32.508  22.403  23.446  1.00  0.00     0.005 A 
BRANCH  11  16
ATOM     16  C   UNL A   1      31.786  25.812  24.988  1.00  0.00    -0.018 A 
ATOM     17  C   UNL A   1      32.314  27.910  26.160  1.00  0.00    -0.026 A 
ATOM     18  C   UNL A   1      31.518  28.613  25.253  1.00  0.00     0.008 A 
ATOM     19  C   UNL A   1      32.434  26.518  26.022  1.00  0.00     0.016 A 
ATOM     20  C   UNL A   1      30.865  27.943  24.222  1.00  0.00     0.001 A 
ATOM     21  C   UNL A   1      30.994  26.558  24.098  1.00  0.00     0.009 A 
BRANCH  17  22
ATOM     22  C   UNL A   1      32.958  28.647  27.255  1.00  0.00     0.000 C 
ATOM     23  C   UNL A   1      34.260  28.959  27.291  1.00  0.00     0.009 C 
ENDBRANCH  17  22
ENDBRANCH  11  16
ENDBRANCH   8  10
ENDBRANCH   5   8
ENDBRANCH   3   4
ENDBRANCH   2   3
ENDBRANCH   1   2
BRANCH   1  24
ATOM     24  C   UNL A   1      37.118  23.514  25.923  1.00  0.00     0.002 C 
BRANCH  24  25
ATOM     25  C   UNL A   1      38.521  22.923  26.094  1.00  0.00     0.021 C 
BRANCH  25  26
ATOM     26  C   UNL A   1      39.492  23.801  26.878  1.00  0.00     0.116 C 
BRANCH  26  27
ATOM     27  N   UNL A   1      40.587  24.267  26.044  1.00  0.00    -0.352 N 
ATOM     28  C   UNL A   1      41.275  25.453  26.086  1.00  0.00     0.251 C 
ATOM     29  H   UNL A   1      40.878  23.638  25.345  1.00  0.00     0.163 HD
ATOM     30  O   UNL A   1      42.002  25.767  25.148  1.00  0.00    -0.269 OA
BRANCH  28  31
ATOM     31  C   UNL A   1      41.145  26.352  27.255  1.00  0.00     0.039 A 
ATOM     32  C   UNL A   1      40.214  26.038  28.250  1.00  0.00     0.014 A 
ATOM     33  C   UNL A   1      41.893  27.530  27.344  1.00  0.00     0.014 A 
ATOM     34  C   UNL A   1      40.052  26.892  29.344  1.00  0.00     0.010 A 
ATOM     35  C   UNL A   1      41.781  28.343  28.470  1.00  0.00     0.010 A 
ATOM     36  C   UNL A   1      40.842  28.045  29.469  1.00  0.00    -0.014 A 
BRANCH  36  37
ATOM     37  C   UNL A   1      40.661  28.982  30.607  1.00  0.00     0.031 A 
ATOM     38  C   UNL A   1      41.534  28.855  31.828  1.00  0.00     0.074 A 
ATOM     39  C   UNL A   1      39.689  29.914  30.563  1.00  0.00     0.049 A 
ATOM     40  N   UNL A   1      41.502  29.542  32.942  1.00  0.00    -0.248 NA
ATOM     41  C   UNL A   1      42.558  27.798  31.806  1.00  0.00     0.031 C 
ATOM     42  C   UNL A   1      38.756  30.114  29.452  1.00  0.00     0.029 A 
ATOM     43  N   UNL A   1      39.324  30.866  31.480  1.00  0.00    -0.354 N 
ATOM     44  C   UNL A   1      42.483  28.989  33.757  1.00  0.00     0.074 A 
ATOM     45  C   UNL A   1      43.057  27.877  33.030  1.00  0.00     0.031 C 
ATOM     46  C   UNL A   1      37.943  31.144  29.742  1.00  0.00     0.029 A 
ATOM     47  C   UNL A   1      38.274  31.654  31.069  1.00  0.00     0.049 A 
ATOM     48  H   UNL A   1      39.770  30.975  32.351  1.00  0.00     0.167 HD
ATOM     49  C   UNL A   1      42.888  29.382  34.989  1.00  0.00     0.031 A 
ATOM     50  C   UNL A   1      37.651  32.674  31.691  1.00  0.00     0.031 A 
ATOM     51  C   UNL A   1      42.329  30.500  35.699  1.00  0.00     0.049 A 
ATOM     52  C   UNL A   1      38.131  33.106  33.050  1.00  0.00     0.074 A 
ATOM     53  C   UNL A   1      42.696  31.008  36.933  1.00  0.00     0.029 A 
ATOM     54  N   UNL A   1      41.287  31.290  35.235  1.00  0.00    -0.354 N 
ATOM     55  N   UNL A   1      39.091  32.598  33.786  1.00  0.00    -0.248 NA
ATOM     56  C   UNL A   1      37.456  34.264  33.651  1.00  0.00     0.031 C 
ATOM     57  C   UNL A   1      41.850  32.083  37.232  1.00  0.00     0.029 A 
ATOM     58  C   UNL A   1      40.994  32.278  36.160  1.00  0.00     0.049 A 
ATOM     59  H   UNL A   1      40.824  31.166  34.375  1.00  0.00     0.167 HD
ATOM     60  C   UNL A   1      39.161  33.400  34.920  1.00  0.00     0.074 A 
ATOM     61  C   UNL A   1      38.152  34.429  34.768  1.00  0.00     0.031 C 
ATOM     62  C   UNL A   1      39.990  33.297  35.989  1.00  0.00     0.031 A 
BRANCH  49  63
ATOM     63  C   UNL A   1      43.988  28.587  35.642  1.00  0.00    -0.014 A 
ATOM     64  C   UNL A   1      45.341  28.922  35.448  1.00  0.00     0.010 A 
ATOM     65  C   UNL A   1      43.667  27.503  36.478  1.00  0.00     0.010 A 
ATOM     66  C   UNL A   1      46.353  28.158  36.037  1.00  0.00     0.020 A 
ATOM     67  C   UNL A   1      44.675  26.754  37.094  1.00  0.00     0.020 A 
ATOM     68  C   UNL A   1      46.013  27.074  36.852  1.00  0.00     0.054 A 
BRANCH  68  69
ATOM     69  S   UNL A   1      47.345  26.105  37.611  1.00  0.00     0.124 S 
ATOM     70  O   UNL A   1      47.615  26.867  38.828  1.00  0.00    -0.237 OA
ATOM     71  O   UNL A   1      46.718  24.801  37.813  1.00  0.00    -0.237 OA
ATOM     72  O   UNL A   1      48.408  26.133  36.610  1.00  0.00    -0.744 OA
ENDBRANCH  68  69
ENDBRANCH  49  63
BRANCH  50  73
ATOM     73  C   UNL A   1      36.529  33.381  31.015  1.00  0.00    -0.014 A 
ATOM     74  C   UNL A   1      36.748  34.076  29.812  1.00  0.00     0.010 A 
ATOM     75  C   UNL A   1      35.235  33.352  31.563  1.00  0.00     0.010 A 
ATOM     76  C   UNL A   1      35.696  34.747  29.180  1.00  0.00     0.020 A 
ATOM     77  C   UNL A   1      34.176  34.000  30.921  1.00  0.00     0.020 A 
ATOM     78  C   UNL A   1      34.417  34.704  29.739  1.00  0.00     0.054 A 
BRANCH  78  79
ATOM     79  S   UNL A   1      33.056  35.540  28.876  1.00  0.00     0.124 S 
ATOM     80  O   UNL A   1      32.442  34.438  28.142  1.00  0.00    -0.237 OA
ATOM     81  O   UNL A   1      32.268  36.085  29.978  1.00  0.00    -0.237 OA
ATOM     82  O   UNL A   1      33.737  36.539  28.054  1.00  0.00    -0.744 OA
ENDBRANCH  78  79
ENDBRANCH  50  73
BRANCH  62  83
ATOM     83  C   UNL A   1      39.878  34.358  37.051  1.00  0.00    -0.014 A 
ATOM     84  C   UNL A   1      39.008  34.215  38.146  1.00  0.00     0.010 A 
ATOM     85  C   UNL A   1      40.685  35.508  36.960  1.00  0.00     0.010 A 
ATOM     86  C   UNL A   1      38.913  35.226  39.107  1.00  0.00     0.020 A 
ATOM     87  C   UNL A   1      40.613  36.507  37.935  1.00  0.00     0.020 A 
ATOM     88  C   UNL A   1      39.711  36.368  38.991  1.00  0.00     0.054 A 
BRANCH  88  89
ATOM     89  S   UNL A   1      39.582  37.660  40.258  1.00  0.00     0.124 S 
ATOM     90  O   UNL A   1      38.579  38.550  39.680  1.00  0.00    -0.237 OA
ATOM     91  O   UNL A   1      39.154  36.912  41.438  1.00  0.00    -0.237 OA
ATOM     92  O   UNL A   1      40.934  38.208  40.332  1.00  0.00    -0.744 OA
ENDBRANCH  88  89
ENDBRANCH  62  83
ENDBRANCH  36  37
ENDBRANCH  28  31
ENDBRANCH  26  27
ENDBRANCH  25  26
ENDBRANCH  24  25
ENDBRANCH   1  24
TORSDOF 19
ENDMDL
MODEL 3
REMARK VINA RESULT:     -10.3      3.051      5.642
REMARK SMILES C=Cc1cccc(-c2ccc([C@@H](C)C(=O)NCCCCCCNC(=O)c3ccc(-c4c5nc(c(-c6ccc(S(=O)(=O)[O-])cc6)c6ccc([nH]6)c(-c6ccc(S(=O)(=O)[O-])cc6)c6nc(c(-c7ccc(S(=O)(=O)[O-])cc7)c7ccc4[nH]7)C=C6)C=C5)cc3)cc2)c1
REMARK SMILES IDX 19 1 18 2 17 3 16 4 14 5 15 6 12 8 13 9 11 10 8 11 9 12
REMARK SMILES IDX 87 13 10 14 86 15 7 16 3 17 4 18 88 19 5 20 6 21 2 22 1 23
REMARK SMILES IDX 20 24 21 25 22 26 23 27 24 28 25 30 26 31 27 32 85 33 28 34
REMARK SMILES IDX 84 35 29 36 30 37 31 38 78 39 32 40 83 41 77 42 79 43 33 44
REMARK SMILES IDX 82 45 76 46 75 47 34 49 64 50 45 51 63 52 46 53 49 54 62 55
REMARK SMILES IDX 80 56 47 57 48 58 61 60 81 61 50 62 35 63 36 64 44 65 37 66
REMARK SMILES IDX 43 67 38 68 39 69 40 70 41 71 42 72 65 73 66 74 74 75 67 76
REMARK SMILES IDX 73 77 68 78 69 79 70 80 71 81 72 82 51 83 52 84 60 85 53 86
REMARK SMILES IDX 59 87 54 88 55 89 56 90 57 91 58 92
REMARK H PARENT 16 7 23 29 79 48 49 59
REMARK Flexibility Score: inf
ROOT
ATOM      1  C   UNL A   1      39.892  22.063  25.955  1.00  0.00     0.002 C 
ENDROOT
BRANCH   1   2
ATOM      2  C   UNL A   1      39.286  23.248  26.714  1.00  0.00     0.021 C 
BRANCH   2   3
ATOM      3  C   UNL A   1      37.876  23.623  26.252  1.00  0.00     0.116 C 
BRANCH   3   4
ATOM      4  N   UNL A   1      36.951  22.519  26.394  1.00  0.00    -0.356 N 
ATOM      5  C   UNL A   1      35.899  22.123  25.626  1.00  0.00     0.227 C 
ATOM      6  O   UNL A   1      35.232  21.171  26.051  1.00  0.00    -0.274 OA
ATOM      7  H   UNL A   1      37.111  21.954  27.184  1.00  0.00     0.163 HD
BRANCH   5   8
ATOM      8  C   UNL A   1      35.531  22.777  24.284  1.00  0.00     0.105 C 
ATOM      9  C   UNL A   1      36.694  22.840  23.292  1.00  0.00     0.023 C 
BRANCH   8  10
ATOM     10  C   UNL A   1      34.702  24.042  24.438  1.00  0.00    -0.036 A 
ATOM     11  C   UNL A   1      33.333  26.521  24.833  1.00  0.00    -0.018 A 
ATOM     12  C   UNL A   1      33.608  26.027  23.550  1.00  0.00     0.009 A 
ATOM     13  C   UNL A   1      33.712  25.715  25.918  1.00  0.00     0.009 A 
ATOM     14  C   UNL A   1      34.250  24.799  23.355  1.00  0.00     0.005 A 
ATOM     15  C   UNL A   1      34.400  24.510  25.726  1.00  0.00     0.005 A 
BRANCH  11  16
ATOM     16  C   UNL A   1      32.699  27.847  25.023  1.00  0.00    -0.018 A 
ATOM     17  C   UNL A   1      30.960  29.487  24.441  1.00  0.00    -0.026 A 
ATOM     18  C   UNL A   1      31.430  30.337  25.445  1.00  0.00     0.008 A 
ATOM     19  C   UNL A   1      31.603  28.255  24.236  1.00  0.00     0.016 A 
ATOM     20  C   UNL A   1      32.511  29.960  26.236  1.00  0.00     0.001 A 
ATOM     21  C   UNL A   1      33.141  28.732  26.021  1.00  0.00     0.009 A 
BRANCH  17  22
ATOM     22  C   UNL A   1      29.840  29.934  23.603  1.00  0.00     0.000 C 
ATOM     23  C   UNL A   1      29.544  29.421  22.402  1.00  0.00     0.009 C 
ENDBRANCH  17  22
ENDBRANCH  11  16
ENDBRANCH   8  10
ENDBRANCH   5   8
ENDBRANCH   3   4
ENDBRANCH   2   3
ENDBRANCH   1   2
BRANCH   1  24
ATOM     24  C   UNL A   1      40.879  21.209  26.762  1.00  0.00     0.002 C 
BRANCH  24  25
ATOM     25  C   UNL A   1      41.188  19.827  26.177  1.00  0.00     0.021 C 
BRANCH  25  26
ATOM     26  C   UNL A   1      42.536  19.246  26.593  1.00  0.00     0.116 C 
BRANCH  26  27
ATOM     27  N   UNL A   1      43.388  18.991  25.443  1.00  0.00    -0.352 N 
ATOM     28  C   UNL A   1      44.096  19.873  24.667  1.00  0.00     0.251 C 
ATOM     29  H   UNL A   1      43.469  18.045  25.183  1.00  0.00     0.163 HD
ATOM     30  O   UNL A   1      44.562  19.500  23.594  1.00  0.00    -0.269 OA
BRANCH  28  31
ATOM     31  C   UNL A   1      44.301  21.268  25.117  1.00  0.00     0.039 A 
ATOM     32  C   UNL A   1      43.894  22.315  24.285  1.00  0.00     0.014 A 
ATOM     33  C   UNL A   1      44.945  21.547  26.326  1.00  0.00     0.014 A 
ATOM     34  C   UNL A   1      44.109  23.639  24.677  1.00  0.00     0.010 A 
ATOM     35  C   UNL A   1      45.095  22.866  26.748  1.00  0.00     0.010 A 
ATOM     36  C   UNL A   1      44.701  23.925  25.917  1.00  0.00    -0.014 A 
BRANCH  36  37
ATOM     37  C   UNL A   1      44.970  25.325  26.336  1.00  0.00     0.031 A 
ATOM     38  C   UNL A   1      46.366  25.882  26.236  1.00  0.00     0.074 A 
ATOM     39  C   UNL A   1      43.975  26.077  26.844  1.00  0.00     0.049 A 
ATOM     40  N   UNL A   1      46.813  27.059  26.593  1.00  0.00    -0.248 NA
ATOM     41  C   UNL A   1      47.401  24.989  25.689  1.00  0.00     0.031 C 
ATOM     42  C   UNL A   1      42.588  25.640  27.025  1.00  0.00     0.029 A 
ATOM     43  N   UNL A   1      43.979  27.369  27.305  1.00  0.00    -0.354 N 
ATOM     44  C   UNL A   1      48.179  27.040  26.334  1.00  0.00     0.074 A 
ATOM     45  C   UNL A   1      48.496  25.718  25.839  1.00  0.00     0.031 C 
ATOM     46  C   UNL A   1      41.871  26.656  27.533  1.00  0.00     0.029 A 
ATOM     47  C   UNL A   1      42.751  27.803  27.744  1.00  0.00     0.049 A 
ATOM     48  H   UNL A   1      44.786  27.933  27.320  1.00  0.00     0.167 HD
ATOM     49  C   UNL A   1      49.086  28.037  26.473  1.00  0.00     0.031 A 
ATOM     50  C   UNL A   1      42.374  28.991  28.257  1.00  0.00     0.031 A 
ATOM     51  C   UNL A   1      48.764  29.356  26.946  1.00  0.00     0.049 A 
ATOM     52  C   UNL A   1      43.394  30.090  28.383  1.00  0.00     0.074 A 
ATOM     53  C   UNL A   1      49.599  30.451  27.083  1.00  0.00     0.029 A 
ATOM     54  N   UNL A   1      47.501  29.763  27.353  1.00  0.00    -0.354 N 
ATOM     55  N   UNL A   1      44.673  30.066  28.091  1.00  0.00    -0.248 NA
ATOM     56  C   UNL A   1      42.913  31.383  28.887  1.00  0.00     0.031 C 
ATOM     57  C   UNL A   1      48.849  31.510  27.610  1.00  0.00     0.029 A 
ATOM     58  C   UNL A   1      47.535  31.089  27.747  1.00  0.00     0.049 A 
ATOM     59  H   UNL A   1      46.699  29.192  27.360  1.00  0.00     0.167 HD
ATOM     60  C   UNL A   1      45.140  31.352  28.339  1.00  0.00     0.074 A 
ATOM     61  C   UNL A   1      44.005  32.128  28.797  1.00  0.00     0.031 C 
ATOM     62  C   UNL A   1      46.395  31.848  28.195  1.00  0.00     0.031 A 
BRANCH  49  63
ATOM     63  C   UNL A   1      50.515  27.729  26.109  1.00  0.00    -0.014 A 
ATOM     64  C   UNL A   1      51.015  28.005  24.823  1.00  0.00     0.010 A 
ATOM     65  C   UNL A   1      51.378  27.174  27.072  1.00  0.00     0.010 A 
ATOM     66  C   UNL A   1      52.334  27.685  24.491  1.00  0.00     0.020 A 
ATOM     67  C   UNL A   1      52.708  26.882  26.753  1.00  0.00     0.020 A 
ATOM     68  C   UNL A   1      53.171  27.120  25.457  1.00  0.00     0.054 A 
BRANCH  68  69
ATOM     69  S   UNL A   1      54.882  26.725  25.003  1.00  0.00     0.124 S 
ATOM     70  O   UNL A   1      54.728  26.260  23.627  1.00  0.00    -0.237 OA
ATOM     71  O   UNL A   1      55.561  28.008  25.161  1.00  0.00    -0.237 OA
ATOM     72  O   UNL A   1      55.268  25.697  25.967  1.00  0.00    -0.744 OA
ENDBRANCH  68  69
ENDBRANCH  49  63
BRANCH  50  73
ATOM     73  C   UNL A   1      40.957  29.213  28.652  1.00  0.00    -0.014 A 
ATOM     74  C   UNL A   1      40.599  29.279  30.011  1.00  0.00     0.010 A 
ATOM     75  C   UNL A   1      39.960  29.371  27.674  1.00  0.00     0.010 A 
ATOM     76  C   UNL A   1      39.267  29.480  30.384  1.00  0.00     0.020 A 
ATOM     77  C   UNL A   1      38.631  29.598  28.043  1.00  0.00     0.020 A 
ATOM     78  C   UNL A   1      38.291  29.638  29.397  1.00  0.00     0.054 A 
BRANCH  78  79
ATOM     79  S   UNL A   1      36.576  29.948  29.903  1.00  0.00     0.124 S 
ATOM     80  O   UNL A   1      36.456  29.111  31.093  1.00  0.00    -0.237 OA
ATOM     81  O   UNL A   1      36.570  31.389  30.138  1.00  0.00    -0.237 OA
ATOM     82  O   UNL A   1      35.795  29.510  28.748  1.00  0.00    -0.744 OA
ENDBRANCH  78  79
ENDBRANCH  50  73
BRANCH  62  83
ATOM     83  C   UNL A   1      46.593  33.312  28.483  1.00  0.00    -0.014 A 
ATOM     84  C   UNL A   1      46.432  34.287  27.484  1.00  0.00     0.010 A 
ATOM     85  C   UNL A   1      46.922  33.716  29.791  1.00  0.00     0.010 A 
ATOM     86  C   UNL A   1      46.641  35.638  27.777  1.00  0.00     0.020 A 
ATOM     87  C   UNL A   1      47.103  35.068  30.094  1.00  0.00     0.020 A 
ATOM     88  C   UNL A   1      46.982  36.018  29.079  1.00  0.00     0.054 A 
BRANCH  88  89
ATOM     89  S   UNL A   1      47.234  37.778  29.440  1.00  0.00     0.124 S 
ATOM     90  O   UNL A   1      47.335  38.350  28.101  1.00  0.00    -0.237 OA
ATOM     91  O   UNL A   1      46.027  38.130  30.185  1.00  0.00    -0.237 OA
ATOM     92  O   UNL A   1      48.468  37.797  30.223  1.00  0.00    -0.744 OA
ENDBRANCH  88  89
ENDBRANCH  62  83
ENDBRANCH  36  37
ENDBRANCH  28  31
ENDBRANCH  26  27
ENDBRANCH  25  26
ENDBRANCH  24  25
ENDBRANCH   1  24
TORSDOF 19
ENDMDL
