MODEL 1
REMARK VINA RESULT:      -9.3      0.000      0.000
REMARK SMILES CC[N@H+](CC(C)(C)C(=O)NCCCCCCNC(=O)c1ccc(-c2c3nc(c(-c4ccc(S(=O)(=O)[O-])cc4)c4ccc([nH]4)c(-c4ccc(S(=O)(=O)[O-])cc4)c4nc(c(-c5ccc(S(=O)(=O)[O-])cc5)c5ccc2[nH]5)C=C4)C=C3)cc1)[C@H]1CCC[NH2+]C1
REMARK SMILES IDX 13 1 12 2 11 3 10 4 8 5 9 6 5 8 6 9 7 10 4 11 3 12 2 14 1 15
REMARK SMILES IDX 80 16 81 17 85 18 82 19 84 20 83 21 14 24 15 25 16 26 17 27
REMARK SMILES IDX 18 28 19 30 20 31 21 32 79 33 22 34 78 35 23 36 24 37 25 38
REMARK SMILES IDX 72 39 26 40 77 41 71 42 73 43 27 44 76 45 70 46 69 47 28 49
REMARK SMILES IDX 58 50 39 51 57 52 40 53 43 54 56 55 74 56 41 57 42 58 55 60
REMARK SMILES IDX 75 61 44 62 29 63 30 64 38 65 31 66 37 67 32 68 33 69 34 70
REMARK SMILES IDX 35 71 36 72 59 73 60 74 68 75 61 76 67 77 62 78 63 79 64 80
REMARK SMILES IDX 65 81 66 82 45 83 46 84 54 85 47 86 53 87 48 88 49 89 50 90
REMARK SMILES IDX 51 91 52 92
REMARK H PARENT 10 7 3 13 84 22 84 23 17 29 73 48 43 59
REMARK Flexibility Score: inf
ROOT
ATOM      1  C   UNL A   1      34.429  22.827  23.061  1.00  0.00     0.002 C 
ENDROOT
BRANCH   1   2
ATOM      2  C   UNL A   1      33.288  23.301  22.148  1.00  0.00     0.021 C 
BRANCH   2   3
ATOM      3  C   UNL A   1      33.039  24.810  22.215  1.00  0.00     0.116 C 
BRANCH   3   4
ATOM      4  N   UNL A   1      31.617  25.058  22.233  1.00  0.00    -0.355 N 
ATOM      5  C   UNL A   1      30.795  24.972  23.306  1.00  0.00     0.231 C 
ATOM      6  O   UNL A   1      29.736  24.367  23.118  1.00  0.00    -0.274 OA
ATOM      7  H   UNL A   1      31.203  25.315  21.378  1.00  0.00     0.163 HD
BRANCH   5   8
ATOM      8  C   UNL A   1      31.184  25.574  24.668  1.00  0.00     0.092 C 
ATOM      9  C   UNL A   1      32.083  24.675  25.532  1.00  0.00     0.027 C 
ATOM     10  C   UNL A   1      29.896  25.916  25.460  1.00  0.00     0.027 C 
BRANCH   8  11
ATOM     11  C   UNL A   1      31.865  26.951  24.387  1.00  0.00     0.279 C 
BRANCH  11  12
ATOM     12  N   UNL A   1      33.237  27.356  24.785  1.00  0.00    -0.327 N 
ATOM     13  H   UNL A   1      33.761  26.503  24.980  1.00  0.00     0.348 HD
BRANCH  12  14
ATOM     14  C   UNL A   1      34.020  27.996  23.709  1.00  0.00     0.259 C 
ATOM     15  C   UNL A   1      33.192  28.526  22.540  1.00  0.00     0.071 C 
ENDBRANCH  12  14
BRANCH  12  16
ATOM     16  C   UNL A   1      33.177  28.187  26.056  1.00  0.00     0.239 C 
ATOM     17  C   UNL A   1      34.572  28.626  26.574  1.00  0.00     0.077 C 
ATOM     18  C   UNL A   1      32.207  29.432  25.992  1.00  0.00     0.326 C 
ATOM     19  C   UNL A   1      34.499  29.620  27.726  1.00  0.00     0.068 C 
ATOM     20  N   UNL A   1      32.269  30.362  27.130  1.00  0.00    -0.341 N 
ATOM     21  C   UNL A   1      33.645  30.813  27.339  1.00  0.00     0.260 C 
ATOM     22  H   UNL A   1      31.676  31.169  26.939  1.00  0.00     0.346 HD
ATOM     23  H   UNL A   1      31.945  29.883  27.970  1.00  0.00     0.346 HD
ENDBRANCH  12  16
ENDBRANCH  11  12
ENDBRANCH   8  11
ENDBRANCH   5   8
ENDBRANCH   3   4
ENDBRANCH   2   3
ENDBRANCH   1   2
BRANCH   1  24
ATOM     24  C   UNL A   1      34.970  23.902  24.009  1.00  0.00     0.002 C 
BRANCH  24  25
ATOM     25  C   UNL A   1      36.450  23.742  24.365  1.00  0.00     0.021 C 
BRANCH  25  26
ATOM     26  C   UNL A   1      36.695  23.341  25.812  1.00  0.00     0.116 C 
BRANCH  26  27
ATOM     27  N   UNL A   1      37.834  22.448  25.930  1.00  0.00    -0.352 N 
ATOM     28  C   UNL A   1      39.126  22.751  26.288  1.00  0.00     0.251 C 
ATOM     29  H   UNL A   1      37.658  21.501  25.727  1.00  0.00     0.163 HD
ATOM     30  O   UNL A   1      40.025  21.943  26.109  1.00  0.00    -0.269 OA
BRANCH  28  31
ATOM     31  C   UNL A   1      39.410  24.079  26.872  1.00  0.00     0.039 A 
ATOM     32  C   UNL A   1      38.949  24.365  28.156  1.00  0.00     0.014 A 
ATOM     33  C   UNL A   1      40.164  25.019  26.161  1.00  0.00     0.014 A 
ATOM     34  C   UNL A   1      39.302  25.574  28.758  1.00  0.00     0.010 A 
ATOM     35  C   UNL A   1      40.578  26.188  26.790  1.00  0.00     0.010 A 
ATOM     36  C   UNL A   1      40.155  26.475  28.096  1.00  0.00    -0.014 A 
BRANCH  36  37
ATOM     37  C   UNL A   1      40.644  27.703  28.771  1.00  0.00     0.031 A 
ATOM     38  C   UNL A   1      42.028  27.749  29.358  1.00  0.00     0.074 A 
ATOM     39  C   UNL A   1      39.812  28.755  28.910  1.00  0.00     0.049 A 
ATOM     40  N   UNL A   1      42.605  28.713  30.026  1.00  0.00    -0.248 NA
ATOM     41  C   UNL A   1      42.865  26.549  29.191  1.00  0.00     0.031 C 
ATOM     42  C   UNL A   1      38.432  28.813  28.418  1.00  0.00     0.029 A 
ATOM     43  N   UNL A   1      40.000  29.973  29.512  1.00  0.00    -0.354 N 
ATOM     44  C   UNL A   1      43.864  28.237  30.367  1.00  0.00     0.074 A 
ATOM     45  C   UNL A   1      43.951  26.879  29.875  1.00  0.00     0.031 C 
ATOM     46  C   UNL A   1      37.910  30.014  28.715  1.00  0.00     0.029 A 
ATOM     47  C   UNL A   1      38.895  30.791  29.459  1.00  0.00     0.049 A 
ATOM     48  H   UNL A   1      40.846  30.238  29.941  1.00  0.00     0.167 HD
ATOM     49  C   UNL A   1      44.864  28.878  31.018  1.00  0.00     0.031 A 
ATOM     50  C   UNL A   1      38.691  32.024  29.965  1.00  0.00     0.031 A 
ATOM     51  C   UNL A   1      44.772  30.229  31.505  1.00  0.00     0.049 A 
ATOM     52  C   UNL A   1      39.808  32.700  30.713  1.00  0.00     0.074 A 
ATOM     53  C   UNL A   1      45.750  30.986  32.125  1.00  0.00     0.029 A 
ATOM     54  N   UNL A   1      43.636  31.021  31.438  1.00  0.00    -0.354 N 
ATOM     55  N   UNL A   1      41.019  32.262  30.956  1.00  0.00    -0.248 NA
ATOM     56  C   UNL A   1      39.530  34.040  31.249  1.00  0.00     0.031 C 
ATOM     57  C   UNL A   1      45.186  32.213  32.493  1.00  0.00     0.029 A 
ATOM     58  C   UNL A   1      43.876  32.245  32.040  1.00  0.00     0.049 A 
ATOM     59  H   UNL A   1      42.784  30.754  31.023  1.00  0.00     0.167 HD
ATOM     60  C   UNL A   1      41.656  33.281  31.657  1.00  0.00     0.074 A 
ATOM     61  C   UNL A   1      40.702  34.365  31.776  1.00  0.00     0.031 C 
ATOM     62  C   UNL A   1      42.915  33.314  32.159  1.00  0.00     0.031 A 
BRANCH  49  63
ATOM     63  C   UNL A   1      46.148  28.122  31.253  1.00  0.00    -0.014 A 
ATOM     64  C   UNL A   1      46.366  27.414  32.449  1.00  0.00     0.010 A 
ATOM     65  C   UNL A   1      47.122  28.070  30.240  1.00  0.00     0.010 A 
ATOM     66  C   UNL A   1      47.549  26.696  32.640  1.00  0.00     0.020 A 
ATOM     67  C   UNL A   1      48.294  27.329  30.415  1.00  0.00     0.020 A 
ATOM     68  C   UNL A   1      48.506  26.657  31.621  1.00  0.00     0.054 A 
BRANCH  68  69
ATOM     69  S   UNL A   1      50.016  25.687  31.884  1.00  0.00     0.124 S 
ATOM     70  O   UNL A   1      50.319  25.227  30.531  1.00  0.00    -0.237 OA
ATOM     71  O   UNL A   1      50.940  26.677  32.432  1.00  0.00    -0.237 OA
ATOM     72  O   UNL A   1      49.600  24.643  32.818  1.00  0.00    -0.744 OA
ENDBRANCH  68  69
ENDBRANCH  49  63
BRANCH  50  73
ATOM     73  C   UNL A   1      37.373  32.692  29.788  1.00  0.00    -0.014 A 
ATOM     74  C   UNL A   1      36.273  32.336  30.589  1.00  0.00     0.010 A 
ATOM     75  C   UNL A   1      37.210  33.696  28.814  1.00  0.00     0.010 A 
ATOM     76  C   UNL A   1      35.033  32.954  30.405  1.00  0.00     0.020 A 
ATOM     77  C   UNL A   1      35.981  34.338  28.650  1.00  0.00     0.020 A 
ATOM     78  C   UNL A   1      34.895  33.953  29.438  1.00  0.00     0.054 A 
BRANCH  78  79
ATOM     79  S   UNL A   1      33.287  34.772  29.248  1.00  0.00     0.124 S 
ATOM     80  O   UNL A   1      32.856  34.921  30.634  1.00  0.00    -0.237 OA
ATOM     81  O   UNL A   1      33.645  36.008  28.557  1.00  0.00    -0.237 OA
ATOM     82  O   UNL A   1      32.513  33.823  28.449  1.00  0.00    -0.744 OA
ENDBRANCH  78  79
ENDBRANCH  50  73
BRANCH  62  83
ATOM     83  C   UNL A   1      43.346  34.569  32.870  1.00  0.00    -0.014 A 
ATOM     84  C   UNL A   1      43.886  35.658  32.160  1.00  0.00     0.010 A 
ATOM     85  C   UNL A   1      43.153  34.684  34.258  1.00  0.00     0.010 A 
ATOM     86  C   UNL A   1      44.249  36.827  32.832  1.00  0.00     0.020 A 
ATOM     87  C   UNL A   1      43.486  35.865  34.928  1.00  0.00     0.020 A 
ATOM     88  C   UNL A   1      44.043  36.925  34.211  1.00  0.00     0.054 A 
BRANCH  88  89
ATOM     89  S   UNL A   1      44.475  38.475  35.048  1.00  0.00     0.124 S 
ATOM     90  O   UNL A   1      43.585  39.431  34.395  1.00  0.00    -0.237 OA
ATOM     91  O   UNL A   1      44.165  38.180  36.445  1.00  0.00    -0.237 OA
ATOM     92  O   UNL A   1      45.896  38.644  34.753  1.00  0.00    -0.744 OA
ENDBRANCH  88  89
ENDBRANCH  62  83
ENDBRANCH  36  37
ENDBRANCH  28  31
ENDBRANCH  26  27
ENDBRANCH  25  26
ENDBRANCH  24  25
ENDBRANCH   1  24
TORSDOF 20
ENDMDL
MODEL 2
REMARK VINA RESULT:      -9.2      4.133     10.022
REMARK SMILES CC[N@H+](CC(C)(C)C(=O)NCCCCCCNC(=O)c1ccc(-c2c3nc(c(-c4ccc(S(=O)(=O)[O-])cc4)c4ccc([nH]4)c(-c4ccc(S(=O)(=O)[O-])cc4)c4nc(c(-c5ccc(S(=O)(=O)[O-])cc5)c5ccc2[nH]5)C=C4)C=C3)cc1)[C@H]1CCC[NH2+]C1
REMARK SMILES IDX 13 1 12 2 11 3 10 4 8 5 9 6 5 8 6 9 7 10 4 11 3 12 2 14 1 15
REMARK SMILES IDX 80 16 81 17 85 18 82 19 84 20 83 21 14 24 15 25 16 26 17 27
REMARK SMILES IDX 18 28 19 30 20 31 21 32 79 33 22 34 78 35 23 36 24 37 25 38
REMARK SMILES IDX 72 39 26 40 77 41 71 42 73 43 27 44 76 45 70 46 69 47 28 49
REMARK SMILES IDX 58 50 39 51 57 52 40 53 43 54 56 55 74 56 41 57 42 58 55 60
REMARK SMILES IDX 75 61 44 62 29 63 30 64 38 65 31 66 37 67 32 68 33 69 34 70
REMARK SMILES IDX 35 71 36 72 59 73 60 74 68 75 61 76 67 77 62 78 63 79 64 80
REMARK SMILES IDX 65 81 66 82 45 83 46 84 54 85 47 86 53 87 48 88 49 89 50 90
REMARK SMILES IDX 51 91 52 92
REMARK H PARENT 10 7 3 13 84 22 84 23 17 29 73 48 43 59
REMARK Flexibility Score: inf
ROOT
ATOM      1  C   UNL A   1      40.075  21.953  26.669  1.00  0.00     0.002 C 
ENDROOT
BRANCH   1   2
ATOM      2  C   UNL A   1      39.161  23.153  26.955  1.00  0.00     0.021 C 
BRANCH   2   3
ATOM      3  C   UNL A   1      38.084  23.369  25.888  1.00  0.00     0.116 C 
BRANCH   3   4
ATOM      4  N   UNL A   1      38.014  22.203  25.040  1.00  0.00    -0.355 N 
ATOM      5  C   UNL A   1      37.041  21.260  25.040  1.00  0.00     0.231 C 
ATOM      6  O   UNL A   1      37.434  20.090  25.022  1.00  0.00    -0.274 OA
ATOM      7  H   UNL A   1      38.748  22.081  24.396  1.00  0.00     0.163 HD
BRANCH   5   8
ATOM      8  C   UNL A   1      35.551  21.641  25.087  1.00  0.00     0.092 C 
ATOM      9  C   UNL A   1      35.190  22.910  24.298  1.00  0.00     0.027 C 
ATOM     10  C   UNL A   1      35.118  21.822  26.565  1.00  0.00     0.027 C 
BRANCH   8  11
ATOM     11  C   UNL A   1      34.743  20.408  24.575  1.00  0.00     0.279 C 
BRANCH  11  12
ATOM     12  N   UNL A   1      33.358  20.035  24.961  1.00  0.00    -0.327 N 
ATOM     13  H   UNL A   1      33.292  20.121  25.975  1.00  0.00     0.348 HD
BRANCH  12  14
ATOM     14  C   UNL A   1      32.319  20.965  24.475  1.00  0.00     0.259 C 
ATOM     15  C   UNL A   1      32.218  21.079  22.955  1.00  0.00     0.071 C 
ENDBRANCH  12  14
BRANCH  12  16
ATOM     16  C   UNL A   1      33.091  18.588  24.580  1.00  0.00     0.239 C 
ATOM     17  C   UNL A   1      34.325  17.873  23.970  1.00  0.00     0.077 C 
ATOM     18  C   UNL A   1      32.464  17.702  25.728  1.00  0.00     0.326 C 
ATOM     19  C   UNL A   1      34.117  16.377  23.776  1.00  0.00     0.068 C 
ATOM     20  N   UNL A   1      32.373  16.260  25.456  1.00  0.00    -0.341 N 
ATOM     21  C   UNL A   1      33.684  15.732  25.080  1.00  0.00     0.260 C 
ATOM     22  H   UNL A   1      32.045  15.780  26.294  1.00  0.00     0.346 HD
ATOM     23  H   UNL A   1      31.720  16.106  24.688  1.00  0.00     0.346 HD
ENDBRANCH  12  16
ENDBRANCH  11  12
ENDBRANCH   8  11
ENDBRANCH   5   8
ENDBRANCH   3   4
ENDBRANCH   2   3
ENDBRANCH   1   2
BRANCH   1  24
ATOM     24  C   UNL A   1      41.031  21.598  27.812  1.00  0.00     0.002 C 
BRANCH  24  25
ATOM     25  C   UNL A   1      42.503  21.903  27.522  1.00  0.00     0.021 C 
BRANCH  25  26
ATOM     26  C   UNL A   1      42.872  23.369  27.697  1.00  0.00     0.116 C 
BRANCH  26  27
ATOM     27  N   UNL A   1      42.968  24.049  26.417  1.00  0.00    -0.352 N 
ATOM     28  C   UNL A   1      42.525  25.304  26.078  1.00  0.00     0.251 C 
ATOM     29  H   UNL A   1      43.409  23.543  25.697  1.00  0.00     0.163 HD
ATOM     30  O   UNL A   1      42.459  25.644  24.906  1.00  0.00    -0.269 OA
BRANCH  28  31
ATOM     31  C   UNL A   1      42.108  26.227  27.156  1.00  0.00     0.039 A 
ATOM     32  C   UNL A   1      41.028  25.877  27.965  1.00  0.00     0.014 A 
ATOM     33  C   UNL A   1      42.813  27.413  27.385  1.00  0.00     0.014 A 
ATOM     34  C   UNL A   1      40.694  26.687  29.051  1.00  0.00     0.010 A 
ATOM     35  C   UNL A   1      42.527  28.178  28.510  1.00  0.00     0.010 A 
ATOM     36  C   UNL A   1      41.468  27.820  29.357  1.00  0.00    -0.014 A 
BRANCH  36  37
ATOM     37  C   UNL A   1      41.206  28.619  30.580  1.00  0.00     0.031 A 
ATOM     38  C   UNL A   1      40.082  29.618  30.610  1.00  0.00     0.074 A 
ATOM     39  C   UNL A   1      42.028  28.488  31.641  1.00  0.00     0.049 A 
ATOM     40  N   UNL A   1      39.739  30.438  31.569  1.00  0.00    -0.248 NA
ATOM     41  C   UNL A   1      39.249  29.723  29.401  1.00  0.00     0.031 C 
ATOM     42  C   UNL A   1      43.177  27.582  31.715  1.00  0.00     0.029 A 
ATOM     43  N   UNL A   1      42.029  29.123  32.858  1.00  0.00    -0.354 N 
ATOM     44  C   UNL A   1      38.659  31.163  31.078  1.00  0.00     0.074 A 
ATOM     45  C   UNL A   1      38.435  30.720  29.719  1.00  0.00     0.031 C 
ATOM     46  C   UNL A   1      43.753  27.700  32.922  1.00  0.00     0.029 A 
ATOM     47  C   UNL A   1      43.049  28.723  33.689  1.00  0.00     0.049 A 
ATOM     48  H   UNL A   1      41.361  29.800  33.113  1.00  0.00     0.167 HD
ATOM     49  C   UNL A   1      37.912  32.101  31.708  1.00  0.00     0.031 A 
ATOM     50  C   UNL A   1      43.391  29.140  34.924  1.00  0.00     0.031 A 
ATOM     51  C   UNL A   1      38.141  32.536  33.060  1.00  0.00     0.049 A 
ATOM     52  C   UNL A   1      42.564  30.208  35.588  1.00  0.00     0.074 A 
ATOM     53  C   UNL A   1      37.404  33.439  33.807  1.00  0.00     0.029 A 
ATOM     54  N   UNL A   1      39.187  32.113  33.865  1.00  0.00    -0.354 N 
ATOM     55  N   UNL A   1      41.499  30.824  35.135  1.00  0.00    -0.248 NA
ATOM     56  C   UNL A   1      42.984  30.631  36.931  1.00  0.00     0.031 C 
ATOM     57  C   UNL A   1      38.043  33.611  35.040  1.00  0.00     0.029 A 
ATOM     58  C   UNL A   1      39.138  32.763  35.087  1.00  0.00     0.049 A 
ATOM     59  H   UNL A   1      39.864  31.447  33.608  1.00  0.00     0.167 HD
ATOM     60  C   UNL A   1      41.108  31.695  36.147  1.00  0.00     0.074 A 
ATOM     61  C   UNL A   1      42.038  31.506  37.242  1.00  0.00     0.031 C 
ATOM     62  C   UNL A   1      40.075  32.572  36.166  1.00  0.00     0.031 A 
BRANCH  49  63
ATOM     63  C   UNL A   1      36.780  32.731  30.937  1.00  0.00    -0.014 A 
ATOM     64  C   UNL A   1      35.459  32.266  31.074  1.00  0.00     0.010 A 
ATOM     65  C   UNL A   1      37.031  33.842  30.112  1.00  0.00     0.010 A 
ATOM     66  C   UNL A   1      34.417  32.879  30.375  1.00  0.00     0.020 A 
ATOM     67  C   UNL A   1      35.987  34.477  29.433  1.00  0.00     0.020 A 
ATOM     68  C   UNL A   1      34.687  33.981  29.558  1.00  0.00     0.054 A 
BRANCH  68  69
ATOM     69  S   UNL A   1      33.308  34.778  28.691  1.00  0.00     0.124 S 
ATOM     70  O   UNL A   1      32.422  35.134  29.796  1.00  0.00    -0.237 OA
ATOM     71  O   UNL A   1      33.959  35.901  28.021  1.00  0.00    -0.237 OA
ATOM     72  O   UNL A   1      32.805  33.732  27.803  1.00  0.00    -0.744 OA
ENDBRANCH  68  69
ENDBRANCH  49  63
BRANCH  50  73
ATOM     73  C   UNL A   1      44.576  28.553  35.607  1.00  0.00    -0.014 A 
ATOM     74  C   UNL A   1      45.866  29.057  35.365  1.00  0.00     0.010 A 
ATOM     75  C   UNL A   1      44.418  27.484  36.509  1.00  0.00     0.010 A 
ATOM     76  C   UNL A   1      46.977  28.489  35.996  1.00  0.00     0.020 A 
ATOM     77  C   UNL A   1      45.523  26.936  37.165  1.00  0.00     0.020 A 
ATOM     78  C   UNL A   1      46.798  27.434  36.894  1.00  0.00     0.054 A 
BRANCH  78  79
ATOM     79  S   UNL A   1      48.251  26.741  37.733  1.00  0.00     0.124 S 
ATOM     80  O   UNL A   1      47.974  27.059  39.130  1.00  0.00    -0.237 OA
ATOM     81  O   UNL A   1      48.174  25.326  37.376  1.00  0.00    -0.237 OA
ATOM     82  O   UNL A   1      49.370  27.467  37.135  1.00  0.00    -0.744 OA
ENDBRANCH  78  79
ENDBRANCH  50  73
BRANCH  62  83
ATOM     83  C   UNL A   1      39.880  33.388  37.417  1.00  0.00    -0.014 A 
ATOM     84  C   UNL A   1      39.095  32.909  38.482  1.00  0.00     0.010 A 
ATOM     85  C   UNL A   1      40.539  34.623  37.553  1.00  0.00     0.010 A 
ATOM     86  C   UNL A   1      38.953  33.663  39.649  1.00  0.00     0.020 A 
ATOM     87  C   UNL A   1      40.425  35.365  38.731  1.00  0.00     0.020 A 
ATOM     88  C   UNL A   1      39.621  34.885  39.767  1.00  0.00     0.054 A 
BRANCH  88  89
ATOM     89  S   UNL A   1      39.460  35.818  41.314  1.00  0.00     0.124 S 
ATOM     90  O   UNL A   1      40.846  35.896  41.769  1.00  0.00    -0.237 OA
ATOM     91  O   UNL A   1      38.874  37.079  40.866  1.00  0.00    -0.237 OA
ATOM     92  O   UNL A   1      38.582  34.985  42.132  1.00  0.00    -0.744 OA
ENDBRANCH  88  89
ENDBRANCH  62  83
ENDBRANCH  36  37
ENDBRANCH  28  31
ENDBRANCH  26  27
ENDBRANCH  25  26
ENDBRANCH  24  25
ENDBRANCH   1  24
TORSDOF 20
ENDMDL
MODEL 3
REMARK VINA RESULT:      -8.9      3.786      9.602
REMARK SMILES CC[N@H+](CC(C)(C)C(=O)NCCCCCCNC(=O)c1ccc(-c2c3nc(c(-c4ccc(S(=O)(=O)[O-])cc4)c4ccc([nH]4)c(-c4ccc(S(=O)(=O)[O-])cc4)c4nc(c(-c5ccc(S(=O)(=O)[O-])cc5)c5ccc2[nH]5)C=C4)C=C3)cc1)[C@H]1CCC[NH2+]C1
REMARK SMILES IDX 13 1 12 2 11 3 10 4 8 5 9 6 5 8 6 9 7 10 4 11 3 12 2 14 1 15
REMARK SMILES IDX 80 16 81 17 85 18 82 19 84 20 83 21 14 24 15 25 16 26 17 27
REMARK SMILES IDX 18 28 19 30 20 31 21 32 79 33 22 34 78 35 23 36 24 37 25 38
REMARK SMILES IDX 72 39 26 40 77 41 71 42 73 43 27 44 76 45 70 46 69 47 28 49
REMARK SMILES IDX 58 50 39 51 57 52 40 53 43 54 56 55 74 56 41 57 42 58 55 60
REMARK SMILES IDX 75 61 44 62 29 63 30 64 38 65 31 66 37 67 32 68 33 69 34 70
REMARK SMILES IDX 35 71 36 72 59 73 60 74 68 75 61 76 67 77 62 78 63 79 64 80
REMARK SMILES IDX 65 81 66 82 45 83 46 84 54 85 47 86 53 87 48 88 49 89 50 90
REMARK SMILES IDX 51 91 52 92
REMARK H PARENT 10 7 3 13 84 22 84 23 17 29 73 48 43 59
REMARK Flexibility Score: inf
ROOT
ATOM      1  C   UNL A   1      40.006  22.085  26.853  1.00  0.00     0.002 C 
ENDROOT
BRANCH   1   2
ATOM      2  C   UNL A   1      39.085  23.312  26.920  1.00  0.00     0.021 C 
BRANCH   2   3
ATOM      3  C   UNL A   1      38.208  23.486  25.676  1.00  0.00     0.116 C 
BRANCH   3   4
ATOM      4  N   UNL A   1      37.540  22.240  25.386  1.00  0.00    -0.355 N 
ATOM      5  C   UNL A   1      36.203  22.019  25.392  1.00  0.00     0.231 C 
ATOM      6  O   UNL A   1      35.836  20.995  25.976  1.00  0.00    -0.274 OA
ATOM      7  H   UNL A   1      38.114  21.472  25.161  1.00  0.00     0.163 HD
BRANCH   5   8
ATOM      8  C   UNL A   1      35.221  23.003  24.733  1.00  0.00     0.092 C 
ATOM      9  C   UNL A   1      35.474  23.253  23.238  1.00  0.00     0.027 C 
ATOM     10  C   UNL A   1      35.271  24.355  25.491  1.00  0.00     0.027 C 
BRANCH   8  11
ATOM     11  C   UNL A   1      33.781  22.453  24.979  1.00  0.00     0.279 C 
BRANCH  11  12
ATOM     12  N   UNL A   1      32.709  22.297  23.962  1.00  0.00    -0.327 N 
ATOM     13  H   UNL A   1      33.049  22.714  23.096  1.00  0.00     0.348 HD
BRANCH  12  14
ATOM     14  C   UNL A   1      32.433  20.898  23.579  1.00  0.00     0.259 C 
ATOM     15  C   UNL A   1      32.411  19.905  24.740  1.00  0.00     0.071 C 
ENDBRANCH  12  14
BRANCH  12  16
ATOM     16  C   UNL A   1      31.467  23.051  24.408  1.00  0.00     0.239 C 
ATOM     17  C   UNL A   1      31.610  23.702  25.809  1.00  0.00     0.077 C 
ATOM     18  C   UNL A   1      30.926  24.112  23.371  1.00  0.00     0.326 C 
ATOM     19  C   UNL A   1      30.448  24.620  26.166  1.00  0.00     0.068 C 
ATOM     20  N   UNL A   1      29.847  24.991  23.846  1.00  0.00    -0.341 N 
ATOM     21  C   UNL A   1      30.250  25.663  25.081  1.00  0.00     0.260 C 
ATOM     22  H   UNL A   1      29.643  25.691  23.133  1.00  0.00     0.346 HD
ATOM     23  H   UNL A   1      29.015  24.429  24.030  1.00  0.00     0.346 HD
ENDBRANCH  12  16
ENDBRANCH  11  12
ENDBRANCH   8  11
ENDBRANCH   5   8
ENDBRANCH   3   4
ENDBRANCH   2   3
ENDBRANCH   1   2
BRANCH   1  24
ATOM     24  C   UNL A   1      41.005  21.978  28.009  1.00  0.00     0.002 C 
BRANCH  24  25
ATOM     25  C   UNL A   1      42.413  22.476  27.676  1.00  0.00     0.021 C 
BRANCH  25  26
ATOM     26  C   UNL A   1      42.571  23.986  27.780  1.00  0.00     0.116 C 
BRANCH  26  27
ATOM     27  N   UNL A   1      42.431  24.625  26.483  1.00  0.00    -0.352 N 
ATOM     28  C   UNL A   1      41.806  25.808  26.174  1.00  0.00     0.251 C 
ATOM     29  H   UNL A   1      42.839  24.147  25.725  1.00  0.00     0.163 HD
ATOM     30  O   UNL A   1      41.559  26.095  25.012  1.00  0.00    -0.269 OA
BRANCH  28  31
ATOM     31  C   UNL A   1      41.416  26.716  27.274  1.00  0.00     0.039 A 
ATOM     32  C   UNL A   1      40.428  26.307  28.169  1.00  0.00     0.014 A 
ATOM     33  C   UNL A   1      42.057  27.949  27.437  1.00  0.00     0.014 A 
ATOM     34  C   UNL A   1      40.129  27.108  29.272  1.00  0.00     0.010 A 
ATOM     35  C   UNL A   1      41.811  28.708  28.575  1.00  0.00     0.010 A 
ATOM     36  C   UNL A   1      40.848  28.292  29.506  1.00  0.00    -0.014 A 
BRANCH  36  37
ATOM     37  C   UNL A   1      40.632  29.089  30.740  1.00  0.00     0.031 A 
ATOM     38  C   UNL A   1      39.548  30.130  30.794  1.00  0.00     0.074 A 
ATOM     39  C   UNL A   1      41.461  28.916  31.790  1.00  0.00     0.049 A 
ATOM     40  N   UNL A   1      39.248  30.954  31.764  1.00  0.00    -0.248 NA
ATOM     41  C   UNL A   1      38.706  30.280  29.596  1.00  0.00     0.031 C 
ATOM     42  C   UNL A   1      42.575  27.965  31.842  1.00  0.00     0.029 A 
ATOM     43  N   UNL A   1      41.501  29.538  33.013  1.00  0.00    -0.354 N 
ATOM     44  C   UNL A   1      38.192  31.724  31.294  1.00  0.00     0.074 A 
ATOM     45  C   UNL A   1      37.935  31.304  29.933  1.00  0.00     0.031 C 
ATOM     46  C   UNL A   1      43.169  28.049  33.043  1.00  0.00     0.029 A 
ATOM     47  C   UNL A   1      42.514  29.090  33.827  1.00  0.00     0.049 A 
ATOM     48  H   UNL A   1      40.862  30.238  33.282  1.00  0.00     0.167 HD
ATOM     49  C   UNL A   1      37.490  32.684  31.942  1.00  0.00     0.031 A 
ATOM     50  C   UNL A   1      42.887  29.481  35.062  1.00  0.00     0.031 A 
ATOM     51  C   UNL A   1      37.751  33.097  33.295  1.00  0.00     0.049 A 
ATOM     52  C   UNL A   1      42.110  30.574  35.746  1.00  0.00     0.074 A 
ATOM     53  C   UNL A   1      37.059  34.020  34.059  1.00  0.00     0.029 A 
ATOM     54  N   UNL A   1      38.789  32.625  34.084  1.00  0.00    -0.354 N 
ATOM     55  N   UNL A   1      41.064  31.235  35.313  1.00  0.00    -0.248 NA
ATOM     56  C   UNL A   1      42.561  30.967  37.088  1.00  0.00     0.031 C 
ATOM     57  C   UNL A   1      37.718  34.155  35.286  1.00  0.00     0.029 A 
ATOM     58  C   UNL A   1      38.780  33.265  35.311  1.00  0.00     0.049 A 
ATOM     59  H   UNL A   1      39.437  31.936  33.811  1.00  0.00     0.167 HD
ATOM     60  C   UNL A   1      40.719  32.110  36.338  1.00  0.00     0.074 A 
ATOM     61  C   UNL A   1      41.654  31.875  37.420  1.00  0.00     0.031 C 
ATOM     62  C   UNL A   1      39.722  33.027  36.378  1.00  0.00     0.031 A 
BRANCH  49  63
ATOM     63  C   UNL A   1      36.373  33.365  31.191  1.00  0.00    -0.014 A 
ATOM     64  C   UNL A   1      35.129  33.609  31.801  1.00  0.00     0.010 A 
ATOM     65  C   UNL A   1      36.593  33.822  29.879  1.00  0.00     0.010 A 
ATOM     66  C   UNL A   1      34.115  34.266  31.101  1.00  0.00     0.020 A 
ATOM     67  C   UNL A   1      35.590  34.506  29.185  1.00  0.00     0.020 A 
ATOM     68  C   UNL A   1      34.351  34.712  29.797  1.00  0.00     0.054 A 
BRANCH  68  69
ATOM     69  S   UNL A   1      33.027  35.593  28.927  1.00  0.00     0.124 S 
ATOM     70  O   UNL A   1      32.217  36.090  30.037  1.00  0.00    -0.237 OA
ATOM     71  O   UNL A   1      33.759  36.612  28.179  1.00  0.00    -0.237 OA
ATOM     72  O   UNL A   1      32.396  34.557  28.112  1.00  0.00    -0.744 OA
ENDBRANCH  68  69
ENDBRANCH  49  63
BRANCH  50  73
ATOM     73  C   UNL A   1      44.056  28.842  35.725  1.00  0.00    -0.014 A 
ATOM     74  C   UNL A   1      45.352  29.359  35.549  1.00  0.00     0.010 A 
ATOM     75  C   UNL A   1      43.878  27.710  36.542  1.00  0.00     0.010 A 
ATOM     76  C   UNL A   1      46.449  28.743  36.159  1.00  0.00     0.020 A 
ATOM     77  C   UNL A   1      44.967  27.112  37.180  1.00  0.00     0.020 A 
ATOM     78  C   UNL A   1      46.249  27.625  36.973  1.00  0.00     0.054 A 
BRANCH  78  79
ATOM     79  S   UNL A   1      47.682  26.868  37.790  1.00  0.00     0.124 S 
ATOM     80  O   UNL A   1      48.294  26.119  36.697  1.00  0.00    -0.237 OA
ATOM     81  O   UNL A   1      48.429  28.034  38.256  1.00  0.00    -0.237 OA
ATOM     82  O   UNL A   1      47.083  26.057  38.848  1.00  0.00    -0.744 OA
ENDBRANCH  78  79
ENDBRANCH  50  73
BRANCH  62  83
ATOM     83  C   UNL A   1      39.573  33.836  37.639  1.00  0.00    -0.014 A 
ATOM     84  C   UNL A   1      38.819  33.357  38.726  1.00  0.00     0.010 A 
ATOM     85  C   UNL A   1      40.245  35.066  37.760  1.00  0.00     0.010 A 
ATOM     86  C   UNL A   1      38.720  34.107  39.900  1.00  0.00     0.020 A 
ATOM     87  C   UNL A   1      40.175  35.803  38.945  1.00  0.00     0.020 A 
ATOM     88  C   UNL A   1      39.401  35.323  40.004  1.00  0.00     0.054 A 
BRANCH  88  89
ATOM     89  S   UNL A   1      39.298  36.248  41.560  1.00  0.00     0.124 S 
ATOM     90  O   UNL A   1      40.553  35.888  42.213  1.00  0.00    -0.237 OA
ATOM     91  O   UNL A   1      39.201  37.632  41.102  1.00  0.00    -0.237 OA
ATOM     92  O   UNL A   1      38.091  35.723  42.197  1.00  0.00    -0.744 OA
ENDBRANCH  88  89
ENDBRANCH  62  83
ENDBRANCH  36  37
ENDBRANCH  28  31
ENDBRANCH  26  27
ENDBRANCH  25  26
ENDBRANCH  24  25
ENDBRANCH   1  24
TORSDOF 20
ENDMDL
