MODEL 1
REMARK VINA RESULT:     -10.2      0.000      0.000
REMARK SMILES CNC(=O)[C@H](C)Nc1ccc(C(F)(F)F)cc1C(=O)NCCCCCCNC(=O)c1ccc(-c2c3nc(c(-c4ccc(S(=O)(=O)[O-])cc4)c4ccc([nH]4)c(-c4ccc(S(=O)(=O)[O-])cc4)c4nc(c(-c5ccc(S(=O)(=O)[O-])cc5)c5ccc2[nH]5)C=C4)C=C3)cc1
REMARK SMILES IDX 23 1 22 2 21 3 20 4 18 5 19 6 17 8 8 9 9 10 10 11 16 12
REMARK SMILES IDX 11 13 7 14 5 16 6 17 3 18 1 19 2 20 4 22 12 23 13 24 14 25
REMARK SMILES IDX 15 26 24 27 25 28 26 29 27 30 28 31 29 33 30 34 31 35 89 36
REMARK SMILES IDX 32 37 88 38 33 39 34 40 35 41 82 42 36 43 87 44 81 45 83 46
REMARK SMILES IDX 37 47 86 48 80 49 79 50 38 52 68 53 49 54 67 55 50 56 53 57
REMARK SMILES IDX 66 58 84 59 51 60 52 61 65 63 85 64 54 65 39 66 40 67 48 68
REMARK SMILES IDX 41 69 47 70 42 71 43 72 44 73 45 74 46 75 69 76 70 77 78 78
REMARK SMILES IDX 71 79 77 80 72 81 73 82 74 83 75 84 76 85 55 86 56 87 64 88
REMARK SMILES IDX 57 89 63 90 58 91 59 92 60 93 61 94 62 95
REMARK H PARENT 20 7 7 15 2 21 27 32 83 51 53 62
REMARK Flexibility Score: inf
ROOT
ATOM      1  C   UNL A   1      34.515  31.396  28.484  1.00  0.00     0.002 C 
ENDROOT
BRANCH   1   2
ATOM      2  C   UNL A   1      35.418  30.370  27.780  1.00  0.00     0.021 C 
BRANCH   2   3
ATOM      3  C   UNL A   1      34.701  29.239  27.041  1.00  0.00     0.116 C 
BRANCH   3   4
ATOM      4  N   UNL A   1      33.517  28.748  27.731  1.00  0.00    -0.352 N 
ATOM      5  C   UNL A   1      32.353  28.186  27.251  1.00  0.00     0.253 C 
ATOM      6  O   UNL A   1      31.405  28.069  28.033  1.00  0.00    -0.269 OA
ATOM      7  H   UNL A   1      33.553  28.833  28.711  1.00  0.00     0.163 HD
BRANCH   5   8
ATOM      8  C   UNL A   1      32.161  27.740  25.846  1.00  0.00     0.063 A 
ATOM      9  C   UNL A   1      32.725  26.582  25.294  1.00  0.00     0.048 A 
ATOM     10  C   UNL A   1      32.662  26.446  23.891  1.00  0.00     0.027 A 
ATOM     11  C   UNL A   1      31.918  27.332  23.090  1.00  0.00     0.015 A 
ATOM     12  C   UNL A   1      31.323  28.563  25.055  1.00  0.00     0.029 A 
ATOM     13  C   UNL A   1      31.167  28.352  23.678  1.00  0.00     0.056 A 
BRANCH   9  14
ATOM     14  N   UNL A   1      33.338  25.593  26.071  1.00  0.00    -0.373 N 
ATOM     15  H   UNL A   1      33.844  25.865  26.871  1.00  0.00     0.161 HD
BRANCH  14  16
ATOM     16  C   UNL A   1      33.253  24.151  25.735  1.00  0.00     0.165 C 
ATOM     17  C   UNL A   1      34.545  23.543  26.347  1.00  0.00     0.041 C 
BRANCH  16  18
ATOM     18  C   UNL A   1      32.089  23.315  26.388  1.00  0.00     0.241 C 
ATOM     19  C   UNL A   1      32.033  20.978  25.248  1.00  0.00     0.142 C 
ATOM     20  N   UNL A   1      31.710  22.038  26.163  1.00  0.00    -0.357 N 
ATOM     21  H   UNL A   1      31.021  21.754  26.807  1.00  0.00     0.163 HD
ATOM     22  O   UNL A   1      31.423  23.811  27.315  1.00  0.00    -0.273 OA
ENDBRANCH  16  18
ENDBRANCH  14  16
ENDBRANCH   9  14
BRANCH  13  23
ATOM     23  C   UNL A   1      30.233  29.227  22.873  1.00  0.00     0.416 C 
ATOM     24  F   UNL A   1      29.692  30.238  23.606  1.00  0.00    -0.166 F 
ATOM     25  F   UNL A   1      30.832  29.821  21.802  1.00  0.00    -0.166 F 
ATOM     26  F   UNL A   1      29.176  28.534  22.360  1.00  0.00    -0.166 F 
ENDBRANCH  13  23
ENDBRANCH   5   8
ENDBRANCH   3   4
ENDBRANCH   2   3
ENDBRANCH   1   2
BRANCH   1  27
ATOM     27  C   UNL A   1      34.708  32.875  28.136  1.00  0.00     0.002 C 
BRANCH  27  28
ATOM     28  C   UNL A   1      33.492  33.795  28.148  1.00  0.00     0.021 C 
BRANCH  28  29
ATOM     29  C   UNL A   1      33.653  35.118  28.879  1.00  0.00     0.116 C 
BRANCH  29  30
ATOM     30  N   UNL A   1      32.829  35.256  30.066  1.00  0.00    -0.352 N 
ATOM     31  C   UNL A   1      33.103  34.861  31.366  1.00  0.00     0.251 C 
ATOM     32  H   UNL A   1      31.955  35.687  29.928  1.00  0.00     0.163 HD
ATOM     33  O   UNL A   1      32.276  35.002  32.236  1.00  0.00    -0.269 OA
BRANCH  31  34
ATOM     34  C   UNL A   1      34.413  34.220  31.671  1.00  0.00     0.039 A 
ATOM     35  C   UNL A   1      35.559  35.021  31.713  1.00  0.00     0.014 A 
ATOM     36  C   UNL A   1      34.511  32.853  31.940  1.00  0.00     0.014 A 
ATOM     37  C   UNL A   1      36.783  34.463  32.102  1.00  0.00     0.010 A 
ATOM     38  C   UNL A   1      35.707  32.321  32.410  1.00  0.00     0.010 A 
ATOM     39  C   UNL A   1      36.859  33.117  32.492  1.00  0.00    -0.014 A 
BRANCH  39  40
ATOM     40  C   UNL A   1      38.129  32.510  32.968  1.00  0.00     0.031 A 
ATOM     41  C   UNL A   1      38.593  32.755  34.380  1.00  0.00     0.074 A 
ATOM     42  C   UNL A   1      38.906  31.812  32.115  1.00  0.00     0.049 A 
ATOM     43  N   UNL A   1      39.710  32.395  34.958  1.00  0.00    -0.248 NA
ATOM     44  C   UNL A   1      37.696  33.540  35.245  1.00  0.00     0.031 C 
ATOM     45  C   UNL A   1      38.599  31.549  30.707  1.00  0.00     0.029 A 
ATOM     46  N   UNL A   1      40.120  31.202  32.308  1.00  0.00    -0.354 N 
ATOM     47  C   UNL A   1      39.664  32.934  36.239  1.00  0.00     0.074 A 
ATOM     48  C   UNL A   1      38.433  33.686  36.337  1.00  0.00     0.031 C 
ATOM     49  C   UNL A   1      39.585  30.808  30.173  1.00  0.00     0.029 A 
ATOM     50  C   UNL A   1      40.607  30.571  31.187  1.00  0.00     0.049 A 
ATOM     51  H   UNL A   1      40.599  31.215  33.169  1.00  0.00     0.167 HD
ATOM     52  C   UNL A   1      40.554  32.799  37.251  1.00  0.00     0.031 A 
ATOM     53  C   UNL A   1      41.747  29.879  30.996  1.00  0.00     0.031 A 
ATOM     54  C   UNL A   1      41.760  32.023  37.164  1.00  0.00     0.049 A 
ATOM     55  C   UNL A   1      42.700  29.706  32.146  1.00  0.00     0.074 A 
ATOM     56  C   UNL A   1      42.695  31.769  38.152  1.00  0.00     0.029 A 
ATOM     57  N   UNL A   1      42.194  31.365  36.023  1.00  0.00    -0.354 N 
ATOM     58  N   UNL A   1      42.612  30.178  33.367  1.00  0.00    -0.248 NA
ATOM     59  C   UNL A   1      43.901  28.897  31.896  1.00  0.00     0.031 C 
ATOM     60  C   UNL A   1      43.712  30.982  37.597  1.00  0.00     0.029 A 
ATOM     61  C   UNL A   1      43.388  30.713  36.278  1.00  0.00     0.049 A 
ATOM     62  H   UNL A   1      41.722  31.362  35.159  1.00  0.00     0.167 HD
ATOM     63  C   UNL A   1      43.733  29.705  34.037  1.00  0.00     0.074 A 
ATOM     64  C   UNL A   1      44.478  28.899  33.090  1.00  0.00     0.031 C 
ATOM     65  C   UNL A   1      44.114  29.917  35.321  1.00  0.00     0.031 A 
BRANCH  52  66
ATOM     66  C   UNL A   1      40.242  33.513  38.540  1.00  0.00    -0.014 A 
ATOM     67  C   UNL A   1      39.361  32.953  39.484  1.00  0.00     0.010 A 
ATOM     68  C   UNL A   1      40.841  34.754  38.816  1.00  0.00     0.010 A 
ATOM     69  C   UNL A   1      39.039  33.648  40.652  1.00  0.00     0.020 A 
ATOM     70  C   UNL A   1      40.544  35.441  39.998  1.00  0.00     0.020 A 
ATOM     71  C   UNL A   1      39.626  34.894  40.897  1.00  0.00     0.054 A 
BRANCH  71  72
ATOM     72  S   UNL A   1      39.190  35.778  42.419  1.00  0.00     0.124 S 
ATOM     73  O   UNL A   1      40.152  35.227  43.371  1.00  0.00    -0.237 OA
ATOM     74  O   UNL A   1      39.400  37.176  42.054  1.00  0.00    -0.237 OA
ATOM     75  O   UNL A   1      37.798  35.401  42.651  1.00  0.00    -0.744 OA
ENDBRANCH  71  72
ENDBRANCH  52  66
BRANCH  53  76
ATOM     76  C   UNL A   1      42.029  29.265  29.671  1.00  0.00    -0.014 A 
ATOM     77  C   UNL A   1      41.575  27.965  29.382  1.00  0.00     0.010 A 
ATOM     78  C   UNL A   1      42.727  29.982  28.683  1.00  0.00     0.010 A 
ATOM     79  C   UNL A   1      41.823  27.390  28.133  1.00  0.00     0.020 A 
ATOM     80  C   UNL A   1      42.958  29.417  27.424  1.00  0.00     0.020 A 
ATOM     81  C   UNL A   1      42.512  28.120  27.160  1.00  0.00     0.054 A 
BRANCH  81  82
ATOM     82  S   UNL A   1      42.765  27.380  25.522  1.00  0.00     0.124 S 
ATOM     83  O   UNL A   1      42.165  28.377  24.643  1.00  0.00    -0.237 OA
ATOM     84  O   UNL A   1      44.219  27.263  25.448  1.00  0.00    -0.237 OA
ATOM     85  O   UNL A   1      42.050  26.109  25.610  1.00  0.00    -0.744 OA
ENDBRANCH  81  82
ENDBRANCH  53  76
BRANCH  65  86
ATOM     86  C   UNL A   1      45.378  29.249  35.784  1.00  0.00    -0.014 A 
ATOM     87  C   UNL A   1      45.355  27.952  36.327  1.00  0.00     0.010 A 
ATOM     88  C   UNL A   1      46.610  29.908  35.626  1.00  0.00     0.010 A 
ATOM     89  C   UNL A   1      46.543  27.338  36.733  1.00  0.00     0.020 A 
ATOM     90  C   UNL A   1      47.802  29.288  36.010  1.00  0.00     0.020 A 
ATOM     91  C   UNL A   1      47.758  28.011  36.574  1.00  0.00     0.054 A 
BRANCH  91  92
ATOM     92  S   UNL A   1      49.291  27.178  37.068  1.00  0.00     0.124 S 
ATOM     93  O   UNL A   1      49.855  28.125  38.027  1.00  0.00    -0.237 OA
ATOM     94  O   UNL A   1      48.808  25.922  37.636  1.00  0.00    -0.237 OA
ATOM     95  O   UNL A   1      50.031  27.044  35.814  1.00  0.00    -0.744 OA
ENDBRANCH  91  92
ENDBRANCH  65  86
ENDBRANCH  39  40
ENDBRANCH  31  34
ENDBRANCH  29  30
ENDBRANCH  28  29
ENDBRANCH  27  28
ENDBRANCH   1  27
TORSDOF 20
ENDMDL
MODEL 2
REMARK VINA RESULT:     -10.0      2.744      8.921
REMARK SMILES CNC(=O)[C@H](C)Nc1ccc(C(F)(F)F)cc1C(=O)NCCCCCCNC(=O)c1ccc(-c2c3nc(c(-c4ccc(S(=O)(=O)[O-])cc4)c4ccc([nH]4)c(-c4ccc(S(=O)(=O)[O-])cc4)c4nc(c(-c5ccc(S(=O)(=O)[O-])cc5)c5ccc2[nH]5)C=C4)C=C3)cc1
REMARK SMILES IDX 23 1 22 2 21 3 20 4 18 5 19 6 17 8 8 9 9 10 10 11 16 12
REMARK SMILES IDX 11 13 7 14 5 16 6 17 3 18 1 19 2 20 4 22 12 23 13 24 14 25
REMARK SMILES IDX 15 26 24 27 25 28 26 29 27 30 28 31 29 33 30 34 31 35 89 36
REMARK SMILES IDX 32 37 88 38 33 39 34 40 35 41 82 42 36 43 87 44 81 45 83 46
REMARK SMILES IDX 37 47 86 48 80 49 79 50 38 52 68 53 49 54 67 55 50 56 53 57
REMARK SMILES IDX 66 58 84 59 51 60 52 61 65 63 85 64 54 65 39 66 40 67 48 68
REMARK SMILES IDX 41 69 47 70 42 71 43 72 44 73 45 74 46 75 69 76 70 77 78 78
REMARK SMILES IDX 71 79 77 80 72 81 73 82 74 83 75 84 76 85 55 86 56 87 64 88
REMARK SMILES IDX 57 89 63 90 58 91 59 92 60 93 61 94 62 95
REMARK H PARENT 20 7 7 15 2 21 27 32 83 51 53 62
REMARK Flexibility Score: inf
ROOT
ATOM      1  C   UNL A   1      35.835  23.125  26.208  1.00  0.00     0.002 C 
ENDROOT
BRANCH   1   2
ATOM      2  C   UNL A   1      34.665  23.440  25.262  1.00  0.00     0.021 C 
BRANCH   2   3
ATOM      3  C   UNL A   1      34.085  24.852  25.358  1.00  0.00     0.116 C 
BRANCH   3   4
ATOM      4  N   UNL A   1      34.149  25.597  24.109  1.00  0.00    -0.352 N 
ATOM      5  C   UNL A   1      33.695  26.856  23.778  1.00  0.00     0.253 C 
ATOM      6  O   UNL A   1      33.669  27.161  22.582  1.00  0.00    -0.269 OA
ATOM      7  H   UNL A   1      34.594  25.118  23.372  1.00  0.00     0.163 HD
BRANCH   5   8
ATOM      8  C   UNL A   1      33.210  27.853  24.766  1.00  0.00     0.063 A 
ATOM      9  C   UNL A   1      31.878  28.272  24.888  1.00  0.00     0.048 A 
ATOM     10  C   UNL A   1      31.634  29.408  25.687  1.00  0.00     0.027 A 
ATOM     11  C   UNL A   1      32.643  29.995  26.473  1.00  0.00     0.015 A 
ATOM     12  C   UNL A   1      34.195  28.373  25.641  1.00  0.00     0.029 A 
ATOM     13  C   UNL A   1      33.918  29.426  26.524  1.00  0.00     0.056 A 
BRANCH   9  14
ATOM     14  N   UNL A   1      30.818  27.619  24.248  1.00  0.00    -0.373 N 
ATOM     15  H   UNL A   1      30.728  27.707  23.271  1.00  0.00     0.161 HD
BRANCH  14  16
ATOM     16  C   UNL A   1      29.826  26.801  24.987  1.00  0.00     0.165 C 
ATOM     17  C   UNL A   1      28.670  26.597  23.969  1.00  0.00     0.041 C 
BRANCH  16  18
ATOM     18  C   UNL A   1      30.243  25.338  25.393  1.00  0.00     0.241 C 
ATOM     19  C   UNL A   1      30.896  24.052  23.229  1.00  0.00     0.142 C 
ATOM     20  N   UNL A   1      30.706  24.326  24.627  1.00  0.00    -0.357 N 
ATOM     21  H   UNL A   1      30.992  23.564  25.180  1.00  0.00     0.163 HD
ATOM     22  O   UNL A   1      30.251  25.013  26.595  1.00  0.00    -0.273 OA
ENDBRANCH  16  18
ENDBRANCH  14  16
ENDBRANCH   9  14
BRANCH  13  23
ATOM     23  C   UNL A   1      34.984  29.929  27.471  1.00  0.00     0.416 C 
ATOM     24  F   UNL A   1      34.856  31.252  27.758  1.00  0.00    -0.166 F 
ATOM     25  F   UNL A   1      34.992  29.284  28.672  1.00  0.00    -0.166 F 
ATOM     26  F   UNL A   1      36.245  29.778  26.971  1.00  0.00    -0.166 F 
ENDBRANCH  13  23
ENDBRANCH   5   8
ENDBRANCH   3   4
ENDBRANCH   2   3
ENDBRANCH   1   2
BRANCH   1  27
ATOM     27  C   UNL A   1      37.254  23.412  25.709  1.00  0.00     0.002 C 
BRANCH  27  28
ATOM     28  C   UNL A   1      38.142  24.346  26.525  1.00  0.00     0.021 C 
BRANCH  28  29
ATOM     29  C   UNL A   1      39.577  23.894  26.743  1.00  0.00     0.116 C 
BRANCH  29  30
ATOM     30  N   UNL A   1      40.534  24.455  25.807  1.00  0.00    -0.352 N 
ATOM     31  C   UNL A   1      41.351  25.565  25.957  1.00  0.00     0.251 C 
ATOM     32  H   UNL A   1      40.612  23.983  24.946  1.00  0.00     0.163 HD
ATOM     33  O   UNL A   1      42.058  25.932  25.047  1.00  0.00    -0.269 OA
BRANCH  31  34
ATOM     34  C   UNL A   1      41.316  26.327  27.236  1.00  0.00     0.039 A 
ATOM     35  C   UNL A   1      41.941  27.577  27.290  1.00  0.00     0.014 A 
ATOM     36  C   UNL A   1      40.653  25.833  28.361  1.00  0.00     0.014 A 
ATOM     37  C   UNL A   1      41.831  28.360  28.446  1.00  0.00     0.010 A 
ATOM     38  C   UNL A   1      40.471  26.647  29.474  1.00  0.00     0.010 A 
ATOM     39  C   UNL A   1      41.062  27.918  29.533  1.00  0.00    -0.014 A 
BRANCH  39  40
ATOM     40  C   UNL A   1      40.873  28.751  30.749  1.00  0.00     0.031 A 
ATOM     41  C   UNL A   1      39.779  29.785  30.787  1.00  0.00     0.074 A 
ATOM     42  C   UNL A   1      41.731  28.639  31.784  1.00  0.00     0.049 A 
ATOM     43  N   UNL A   1      39.510  30.671  31.712  1.00  0.00    -0.248 NA
ATOM     44  C   UNL A   1      38.894  29.857  29.613  1.00  0.00     0.031 C 
ATOM     45  C   UNL A   1      42.866  27.716  31.851  1.00  0.00     0.029 A 
ATOM     46  N   UNL A   1      41.786  29.317  32.976  1.00  0.00    -0.354 N 
ATOM     47  C   UNL A   1      38.449  31.422  31.219  1.00  0.00     0.074 A 
ATOM     48  C   UNL A   1      38.155  30.920  29.894  1.00  0.00     0.031 C 
ATOM     49  C   UNL A   1      43.486  27.865  33.034  1.00  0.00     0.029 A 
ATOM     50  C   UNL A   1      42.817  28.915  33.794  1.00  0.00     0.049 A 
ATOM     51  H   UNL A   1      41.147  30.024  33.224  1.00  0.00     0.167 HD
ATOM     52  C   UNL A   1      37.763  32.424  31.819  1.00  0.00     0.031 A 
ATOM     53  C   UNL A   1      43.180  29.342  35.019  1.00  0.00     0.031 A 
ATOM     54  C   UNL A   1      38.032  32.898  33.149  1.00  0.00     0.049 A 
ATOM     55  C   UNL A   1      42.380  30.426  35.685  1.00  0.00     0.074 A 
ATOM     56  C   UNL A   1      37.356  33.863  33.874  1.00  0.00     0.029 A 
ATOM     57  N   UNL A   1      39.058  32.434  33.959  1.00  0.00    -0.354 N 
ATOM     58  N   UNL A   1      41.344  31.086  35.224  1.00  0.00    -0.248 NA
ATOM     59  C   UNL A   1      42.789  30.815  37.042  1.00  0.00     0.031 C 
ATOM     60  C   UNL A   1      37.993  34.004  35.113  1.00  0.00     0.029 A 
ATOM     61  C   UNL A   1      39.039  33.098  35.173  1.00  0.00     0.049 A 
ATOM     62  H   UNL A   1      39.704  31.735  33.708  1.00  0.00     0.167 HD
ATOM     63  C   UNL A   1      40.963  31.952  36.242  1.00  0.00     0.074 A 
ATOM     64  C   UNL A   1      41.872  31.723  37.348  1.00  0.00     0.031 C 
ATOM     65  C   UNL A   1      39.953  32.857  36.261  1.00  0.00     0.031 A 
BRANCH  52  66
ATOM     66  C   UNL A   1      36.654  33.067  31.031  1.00  0.00    -0.014 A 
ATOM     67  C   UNL A   1      36.934  33.933  29.957  1.00  0.00     0.010 A 
ATOM     68  C   UNL A   1      35.313  32.802  31.362  1.00  0.00     0.010 A 
ATOM     69  C   UNL A   1      35.898  34.565  29.267  1.00  0.00     0.020 A 
ATOM     70  C   UNL A   1      34.271  33.411  30.656  1.00  0.00     0.020 A 
ATOM     71  C   UNL A   1      34.572  34.307  29.628  1.00  0.00     0.054 A 
BRANCH  71  72
ATOM     72  S   UNL A   1      33.243  35.142  28.718  1.00  0.00     0.124 S 
ATOM     73  O   UNL A   1      32.472  35.747  29.803  1.00  0.00    -0.237 OA
ATOM     74  O   UNL A   1      33.971  36.080  27.868  1.00  0.00    -0.237 OA
ATOM     75  O   UNL A   1      32.573  34.055  28.010  1.00  0.00    -0.744 OA
ENDBRANCH  71  72
ENDBRANCH  52  66
BRANCH  53  76
ATOM     76  C   UNL A   1      44.338  28.713  35.710  1.00  0.00    -0.014 A 
ATOM     77  C   UNL A   1      44.149  27.579  36.519  1.00  0.00     0.010 A 
ATOM     78  C   UNL A   1      45.637  29.227  35.544  1.00  0.00     0.010 A 
ATOM     79  C   UNL A   1      45.235  26.975  37.158  1.00  0.00     0.020 A 
ATOM     80  C   UNL A   1      46.730  28.612  36.163  1.00  0.00     0.020 A 
ATOM     81  C   UNL A   1      46.521  27.494  36.974  1.00  0.00     0.054 A 
BRANCH  81  82
ATOM     82  S   UNL A   1      47.926  26.655  37.758  1.00  0.00     0.124 S 
ATOM     83  O   UNL A   1      47.319  25.410  38.217  1.00  0.00    -0.237 OA
ATOM     84  O   UNL A   1      48.876  26.529  36.656  1.00  0.00    -0.237 OA
ATOM     85  O   UNL A   1      48.330  27.583  38.813  1.00  0.00    -0.744 OA
ENDBRANCH  81  82
ENDBRANCH  53  76
BRANCH  65  86
ATOM     86  C   UNL A   1      39.761  33.647  37.524  1.00  0.00    -0.014 A 
ATOM     87  C   UNL A   1      40.398  34.886  37.708  1.00  0.00     0.010 A 
ATOM     88  C   UNL A   1      38.890  33.166  38.518  1.00  0.00     0.010 A 
ATOM     89  C   UNL A   1      40.191  35.618  38.880  1.00  0.00     0.020 A 
ATOM     90  C   UNL A   1      38.663  33.906  39.682  1.00  0.00     0.020 A 
ATOM     91  C   UNL A   1      39.327  35.121  39.860  1.00  0.00     0.054 A 
BRANCH  91  92
ATOM     92  S   UNL A   1      39.040  36.107  41.356  1.00  0.00     0.124 S 
ATOM     93  O   UNL A   1      38.984  37.464  40.818  1.00  0.00    -0.237 OA
ATOM     94  O   UNL A   1      37.774  35.576  41.855  1.00  0.00    -0.237 OA
ATOM     95  O   UNL A   1      40.203  35.814  42.191  1.00  0.00    -0.744 OA
ENDBRANCH  91  92
ENDBRANCH  65  86
ENDBRANCH  39  40
ENDBRANCH  31  34
ENDBRANCH  29  30
ENDBRANCH  28  29
ENDBRANCH  27  28
ENDBRANCH   1  27
TORSDOF 20
ENDMDL
MODEL 3
REMARK VINA RESULT:     -10.0      6.776     10.552
REMARK SMILES CNC(=O)[C@H](C)Nc1ccc(C(F)(F)F)cc1C(=O)NCCCCCCNC(=O)c1ccc(-c2c3nc(c(-c4ccc(S(=O)(=O)[O-])cc4)c4ccc([nH]4)c(-c4ccc(S(=O)(=O)[O-])cc4)c4nc(c(-c5ccc(S(=O)(=O)[O-])cc5)c5ccc2[nH]5)C=C4)C=C3)cc1
REMARK SMILES IDX 23 1 22 2 21 3 20 4 18 5 19 6 17 8 8 9 9 10 10 11 16 12
REMARK SMILES IDX 11 13 7 14 5 16 6 17 3 18 1 19 2 20 4 22 12 23 13 24 14 25
REMARK SMILES IDX 15 26 24 27 25 28 26 29 27 30 28 31 29 33 30 34 31 35 89 36
REMARK SMILES IDX 32 37 88 38 33 39 34 40 35 41 82 42 36 43 87 44 81 45 83 46
REMARK SMILES IDX 37 47 86 48 80 49 79 50 38 52 68 53 49 54 67 55 50 56 53 57
REMARK SMILES IDX 66 58 84 59 51 60 52 61 65 63 85 64 54 65 39 66 40 67 48 68
REMARK SMILES IDX 41 69 47 70 42 71 43 72 44 73 45 74 46 75 69 76 70 77 78 78
REMARK SMILES IDX 71 79 77 80 72 81 73 82 74 83 75 84 76 85 55 86 56 87 64 88
REMARK SMILES IDX 57 89 63 90 58 91 59 92 60 93 61 94 62 95
REMARK H PARENT 20 7 7 15 2 21 27 32 83 51 53 62
REMARK Flexibility Score: inf
ROOT
ATOM      1  C   UNL A   1      35.921  20.895  24.865  1.00  0.00     0.002 C 
ENDROOT
BRANCH   1   2
ATOM      2  C   UNL A   1      35.474  21.638  26.134  1.00  0.00     0.021 C 
BRANCH   2   3
ATOM      3  C   UNL A   1      34.721  22.951  25.914  1.00  0.00     0.116 C 
BRANCH   3   4
ATOM      4  N   UNL A   1      33.322  22.898  26.313  1.00  0.00    -0.352 N 
ATOM      5  C   UNL A   1      32.211  22.402  25.665  1.00  0.00     0.253 C 
ATOM      6  O   UNL A   1      31.101  22.691  26.124  1.00  0.00    -0.269 OA
ATOM      7  H   UNL A   1      33.138  23.283  27.200  1.00  0.00     0.163 HD
BRANCH   5   8
ATOM      8  C   UNL A   1      32.265  21.569  24.436  1.00  0.00     0.063 A 
ATOM      9  C   UNL A   1      31.931  22.022  23.152  1.00  0.00     0.048 A 
ATOM     10  C   UNL A   1      31.782  21.043  22.147  1.00  0.00     0.027 A 
ATOM     11  C   UNL A   1      32.123  19.695  22.365  1.00  0.00     0.015 A 
ATOM     12  C   UNL A   1      32.713  20.239  24.620  1.00  0.00     0.029 A 
ATOM     13  C   UNL A   1      32.677  19.296  23.584  1.00  0.00     0.056 A 
BRANCH   9  14
ATOM     14  N   UNL A   1      31.737  23.375  22.853  1.00  0.00    -0.373 N 
ATOM     15  H   UNL A   1      30.850  23.670  22.543  1.00  0.00     0.161 HD
BRANCH  14  16
ATOM     16  C   UNL A   1      32.819  24.380  22.985  1.00  0.00     0.165 C 
ATOM     17  C   UNL A   1      34.081  23.652  22.444  1.00  0.00     0.041 C 
BRANCH  16  18
ATOM     18  C   UNL A   1      32.720  25.682  22.103  1.00  0.00     0.241 C 
ATOM     19  C   UNL A   1      30.621  27.016  22.864  1.00  0.00     0.142 C 
ATOM     20  N   UNL A   1      31.836  26.701  22.162  1.00  0.00    -0.357 N 
ATOM     21  H   UNL A   1      32.096  27.432  21.557  1.00  0.00     0.163 HD
ATOM     22  O   UNL A   1      33.599  25.916  21.254  1.00  0.00    -0.273 OA
ENDBRANCH  16  18
ENDBRANCH  14  16
ENDBRANCH   9  14
BRANCH  13  23
ATOM     23  C   UNL A   1      33.201  17.896  23.807  1.00  0.00     0.416 C 
ATOM     24  F   UNL A   1      32.756  17.343  24.968  1.00  0.00    -0.166 F 
ATOM     25  F   UNL A   1      32.853  17.021  22.821  1.00  0.00    -0.166 F 
ATOM     26  F   UNL A   1      34.563  17.848  23.870  1.00  0.00    -0.166 F 
ENDBRANCH  13  23
ENDBRANCH   5   8
ENDBRANCH   3   4
ENDBRANCH   2   3
ENDBRANCH   1   2
BRANCH   1  27
ATOM     27  C   UNL A   1      37.234  20.109  24.923  1.00  0.00     0.002 C 
BRANCH  27  28
ATOM     28  C   UNL A   1      38.510  20.845  25.319  1.00  0.00     0.021 C 
BRANCH  28  29
ATOM     29  C   UNL A   1      39.301  20.252  26.474  1.00  0.00     0.116 C 
BRANCH  29  30
ATOM     30  N   UNL A   1      40.411  19.406  26.073  1.00  0.00    -0.352 N 
ATOM     31  C   UNL A   1      41.757  19.723  25.979  1.00  0.00     0.251 C 
ATOM     32  H   UNL A   1      40.174  18.481  25.832  1.00  0.00     0.163 HD
ATOM     33  O   UNL A   1      42.551  18.907  25.570  1.00  0.00    -0.269 OA
BRANCH  31  34
ATOM     34  C   UNL A   1      42.210  21.094  26.344  1.00  0.00     0.039 A 
ATOM     35  C   UNL A   1      42.546  21.358  27.676  1.00  0.00     0.014 A 
ATOM     36  C   UNL A   1      42.330  22.102  25.385  1.00  0.00     0.014 A 
ATOM     37  C   UNL A   1      43.075  22.606  28.026  1.00  0.00     0.010 A 
ATOM     38  C   UNL A   1      42.936  23.309  25.717  1.00  0.00     0.010 A 
ATOM     39  C   UNL A   1      43.311  23.579  27.042  1.00  0.00    -0.014 A 
BRANCH  39  40
ATOM     40  C   UNL A   1      43.928  24.890  27.369  1.00  0.00     0.031 A 
ATOM     41  C   UNL A   1      43.080  25.997  27.938  1.00  0.00     0.074 A 
ATOM     42  C   UNL A   1      45.226  25.117  27.079  1.00  0.00     0.049 A 
ATOM     43  N   UNL A   1      43.405  27.236  28.203  1.00  0.00    -0.248 NA
ATOM     44  C   UNL A   1      41.669  25.676  28.211  1.00  0.00     0.031 C 
ATOM     45  C   UNL A   1      46.144  24.148  26.476  1.00  0.00     0.029 A 
ATOM     46  N   UNL A   1      45.996  26.241  27.248  1.00  0.00    -0.354 N 
ATOM     47  C   UNL A   1      42.237  27.848  28.642  1.00  0.00     0.074 A 
ATOM     48  C   UNL A   1      41.185  26.859  28.562  1.00  0.00     0.031 C 
ATOM     49  C   UNL A   1      47.358  24.710  26.351  1.00  0.00     0.029 A 
ATOM     50  C   UNL A   1      47.298  26.086  26.833  1.00  0.00     0.049 A 
ATOM     51  H   UNL A   1      45.648  27.079  27.629  1.00  0.00     0.167 HD
ATOM     52  C   UNL A   1      42.056  29.112  29.093  1.00  0.00     0.031 A 
ATOM     53  C   UNL A   1      48.329  26.954  26.842  1.00  0.00     0.031 A 
ATOM     54  C   UNL A   1      43.109  30.084  29.206  1.00  0.00     0.049 A 
ATOM     55  C   UNL A   1      48.117  28.339  27.386  1.00  0.00     0.074 A 
ATOM     56  C   UNL A   1      43.044  31.371  29.711  1.00  0.00     0.029 A 
ATOM     57  N   UNL A   1      44.422  29.873  28.815  1.00  0.00    -0.354 N 
ATOM     58  N   UNL A   1      47.015  28.882  27.849  1.00  0.00    -0.248 NA
ATOM     59  C   UNL A   1      49.289  29.225  27.421  1.00  0.00     0.031 C 
ATOM     60  C   UNL A   1      44.315  31.949  29.597  1.00  0.00     0.029 A 
ATOM     61  C   UNL A   1      45.177  31.008  29.059  1.00  0.00     0.049 A 
ATOM     62  H   UNL A   1      44.768  29.039  28.423  1.00  0.00     0.167 HD
ATOM     63  C   UNL A   1      47.367  30.165  28.251  1.00  0.00     0.074 A 
ATOM     64  C   UNL A   1      48.785  30.312  27.989  1.00  0.00     0.031 C 
ATOM     65  C   UNL A   1      46.587  31.135  28.789  1.00  0.00     0.031 A 
BRANCH  52  66
ATOM     66  C   UNL A   1      40.660  29.505  29.499  1.00  0.00    -0.014 A 
ATOM     67  C   UNL A   1      39.723  29.942  28.544  1.00  0.00     0.010 A 
ATOM     68  C   UNL A   1      40.277  29.434  30.849  1.00  0.00     0.010 A 
ATOM     69  C   UNL A   1      38.448  30.353  28.939  1.00  0.00     0.020 A 
ATOM     70  C   UNL A   1      38.992  29.818  31.246  1.00  0.00     0.020 A 
ATOM     71  C   UNL A   1      38.094  30.298  30.290  1.00  0.00     0.054 A 
BRANCH  71  72
ATOM     72  S   UNL A   1      36.434  30.841  30.778  1.00  0.00     0.124 S 
ATOM     73  O   UNL A   1      36.671  32.236  31.146  1.00  0.00    -0.237 OA
ATOM     74  O   UNL A   1      35.655  30.637  29.561  1.00  0.00    -0.237 OA
ATOM     75  O   UNL A   1      36.093  29.955  31.888  1.00  0.00    -0.744 OA
ENDBRANCH  71  72
ENDBRANCH  52  66
BRANCH  53  76
ATOM     76  C   UNL A   1      49.666  26.521  26.352  1.00  0.00    -0.014 A 
ATOM     77  C   UNL A   1      50.049  26.774  25.023  1.00  0.00     0.010 A 
ATOM     78  C   UNL A   1      50.572  25.880  27.216  1.00  0.00     0.010 A 
ATOM     79  C   UNL A   1      51.309  26.385  24.562  1.00  0.00     0.020 A 
ATOM     80  C   UNL A   1      51.843  25.509  26.764  1.00  0.00     0.020 A 
ATOM     81  C   UNL A   1      52.200  25.756  25.437  1.00  0.00     0.054 A 
BRANCH  81  82
ATOM     82  S   UNL A   1      53.857  25.318  24.838  1.00  0.00     0.124 S 
ATOM     83  O   UNL A   1      53.859  25.901  23.501  1.00  0.00    -0.237 OA
ATOM     84  O   UNL A   1      54.729  25.965  25.814  1.00  0.00    -0.237 OA
ATOM     85  O   UNL A   1      53.859  23.857  24.886  1.00  0.00    -0.744 OA
ENDBRANCH  81  82
ENDBRANCH  53  76
BRANCH  65  86
ATOM     86  C   UNL A   1      47.254  32.431  29.154  1.00  0.00    -0.014 A 
ATOM     87  C   UNL A   1      47.315  33.497  28.239  1.00  0.00     0.010 A 
ATOM     88  C   UNL A   1      47.781  32.601  30.446  1.00  0.00     0.010 A 
ATOM     89  C   UNL A   1      47.920  34.703  28.602  1.00  0.00     0.020 A 
ATOM     90  C   UNL A   1      48.367  33.814  30.820  1.00  0.00     0.020 A 
ATOM     91  C   UNL A   1      48.444  34.852  29.890  1.00  0.00     0.054 A 
BRANCH  91  92
ATOM     92  S   UNL A   1      49.188  36.440  30.353  1.00  0.00     0.124 S 
ATOM     93  O   UNL A   1      49.245  36.334  31.809  1.00  0.00    -0.237 OA
ATOM     94  O   UNL A   1      50.479  36.404  29.670  1.00  0.00    -0.237 OA
ATOM     95  O   UNL A   1      48.244  37.428  29.836  1.00  0.00    -0.744 OA
ENDBRANCH  91  92
ENDBRANCH  65  86
ENDBRANCH  39  40
ENDBRANCH  31  34
ENDBRANCH  29  30
ENDBRANCH  28  29
ENDBRANCH  27  28
ENDBRANCH   1  27
TORSDOF 20
ENDMDL
