MODEL 1
REMARK VINA RESULT:      -9.0      0.000      0.000
REMARK SMILES Cc1cs/c(=N\S(=O)(=O)c2ccc(/C=C/C(=O)NCCCCCCNC(=O)c3ccc(-c4c5nc(c(-c6ccc(S(=O)(=O)[O-])cc6)c6ccc([nH]6)c(-c6ccc(S(=O)(=O)[O-])cc6)c6nc(c(-c7ccc(S(=O)(=O)[O-])cc7)c7ccc4[nH]7)C=C6)C=C5)cc3)cc2)[nH]1
REMARK SMILES IDX 21 1 20 2 19 3 18 4 16 5 17 6 15 8 14 9 13 10 10 11 11 12
REMARK SMILES IDX 89 13 12 14 88 15 7 16 8 17 9 18 6 19 1 20 2 21 3 22 90 23
REMARK SMILES IDX 4 24 5 25 22 27 23 28 24 29 25 30 26 31 27 33 28 34 29 35
REMARK SMILES IDX 87 36 30 37 86 38 31 39 32 40 33 41 80 42 34 43 85 44 79 45
REMARK SMILES IDX 81 46 35 47 84 48 78 49 77 50 36 52 66 53 47 54 65 55 48 56
REMARK SMILES IDX 51 57 64 58 82 59 49 60 50 61 63 63 83 64 52 65 37 66 38 67
REMARK SMILES IDX 46 68 39 69 45 70 40 71 41 72 42 73 43 74 44 75 67 76 68 77
REMARK SMILES IDX 76 78 69 79 75 80 70 81 71 82 72 83 73 84 74 85 53 86 54 87
REMARK SMILES IDX 62 88 55 89 61 90 56 91 57 92 58 93 59 94 60 95
REMARK H PARENT 18 7 90 26 25 32 81 51 51 62
REMARK Flexibility Score: inf
ROOT
ATOM      1  C   UNL A   1      48.618  26.860  26.509  1.00  0.00     0.002 C 
ENDROOT
BRANCH   1   2
ATOM      2  C   UNL A   1      48.798  26.597  28.010  1.00  0.00     0.021 C 
BRANCH   2   3
ATOM      3  C   UNL A   1      47.950  27.504  28.902  1.00  0.00     0.116 C 
BRANCH   3   4
ATOM      4  N   UNL A   1      47.883  26.977  30.253  1.00  0.00    -0.353 N 
ATOM      5  C   UNL A   1      47.019  26.097  30.820  1.00  0.00     0.243 C 
ATOM      6  O   UNL A   1      47.205  25.708  31.971  1.00  0.00    -0.270 OA
ATOM      7  H   UNL A   1      48.582  27.314  30.860  1.00  0.00     0.163 HD
BRANCH   5   8
ATOM      8  C   UNL A   1      45.904  25.525  30.037  1.00  0.00     0.072 C 
ATOM      9  C   UNL A   1      45.497  24.248  30.123  1.00  0.00     0.014 C 
BRANCH   9  10
ATOM     10  C   UNL A   1      44.403  23.713  29.303  1.00  0.00    -0.025 A 
ATOM     11  C   UNL A   1      42.308  22.631  27.796  1.00  0.00     0.089 A 
ATOM     12  C   UNL A   1      43.543  22.883  27.190  1.00  0.00     0.023 A 
ATOM     13  C   UNL A   1      42.108  22.912  29.149  1.00  0.00     0.023 A 
ATOM     14  C   UNL A   1      44.587  23.421  27.946  1.00  0.00     0.009 A 
ATOM     15  C   UNL A   1      43.161  23.448  29.899  1.00  0.00     0.009 A 
BRANCH  11  16
ATOM     16  S   UNL A   1      41.026  21.892  26.795  1.00  0.00     0.285 S 
ATOM     17  O   UNL A   1      40.646  20.686  27.514  1.00  0.00    -0.199 OA
ATOM     18  O   UNL A   1      41.577  21.827  25.459  1.00  0.00    -0.199 OA
BRANCH  16  19
ATOM     19  N   UNL A   1      39.802  22.943  26.830  1.00  0.00    -0.130 NA
ATOM     20  C   UNL A   1      35.228  23.871  25.510  1.00  0.00     0.065 C 
ATOM     21  C   UNL A   1      36.462  23.040  25.584  1.00  0.00     0.024 A 
ATOM     22  C   UNL A   1      36.616  21.811  25.063  1.00  0.00     0.089 A 
ATOM     23  N   UNL A   1      37.592  23.501  26.231  1.00  0.00    -0.334 N 
ATOM     24  S   UNL A   1      38.222  21.184  25.367  1.00  0.00    -0.104 S 
ATOM     25  C   UNL A   1      38.684  22.665  26.256  1.00  0.00     0.199 A 
ATOM     26  H   UNL A   1      37.615  24.389  26.656  1.00  0.00     0.169 HD
ENDBRANCH  16  19
ENDBRANCH  11  16
ENDBRANCH   9  10
ENDBRANCH   5   8
ENDBRANCH   3   4
ENDBRANCH   2   3
ENDBRANCH   1   2
BRANCH   1  27
ATOM     27  C   UNL A   1      47.989  25.708  25.715  1.00  0.00     0.002 C 
BRANCH  27  28
ATOM     28  C   UNL A   1      46.540  25.372  26.083  1.00  0.00     0.021 C 
BRANCH  28  29
ATOM     29  C   UNL A   1      45.541  26.500  25.842  1.00  0.00     0.116 C 
BRANCH  29  30
ATOM     30  N   UNL A   1      44.348  26.033  25.156  1.00  0.00    -0.352 N 
ATOM     31  C   UNL A   1      43.035  26.098  25.556  1.00  0.00     0.251 C 
ATOM     32  H   UNL A   1      44.502  25.610  24.280  1.00  0.00     0.163 HD
ATOM     33  O   UNL A   1      42.176  25.473  24.940  1.00  0.00    -0.269 OA
BRANCH  31  34
ATOM     34  C   UNL A   1      42.661  26.907  26.737  1.00  0.00     0.039 A 
ATOM     35  C   UNL A   1      42.004  26.284  27.803  1.00  0.00     0.014 A 
ATOM     36  C   UNL A   1      42.935  28.277  26.784  1.00  0.00     0.014 A 
ATOM     37  C   UNL A   1      41.670  27.026  28.938  1.00  0.00     0.010 A 
ATOM     38  C   UNL A   1      42.652  29.002  27.940  1.00  0.00     0.010 A 
ATOM     39  C   UNL A   1      42.012  28.385  29.026  1.00  0.00    -0.014 A 
BRANCH  39  40
ATOM     40  C   UNL A   1      41.706  29.180  30.242  1.00  0.00     0.031 A 
ATOM     41  C   UNL A   1      42.570  29.052  31.467  1.00  0.00     0.074 A 
ATOM     42  C   UNL A   1      40.615  29.968  30.266  1.00  0.00     0.049 A 
ATOM     43  N   UNL A   1      42.429  29.619  32.637  1.00  0.00    -0.248 NA
ATOM     44  C   UNL A   1      43.727  28.149  31.370  1.00  0.00     0.031 C 
ATOM     45  C   UNL A   1      39.676  30.151  29.156  1.00  0.00     0.029 A 
ATOM     46  N   UNL A   1      40.105  30.758  31.265  1.00  0.00    -0.354 N 
ATOM     47  C   UNL A   1      43.464  29.126  33.423  1.00  0.00     0.074 A 
ATOM     48  C   UNL A   1      44.199  28.183  32.607  1.00  0.00     0.031 C 
ATOM     49  C   UNL A   1      38.722  31.020  29.527  1.00  0.00     0.029 A 
ATOM     50  C   UNL A   1      38.959  31.428  30.909  1.00  0.00     0.049 A 
ATOM     51  H   UNL A   1      40.521  30.839  32.154  1.00  0.00     0.167 HD
ATOM     52  C   UNL A   1      43.782  29.438  34.703  1.00  0.00     0.031 A 
ATOM     53  C   UNL A   1      38.183  32.275  31.613  1.00  0.00     0.031 A 
ATOM     54  C   UNL A   1      43.060  30.386  35.507  1.00  0.00     0.049 A 
ATOM     55  C   UNL A   1      38.558  32.612  33.029  1.00  0.00     0.074 A 
ATOM     56  C   UNL A   1      43.341  30.818  36.792  1.00  0.00     0.029 A 
ATOM     57  N   UNL A   1      41.910  31.050  35.106  1.00  0.00    -0.354 N 
ATOM     58  N   UNL A   1      39.574  32.178  33.737  1.00  0.00    -0.248 NA
ATOM     59  C   UNL A   1      37.685  33.558  33.738  1.00  0.00     0.031 C 
ATOM     60  C   UNL A   1      42.337  31.712  37.182  1.00  0.00     0.029 A 
ATOM     61  C   UNL A   1      41.457  31.871  36.124  1.00  0.00     0.049 A 
ATOM     62  H   UNL A   1      41.480  30.952  34.225  1.00  0.00     0.167 HD
ATOM     63  C   UNL A   1      39.477  32.818  34.967  1.00  0.00     0.074 A 
ATOM     64  C   UNL A   1      38.308  33.672  34.903  1.00  0.00     0.031 C 
ATOM     65  C   UNL A   1      40.286  32.710  36.049  1.00  0.00     0.031 A 
BRANCH  52  66
ATOM     66  C   UNL A   1      44.960  28.724  35.311  1.00  0.00    -0.014 A 
ATOM     67  C   UNL A   1      44.837  27.415  35.813  1.00  0.00     0.010 A 
ATOM     68  C   UNL A   1      46.207  29.370  35.382  1.00  0.00     0.010 A 
ATOM     69  C   UNL A   1      45.924  26.789  36.429  1.00  0.00     0.020 A 
ATOM     70  C   UNL A   1      47.304  28.736  35.973  1.00  0.00     0.020 A 
ATOM     71  C   UNL A   1      47.148  27.459  36.516  1.00  0.00     0.054 A 
BRANCH  71  72
ATOM     72  S   UNL A   1      48.541  26.632  37.333  1.00  0.00     0.124 S 
ATOM     73  O   UNL A   1      48.997  25.716  36.291  1.00  0.00    -0.237 OA
ATOM     74  O   UNL A   1      49.444  27.740  37.633  1.00  0.00    -0.237 OA
ATOM     75  O   UNL A   1      47.930  25.998  38.499  1.00  0.00    -0.744 OA
ENDBRANCH  71  72
ENDBRANCH  52  66
BRANCH  53  76
ATOM     76  C   UNL A   1      36.992  32.886  30.969  1.00  0.00    -0.014 A 
ATOM     77  C   UNL A   1      35.704  32.618  31.466  1.00  0.00     0.010 A 
ATOM     78  C   UNL A   1      37.138  33.771  29.886  1.00  0.00     0.010 A 
ATOM     79  C   UNL A   1      34.584  33.223  30.891  1.00  0.00     0.020 A 
ATOM     80  C   UNL A   1      36.022  34.395  29.323  1.00  0.00     0.020 A 
ATOM     81  C   UNL A   1      34.751  34.112  29.826  1.00  0.00     0.054 A 
BRANCH  81  82
ATOM     82  S   UNL A   1      33.290  34.951  29.148  1.00  0.00     0.124 S 
ATOM     83  O   UNL A   1      32.492  35.182  30.347  1.00  0.00    -0.237 OA
ATOM     84  O   UNL A   1      33.868  36.142  28.532  1.00  0.00    -0.237 OA
ATOM     85  O   UNL A   1      32.745  33.975  28.208  1.00  0.00    -0.744 OA
ENDBRANCH  81  82
ENDBRANCH  53  76
BRANCH  65  86
ATOM     86  C   UNL A   1      39.950  33.552  37.248  1.00  0.00    -0.014 A 
ATOM     87  C   UNL A   1      40.453  34.857  37.382  1.00  0.00     0.010 A 
ATOM     88  C   UNL A   1      39.076  33.047  38.229  1.00  0.00     0.010 A 
ATOM     89  C   UNL A   1      40.109  35.635  38.491  1.00  0.00     0.020 A 
ATOM     90  C   UNL A   1      38.713  33.830  39.327  1.00  0.00     0.020 A 
ATOM     91  C   UNL A   1      39.242  35.116  39.457  1.00  0.00     0.054 A 
BRANCH  91  92
ATOM     92  S   UNL A   1      38.773  36.161  40.864  1.00  0.00     0.124 S 
ATOM     93  O   UNL A   1      40.010  36.198  41.639  1.00  0.00    -0.237 OA
ATOM     94  O   UNL A   1      38.396  37.418  40.221  1.00  0.00    -0.237 OA
ATOM     95  O   UNL A   1      37.670  35.430  41.484  1.00  0.00    -0.744 OA
ENDBRANCH  91  92
ENDBRANCH  65  86
ENDBRANCH  39  40
ENDBRANCH  31  34
ENDBRANCH  29  30
ENDBRANCH  28  29
ENDBRANCH  27  28
ENDBRANCH   1  27
TORSDOF 19
ENDMDL
MODEL 2
REMARK VINA RESULT:      -9.0      5.223     12.556
REMARK SMILES Cc1cs/c(=N\S(=O)(=O)c2ccc(/C=C/C(=O)NCCCCCCNC(=O)c3ccc(-c4c5nc(c(-c6ccc(S(=O)(=O)[O-])cc6)c6ccc([nH]6)c(-c6ccc(S(=O)(=O)[O-])cc6)c6nc(c(-c7ccc(S(=O)(=O)[O-])cc7)c7ccc4[nH]7)C=C6)C=C5)cc3)cc2)[nH]1
REMARK SMILES IDX 21 1 20 2 19 3 18 4 16 5 17 6 15 8 14 9 13 10 10 11 11 12
REMARK SMILES IDX 89 13 12 14 88 15 7 16 8 17 9 18 6 19 1 20 2 21 3 22 90 23
REMARK SMILES IDX 4 24 5 25 22 27 23 28 24 29 25 30 26 31 27 33 28 34 29 35
REMARK SMILES IDX 87 36 30 37 86 38 31 39 32 40 33 41 80 42 34 43 85 44 79 45
REMARK SMILES IDX 81 46 35 47 84 48 78 49 77 50 36 52 66 53 47 54 65 55 48 56
REMARK SMILES IDX 51 57 64 58 82 59 49 60 50 61 63 63 83 64 52 65 37 66 38 67
REMARK SMILES IDX 46 68 39 69 45 70 40 71 41 72 42 73 43 74 44 75 67 76 68 77
REMARK SMILES IDX 76 78 69 79 75 80 70 81 71 82 72 83 73 84 74 85 53 86 54 87
REMARK SMILES IDX 62 88 55 89 61 90 56 91 57 92 58 93 59 94 60 95
REMARK H PARENT 18 7 90 26 25 32 81 51 51 62
REMARK Flexibility Score: inf
ROOT
ATOM      1  C   UNL A   1      38.962  34.031  33.577  1.00  0.00     0.002 C 
ENDROOT
BRANCH   1   2
ATOM      2  C   UNL A   1      37.526  34.520  33.346  1.00  0.00     0.021 C 
BRANCH   2   3
ATOM      3  C   UNL A   1      37.012  34.278  31.927  1.00  0.00     0.116 C 
BRANCH   3   4
ATOM      4  N   UNL A   1      38.026  34.623  30.948  1.00  0.00    -0.353 N 
ATOM      5  C   UNL A   1      38.271  34.121  29.710  1.00  0.00     0.243 C 
ATOM      6  O   UNL A   1      39.134  34.633  29.000  1.00  0.00    -0.270 OA
ATOM      7  H   UNL A   1      38.639  35.341  31.228  1.00  0.00     0.163 HD
BRANCH   5   8
ATOM      8  C   UNL A   1      37.447  33.023  29.165  1.00  0.00     0.072 C 
ATOM      9  C   UNL A   1      36.225  33.187  28.634  1.00  0.00     0.014 C 
BRANCH   9  10
ATOM     10  C   UNL A   1      35.428  32.061  28.130  1.00  0.00    -0.025 A 
ATOM     11  C   UNL A   1      33.956  29.914  27.103  1.00  0.00     0.089 A 
ATOM     12  C   UNL A   1      33.301  31.094  27.468  1.00  0.00     0.023 A 
ATOM     13  C   UNL A   1      35.340  29.794  27.244  1.00  0.00     0.023 A 
ATOM     14  C   UNL A   1      34.039  32.165  27.978  1.00  0.00     0.009 A 
ATOM     15  C   UNL A   1      36.072  30.874  27.753  1.00  0.00     0.009 A 
BRANCH  11  16
ATOM     16  S   UNL A   1      32.970  28.598  26.405  1.00  0.00     0.285 S 
ATOM     17  O   UNL A   1      32.413  29.160  25.185  1.00  0.00    -0.199 OA
ATOM     18  O   UNL A   1      32.117  28.150  27.484  1.00  0.00    -0.199 OA
BRANCH  16  19
ATOM     19  N   UNL A   1      34.024  27.436  26.024  1.00  0.00    -0.130 NA
ATOM     20  C   UNL A   1      34.638  22.907  24.401  1.00  0.00     0.065 C 
ATOM     21  C   UNL A   1      33.829  24.092  24.801  1.00  0.00     0.024 A 
ATOM     22  C   UNL A   1      32.489  24.177  24.767  1.00  0.00     0.089 A 
ATOM     23  N   UNL A   1      34.436  25.246  25.256  1.00  0.00    -0.334 N 
ATOM     24  S   UNL A   1      31.933  25.741  25.326  1.00  0.00    -0.104 S 
ATOM     25  C   UNL A   1      33.612  26.292  25.598  1.00  0.00     0.199 A 
ATOM     26  H   UNL A   1      35.415  25.317  25.332  1.00  0.00     0.169 HD
ENDBRANCH  16  19
ENDBRANCH  11  16
ENDBRANCH   9  10
ENDBRANCH   5   8
ENDBRANCH   3   4
ENDBRANCH   2   3
ENDBRANCH   1   2
BRANCH   1  27
ATOM     27  C   UNL A   1      39.131  33.018  34.718  1.00  0.00     0.002 C 
BRANCH  27  28
ATOM     28  C   UNL A   1      37.919  32.119  34.981  1.00  0.00     0.021 C 
BRANCH  28  29
ATOM     29  C   UNL A   1      37.936  30.787  34.237  1.00  0.00     0.116 C 
BRANCH  29  30
ATOM     30  N   UNL A   1      36.863  30.695  33.261  1.00  0.00    -0.352 N 
ATOM     31  C   UNL A   1      36.940  30.544  31.898  1.00  0.00     0.251 C 
ATOM     32  H   UNL A   1      35.951  30.750  33.629  1.00  0.00     0.163 HD
ATOM     33  O   UNL A   1      35.935  30.687  31.208  1.00  0.00    -0.269 OA
BRANCH  31  34
ATOM     34  C   UNL A   1      38.237  30.225  31.262  1.00  0.00     0.039 A 
ATOM     35  C   UNL A   1      39.417  30.471  31.972  1.00  0.00     0.014 A 
ATOM     36  C   UNL A   1      38.293  29.707  29.965  1.00  0.00     0.014 A 
ATOM     37  C   UNL A   1      40.650  30.148  31.400  1.00  0.00     0.010 A 
ATOM     38  C   UNL A   1      39.519  29.333  29.419  1.00  0.00     0.010 A 
ATOM     39  C   UNL A   1      40.710  29.555  30.129  1.00  0.00    -0.014 A 
BRANCH  39  40
ATOM     40  C   UNL A   1      42.007  29.162  29.522  1.00  0.00     0.031 A 
ATOM     41  C   UNL A   1      43.124  30.163  29.409  1.00  0.00     0.074 A 
ATOM     42  C   UNL A   1      42.157  27.924  29.015  1.00  0.00     0.049 A 
ATOM     43  N   UNL A   1      44.303  30.022  28.861  1.00  0.00    -0.248 NA
ATOM     44  C   UNL A   1      42.871  31.502  29.962  1.00  0.00     0.031 C 
ATOM     45  C   UNL A   1      41.138  26.871  29.029  1.00  0.00     0.029 A 
ATOM     46  N   UNL A   1      43.226  27.342  28.380  1.00  0.00    -0.354 N 
ATOM     47  C   UNL A   1      44.925  31.259  28.981  1.00  0.00     0.074 A 
ATOM     48  C   UNL A   1      43.976  32.148  29.618  1.00  0.00     0.031 C 
ATOM     49  C   UNL A   1      41.640  25.766  28.456  1.00  0.00     0.029 A 
ATOM     50  C   UNL A   1      43.000  26.039  28.003  1.00  0.00     0.049 A 
ATOM     51  H   UNL A   1      44.074  27.812  28.211  1.00  0.00     0.167 HD
ATOM     52  C   UNL A   1      46.177  31.621  28.608  1.00  0.00     0.031 A 
ATOM     53  C   UNL A   1      43.797  25.161  27.363  1.00  0.00     0.031 A 
ATOM     54  C   UNL A   1      47.124  30.734  27.989  1.00  0.00     0.049 A 
ATOM     55  C   UNL A   1      45.184  25.581  26.964  1.00  0.00     0.074 A 
ATOM     56  C   UNL A   1      48.437  30.988  27.633  1.00  0.00     0.029 A 
ATOM     57  N   UNL A   1      46.860  29.419  27.633  1.00  0.00    -0.354 N 
ATOM     58  N   UNL A   1      45.775  26.740  27.137  1.00  0.00    -0.248 NA
ATOM     59  C   UNL A   1      46.013  24.574  26.288  1.00  0.00     0.031 C 
ATOM     60  C   UNL A   1      48.954  29.838  27.022  1.00  0.00     0.029 A 
ATOM     61  C   UNL A   1      47.977  28.856  27.041  1.00  0.00     0.049 A 
ATOM     62  H   UNL A   1      46.004  28.956  27.780  1.00  0.00     0.167 HD
ATOM     63  C   UNL A   1      47.054  26.593  26.615  1.00  0.00     0.074 A 
ATOM     64  C   UNL A   1      47.153  25.232  26.127  1.00  0.00     0.031 C 
ATOM     65  C   UNL A   1      48.058  27.502  26.551  1.00  0.00     0.031 A 
BRANCH  52  66
ATOM     66  C   UNL A   1      46.578  33.052  28.848  1.00  0.00    -0.014 A 
ATOM     67  C   UNL A   1      46.398  34.035  27.858  1.00  0.00     0.010 A 
ATOM     68  C   UNL A   1      47.143  33.420  30.083  1.00  0.00     0.010 A 
ATOM     69  C   UNL A   1      46.831  35.345  28.074  1.00  0.00     0.020 A 
ATOM     70  C   UNL A   1      47.553  34.737  30.313  1.00  0.00     0.020 A 
ATOM     71  C   UNL A   1      47.417  35.685  29.297  1.00  0.00     0.054 A 
BRANCH  71  72
ATOM     72  S   UNL A   1      47.985  37.390  29.550  1.00  0.00     0.124 S 
ATOM     73  O   UNL A   1      48.912  37.232  30.668  1.00  0.00    -0.237 OA
ATOM     74  O   UNL A   1      48.600  37.721  28.267  1.00  0.00    -0.237 OA
ATOM     75  O   UNL A   1      46.757  38.121  29.855  1.00  0.00    -0.744 OA
ENDBRANCH  71  72
ENDBRANCH  52  66
BRANCH  53  76
ATOM     76  C   UNL A   1      43.305  23.785  27.094  1.00  0.00    -0.014 A 
ATOM     77  C   UNL A   1      42.872  23.430  25.804  1.00  0.00     0.010 A 
ATOM     78  C   UNL A   1      43.309  22.813  28.109  1.00  0.00     0.010 A 
ATOM     79  C   UNL A   1      42.449  22.127  25.535  1.00  0.00     0.020 A 
ATOM     80  C   UNL A   1      42.907  21.502  27.837  1.00  0.00     0.020 A 
ATOM     81  C   UNL A   1      42.473  21.169  26.552  1.00  0.00     0.054 A 
BRANCH  81  82
ATOM     82  S   UNL A   1      41.998  19.461  26.160  1.00  0.00     0.124 S 
ATOM     83  O   UNL A   1      42.302  18.770  27.409  1.00  0.00    -0.237 OA
ATOM     84  O   UNL A   1      40.580  19.594  25.837  1.00  0.00    -0.237 OA
ATOM     85  O   UNL A   1      42.857  19.121  25.029  1.00  0.00    -0.744 OA
ENDBRANCH  81  82
ENDBRANCH  53  76
BRANCH  65  86
ATOM     86  C   UNL A   1      49.360  27.051  25.950  1.00  0.00    -0.014 A 
ATOM     87  C   UNL A   1      49.619  27.209  24.578  1.00  0.00     0.010 A 
ATOM     88  C   UNL A   1      50.357  26.508  26.780  1.00  0.00     0.010 A 
ATOM     89  C   UNL A   1      50.845  26.808  24.040  1.00  0.00     0.020 A 
ATOM     90  C   UNL A   1      51.592  26.126  26.250  1.00  0.00     0.020 A 
ATOM     91  C   UNL A   1      51.824  26.267  24.880  1.00  0.00     0.054 A 
BRANCH  91  92
ATOM     92  S   UNL A   1      53.425  25.796  24.169  1.00  0.00     0.124 S 
ATOM     93  O   UNL A   1      53.175  25.942  22.738  1.00  0.00    -0.237 OA
ATOM     94  O   UNL A   1      54.338  26.777  24.751  1.00  0.00    -0.237 OA
ATOM     95  O   UNL A   1      53.617  24.423  24.632  1.00  0.00    -0.744 OA
ENDBRANCH  91  92
ENDBRANCH  65  86
ENDBRANCH  39  40
ENDBRANCH  31  34
ENDBRANCH  29  30
ENDBRANCH  28  29
ENDBRANCH  27  28
ENDBRANCH   1  27
TORSDOF 19
ENDMDL
MODEL 3
REMARK VINA RESULT:      -8.7      2.381      4.103
REMARK SMILES Cc1cs/c(=N\S(=O)(=O)c2ccc(/C=C/C(=O)NCCCCCCNC(=O)c3ccc(-c4c5nc(c(-c6ccc(S(=O)(=O)[O-])cc6)c6ccc([nH]6)c(-c6ccc(S(=O)(=O)[O-])cc6)c6nc(c(-c7ccc(S(=O)(=O)[O-])cc7)c7ccc4[nH]7)C=C6)C=C5)cc3)cc2)[nH]1
REMARK SMILES IDX 21 1 20 2 19 3 18 4 16 5 17 6 15 8 14 9 13 10 10 11 11 12
REMARK SMILES IDX 89 13 12 14 88 15 7 16 8 17 9 18 6 19 1 20 2 21 3 22 90 23
REMARK SMILES IDX 4 24 5 25 22 27 23 28 24 29 25 30 26 31 27 33 28 34 29 35
REMARK SMILES IDX 87 36 30 37 86 38 31 39 32 40 33 41 80 42 34 43 85 44 79 45
REMARK SMILES IDX 81 46 35 47 84 48 78 49 77 50 36 52 66 53 47 54 65 55 48 56
REMARK SMILES IDX 51 57 64 58 82 59 49 60 50 61 63 63 83 64 52 65 37 66 38 67
REMARK SMILES IDX 46 68 39 69 45 70 40 71 41 72 42 73 43 74 44 75 67 76 68 77
REMARK SMILES IDX 76 78 69 79 75 80 70 81 71 82 72 83 73 84 74 85 53 86 54 87
REMARK SMILES IDX 62 88 55 89 61 90 56 91 57 92 58 93 59 94 60 95
REMARK H PARENT 18 7 90 26 25 32 81 51 51 62
REMARK Flexibility Score: inf
ROOT
ATOM      1  C   UNL A   1      42.770  24.120  27.858  1.00  0.00     0.002 C 
ENDROOT
BRANCH   1   2
ATOM      2  C   UNL A   1      42.945  22.595  27.865  1.00  0.00     0.021 C 
BRANCH   2   3
ATOM      3  C   UNL A   1      43.198  21.997  26.480  1.00  0.00     0.116 C 
BRANCH   3   4
ATOM      4  N   UNL A   1      43.027  20.555  26.505  1.00  0.00    -0.353 N 
ATOM      5  C   UNL A   1      41.962  19.783  26.172  1.00  0.00     0.243 C 
ATOM      6  O   UNL A   1      42.066  18.558  26.177  1.00  0.00    -0.270 OA
ATOM      7  H   UNL A   1      43.816  20.054  26.817  1.00  0.00     0.163 HD
BRANCH   5   8
ATOM      8  C   UNL A   1      40.700  20.397  25.710  1.00  0.00     0.072 C 
ATOM      9  C   UNL A   1      40.035  21.352  26.378  1.00  0.00     0.014 C 
BRANCH   9  10
ATOM     10  C   UNL A   1      38.767  21.913  25.897  1.00  0.00    -0.025 A 
ATOM     11  C   UNL A   1      36.327  22.999  25.058  1.00  0.00     0.089 A 
ATOM     12  C   UNL A   1      36.678  21.700  24.678  1.00  0.00     0.023 A 
ATOM     13  C   UNL A   1      37.182  23.763  25.855  1.00  0.00     0.023 A 
ATOM     14  C   UNL A   1      37.894  21.160  25.100  1.00  0.00     0.009 A 
ATOM     15  C   UNL A   1      38.398  23.212  26.277  1.00  0.00     0.009 A 
BRANCH  11  16
ATOM     16  S   UNL A   1      34.735  23.618  24.535  1.00  0.00     0.285 S 
ATOM     17  O   UNL A   1      34.657  23.288  23.121  1.00  0.00    -0.199 OA
ATOM     18  O   UNL A   1      34.695  24.991  24.989  1.00  0.00    -0.199 OA
BRANCH  16  19
ATOM     19  N   UNL A   1      33.652  22.743  25.350  1.00  0.00    -0.130 NA
ATOM     20  C   UNL A   1      29.263  22.639  27.412  1.00  0.00     0.065 C 
ATOM     21  C   UNL A   1      30.382  23.281  26.667  1.00  0.00     0.024 A 
ATOM     22  C   UNL A   1      30.394  24.539  26.196  1.00  0.00     0.089 A 
ATOM     23  N   UNL A   1      31.544  22.586  26.392  1.00  0.00    -0.334 N 
ATOM     24  S   UNL A   1      31.902  24.903  25.384  1.00  0.00    -0.104 S 
ATOM     25  C   UNL A   1      32.522  23.255  25.694  1.00  0.00     0.199 A 
ATOM     26  H   UNL A   1      31.666  21.654  26.683  1.00  0.00     0.169 HD
ENDBRANCH  16  19
ENDBRANCH  11  16
ENDBRANCH   9  10
ENDBRANCH   5   8
ENDBRANCH   3   4
ENDBRANCH   2   3
ENDBRANCH   1   2
BRANCH   1  27
ATOM     27  C   UNL A   1      43.373  24.841  26.646  1.00  0.00     0.002 C 
BRANCH  27  28
ATOM     28  C   UNL A   1      44.777  25.417  26.858  1.00  0.00     0.021 C 
BRANCH  28  29
ATOM     29  C   UNL A   1      44.878  26.932  26.701  1.00  0.00     0.116 C 
BRANCH  29  30
ATOM     30  N   UNL A   1      43.982  27.433  25.671  1.00  0.00    -0.352 N 
ATOM     31  C   UNL A   1      42.841  28.187  25.806  1.00  0.00     0.251 C 
ATOM     32  H   UNL A   1      44.227  27.199  24.747  1.00  0.00     0.163 HD
ATOM     33  O   UNL A   1      42.099  28.351  24.842  1.00  0.00    -0.269 OA
BRANCH  31  34
ATOM     34  C   UNL A   1      42.502  28.786  27.115  1.00  0.00     0.039 A 
ATOM     35  C   UNL A   1      41.640  28.095  27.972  1.00  0.00     0.014 A 
ATOM     36  C   UNL A   1      43.011  30.033  27.487  1.00  0.00     0.014 A 
ATOM     37  C   UNL A   1      41.331  28.631  29.225  1.00  0.00     0.010 A 
ATOM     38  C   UNL A   1      42.748  30.539  28.759  1.00  0.00     0.010 A 
ATOM     39  C   UNL A   1      41.901  29.846  29.637  1.00  0.00    -0.014 A 
BRANCH  39  40
ATOM     40  C   UNL A   1      41.622  30.411  30.982  1.00  0.00     0.031 A 
ATOM     41  C   UNL A   1      42.572  30.160  32.121  1.00  0.00     0.074 A 
ATOM     42  C   UNL A   1      40.481  31.095  31.193  1.00  0.00     0.049 A 
ATOM     43  N   UNL A   1      42.470  30.521  33.374  1.00  0.00    -0.248 NA
ATOM     44  C   UNL A   1      43.781  29.379  31.814  1.00  0.00     0.031 C 
ATOM     45  C   UNL A   1      39.461  31.376  30.181  1.00  0.00     0.029 A 
ATOM     46  N   UNL A   1      39.986  31.673  32.335  1.00  0.00    -0.354 N 
ATOM     47  C   UNL A   1      43.587  29.994  34.011  1.00  0.00     0.074 A 
ATOM     48  C   UNL A   1      44.330  29.254  33.013  1.00  0.00     0.031 C 
ATOM     49  C   UNL A   1      38.474  32.096  30.741  1.00  0.00     0.029 A 
ATOM     50  C   UNL A   1      38.774  32.297  32.155  1.00  0.00     0.049 A 
ATOM     51  H   UNL A   1      40.453  31.645  33.201  1.00  0.00     0.167 HD
ATOM     52  C   UNL A   1      43.967  30.123  35.305  1.00  0.00     0.031 A 
ATOM     53  C   UNL A   1      37.989  32.956  33.029  1.00  0.00     0.031 A 
ATOM     54  C   UNL A   1      43.235  30.871  36.292  1.00  0.00     0.049 A 
ATOM     55  C   UNL A   1      38.433  33.094  34.459  1.00  0.00     0.074 A 
ATOM     56  C   UNL A   1      43.571  31.115  37.612  1.00  0.00     0.029 A 
ATOM     57  N   UNL A   1      42.017  31.496  36.067  1.00  0.00    -0.354 N 
ATOM     58  N   UNL A   1      39.521  32.636  35.030  1.00  0.00    -0.248 NA
ATOM     59  C   UNL A   1      37.545  33.842  35.360  1.00  0.00     0.031 C 
ATOM     60  C   UNL A   1      42.534  31.852  38.197  1.00  0.00     0.029 A 
ATOM     61  C   UNL A   1      41.576  32.106  37.229  1.00  0.00     0.049 A 
ATOM     62  H   UNL A   1      41.537  31.504  35.207  1.00  0.00     0.167 HD
ATOM     63  C   UNL A   1      39.462  33.062  36.352  1.00  0.00     0.074 A 
ATOM     64  C   UNL A   1      38.235  33.820  36.492  1.00  0.00     0.031 C 
ATOM     65  C   UNL A   1      40.347  32.849  37.356  1.00  0.00     0.031 A 
BRANCH  52  66
ATOM     66  C   UNL A   1      45.230  29.419  35.724  1.00  0.00    -0.014 A 
ATOM     67  C   UNL A   1      45.200  28.097  36.206  1.00  0.00     0.010 A 
ATOM     68  C   UNL A   1      46.464  30.086  35.633  1.00  0.00     0.010 A 
ATOM     69  C   UNL A   1      46.372  27.478  36.647  1.00  0.00     0.020 A 
ATOM     70  C   UNL A   1      47.644  29.461  36.048  1.00  0.00     0.020 A 
ATOM     71  C   UNL A   1      47.586  28.169  36.576  1.00  0.00     0.054 A 
BRANCH  71  72
ATOM     72  S   UNL A   1      49.093  27.351  37.168  1.00  0.00     0.124 S 
ATOM     73  O   UNL A   1      49.003  27.566  38.610  1.00  0.00    -0.237 OA
ATOM     74  O   UNL A   1      48.908  25.972  36.726  1.00  0.00    -0.237 OA
ATOM     75  O   UNL A   1      50.167  28.079  36.495  1.00  0.00    -0.744 OA
ENDBRANCH  71  72
ENDBRANCH  52  66
BRANCH  53  76
ATOM     76  C   UNL A   1      36.717  33.565  32.559  1.00  0.00    -0.014 A 
ATOM     77  C   UNL A   1      36.489  34.942  32.726  1.00  0.00     0.010 A 
ATOM     78  C   UNL A   1      35.749  32.783  31.905  1.00  0.00     0.010 A 
ATOM     79  C   UNL A   1      35.314  35.527  32.249  1.00  0.00     0.020 A 
ATOM     80  C   UNL A   1      34.583  33.369  31.407  1.00  0.00     0.020 A 
ATOM     81  C   UNL A   1      34.370  34.738  31.587  1.00  0.00     0.054 A 
BRANCH  81  82
ATOM     82  S   UNL A   1      32.889  35.532  30.901  1.00  0.00     0.124 S 
ATOM     83  O   UNL A   1      31.901  35.280  31.944  1.00  0.00    -0.237 OA
ATOM     84  O   UNL A   1      33.314  36.921  30.754  1.00  0.00    -0.237 OA
ATOM     85  O   UNL A   1      32.673  34.819  29.645  1.00  0.00    -0.744 OA
ENDBRANCH  81  82
ENDBRANCH  53  76
BRANCH  65  86
ATOM     86  C   UNL A   1      40.033  33.461  38.693  1.00  0.00    -0.014 A 
ATOM     87  C   UNL A   1      40.544  34.720  39.053  1.00  0.00     0.010 A 
ATOM     88  C   UNL A   1      39.173  32.788  39.580  1.00  0.00     0.010 A 
ATOM     89  C   UNL A   1      40.221  35.284  40.290  1.00  0.00     0.020 A 
ATOM     90  C   UNL A   1      38.830  33.359  40.808  1.00  0.00     0.020 A 
ATOM     91  C   UNL A   1      39.367  34.600  41.160  1.00  0.00     0.054 A 
BRANCH  91  92
ATOM     92  S   UNL A   1      38.924  35.373  42.740  1.00  0.00     0.124 S 
ATOM     93  O   UNL A   1      39.715  34.596  43.690  1.00  0.00    -0.237 OA
ATOM     94  O   UNL A   1      39.349  36.758  42.552  1.00  0.00    -0.237 OA
ATOM     95  O   UNL A   1      37.479  35.179  42.826  1.00  0.00    -0.744 OA
ENDBRANCH  91  92
ENDBRANCH  65  86
ENDBRANCH  39  40
ENDBRANCH  31  34
ENDBRANCH  29  30
ENDBRANCH  28  29
ENDBRANCH  27  28
ENDBRANCH   1  27
TORSDOF 19
ENDMDL
