MODEL 1
REMARK VINA RESULT:     -10.9      0.000      0.000
REMARK SMILES O=C1[NH+]=C(Nc2ccc(C(=O)NCCCCCCNC(=O)c3ccc(-c4c5nc(c(-c6ccc(S(=O)(=O)[O-])cc6)c6ccc([nH]6)c(-c6ccc(S(=O)(=O)[O-])cc6)c6nc(c(-c7ccc(S(=O)(=O)[O-])cc7)c7ccc4[nH]7)C=C6)C=C5)cc3)c(O)c2)S/C1=C\c1ccncc1
REMARK SMILES IDX 16 1 15 2 14 3 13 4 12 5 10 6 11 7 9 9 6 10 7 11 84 12 8 13
REMARK SMILES IDX 82 14 5 15 1 16 2 17 3 18 86 19 4 20 85 22 87 23 88 25 89 26
REMARK SMILES IDX 93 27 90 28 92 29 91 30 83 31 17 33 18 34 19 35 20 36 21 38
REMARK SMILES IDX 22 39 23 40 81 41 24 42 80 43 25 44 26 45 27 46 74 47 28 48
REMARK SMILES IDX 79 49 73 50 75 51 29 52 78 53 72 54 71 55 30 57 60 58 41 59
REMARK SMILES IDX 59 60 42 61 45 62 58 63 76 64 43 65 44 66 57 68 77 69 46 70
REMARK SMILES IDX 31 71 32 72 40 73 33 74 39 75 34 76 35 77 36 78 37 79 38 80
REMARK SMILES IDX 61 81 62 82 70 83 63 84 69 85 64 86 65 87 66 88 67 89 68 90
REMARK SMILES IDX 47 91 48 92 56 93 49 94 55 95 50 96 51 97 52 98 53 99 54 100
REMARK H PARENT 12 8 3 21 5 24 83 32 19 37 75 56 45 67
REMARK Flexibility Score: inf
ROOT
ATOM      1  C   UNL A   1      32.036  30.323  26.150  1.00  0.00     0.002 C 
ENDROOT
BRANCH   1   2
ATOM      2  C   UNL A   1      32.049  28.879  25.640  1.00  0.00     0.002 C 
BRANCH   2   3
ATOM      3  C   UNL A   1      33.189  28.490  24.693  1.00  0.00     0.021 C 
BRANCH   3   4
ATOM      4  C   UNL A   1      32.835  27.529  23.561  1.00  0.00     0.116 C 
BRANCH   4   5
ATOM      5  N   UNL A   1      31.817  26.552  23.904  1.00  0.00    -0.352 N 
ATOM      6  C   UNL A   1      31.940  25.241  24.300  1.00  0.00     0.255 C 
ATOM      7  O   UNL A   1      30.919  24.589  24.514  1.00  0.00    -0.269 OA
ATOM      8  H   UNL A   1      30.890  26.881  23.844  1.00  0.00     0.163 HD
BRANCH   6   9
ATOM      9  C   UNL A   1      33.262  24.574  24.420  1.00  0.00     0.081 A 
ATOM     10  C   UNL A   1      35.648  23.120  24.862  1.00  0.00     0.129 A 
ATOM     11  C   UNL A   1      34.869  23.560  25.936  1.00  0.00     0.053 A 
ATOM     12  C   UNL A   1      35.252  23.477  23.568  1.00  0.00     0.098 A 
ATOM     13  C   UNL A   1      33.691  24.282  25.721  1.00  0.00     0.022 A 
ATOM     14  C   UNL A   1      34.095  24.232  23.353  1.00  0.00     0.132 A 
BRANCH  10  15
ATOM     15  N   UNL A   1      36.747  22.268  25.027  1.00  0.00    -0.234 N 
ATOM     16  O   UNL A   1      39.869  24.306  27.834  1.00  0.00    -0.240 OA
ATOM     17  C   UNL A   1      39.392  23.465  27.082  1.00  0.00     0.346 C 
ATOM     18  N   UNL A   1      38.173  23.566  26.456  1.00  0.00    -0.199 N 
ATOM     19  C   UNL A   1      40.095  22.202  26.719  1.00  0.00     0.110 C 
ATOM     20  C   UNL A   1      37.877  22.533  25.738  1.00  0.00     0.322 C 
ATOM     21  H   UNL A   1      37.582  24.347  26.546  1.00  0.00     0.316 HD
ATOM     22  S   UNL A   1      39.083  21.263  25.696  1.00  0.00     0.006 SA
ATOM     23  C   UNL A   1      41.329  21.912  27.152  1.00  0.00     0.032 C 
ATOM     24  H   UNL A   1      36.697  21.390  24.584  1.00  0.00     0.313 HD
BRANCH  23  25
ATOM     25  C   UNL A   1      42.087  20.715  26.774  1.00  0.00    -0.021 A 
ATOM     26  C   UNL A   1      43.012  20.755  25.729  1.00  0.00     0.028 A 
ATOM     27  C   UNL A   1      41.894  19.520  27.463  1.00  0.00     0.028 A 
ATOM     28  C   UNL A   1      43.683  19.590  25.400  1.00  0.00     0.111 A 
ATOM     29  C   UNL A   1      42.618  18.410  27.060  1.00  0.00     0.111 A 
ATOM     30  N   UNL A   1      43.508  18.418  26.044  1.00  0.00    -0.265 NA
ENDBRANCH  23  25
ENDBRANCH  10  15
BRANCH  14  31
ATOM     31  O   UNL A   1      33.883  24.613  22.059  1.00  0.00    -0.507 OA
ATOM     32  H   UNL A   1      34.604  24.893  21.530  1.00  0.00     0.293 HD
ENDBRANCH  14  31
ENDBRANCH   6   9
ENDBRANCH   4   5
ENDBRANCH   3   4
ENDBRANCH   2   3
ENDBRANCH   1   2
BRANCH   1  33
ATOM     33  C   UNL A   1      32.888  30.618  27.386  1.00  0.00     0.021 C 
BRANCH  33  34
ATOM     34  C   UNL A   1      33.832  31.810  27.276  1.00  0.00     0.116 C 
BRANCH  34  35
ATOM     35  N   UNL A   1      33.226  33.056  27.715  1.00  0.00    -0.352 N 
ATOM     36  C   UNL A   1      33.549  33.856  28.785  1.00  0.00     0.251 C 
ATOM     37  H   UNL A   1      32.473  33.372  27.166  1.00  0.00     0.163 HD
ATOM     38  O   UNL A   1      32.824  34.803  29.080  1.00  0.00    -0.269 OA
BRANCH  36  39
ATOM     39  C   UNL A   1      34.748  33.558  29.599  1.00  0.00     0.039 A 
ATOM     40  C   UNL A   1      34.633  32.654  30.658  1.00  0.00     0.014 A 
ATOM     41  C   UNL A   1      35.980  34.156  29.318  1.00  0.00     0.014 A 
ATOM     42  C   UNL A   1      35.770  32.290  31.384  1.00  0.00     0.010 A 
ATOM     43  C   UNL A   1      37.124  33.735  29.994  1.00  0.00     0.010 A 
ATOM     44  C   UNL A   1      37.033  32.792  31.029  1.00  0.00    -0.014 A 
BRANCH  44  45
ATOM     45  C   UNL A   1      38.270  32.314  31.703  1.00  0.00     0.031 A 
ATOM     46  C   UNL A   1      38.668  32.863  33.047  1.00  0.00     0.074 A 
ATOM     47  C   UNL A   1      39.070  31.432  31.071  1.00  0.00     0.049 A 
ATOM     48  N   UNL A   1      39.739  32.610  33.754  1.00  0.00    -0.248 NA
ATOM     49  C   UNL A   1      37.755  33.838  33.667  1.00  0.00     0.031 C 
ATOM     50  C   UNL A   1      38.814  30.851  29.750  1.00  0.00     0.029 A 
ATOM     51  N   UNL A   1      40.266  30.872  31.449  1.00  0.00    -0.354 N 
ATOM     52  C   UNL A   1      39.636  33.400  34.894  1.00  0.00     0.074 A 
ATOM     53  C   UNL A   1      38.423  34.176  34.761  1.00  0.00     0.031 C 
ATOM     54  C   UNL A   1      39.806  30.002  29.442  1.00  0.00     0.029 A 
ATOM     55  C   UNL A   1      40.795  30.013  30.515  1.00  0.00     0.049 A 
ATOM     56  H   UNL A   1      40.704  31.069  32.309  1.00  0.00     0.167 HD
ATOM     57  C   UNL A   1      40.469  33.460  35.961  1.00  0.00     0.031 A 
ATOM     58  C   UNL A   1      41.953  29.322  30.510  1.00  0.00     0.031 A 
ATOM     59  C   UNL A   1      41.675  32.685  36.088  1.00  0.00     0.049 A 
ATOM     60  C   UNL A   1      42.879  29.437  31.691  1.00  0.00     0.074 A 
ATOM     61  C   UNL A   1      42.556  32.637  37.155  1.00  0.00     0.029 A 
ATOM     62  N   UNL A   1      42.178  31.832  35.118  1.00  0.00    -0.354 N 
ATOM     63  N   UNL A   1      42.726  30.133  32.792  1.00  0.00    -0.248 NA
ATOM     64  C   UNL A   1      44.129  28.668  31.632  1.00  0.00     0.031 C 
ATOM     65  C   UNL A   1      43.626  31.810  36.802  1.00  0.00     0.029 A 
ATOM     66  C   UNL A   1      43.376  31.283  35.546  1.00  0.00     0.049 A 
ATOM     67  H   UNL A   1      41.747  31.644  34.252  1.00  0.00     0.167 HD
ATOM     68  C   UNL A   1      43.848  29.865  33.567  1.00  0.00     0.074 A 
ATOM     69  C   UNL A   1      44.660  28.928  32.819  1.00  0.00     0.031 C 
ATOM     70  C   UNL A   1      44.177  30.352  34.790  1.00  0.00     0.031 A 
BRANCH  57  71
ATOM     71  C   UNL A   1      40.111  34.408  37.077  1.00  0.00    -0.014 A 
ATOM     72  C   UNL A   1      39.376  33.975  38.196  1.00  0.00     0.010 A 
ATOM     73  C   UNL A   1      40.569  35.739  37.037  1.00  0.00     0.010 A 
ATOM     74  C   UNL A   1      39.075  34.861  39.234  1.00  0.00     0.020 A 
ATOM     75  C   UNL A   1      40.298  36.620  38.087  1.00  0.00     0.020 A 
ATOM     76  C   UNL A   1      39.539  36.178  39.173  1.00  0.00     0.054 A 
BRANCH  76  77
ATOM     77  S   UNL A   1      39.162  37.296  40.552  1.00  0.00     0.124 S 
ATOM     78  O   UNL A   1      38.564  36.382  41.523  1.00  0.00    -0.237 OA
ATOM     79  O   UNL A   1      40.478  37.816  40.909  1.00  0.00    -0.237 OA
ATOM     80  O   UNL A   1      38.244  38.271  39.969  1.00  0.00    -0.744 OA
ENDBRANCH  76  77
ENDBRANCH  57  71
BRANCH  58  81
ATOM     81  C   UNL A   1      42.307  28.468  29.342  1.00  0.00    -0.014 A 
ATOM     82  C   UNL A   1      42.053  27.085  29.360  1.00  0.00     0.010 A 
ATOM     83  C   UNL A   1      42.903  29.036  28.200  1.00  0.00     0.010 A 
ATOM     84  C   UNL A   1      42.406  26.284  28.269  1.00  0.00     0.020 A 
ATOM     85  C   UNL A   1      43.227  28.245  27.094  1.00  0.00     0.020 A 
ATOM     86  C   UNL A   1      42.989  26.871  27.142  1.00  0.00     0.054 A 
BRANCH  86  87
ATOM     87  S   UNL A   1      43.401  25.819  25.723  1.00  0.00     0.124 S 
ATOM     88  O   UNL A   1      44.552  26.512  25.154  1.00  0.00    -0.237 OA
ATOM     89  O   UNL A   1      43.685  24.534  26.357  1.00  0.00    -0.237 OA
ATOM     90  O   UNL A   1      42.186  25.850  24.911  1.00  0.00    -0.744 OA
ENDBRANCH  86  87
ENDBRANCH  58  81
BRANCH  70  91
ATOM     91  C   UNL A   1      45.459  29.864  35.413  1.00  0.00    -0.014 A 
ATOM     92  C   UNL A   1      46.669  30.556  35.234  1.00  0.00     0.010 A 
ATOM     93  C   UNL A   1      45.437  28.728  36.245  1.00  0.00     0.010 A 
ATOM     94  C   UNL A   1      47.838  30.108  35.855  1.00  0.00     0.020 A 
ATOM     95  C   UNL A   1      46.596  28.296  36.893  1.00  0.00     0.020 A 
ATOM     96  C   UNL A   1      47.793  28.983  36.685  1.00  0.00     0.054 A 
BRANCH  96  97
ATOM     97  S   UNL A   1      49.313  28.458  37.523  1.00  0.00     0.124 S 
ATOM     98  O   UNL A   1      49.614  27.199  36.849  1.00  0.00    -0.237 OA
ATOM     99  O   UNL A   1      50.230  29.559  37.237  1.00  0.00    -0.237 OA
ATOM    100  O   UNL A   1      48.914  28.336  38.924  1.00  0.00    -0.744 OA
ENDBRANCH  96  97
ENDBRANCH  70  91
ENDBRANCH  44  45
ENDBRANCH  36  39
ENDBRANCH  34  35
ENDBRANCH  33  34
ENDBRANCH   1  33
TORSDOF 19
ENDMDL
MODEL 2
REMARK VINA RESULT:     -10.7      0.750      7.887
REMARK SMILES O=C1[NH+]=C(Nc2ccc(C(=O)NCCCCCCNC(=O)c3ccc(-c4c5nc(c(-c6ccc(S(=O)(=O)[O-])cc6)c6ccc([nH]6)c(-c6ccc(S(=O)(=O)[O-])cc6)c6nc(c(-c7ccc(S(=O)(=O)[O-])cc7)c7ccc4[nH]7)C=C6)C=C5)cc3)c(O)c2)S/C1=C\c1ccncc1
REMARK SMILES IDX 16 1 15 2 14 3 13 4 12 5 10 6 11 7 9 9 6 10 7 11 84 12 8 13
REMARK SMILES IDX 82 14 5 15 1 16 2 17 3 18 86 19 4 20 85 22 87 23 88 25 89 26
REMARK SMILES IDX 93 27 90 28 92 29 91 30 83 31 17 33 18 34 19 35 20 36 21 38
REMARK SMILES IDX 22 39 23 40 81 41 24 42 80 43 25 44 26 45 27 46 74 47 28 48
REMARK SMILES IDX 79 49 73 50 75 51 29 52 78 53 72 54 71 55 30 57 60 58 41 59
REMARK SMILES IDX 59 60 42 61 45 62 58 63 76 64 43 65 44 66 57 68 77 69 46 70
REMARK SMILES IDX 31 71 32 72 40 73 33 74 39 75 34 76 35 77 36 78 37 79 38 80
REMARK SMILES IDX 61 81 62 82 70 83 63 84 69 85 64 86 65 87 66 88 67 89 68 90
REMARK SMILES IDX 47 91 48 92 56 93 49 94 55 95 50 96 51 97 52 98 53 99 54 100
REMARK H PARENT 12 8 3 21 5 24 83 32 19 37 75 56 45 67
REMARK Flexibility Score: inf
ROOT
ATOM      1  C   UNL A   1      32.699  30.092  26.231  1.00  0.00     0.002 C 
ENDROOT
BRANCH   1   2
ATOM      2  C   UNL A   1      32.486  28.578  26.143  1.00  0.00     0.002 C 
BRANCH   2   3
ATOM      3  C   UNL A   1      33.481  27.787  25.289  1.00  0.00     0.021 C 
BRANCH   3   4
ATOM      4  C   UNL A   1      32.912  27.080  24.061  1.00  0.00     0.116 C 
BRANCH   4   5
ATOM      5  N   UNL A   1      31.927  26.057  24.365  1.00  0.00    -0.352 N 
ATOM      6  C   UNL A   1      32.093  24.733  24.695  1.00  0.00     0.255 C 
ATOM      7  O   UNL A   1      31.096  24.040  24.886  1.00  0.00    -0.269 OA
ATOM      8  H   UNL A   1      30.991  26.360  24.330  1.00  0.00     0.163 HD
BRANCH   6   9
ATOM      9  C   UNL A   1      33.436  24.101  24.769  1.00  0.00     0.081 A 
ATOM     10  C   UNL A   1      35.866  22.690  25.105  1.00  0.00     0.129 A 
ATOM     11  C   UNL A   1      35.062  23.004  26.206  1.00  0.00     0.053 A 
ATOM     12  C   UNL A   1      35.470  23.153  23.845  1.00  0.00     0.098 A 
ATOM     13  C   UNL A   1      33.863  23.704  26.043  1.00  0.00     0.022 A 
ATOM     14  C   UNL A   1      34.290  23.886  23.686  1.00  0.00     0.132 A 
BRANCH  10  15
ATOM     15  N   UNL A   1      36.991  21.864  25.205  1.00  0.00    -0.234 N 
ATOM     16  O   UNL A   1      40.302  24.055  27.657  1.00  0.00    -0.240 OA
ATOM     17  C   UNL A   1      39.779  23.180  26.979  1.00  0.00     0.346 C 
ATOM     18  N   UNL A   1      38.509  23.237  26.458  1.00  0.00    -0.199 N 
ATOM     19  C   UNL A   1      40.473  21.915  26.602  1.00  0.00     0.110 C 
ATOM     20  C   UNL A   1      38.173  22.173  25.806  1.00  0.00     0.322 C 
ATOM     21  H   UNL A   1      37.913  24.011  26.571  1.00  0.00     0.316 HD
ATOM     22  S   UNL A   1      39.395  20.923  25.705  1.00  0.00     0.006 SA
ATOM     23  C   UNL A   1      41.744  21.661  26.937  1.00  0.00     0.032 C 
ATOM     24  H   UNL A   1      36.920  20.969  24.800  1.00  0.00     0.313 HD
BRANCH  23  25
ATOM     25  C   UNL A   1      42.491  20.464  26.538  1.00  0.00    -0.021 A 
ATOM     26  C   UNL A   1      42.168  19.212  27.065  1.00  0.00     0.028 A 
ATOM     27  C   UNL A   1      43.532  20.564  25.618  1.00  0.00     0.028 A 
ATOM     28  C   UNL A   1      42.920  18.119  26.672  1.00  0.00     0.111 A 
ATOM     29  C   UNL A   1      44.222  19.410  25.285  1.00  0.00     0.111 A 
ATOM     30  N   UNL A   1      43.939  18.190  25.790  1.00  0.00    -0.265 NA
ENDBRANCH  23  25
ENDBRANCH  10  15
BRANCH  14  31
ATOM     31  O   UNL A   1      34.078  24.379  22.430  1.00  0.00    -0.507 OA
ATOM     32  H   UNL A   1      33.812  25.270  22.316  1.00  0.00     0.293 HD
ENDBRANCH  14  31
ENDBRANCH   6   9
ENDBRANCH   4   5
ENDBRANCH   3   4
ENDBRANCH   2   3
ENDBRANCH   1   2
BRANCH   1  33
ATOM     33  C   UNL A   1      33.267  30.626  27.547  1.00  0.00     0.021 C 
BRANCH  33  34
ATOM     34  C   UNL A   1      34.055  31.928  27.454  1.00  0.00     0.116 C 
BRANCH  34  35
ATOM     35  N   UNL A   1      33.332  33.069  27.990  1.00  0.00    -0.352 N 
ATOM     36  C   UNL A   1      33.554  33.783  29.143  1.00  0.00     0.251 C 
ATOM     37  H   UNL A   1      32.570  33.374  27.448  1.00  0.00     0.163 HD
ATOM     38  O   UNL A   1      32.743  34.632  29.501  1.00  0.00    -0.269 OA
BRANCH  36  39
ATOM     39  C   UNL A   1      34.752  33.507  29.967  1.00  0.00     0.039 A 
ATOM     40  C   UNL A   1      34.707  32.455  30.886  1.00  0.00     0.014 A 
ATOM     41  C   UNL A   1      35.916  34.270  29.831  1.00  0.00     0.014 A 
ATOM     42  C   UNL A   1      35.854  32.119  31.610  1.00  0.00     0.010 A 
ATOM     43  C   UNL A   1      37.077  33.887  30.500  1.00  0.00     0.010 A 
ATOM     44  C   UNL A   1      37.061  32.803  31.390  1.00  0.00    -0.014 A 
BRANCH  44  45
ATOM     45  C   UNL A   1      38.321  32.374  32.054  1.00  0.00     0.031 A 
ATOM     46  C   UNL A   1      39.311  31.505  31.325  1.00  0.00     0.074 A 
ATOM     47  C   UNL A   1      38.542  32.714  33.340  1.00  0.00     0.049 A 
ATOM     48  N   UNL A   1      40.429  30.986  31.763  1.00  0.00    -0.248 NA
ATOM     49  C   UNL A   1      38.993  31.158  29.930  1.00  0.00     0.031 C 
ATOM     50  C   UNL A   1      37.643  33.523  34.168  1.00  0.00     0.029 A 
ATOM     51  N   UNL A   1      39.586  32.417  34.182  1.00  0.00    -0.354 N 
ATOM     52  C   UNL A   1      40.942  30.243  30.705  1.00  0.00     0.074 A 
ATOM     53  C   UNL A   1      39.990  30.339  29.621  1.00  0.00     0.031 C 
ATOM     54  C   UNL A   1      38.186  33.678  35.385  1.00  0.00     0.029 A 
ATOM     55  C   UNL A   1      39.443  32.940  35.446  1.00  0.00     0.049 A 
ATOM     56  H   UNL A   1      40.363  31.880  33.906  1.00  0.00     0.167 HD
ATOM     57  C   UNL A   1      42.108  29.557  30.639  1.00  0.00     0.031 A 
ATOM     58  C   UNL A   1      40.225  32.827  36.539  1.00  0.00     0.031 A 
ATOM     59  C   UNL A   1      43.053  29.464  31.722  1.00  0.00     0.049 A 
ATOM     60  C   UNL A   1      41.496  32.027  36.449  1.00  0.00     0.074 A 
ATOM     61  C   UNL A   1      44.287  28.836  31.733  1.00  0.00     0.029 A 
ATOM     62  N   UNL A   1      42.868  30.002  32.986  1.00  0.00    -0.354 N 
ATOM     63  N   UNL A   1      41.999  31.393  35.416  1.00  0.00    -0.248 NA
ATOM     64  C   UNL A   1      42.308  31.931  37.670  1.00  0.00     0.031 C 
ATOM     65  C   UNL A   1      44.816  28.936  33.023  1.00  0.00     0.029 A 
ATOM     66  C   UNL A   1      43.947  29.689  33.796  1.00  0.00     0.049 A 
ATOM     67  H   UNL A   1      42.085  30.530  33.267  1.00  0.00     0.167 HD
ATOM     68  C   UNL A   1      43.199  30.847  35.857  1.00  0.00     0.074 A 
ATOM     69  C   UNL A   1      43.356  31.241  37.241  1.00  0.00     0.031 C 
ATOM     70  C   UNL A   1      44.091  30.085  35.175  1.00  0.00     0.031 A 
BRANCH  57  71
ATOM     71  C   UNL A   1      42.427  28.837  29.353  1.00  0.00    -0.014 A 
ATOM     72  C   UNL A   1      42.096  27.482  29.173  1.00  0.00     0.010 A 
ATOM     73  C   UNL A   1      43.012  29.543  28.285  1.00  0.00     0.010 A 
ATOM     74  C   UNL A   1      42.377  26.838  27.965  1.00  0.00     0.020 A 
ATOM     75  C   UNL A   1      43.265  28.912  27.065  1.00  0.00     0.020 A 
ATOM     76  C   UNL A   1      42.959  27.557  26.918  1.00  0.00     0.054 A 
BRANCH  76  77
ATOM     77  S   UNL A   1      43.279  26.702  25.350  1.00  0.00     0.124 S 
ATOM     78  O   UNL A   1      44.740  26.651  25.330  1.00  0.00    -0.237 OA
ATOM     79  O   UNL A   1      42.610  25.419  25.545  1.00  0.00    -0.237 OA
ATOM     80  O   UNL A   1      42.674  27.574  24.347  1.00  0.00    -0.744 OA
ENDBRANCH  76  77
ENDBRANCH  57  71
BRANCH  58  81
ATOM     81  C   UNL A   1      39.822  33.481  37.815  1.00  0.00    -0.014 A 
ATOM     82  C   UNL A   1      40.228  34.795  38.108  1.00  0.00     0.010 A 
ATOM     83  C   UNL A   1      39.026  32.789  38.748  1.00  0.00     0.010 A 
ATOM     84  C   UNL A   1      39.864  35.397  39.317  1.00  0.00     0.020 A 
ATOM     85  C   UNL A   1      38.633  33.399  39.943  1.00  0.00     0.020 A 
ATOM     86  C   UNL A   1      39.066  34.695  40.226  1.00  0.00     0.054 A 
BRANCH  86  87
ATOM     87  S   UNL A   1      38.573  35.511  41.769  1.00  0.00     0.124 S 
ATOM     88  O   UNL A   1      38.891  36.907  41.489  1.00  0.00    -0.237 OA
ATOM     89  O   UNL A   1      37.150  35.190  41.852  1.00  0.00    -0.237 OA
ATOM     90  O   UNL A   1      39.410  34.867  42.778  1.00  0.00    -0.744 OA
ENDBRANCH  86  87
ENDBRANCH  58  81
BRANCH  70  91
ATOM     91  C   UNL A   1      45.334  29.646  35.904  1.00  0.00    -0.014 A 
ATOM     92  C   UNL A   1      45.375  28.432  36.613  1.00  0.00     0.010 A 
ATOM     93  C   UNL A   1      46.500  30.431  35.824  1.00  0.00     0.010 A 
ATOM     94  C   UNL A   1      46.552  28.025  37.249  1.00  0.00     0.020 A 
ATOM     95  C   UNL A   1      47.686  30.011  36.430  1.00  0.00     0.020 A 
ATOM     96  C   UNL A   1      47.701  28.815  37.149  1.00  0.00     0.054 A 
BRANCH  96  97
ATOM     97  S   UNL A   1      49.228  28.233  37.935  1.00  0.00     0.124 S 
ATOM     98  O   UNL A   1      49.053  26.784  37.906  1.00  0.00    -0.237 OA
ATOM     99  O   UNL A   1      50.263  28.759  37.049  1.00  0.00    -0.237 OA
ATOM    100  O   UNL A   1      49.187  28.839  39.265  1.00  0.00    -0.744 OA
ENDBRANCH  96  97
ENDBRANCH  70  91
ENDBRANCH  44  45
ENDBRANCH  36  39
ENDBRANCH  34  35
ENDBRANCH  33  34
ENDBRANCH   1  33
TORSDOF 19
ENDMDL
MODEL 3
REMARK VINA RESULT:     -10.5      6.035     11.282
REMARK SMILES O=C1[NH+]=C(Nc2ccc(C(=O)NCCCCCCNC(=O)c3ccc(-c4c5nc(c(-c6ccc(S(=O)(=O)[O-])cc6)c6ccc([nH]6)c(-c6ccc(S(=O)(=O)[O-])cc6)c6nc(c(-c7ccc(S(=O)(=O)[O-])cc7)c7ccc4[nH]7)C=C6)C=C5)cc3)c(O)c2)S/C1=C\c1ccncc1
REMARK SMILES IDX 16 1 15 2 14 3 13 4 12 5 10 6 11 7 9 9 6 10 7 11 84 12 8 13
REMARK SMILES IDX 82 14 5 15 1 16 2 17 3 18 86 19 4 20 85 22 87 23 88 25 89 26
REMARK SMILES IDX 93 27 90 28 92 29 91 30 83 31 17 33 18 34 19 35 20 36 21 38
REMARK SMILES IDX 22 39 23 40 81 41 24 42 80 43 25 44 26 45 27 46 74 47 28 48
REMARK SMILES IDX 79 49 73 50 75 51 29 52 78 53 72 54 71 55 30 57 60 58 41 59
REMARK SMILES IDX 59 60 42 61 45 62 58 63 76 64 43 65 44 66 57 68 77 69 46 70
REMARK SMILES IDX 31 71 32 72 40 73 33 74 39 75 34 76 35 77 36 78 37 79 38 80
REMARK SMILES IDX 61 81 62 82 70 83 63 84 69 85 64 86 65 87 66 88 67 89 68 90
REMARK SMILES IDX 47 91 48 92 56 93 49 94 55 95 50 96 51 97 52 98 53 99 54 100
REMARK H PARENT 12 8 3 21 5 24 83 32 19 37 75 56 45 67
REMARK Flexibility Score: inf
ROOT
ATOM      1  C   UNL A   1      35.175  31.034  27.826  1.00  0.00     0.002 C 
ENDROOT
BRANCH   1   2
ATOM      2  C   UNL A   1      33.780  31.657  27.726  1.00  0.00     0.002 C 
BRANCH   2   3
ATOM      3  C   UNL A   1      32.652  30.751  27.223  1.00  0.00     0.021 C 
BRANCH   3   4
ATOM      4  C   UNL A   1      32.967  29.883  26.008  1.00  0.00     0.116 C 
BRANCH   4   5
ATOM      5  N   UNL A   1      31.841  29.674  25.115  1.00  0.00    -0.352 N 
ATOM      6  C   UNL A   1      31.319  28.511  24.599  1.00  0.00     0.255 C 
ATOM      7  O   UNL A   1      30.363  28.581  23.829  1.00  0.00    -0.269 OA
ATOM      8  H   UNL A   1      31.376  30.495  24.835  1.00  0.00     0.163 HD
BRANCH   6   9
ATOM      9  C   UNL A   1      31.912  27.181  24.895  1.00  0.00     0.081 A 
ATOM     10  C   UNL A   1      32.755  24.532  25.422  1.00  0.00     0.129 A 
ATOM     11  C   UNL A   1      31.590  25.041  26.004  1.00  0.00     0.053 A 
ATOM     12  C   UNL A   1      33.526  25.389  24.629  1.00  0.00     0.098 A 
ATOM     13  C   UNL A   1      31.173  26.352  25.748  1.00  0.00     0.022 A 
ATOM     14  C   UNL A   1      33.131  26.710  24.403  1.00  0.00     0.132 A 
BRANCH  10  15
ATOM     15  N   UNL A   1      33.124  23.185  25.529  1.00  0.00    -0.234 N 
ATOM     16  O   UNL A   1      31.621  20.870  21.766  1.00  0.00    -0.240 OA
ATOM     17  C   UNL A   1      32.132  21.047  22.864  1.00  0.00     0.346 C 
ATOM     18  N   UNL A   1      32.206  22.255  23.516  1.00  0.00    -0.199 N 
ATOM     19  C   UNL A   1      32.738  19.949  23.670  1.00  0.00     0.110 C 
ATOM     20  C   UNL A   1      32.825  22.191  24.648  1.00  0.00     0.322 C 
ATOM     21  H   UNL A   1      31.827  23.088  23.155  1.00  0.00     0.316 HD
ATOM     22  S   UNL A   1      33.400  20.603  25.114  1.00  0.00     0.006 SA
ATOM     23  C   UNL A   1      32.725  18.670  23.273  1.00  0.00     0.032 C 
ATOM     24  H   UNL A   1      33.653  22.934  26.320  1.00  0.00     0.313 HD
BRANCH  23  25
ATOM     25  C   UNL A   1      33.249  17.547  24.055  1.00  0.00    -0.021 A 
ATOM     26  C   UNL A   1      32.386  16.631  24.658  1.00  0.00     0.028 A 
ATOM     27  C   UNL A   1      34.625  17.379  24.200  1.00  0.00     0.028 A 
ATOM     28  C   UNL A   1      32.935  15.603  25.405  1.00  0.00     0.111 A 
ATOM     29  C   UNL A   1      35.075  16.315  24.964  1.00  0.00     0.111 A 
ATOM     30  N   UNL A   1      34.262  15.423  25.569  1.00  0.00    -0.265 NA
ENDBRANCH  23  25
ENDBRANCH  10  15
BRANCH  14  31
ATOM     31  O   UNL A   1      34.028  27.475  23.713  1.00  0.00    -0.507 OA
ATOM     32  H   UNL A   1      34.785  27.077  23.331  1.00  0.00     0.293 HD
ENDBRANCH  14  31
ENDBRANCH   6   9
ENDBRANCH   4   5
ENDBRANCH   3   4
ENDBRANCH   2   3
ENDBRANCH   1   2
BRANCH   1  33
ATOM     33  C   UNL A   1      36.348  32.006  27.966  1.00  0.00     0.021 C 
BRANCH  33  34
ATOM     34  C   UNL A   1      37.482  31.557  28.881  1.00  0.00     0.116 C 
BRANCH  34  35
ATOM     35  N   UNL A   1      37.076  30.529  29.825  1.00  0.00    -0.352 N 
ATOM     36  C   UNL A   1      37.714  29.365  30.179  1.00  0.00     0.251 C 
ATOM     37  H   UNL A   1      36.216  30.689  30.275  1.00  0.00     0.163 HD
ATOM     38  O   UNL A   1      37.142  28.547  30.893  1.00  0.00    -0.269 OA
BRANCH  36  39
ATOM     39  C   UNL A   1      39.077  29.083  29.675  1.00  0.00     0.039 A 
ATOM     40  C   UNL A   1      39.301  29.105  28.296  1.00  0.00     0.014 A 
ATOM     41  C   UNL A   1      40.131  28.810  30.551  1.00  0.00     0.014 A 
ATOM     42  C   UNL A   1      40.596  28.930  27.802  1.00  0.00     0.010 A 
ATOM     43  C   UNL A   1      41.432  28.710  30.061  1.00  0.00     0.010 A 
ATOM     44  C   UNL A   1      41.680  28.777  28.682  1.00  0.00    -0.014 A 
BRANCH  44  45
ATOM     45  C   UNL A   1      43.079  28.723  28.180  1.00  0.00     0.031 A 
ATOM     46  C   UNL A   1      43.605  27.479  27.516  1.00  0.00     0.074 A 
ATOM     47  C   UNL A   1      43.896  29.777  28.383  1.00  0.00     0.049 A 
ATOM     48  N   UNL A   1      44.810  27.230  27.074  1.00  0.00    -0.248 NA
ATOM     49  C   UNL A   1      42.660  26.362  27.348  1.00  0.00     0.031 C 
ATOM     50  C   UNL A   1      43.517  31.028  29.044  1.00  0.00     0.029 A 
ATOM     51  N   UNL A   1      45.218  29.963  28.060  1.00  0.00    -0.354 N 
ATOM     52  C   UNL A   1      44.774  25.928  26.585  1.00  0.00     0.074 A 
ATOM     53  C   UNL A   1      43.441  25.424  26.830  1.00  0.00     0.031 C 
ATOM     54  C   UNL A   1      44.571  31.858  29.055  1.00  0.00     0.029 A 
ATOM     55  C   UNL A   1      45.715  31.185  28.449  1.00  0.00     0.049 A 
ATOM     56  H   UNL A   1      45.759  29.286  27.593  1.00  0.00     0.167 HD
ATOM     57  C   UNL A   1      45.757  25.225  25.974  1.00  0.00     0.031 A 
ATOM     58  C   UNL A   1      46.956  31.703  28.349  1.00  0.00     0.031 A 
ATOM     59  C   UNL A   1      47.082  25.733  25.732  1.00  0.00     0.049 A 
ATOM     60  C   UNL A   1      48.040  30.886  27.700  1.00  0.00     0.074 A 
ATOM     61  C   UNL A   1      48.131  25.115  25.072  1.00  0.00     0.029 A 
ATOM     62  N   UNL A   1      47.547  26.971  26.147  1.00  0.00    -0.354 N 
ATOM     63  N   UNL A   1      47.964  29.684  27.177  1.00  0.00    -0.248 NA
ATOM     64  C   UNL A   1      49.374  31.495  27.620  1.00  0.00     0.031 C 
ATOM     65  C   UNL A   1      49.249  25.951  25.149  1.00  0.00     0.029 A 
ATOM     66  C   UNL A   1      48.877  27.121  25.792  1.00  0.00     0.049 A 
ATOM     67  H   UNL A   1      47.010  27.645  26.625  1.00  0.00     0.167 HD
ATOM     68  C   UNL A   1      49.234  29.406  26.684  1.00  0.00     0.074 A 
ATOM     69  C   UNL A   1      50.052  30.571  26.952  1.00  0.00     0.031 C 
ATOM     70  C   UNL A   1      49.683  28.285  26.066  1.00  0.00     0.031 A 
BRANCH  57  71
ATOM     71  C   UNL A   1      45.442  23.819  25.530  1.00  0.00    -0.014 A 
ATOM     72  C   UNL A   1      45.106  23.532  24.194  1.00  0.00     0.010 A 
ATOM     73  C   UNL A   1      45.543  22.758  26.450  1.00  0.00     0.010 A 
ATOM     74  C   UNL A   1      44.842  22.220  23.796  1.00  0.00     0.020 A 
ATOM     75  C   UNL A   1      45.311  21.440  26.048  1.00  0.00     0.020 A 
ATOM     76  C   UNL A   1      44.947  21.181  24.725  1.00  0.00     0.054 A 
BRANCH  76  77
ATOM     77  S   UNL A   1      44.632  19.483  24.169  1.00  0.00     0.124 S 
ATOM     78  O   UNL A   1      45.880  18.814  24.527  1.00  0.00    -0.237 OA
ATOM     79  O   UNL A   1      43.465  19.101  24.961  1.00  0.00    -0.237 OA
ATOM     80  O   UNL A   1      44.391  19.625  22.735  1.00  0.00    -0.744 OA
ENDBRANCH  76  77
ENDBRANCH  57  71
BRANCH  58  81
ATOM     81  C   UNL A   1      47.243  33.063  28.884  1.00  0.00    -0.014 A 
ATOM     82  C   UNL A   1      47.803  33.229  30.163  1.00  0.00     0.010 A 
ATOM     83  C   UNL A   1      46.956  34.205  28.112  1.00  0.00     0.010 A 
ATOM     84  C   UNL A   1      48.050  34.509  30.669  1.00  0.00     0.020 A 
ATOM     85  C   UNL A   1      47.233  35.486  28.601  1.00  0.00     0.020 A 
ATOM     86  C   UNL A   1      47.765  35.630  29.882  1.00  0.00     0.054 A 
BRANCH  86  87
ATOM     87  S   UNL A   1      48.134  37.278  30.543  1.00  0.00     0.124 S 
ATOM     88  O   UNL A   1      49.337  37.029  31.329  1.00  0.00    -0.237 OA
ATOM     89  O   UNL A   1      48.323  38.068  29.329  1.00  0.00    -0.237 OA
ATOM     90  O   UNL A   1      46.939  37.612  31.315  1.00  0.00    -0.744 OA
ENDBRANCH  86  87
ENDBRANCH  58  81
BRANCH  70  91
ATOM     91  C   UNL A   1      51.118  28.268  25.609  1.00  0.00    -0.014 A 
ATOM     92  C   UNL A   1      52.151  27.838  26.460  1.00  0.00     0.010 A 
ATOM     93  C   UNL A   1      51.429  28.628  24.284  1.00  0.00     0.010 A 
ATOM     94  C   UNL A   1      53.471  27.792  26.002  1.00  0.00     0.020 A 
ATOM     95  C   UNL A   1      52.741  28.552  23.813  1.00  0.00     0.020 A 
ATOM     96  C   UNL A   1      53.757  28.144  24.679  1.00  0.00     0.054 A 
BRANCH  96  97
ATOM     97  S   UNL A   1      55.469  28.020  24.097  1.00  0.00     0.124 S 
ATOM     98  O   UNL A   1      55.637  29.275  23.371  1.00  0.00    -0.237 OA
ATOM     99  O   UNL A   1      56.223  27.909  25.344  1.00  0.00    -0.237 OA
ATOM    100  O   UNL A   1      55.468  26.816  23.267  1.00  0.00    -0.744 OA
ENDBRANCH  96  97
ENDBRANCH  70  91
ENDBRANCH  44  45
ENDBRANCH  36  39
ENDBRANCH  34  35
ENDBRANCH  33  34
ENDBRANCH   1  33
TORSDOF 19
ENDMDL
