MODEL 1
REMARK VINA RESULT:      -9.4      0.000      0.000
REMARK SMILES CCC[N@@H+](CC1CC[NH2+]CC1)[C@@H](CC)C(=O)NCCCCCCNC(=O)c1ccc(-c2c3nc(c(-c4ccc(S(=O)(=O)[O-])cc4)c4ccc([nH]4)c(-c4ccc(S(=O)(=O)[O-])cc4)c4nc(c(-c5ccc(S(=O)(=O)[O-])cc5)c5ccc2[nH]5)C=C4)C=C3)cc1
REMARK SMILES IDX 20 1 19 2 18 3 17 4 15 5 16 6 12 8 4 9 3 11 2 12 1 13 5 14
REMARK SMILES IDX 6 15 7 16 11 17 8 18 10 19 9 20 13 23 14 24 21 25 22 26
REMARK SMILES IDX 23 27 24 28 25 29 26 31 27 32 28 33 86 34 29 35 85 36 30 37
REMARK SMILES IDX 31 38 32 39 79 40 33 41 84 42 78 43 80 44 34 45 83 46 77 47
REMARK SMILES IDX 76 48 35 50 65 51 46 52 64 53 47 54 50 55 63 56 81 57 48 58
REMARK SMILES IDX 49 59 62 61 82 62 51 63 36 64 37 65 45 66 38 67 44 68 39 69
REMARK SMILES IDX 40 70 41 71 42 72 43 73 66 74 67 75 75 76 68 77 74 78 69 79
REMARK SMILES IDX 70 80 71 81 72 82 73 83 52 84 53 85 61 86 54 87 60 88 55 89
REMARK SMILES IDX 56 90 57 91 58 92 59 93
REMARK H PARENT 17 7 4 10 9 21 9 22 24 30 80 49 50 60
REMARK Flexibility Score: inf
ROOT
ATOM      1  C   UNL A   1      34.130  21.996  24.011  1.00  0.00     0.002 C 
ENDROOT
BRANCH   1   2
ATOM      2  C   UNL A   1      34.070  23.182  23.042  1.00  0.00     0.021 C 
BRANCH   2   3
ATOM      3  C   UNL A   1      32.941  23.176  21.982  1.00  0.00     0.116 C 
BRANCH   3   4
ATOM      4  N   UNL A   1      32.418  24.543  21.704  1.00  0.00    -0.351 N 
ATOM      5  C   UNL A   1      32.827  25.709  22.303  1.00  0.00     0.278 C 
ATOM      6  O   UNL A   1      33.747  26.294  21.701  1.00  0.00    -0.268 OA
ATOM      7  H   UNL A   1      31.709  24.618  21.025  1.00  0.00     0.163 HD
BRANCH   5   8
ATOM      8  C   UNL A   1      32.107  26.489  23.502  1.00  0.00     0.273 C 
BRANCH   8   9
ATOM      9  N   UNL A   1      32.007  27.982  23.533  1.00  0.00    -0.324 N 
ATOM     10  H   UNL A   1      32.190  28.111  22.538  1.00  0.00     0.348 HD
BRANCH   9  11
ATOM     11  C   UNL A   1      30.732  28.687  23.647  1.00  0.00     0.262 C 
BRANCH  11  12
ATOM     12  C   UNL A   1      29.681  28.526  22.585  1.00  0.00     0.058 C 
ATOM     13  C   UNL A   1      28.347  28.027  23.101  1.00  0.00     0.010 C 
ENDBRANCH  11  12
ENDBRANCH   9  11
BRANCH   9  14
ATOM     14  C   UNL A   1      33.043  28.633  24.414  1.00  0.00     0.266 C 
BRANCH  14  15
ATOM     15  C   UNL A   1      32.865  28.475  25.960  1.00  0.00     0.055 C 
ATOM     16  C   UNL A   1      31.950  29.545  26.598  1.00  0.00     0.071 C 
ATOM     17  C   UNL A   1      34.182  28.336  26.738  1.00  0.00     0.071 C 
ATOM     18  C   UNL A   1      32.679  30.796  27.065  1.00  0.00     0.261 C 
ATOM     19  C   UNL A   1      34.788  29.661  27.177  1.00  0.00     0.261 C 
ATOM     20  N   UNL A   1      33.814  30.457  27.914  1.00  0.00    -0.346 N 
ATOM     21  H   UNL A   1      33.483  29.922  28.718  1.00  0.00     0.346 HD
ATOM     22  H   UNL A   1      34.261  31.320  28.225  1.00  0.00     0.346 HD
ENDBRANCH  14  15
ENDBRANCH   9  14
ENDBRANCH   8   9
BRANCH   8  23
ATOM     23  C   UNL A   1      31.132  25.615  24.347  1.00  0.00     0.072 C 
ATOM     24  C   UNL A   1      31.287  25.507  25.858  1.00  0.00     0.011 C 
ENDBRANCH   8  23
ENDBRANCH   5   8
ENDBRANCH   3   4
ENDBRANCH   2   3
ENDBRANCH   1   2
BRANCH   1  25
ATOM     25  C   UNL A   1      34.617  22.276  25.436  1.00  0.00     0.002 C 
BRANCH  25  26
ATOM     26  C   UNL A   1      34.925  23.732  25.808  1.00  0.00     0.021 C 
BRANCH  26  27
ATOM     27  C   UNL A   1      36.372  24.194  25.705  1.00  0.00     0.116 C 
BRANCH  27  28
ATOM     28  N   UNL A   1      37.322  23.100  25.759  1.00  0.00    -0.352 N 
ATOM     29  C   UNL A   1      38.619  23.092  26.202  1.00  0.00     0.251 C 
ATOM     30  H   UNL A   1      36.987  22.235  25.428  1.00  0.00     0.163 HD
ATOM     31  O   UNL A   1      39.326  22.103  26.013  1.00  0.00    -0.269 OA
BRANCH  29  32
ATOM     32  C   UNL A   1      39.168  24.274  26.895  1.00  0.00     0.039 A 
ATOM     33  C   UNL A   1      39.971  25.166  26.182  1.00  0.00     0.014 A 
ATOM     34  C   UNL A   1      38.897  24.493  28.250  1.00  0.00     0.014 A 
ATOM     35  C   UNL A   1      40.464  26.308  26.815  1.00  0.00     0.010 A 
ATOM     36  C   UNL A   1      39.327  25.666  28.858  1.00  0.00     0.010 A 
ATOM     37  C   UNL A   1      40.123  26.579  28.150  1.00  0.00    -0.014 A 
BRANCH  37  38
ATOM     38  C   UNL A   1      40.605  27.802  28.836  1.00  0.00     0.031 A 
ATOM     39  C   UNL A   1      41.998  27.835  29.406  1.00  0.00     0.074 A 
ATOM     40  C   UNL A   1      39.772  28.848  28.997  1.00  0.00     0.049 A 
ATOM     41  N   UNL A   1      42.578  28.773  30.108  1.00  0.00    -0.248 NA
ATOM     42  C   UNL A   1      42.837  26.646  29.181  1.00  0.00     0.031 C 
ATOM     43  C   UNL A   1      38.391  28.915  28.512  1.00  0.00     0.029 A 
ATOM     44  N   UNL A   1      39.962  30.055  29.619  1.00  0.00    -0.354 N 
ATOM     45  C   UNL A   1      43.842  28.283  30.418  1.00  0.00     0.074 A 
ATOM     46  C   UNL A   1      43.922  26.943  29.880  1.00  0.00     0.031 C 
ATOM     47  C   UNL A   1      37.870  30.110  28.830  1.00  0.00     0.029 A 
ATOM     48  C   UNL A   1      38.860  30.877  29.579  1.00  0.00     0.049 A 
ATOM     49  H   UNL A   1      40.808  30.311  30.054  1.00  0.00     0.167 HD
ATOM     50  C   UNL A   1      44.854  28.902  31.071  1.00  0.00     0.031 A 
ATOM     51  C   UNL A   1      38.667  32.106  30.096  1.00  0.00     0.031 A 
ATOM     52  C   UNL A   1      44.764  30.239  31.593  1.00  0.00     0.049 A 
ATOM     53  C   UNL A   1      39.797  32.763  30.844  1.00  0.00     0.074 A 
ATOM     54  C   UNL A   1      45.741  30.978  32.237  1.00  0.00     0.029 A 
ATOM     55  N   UNL A   1      43.633  31.039  31.530  1.00  0.00    -0.354 N 
ATOM     56  N   UNL A   1      41.004  32.304  31.080  1.00  0.00    -0.248 NA
ATOM     57  C   UNL A   1      39.544  34.105  31.384  1.00  0.00     0.031 C 
ATOM     58  C   UNL A   1      45.183  32.205  32.608  1.00  0.00     0.029 A 
ATOM     59  C   UNL A   1      43.880  32.255  32.139  1.00  0.00     0.049 A 
ATOM     60  H   UNL A   1      42.780  30.778  31.112  1.00  0.00     0.167 HD
ATOM     61  C   UNL A   1      41.665  33.316  31.768  1.00  0.00     0.074 A 
ATOM     62  C   UNL A   1      40.728  34.414  31.897  1.00  0.00     0.031 C 
ATOM     63  C   UNL A   1      42.933  33.337  32.247  1.00  0.00     0.031 A 
BRANCH  50  64
ATOM     64  C   UNL A   1      46.140  28.139  31.253  1.00  0.00    -0.014 A 
ATOM     65  C   UNL A   1      46.317  27.266  32.342  1.00  0.00     0.010 A 
ATOM     66  C   UNL A   1      47.171  28.264  30.304  1.00  0.00     0.010 A 
ATOM     67  C   UNL A   1      47.513  26.563  32.501  1.00  0.00     0.020 A 
ATOM     68  C   UNL A   1      48.358  27.539  30.442  1.00  0.00     0.020 A 
ATOM     69  C   UNL A   1      48.528  26.705  31.550  1.00  0.00     0.054 A 
BRANCH  69  70
ATOM     70  S   UNL A   1      50.059  25.756  31.766  1.00  0.00     0.124 S 
ATOM     71  O   UNL A   1      51.040  26.816  31.990  1.00  0.00    -0.237 OA
ATOM     72  O   UNL A   1      49.757  24.925  32.929  1.00  0.00    -0.237 OA
ATOM     73  O   UNL A   1      50.200  25.032  30.506  1.00  0.00    -0.744 OA
ENDBRANCH  69  70
ENDBRANCH  50  64
BRANCH  51  74
ATOM     74  C   UNL A   1      37.363  32.802  29.915  1.00  0.00    -0.014 A 
ATOM     75  C   UNL A   1      37.088  33.508  28.731  1.00  0.00     0.010 A 
ATOM     76  C   UNL A   1      36.386  32.761  30.927  1.00  0.00     0.010 A 
ATOM     77  C   UNL A   1      35.876  34.185  28.573  1.00  0.00     0.020 A 
ATOM     78  C   UNL A   1      35.159  33.412  30.760  1.00  0.00     0.020 A 
ATOM     79  C   UNL A   1      34.918  34.133  29.589  1.00  0.00     0.054 A 
BRANCH  79  80
ATOM     80  S   UNL A   1      33.340  34.995  29.349  1.00  0.00     0.124 S 
ATOM     81  O   UNL A   1      32.763  34.947  30.689  1.00  0.00    -0.237 OA
ATOM     82  O   UNL A   1      33.767  36.314  28.890  1.00  0.00    -0.237 OA
ATOM     83  O   UNL A   1      32.657  34.184  28.343  1.00  0.00    -0.744 OA
ENDBRANCH  79  80
ENDBRANCH  51  74
BRANCH  63  84
ATOM     84  C   UNL A   1      43.400  34.602  32.917  1.00  0.00    -0.014 A 
ATOM     85  C   UNL A   1      43.315  34.767  34.309  1.00  0.00     0.010 A 
ATOM     86  C   UNL A   1      44.003  35.610  32.140  1.00  0.00     0.010 A 
ATOM     87  C   UNL A   1      43.801  35.929  34.912  1.00  0.00     0.020 A 
ATOM     88  C   UNL A   1      44.518  36.759  32.743  1.00  0.00     0.020 A 
ATOM     89  C   UNL A   1      44.404  36.915  34.126  1.00  0.00     0.054 A 
BRANCH  89  90
ATOM     90  S   UNL A   1      45.082  38.386  34.940  1.00  0.00     0.124 S 
ATOM     91  O   UNL A   1      44.101  38.630  35.994  1.00  0.00    -0.237 OA
ATOM     92  O   UNL A   1      46.391  37.923  35.397  1.00  0.00    -0.237 OA
ATOM     93  O   UNL A   1      45.118  39.388  33.877  1.00  0.00    -0.744 OA
ENDBRANCH  89  90
ENDBRANCH  63  84
ENDBRANCH  37  38
ENDBRANCH  29  32
ENDBRANCH  27  28
ENDBRANCH  26  27
ENDBRANCH  25  26
ENDBRANCH   1  25
TORSDOF 22
ENDMDL
MODEL 2
REMARK VINA RESULT:      -9.0      0.931      8.283
REMARK SMILES CCC[N@@H+](CC1CC[NH2+]CC1)[C@@H](CC)C(=O)NCCCCCCNC(=O)c1ccc(-c2c3nc(c(-c4ccc(S(=O)(=O)[O-])cc4)c4ccc([nH]4)c(-c4ccc(S(=O)(=O)[O-])cc4)c4nc(c(-c5ccc(S(=O)(=O)[O-])cc5)c5ccc2[nH]5)C=C4)C=C3)cc1
REMARK SMILES IDX 20 1 19 2 18 3 17 4 15 5 16 6 12 8 4 9 3 11 2 12 1 13 5 14
REMARK SMILES IDX 6 15 7 16 11 17 8 18 10 19 9 20 13 23 14 24 21 25 22 26
REMARK SMILES IDX 23 27 24 28 25 29 26 31 27 32 28 33 86 34 29 35 85 36 30 37
REMARK SMILES IDX 31 38 32 39 79 40 33 41 84 42 78 43 80 44 34 45 83 46 77 47
REMARK SMILES IDX 76 48 35 50 65 51 46 52 64 53 47 54 50 55 63 56 81 57 48 58
REMARK SMILES IDX 49 59 62 61 82 62 51 63 36 64 37 65 45 66 38 67 44 68 39 69
REMARK SMILES IDX 40 70 41 71 42 72 43 73 66 74 67 75 75 76 68 77 74 78 69 79
REMARK SMILES IDX 70 80 71 81 72 82 73 83 52 84 53 85 61 86 54 87 60 88 55 89
REMARK SMILES IDX 56 90 57 91 58 92 59 93
REMARK H PARENT 17 7 4 10 9 21 9 22 24 30 80 49 50 60
REMARK Flexibility Score: inf
ROOT
ATOM      1  C   UNL A   1      34.157  21.347  24.474  1.00  0.00     0.002 C 
ENDROOT
BRANCH   1   2
ATOM      2  C   UNL A   1      33.564  22.188  23.339  1.00  0.00     0.021 C 
BRANCH   2   3
ATOM      3  C   UNL A   1      32.158  21.795  22.823  1.00  0.00     0.116 C 
BRANCH   3   4
ATOM      4  N   UNL A   1      31.210  22.945  22.830  1.00  0.00    -0.351 N 
ATOM      5  C   UNL A   1      31.493  24.231  23.223  1.00  0.00     0.278 C 
ATOM      6  O   UNL A   1      31.873  24.972  22.297  1.00  0.00    -0.268 OA
ATOM      7  H   UNL A   1      30.292  22.765  22.525  1.00  0.00     0.163 HD
BRANCH   5   8
ATOM      8  C   UNL A   1      31.158  24.910  24.633  1.00  0.00     0.273 C 
BRANCH   8   9
ATOM      9  N   UNL A   1      30.867  26.373  24.762  1.00  0.00    -0.324 N 
ATOM     10  H   UNL A   1      31.680  26.679  24.227  1.00  0.00     0.348 HD
BRANCH   9  11
ATOM     11  C   UNL A   1      29.806  27.039  24.009  1.00  0.00     0.262 C 
BRANCH  11  12
ATOM     12  C   UNL A   1      30.148  28.079  22.979  1.00  0.00     0.058 C 
ATOM     13  C   UNL A   1      30.077  29.504  23.487  1.00  0.00     0.010 C 
ENDBRANCH  11  12
ENDBRANCH   9  11
BRANCH   9  14
ATOM     14  C   UNL A   1      30.880  26.862  26.188  1.00  0.00     0.266 C 
BRANCH  14  15
ATOM     15  C   UNL A   1      32.227  27.441  26.731  1.00  0.00     0.055 C 
ATOM     16  C   UNL A   1      32.097  28.844  27.366  1.00  0.00     0.071 C 
ATOM     17  C   UNL A   1      33.388  27.394  25.725  1.00  0.00     0.071 C 
ATOM     18  C   UNL A   1      32.289  29.996  26.390  1.00  0.00     0.261 C 
ATOM     19  C   UNL A   1      33.488  28.622  24.833  1.00  0.00     0.261 C 
ATOM     20  N   UNL A   1      33.524  29.842  25.632  1.00  0.00    -0.346 N 
ATOM     21  H   UNL A   1      34.311  29.795  26.280  1.00  0.00     0.346 HD
ATOM     22  H   UNL A   1      33.628  30.642  25.008  1.00  0.00     0.346 HD
ENDBRANCH  14  15
ENDBRANCH   9  14
ENDBRANCH   8   9
BRANCH   8  23
ATOM     23  C   UNL A   1      30.691  23.913  25.737  1.00  0.00     0.072 C 
ATOM     24  C   UNL A   1      31.698  23.242  26.662  1.00  0.00     0.011 C 
ENDBRANCH   8  23
ENDBRANCH   5   8
ENDBRANCH   3   4
ENDBRANCH   2   3
ENDBRANCH   1   2
BRANCH   1  25
ATOM     25  C   UNL A   1      34.966  22.082  25.547  1.00  0.00     0.002 C 
BRANCH  25  26
ATOM     26  C   UNL A   1      35.204  23.586  25.351  1.00  0.00     0.021 C 
BRANCH  26  27
ATOM     27  C   UNL A   1      36.570  24.138  25.731  1.00  0.00     0.116 C 
BRANCH  27  28
ATOM     28  N   UNL A   1      37.606  23.124  25.755  1.00  0.00    -0.352 N 
ATOM     29  C   UNL A   1      38.896  23.205  26.209  1.00  0.00     0.251 C 
ATOM     30  H   UNL A   1      37.344  22.247  25.390  1.00  0.00     0.163 HD
ATOM     31  O   UNL A   1      39.682  22.284  25.990  1.00  0.00    -0.269 OA
BRANCH  29  32
ATOM     32  C   UNL A   1      39.343  24.401  26.948  1.00  0.00     0.039 A 
ATOM     33  C   UNL A   1      38.949  24.564  28.278  1.00  0.00     0.014 A 
ATOM     34  C   UNL A   1      40.142  25.365  26.324  1.00  0.00     0.014 A 
ATOM     35  C   UNL A   1      39.398  25.671  28.999  1.00  0.00     0.010 A 
ATOM     36  C   UNL A   1      40.647  26.426  27.064  1.00  0.00     0.010 A 
ATOM     37  C   UNL A   1      40.271  26.596  28.405  1.00  0.00    -0.014 A 
BRANCH  37  38
ATOM     38  C   UNL A   1      40.789  27.762  29.160  1.00  0.00     0.031 A 
ATOM     39  C   UNL A   1      39.923  28.981  29.334  1.00  0.00     0.074 A 
ATOM     40  C   UNL A   1      42.052  27.744  29.629  1.00  0.00     0.049 A 
ATOM     41  N   UNL A   1      40.216  30.127  29.888  1.00  0.00    -0.248 NA
ATOM     42  C   UNL A   1      38.557  28.908  28.788  1.00  0.00     0.031 C 
ATOM     43  C   UNL A   1      42.991  26.629  29.493  1.00  0.00     0.029 A 
ATOM     44  N   UNL A   1      42.766  28.696  30.312  1.00  0.00    -0.354 N 
ATOM     45  C   UNL A   1      39.079  30.916  29.747  1.00  0.00     0.074 A 
ATOM     46  C   UNL A   1      38.113  30.138  29.002  1.00  0.00     0.031 C 
ATOM     47  C   UNL A   1      44.147  26.949  30.098  1.00  0.00     0.029 A 
ATOM     48  C   UNL A   1      44.048  28.307  30.624  1.00  0.00     0.049 A 
ATOM     49  H   UNL A   1      42.397  29.575  30.555  1.00  0.00     0.167 HD
ATOM     50  C   UNL A   1      38.852  32.165  30.215  1.00  0.00     0.031 A 
ATOM     51  C   UNL A   1      45.033  28.973  31.255  1.00  0.00     0.031 A 
ATOM     52  C   UNL A   1      39.818  32.925  30.962  1.00  0.00     0.049 A 
ATOM     53  C   UNL A   1      44.766  30.373  31.741  1.00  0.00     0.074 A 
ATOM     54  C   UNL A   1      39.679  34.184  31.517  1.00  0.00     0.029 A 
ATOM     55  N   UNL A   1      41.103  32.494  31.259  1.00  0.00    -0.354 N 
ATOM     56  N   UNL A   1      43.666  31.082  31.645  1.00  0.00    -0.248 NA
ATOM     57  C   UNL A   1      45.868  31.058  32.430  1.00  0.00     0.031 C 
ATOM     58  C   UNL A   1      40.897  34.536  32.106  1.00  0.00     0.029 A 
ATOM     59  C   UNL A   1      41.773  33.470  31.973  1.00  0.00     0.049 A 
ATOM     60  H   UNL A   1      41.480  31.623  31.000  1.00  0.00     0.167 HD
ATOM     61  C   UNL A   1      43.933  32.284  32.290  1.00  0.00     0.074 A 
ATOM     62  C   UNL A   1      45.293  32.200  32.783  1.00  0.00     0.031 C 
ATOM     63  C   UNL A   1      43.126  33.359  32.462  1.00  0.00     0.031 A 
BRANCH  50  64
ATOM     64  C   UNL A   1      37.507  32.784  29.933  1.00  0.00    -0.014 A 
ATOM     65  C   UNL A   1      36.450  32.672  30.855  1.00  0.00     0.010 A 
ATOM     66  C   UNL A   1      37.307  33.520  28.751  1.00  0.00     0.010 A 
ATOM     67  C   UNL A   1      35.208  33.250  30.583  1.00  0.00     0.020 A 
ATOM     68  C   UNL A   1      36.075  34.127  28.490  1.00  0.00     0.020 A 
ATOM     69  C   UNL A   1      35.028  33.973  29.400  1.00  0.00     0.054 A 
BRANCH  69  70
ATOM     70  S   UNL A   1      33.413  34.739  29.090  1.00  0.00     0.124 S 
ATOM     71  O   UNL A   1      32.831  33.825  28.109  1.00  0.00    -0.237 OA
ATOM     72  O   UNL A   1      32.791  34.719  30.411  1.00  0.00    -0.237 OA
ATOM     73  O   UNL A   1      33.748  36.066  28.582  1.00  0.00    -0.744 OA
ENDBRANCH  69  70
ENDBRANCH  50  64
BRANCH  51  74
ATOM     74  C   UNL A   1      46.356  28.325  31.478  1.00  0.00    -0.014 A 
ATOM     75  C   UNL A   1      46.604  27.592  32.652  1.00  0.00     0.010 A 
ATOM     76  C   UNL A   1      47.376  28.436  30.516  1.00  0.00     0.010 A 
ATOM     77  C   UNL A   1      47.854  27.009  32.873  1.00  0.00     0.020 A 
ATOM     78  C   UNL A   1      48.619  27.828  30.720  1.00  0.00     0.020 A 
ATOM     79  C   UNL A   1      48.855  27.131  31.906  1.00  0.00     0.054 A 
BRANCH  79  80
ATOM     80  S   UNL A   1      50.460  26.339  32.202  1.00  0.00     0.124 S 
ATOM     81  O   UNL A   1      50.345  25.116  31.413  1.00  0.00    -0.237 OA
ATOM     82  O   UNL A   1      51.401  27.334  31.694  1.00  0.00    -0.237 OA
ATOM     83  O   UNL A   1      50.486  26.150  33.651  1.00  0.00    -0.744 OA
ENDBRANCH  79  80
ENDBRANCH  51  74
BRANCH  63  84
ATOM     84  C   UNL A   1      43.672  34.517  33.254  1.00  0.00    -0.014 A 
ATOM     85  C   UNL A   1      43.570  34.559  34.654  1.00  0.00     0.010 A 
ATOM     86  C   UNL A   1      44.364  35.545  32.584  1.00  0.00     0.010 A 
ATOM     87  C   UNL A   1      44.128  35.620  35.370  1.00  0.00     0.020 A 
ATOM     88  C   UNL A   1      44.950  36.590  33.299  1.00  0.00     0.020 A 
ATOM     89  C   UNL A   1      44.819  36.627  34.688  1.00  0.00     0.054 A 
BRANCH  89  90
ATOM     90  S   UNL A   1      45.587  37.959  35.647  1.00  0.00     0.124 S 
ATOM     91  O   UNL A   1      45.169  39.147  34.907  1.00  0.00    -0.237 OA
ATOM     92  O   UNL A   1      44.980  37.796  36.966  1.00  0.00    -0.237 OA
ATOM     93  O   UNL A   1      47.015  37.656  35.582  1.00  0.00    -0.744 OA
ENDBRANCH  89  90
ENDBRANCH  63  84
ENDBRANCH  37  38
ENDBRANCH  29  32
ENDBRANCH  27  28
ENDBRANCH  26  27
ENDBRANCH  25  26
ENDBRANCH   1  25
TORSDOF 22
ENDMDL
MODEL 3
REMARK VINA RESULT:      -8.9      2.581      3.604
REMARK SMILES CCC[N@@H+](CC1CC[NH2+]CC1)[C@@H](CC)C(=O)NCCCCCCNC(=O)c1ccc(-c2c3nc(c(-c4ccc(S(=O)(=O)[O-])cc4)c4ccc([nH]4)c(-c4ccc(S(=O)(=O)[O-])cc4)c4nc(c(-c5ccc(S(=O)(=O)[O-])cc5)c5ccc2[nH]5)C=C4)C=C3)cc1
REMARK SMILES IDX 20 1 19 2 18 3 17 4 15 5 16 6 12 8 4 9 3 11 2 12 1 13 5 14
REMARK SMILES IDX 6 15 7 16 11 17 8 18 10 19 9 20 13 23 14 24 21 25 22 26
REMARK SMILES IDX 23 27 24 28 25 29 26 31 27 32 28 33 86 34 29 35 85 36 30 37
REMARK SMILES IDX 31 38 32 39 79 40 33 41 84 42 78 43 80 44 34 45 83 46 77 47
REMARK SMILES IDX 76 48 35 50 65 51 46 52 64 53 47 54 50 55 63 56 81 57 48 58
REMARK SMILES IDX 49 59 62 61 82 62 51 63 36 64 37 65 45 66 38 67 44 68 39 69
REMARK SMILES IDX 40 70 41 71 42 72 43 73 66 74 67 75 75 76 68 77 74 78 69 79
REMARK SMILES IDX 70 80 71 81 72 82 73 83 52 84 53 85 61 86 54 87 60 88 55 89
REMARK SMILES IDX 56 90 57 91 58 92 59 93
REMARK H PARENT 17 7 4 10 9 21 9 22 24 30 80 49 50 60
REMARK Flexibility Score: inf
ROOT
ATOM      1  C   UNL A   1      34.145  20.341  25.020  1.00  0.00     0.002 C 
ENDROOT
BRANCH   1   2
ATOM      2  C   UNL A   1      33.009  21.125  24.355  1.00  0.00     0.021 C 
BRANCH   2   3
ATOM      3  C   UNL A   1      31.869  21.637  25.270  1.00  0.00     0.116 C 
BRANCH   3   4
ATOM      4  N   UNL A   1      32.303  22.765  26.140  1.00  0.00    -0.351 N 
ATOM      5  C   UNL A   1      31.814  24.049  26.114  1.00  0.00     0.278 C 
ATOM      6  O   UNL A   1      30.861  24.245  26.892  1.00  0.00    -0.268 OA
ATOM      7  H   UNL A   1      33.009  22.572  26.798  1.00  0.00     0.163 HD
BRANCH   5   8
ATOM      8  C   UNL A   1      32.474  25.323  25.405  1.00  0.00     0.273 C 
BRANCH   8   9
ATOM      9  N   UNL A   1      32.421  26.689  26.016  1.00  0.00    -0.324 N 
ATOM     10  H   UNL A   1      32.225  26.363  26.962  1.00  0.00     0.348 HD
BRANCH   9  11
ATOM     11  C   UNL A   1      33.618  27.489  26.270  1.00  0.00     0.262 C 
BRANCH  11  12
ATOM     12  C   UNL A   1      33.553  28.678  27.187  1.00  0.00     0.058 C 
ATOM     13  C   UNL A   1      34.886  29.360  27.417  1.00  0.00     0.010 C 
ENDBRANCH  11  12
ENDBRANCH   9  11
BRANCH   9  14
ATOM     14  C   UNL A   1      31.326  27.556  25.450  1.00  0.00     0.266 C 
BRANCH  14  15
ATOM     15  C   UNL A   1      31.006  27.397  23.928  1.00  0.00     0.055 C 
ATOM     16  C   UNL A   1      31.259  28.676  23.097  1.00  0.00     0.071 C 
ATOM     17  C   UNL A   1      29.618  26.808  23.631  1.00  0.00     0.071 C 
ATOM     18  C   UNL A   1      30.058  29.605  22.993  1.00  0.00     0.261 C 
ATOM     19  C   UNL A   1      28.513  27.848  23.517  1.00  0.00     0.261 C 
ATOM     20  N   UNL A   1      28.871  28.882  22.554  1.00  0.00    -0.346 N 
ATOM     21  H   UNL A   1      29.058  28.447  21.650  1.00  0.00     0.346 HD
ATOM     22  H   UNL A   1      28.096  29.541  22.474  1.00  0.00     0.346 HD
ENDBRANCH  14  15
ENDBRANCH   9  14
ENDBRANCH   8   9
BRANCH   8  23
ATOM     23  C   UNL A   1      33.549  24.981  24.330  1.00  0.00     0.072 C 
ATOM     24  C   UNL A   1      33.145  24.579  22.918  1.00  0.00     0.011 C 
ENDBRANCH   8  23
ENDBRANCH   5   8
ENDBRANCH   3   4
ENDBRANCH   2   3
ENDBRANCH   1   2
BRANCH   1  25
ATOM     25  C   UNL A   1      35.538  20.979  25.014  1.00  0.00     0.002 C 
BRANCH  25  26
ATOM     26  C   UNL A   1      35.639  22.468  25.371  1.00  0.00     0.021 C 
BRANCH  26  27
ATOM     27  C   UNL A   1      37.005  23.004  25.777  1.00  0.00     0.116 C 
BRANCH  27  28
ATOM     28  N   UNL A   1      37.973  21.955  26.031  1.00  0.00    -0.352 N 
ATOM     29  C   UNL A   1      39.278  22.053  26.434  1.00  0.00     0.251 C 
ATOM     30  H   UNL A   1      37.644  21.037  25.892  1.00  0.00     0.163 HD
ATOM     31  O   UNL A   1      39.997  21.054  26.434  1.00  0.00    -0.269 OA
BRANCH  29  32
ATOM     32  C   UNL A   1      39.824  23.358  26.856  1.00  0.00     0.039 A 
ATOM     33  C   UNL A   1      40.612  23.424  28.007  1.00  0.00     0.014 A 
ATOM     34  C   UNL A   1      39.547  24.515  26.121  1.00  0.00     0.014 A 
ATOM     35  C   UNL A   1      41.166  24.645  28.394  1.00  0.00     0.010 A 
ATOM     36  C   UNL A   1      40.158  25.714  26.466  1.00  0.00     0.010 A 
ATOM     37  C   UNL A   1      40.964  25.793  27.611  1.00  0.00    -0.014 A 
BRANCH  37  38
ATOM     38  C   UNL A   1      41.569  27.095  27.982  1.00  0.00     0.031 A 
ATOM     39  C   UNL A   1      43.056  27.288  27.850  1.00  0.00     0.074 A 
ATOM     40  C   UNL A   1      40.793  28.070  28.491  1.00  0.00     0.049 A 
ATOM     41  N   UNL A   1      43.787  28.316  28.193  1.00  0.00    -0.248 NA
ATOM     42  C   UNL A   1      43.824  26.167  27.282  1.00  0.00     0.031 C 
ATOM     43  C   UNL A   1      39.344  27.982  28.692  1.00  0.00     0.029 A 
ATOM     44  N   UNL A   1      41.113  29.326  28.939  1.00  0.00    -0.354 N 
ATOM     45  C   UNL A   1      45.098  27.962  27.896  1.00  0.00     0.074 A 
ATOM     46  C   UNL A   1      45.070  26.603  27.401  1.00  0.00     0.031 C 
ATOM     47  C   UNL A   1      38.898  29.144  29.196  1.00  0.00     0.029 A 
ATOM     48  C   UNL A   1      40.031  30.042  29.397  1.00  0.00     0.049 A 
ATOM     49  H   UNL A   1      42.030  29.683  28.934  1.00  0.00     0.167 HD
ATOM     50  C   UNL A   1      46.222  28.709  28.003  1.00  0.00     0.031 A 
ATOM     51  C   UNL A   1      39.963  31.278  29.927  1.00  0.00     0.031 A 
ATOM     52  C   UNL A   1      46.236  30.063  28.489  1.00  0.00     0.049 A 
ATOM     53  C   UNL A   1      41.230  32.079  30.064  1.00  0.00     0.074 A 
ATOM     54  C   UNL A   1      47.312  30.925  28.602  1.00  0.00     0.029 A 
ATOM     55  N   UNL A   1      45.120  30.752  28.940  1.00  0.00    -0.354 N 
ATOM     56  N   UNL A   1      42.455  31.746  29.727  1.00  0.00    -0.248 NA
ATOM     57  C   UNL A   1      41.107  33.424  30.640  1.00  0.00     0.031 C 
ATOM     58  C   UNL A   1      46.855  32.118  29.170  1.00  0.00     0.029 A 
ATOM     59  C   UNL A   1      45.484  32.021  29.351  1.00  0.00     0.049 A 
ATOM     60  H   UNL A   1      44.205  30.390  28.963  1.00  0.00     0.167 HD
ATOM     61  C   UNL A   1      43.242  32.854  30.021  1.00  0.00     0.074 A 
ATOM     62  C   UNL A   1      42.353  33.870  30.549  1.00  0.00     0.031 C 
ATOM     63  C   UNL A   1      44.578  33.019  29.865  1.00  0.00     0.031 A 
BRANCH  50  64
ATOM     64  C   UNL A   1      47.525  28.077  27.587  1.00  0.00    -0.014 A 
ATOM     65  C   UNL A   1      48.111  27.053  28.353  1.00  0.00     0.010 A 
ATOM     66  C   UNL A   1      48.152  28.483  26.395  1.00  0.00     0.010 A 
ATOM     67  C   UNL A   1      49.319  26.474  27.957  1.00  0.00     0.020 A 
ATOM     68  C   UNL A   1      49.345  27.884  25.978  1.00  0.00     0.020 A 
ATOM     69  C   UNL A   1      49.930  26.895  26.771  1.00  0.00     0.054 A 
BRANCH  69  70
ATOM     70  S   UNL A   1      51.482  26.102  26.267  1.00  0.00     0.124 S 
ATOM     71  O   UNL A   1      52.479  27.028  26.800  1.00  0.00    -0.237 OA
ATOM     72  O   UNL A   1      51.410  24.805  26.935  1.00  0.00    -0.237 OA
ATOM     73  O   UNL A   1      51.392  26.056  24.810  1.00  0.00    -0.744 OA
ENDBRANCH  69  70
ENDBRANCH  50  64
BRANCH  51  74
ATOM     74  C   UNL A   1      38.652  31.841  30.354  1.00  0.00    -0.014 A 
ATOM     75  C   UNL A   1      37.877  32.604  29.462  1.00  0.00     0.010 A 
ATOM     76  C   UNL A   1      38.169  31.619  31.656  1.00  0.00     0.010 A 
ATOM     77  C   UNL A   1      36.661  33.157  29.871  1.00  0.00     0.020 A 
ATOM     78  C   UNL A   1      36.937  32.145  32.061  1.00  0.00     0.020 A 
ATOM     79  C   UNL A   1      36.198  32.924  31.170  1.00  0.00     0.054 A 
BRANCH  79  80
ATOM     80  S   UNL A   1      34.602  33.626  31.669  1.00  0.00     0.124 S 
ATOM     81  O   UNL A   1      35.008  34.870  32.317  1.00  0.00    -0.237 OA
ATOM     82  O   UNL A   1      33.910  33.775  30.391  1.00  0.00    -0.237 OA
ATOM     83  O   UNL A   1      34.044  32.609  32.557  1.00  0.00    -0.744 OA
ENDBRANCH  79  80
ENDBRANCH  51  74
BRANCH  63  84
ATOM     84  C   UNL A   1      45.159  34.359  30.227  1.00  0.00    -0.014 A 
ATOM     85  C   UNL A   1      45.665  34.614  31.513  1.00  0.00     0.010 A 
ATOM     86  C   UNL A   1      45.264  35.355  29.237  1.00  0.00     0.010 A 
ATOM     87  C   UNL A   1      46.244  35.850  31.810  1.00  0.00     0.020 A 
ATOM     88  C   UNL A   1      45.871  36.580  29.521  1.00  0.00     0.020 A 
ATOM     89  C   UNL A   1      46.347  36.823  30.810  1.00  0.00     0.054 A 
BRANCH  89  90
ATOM     90  S   UNL A   1      47.159  38.395  31.205  1.00  0.00     0.124 S 
ATOM     91  O   UNL A   1      46.585  38.715  32.510  1.00  0.00    -0.237 OA
ATOM     92  O   UNL A   1      48.574  38.030  31.215  1.00  0.00    -0.237 OA
ATOM     93  O   UNL A   1      46.757  39.279  30.114  1.00  0.00    -0.744 OA
ENDBRANCH  89  90
ENDBRANCH  63  84
ENDBRANCH  37  38
ENDBRANCH  29  32
ENDBRANCH  27  28
ENDBRANCH  26  27
ENDBRANCH  25  26
ENDBRANCH   1  25
TORSDOF 22
ENDMDL
