MODEL 1
REMARK VINA RESULT:     -11.0      0.000      0.000
REMARK SMILES Cc1nsc(N[C@@H](C)C2CCCC2)c1C(=O)NCCCCCCNC(=O)c1ccc(-c2c3nc(c(-c4ccc(S(=O)(=O)[O-])cc4)c4ccc([nH]4)c(-c4ccc(S(=O)(=O)[O-])cc4)c4nc(c(-c5ccc(S(=O)(=O)[O-])cc5)c5ccc2[nH]5)C=C4)C=C3)cc1
REMARK SMILES IDX 20 1 19 2 18 3 17 4 15 5 16 6 14 8 1 9 2 10 3 11 4 12 5 13
REMARK SMILES IDX 6 14 7 16 8 17 9 18 10 19 13 20 11 21 12 22 21 23 22 24
REMARK SMILES IDX 23 25 24 26 25 27 26 29 27 30 28 31 86 32 29 33 85 34 30 35
REMARK SMILES IDX 31 36 32 37 79 38 33 39 84 40 78 41 80 42 34 43 83 44 77 45
REMARK SMILES IDX 76 46 35 48 65 49 46 50 64 51 47 52 50 53 63 54 81 55 48 56
REMARK SMILES IDX 49 57 62 59 82 60 51 61 36 62 37 63 45 64 38 65 44 66 39 67
REMARK SMILES IDX 40 68 41 69 42 70 43 71 66 72 67 73 75 74 68 75 74 76 69 77
REMARK SMILES IDX 70 78 71 79 72 80 73 81 52 82 53 83 61 84 54 85 60 86 55 87
REMARK SMILES IDX 56 88 57 89 58 90 59 91
REMARK H PARENT 17 7 6 15 24 28 80 47 50 58
REMARK Flexibility Score: inf
ROOT
ATOM      1  C   UNL A   1      35.319  22.645  23.416  1.00  0.00     0.002 C 
ENDROOT
BRANCH   1   2
ATOM      2  C   UNL A   1      34.169  23.209  24.260  1.00  0.00     0.021 C 
BRANCH   2   3
ATOM      3  C   UNL A   1      32.790  22.999  23.631  1.00  0.00     0.116 C 
BRANCH   3   4
ATOM      4  N   UNL A   1      31.844  23.905  24.222  1.00  0.00    -0.352 N 
ATOM      5  C   UNL A   1      31.690  25.258  24.259  1.00  0.00     0.256 C 
ATOM      6  O   UNL A   1      30.698  25.592  24.925  1.00  0.00    -0.269 OA
ATOM      7  H   UNL A   1      31.137  23.434  24.722  1.00  0.00     0.163 HD
BRANCH   5   8
ATOM      8  C   UNL A   1      32.503  26.262  23.543  1.00  0.00     0.097 A 
ATOM      9  C   UNL A   1      32.837  25.508  20.986  1.00  0.00     0.069 C 
ATOM     10  C   UNL A   1      32.964  26.411  22.163  1.00  0.00     0.066 A 
ATOM     11  N   UNL A   1      33.645  27.525  21.888  1.00  0.00    -0.195 NA
ATOM     12  S   UNL A   1      33.915  28.366  23.260  1.00  0.00    -0.018 S 
ATOM     13  C   UNL A   1      33.057  27.316  24.300  1.00  0.00     0.122 A 
BRANCH  13  14
ATOM     14  N   UNL A   1      32.918  27.487  25.645  1.00  0.00    -0.372 N 
ATOM     15  H   UNL A   1      33.127  26.709  26.210  1.00  0.00     0.161 HD
BRANCH  14  16
ATOM     16  C   UNL A   1      32.496  28.692  26.334  1.00  0.00     0.080 C 
ATOM     17  C   UNL A   1      31.840  28.251  27.646  1.00  0.00     0.031 C 
BRANCH  16  18
ATOM     18  C   UNL A   1      33.684  29.642  26.601  1.00  0.00     0.011 C 
ATOM     19  C   UNL A   1      33.404  30.895  27.439  1.00  0.00     0.006 C 
ATOM     20  C   UNL A   1      34.835  28.998  27.376  1.00  0.00     0.006 C 
ATOM     21  C   UNL A   1      34.797  31.411  27.785  1.00  0.00     0.000 C 
ATOM     22  C   UNL A   1      35.692  30.174  27.844  1.00  0.00     0.000 C 
ENDBRANCH  16  18
ENDBRANCH  14  16
ENDBRANCH  13  14
ENDBRANCH   5   8
ENDBRANCH   3   4
ENDBRANCH   2   3
ENDBRANCH   1   2
BRANCH   1  23
ATOM     23  C   UNL A   1      36.667  22.528  24.145  1.00  0.00     0.002 C 
BRANCH  23  24
ATOM     24  C   UNL A   1      37.059  23.731  25.014  1.00  0.00     0.021 C 
BRANCH  24  25
ATOM     25  C   UNL A   1      37.497  23.330  26.414  1.00  0.00     0.116 C 
BRANCH  25  26
ATOM     26  N   UNL A   1      38.674  22.466  26.377  1.00  0.00    -0.352 N 
ATOM     27  C   UNL A   1      40.006  22.820  26.445  1.00  0.00     0.251 C 
ATOM     28  H   UNL A   1      38.494  21.502  26.291  1.00  0.00     0.163 HD
ATOM     29  O   UNL A   1      40.873  22.051  26.069  1.00  0.00    -0.269 OA
BRANCH  27  30
ATOM     30  C   UNL A   1      40.352  24.151  26.974  1.00  0.00     0.039 A 
ATOM     31  C   UNL A   1      39.913  25.312  26.332  1.00  0.00     0.014 A 
ATOM     32  C   UNL A   1      41.102  24.223  28.144  1.00  0.00     0.014 A 
ATOM     33  C   UNL A   1      40.169  26.546  26.925  1.00  0.00     0.010 A 
ATOM     34  C   UNL A   1      41.233  25.424  28.797  1.00  0.00     0.010 A 
ATOM     35  C   UNL A   1      40.812  26.594  28.171  1.00  0.00    -0.014 A 
BRANCH  35  36
ATOM     36  C   UNL A   1      40.960  27.861  28.883  1.00  0.00     0.031 A 
ATOM     37  C   UNL A   1      42.121  28.691  28.461  1.00  0.00     0.074 A 
ATOM     38  C   UNL A   1      40.008  28.361  29.700  1.00  0.00     0.049 A 
ATOM     39  N   UNL A   1      43.185  28.965  29.138  1.00  0.00    -0.248 NA
ATOM     40  C   UNL A   1      42.158  29.175  27.070  1.00  0.00     0.031 C 
ATOM     41  C   UNL A   1      38.677  27.809  29.983  1.00  0.00     0.029 A 
ATOM     42  N   UNL A   1      39.986  29.549  30.363  1.00  0.00    -0.354 N 
ATOM     43  C   UNL A   1      43.929  29.839  28.349  1.00  0.00     0.074 A 
ATOM     44  C   UNL A   1      43.345  29.785  27.032  1.00  0.00     0.031 C 
ATOM     45  C   UNL A   1      37.900  28.761  30.547  1.00  0.00     0.029 A 
ATOM     46  C   UNL A   1      38.733  29.910  30.844  1.00  0.00     0.049 A 
ATOM     47  H   UNL A   1      40.788  30.105  30.492  1.00  0.00     0.167 HD
ATOM     48  C   UNL A   1      44.800  30.732  28.897  1.00  0.00     0.031 A 
ATOM     49  C   UNL A   1      38.392  31.071  31.450  1.00  0.00     0.031 A 
ATOM     50  C   UNL A   1      45.052  30.442  30.286  1.00  0.00     0.049 A 
ATOM     51  C   UNL A   1      39.638  31.653  31.993  1.00  0.00     0.074 A 
ATOM     52  C   UNL A   1      45.629  29.408  30.990  1.00  0.00     0.029 A 
ATOM     53  N   UNL A   1      44.305  31.164  31.186  1.00  0.00    -0.354 N 
ATOM     54  N   UNL A   1      40.343  31.080  32.930  1.00  0.00    -0.248 NA
ATOM     55  C   UNL A   1      40.337  32.671  31.227  1.00  0.00     0.031 C 
ATOM     56  C   UNL A   1      44.875  29.315  32.199  1.00  0.00     0.029 A 
ATOM     57  C   UNL A   1      43.912  30.327  32.198  1.00  0.00     0.049 A 
ATOM     58  H   UNL A   1      44.089  32.122  31.116  1.00  0.00     0.167 HD
ATOM     59  C   UNL A   1      41.661  31.340  32.591  1.00  0.00     0.074 A 
ATOM     60  C   UNL A   1      41.589  32.440  31.634  1.00  0.00     0.031 C 
ATOM     61  C   UNL A   1      42.654  30.457  32.909  1.00  0.00     0.031 A 
BRANCH  48  62
ATOM     62  C   UNL A   1      45.072  32.106  28.324  1.00  0.00    -0.014 A 
ATOM     63  C   UNL A   1      46.409  32.489  28.081  1.00  0.00     0.010 A 
ATOM     64  C   UNL A   1      44.103  33.129  28.299  1.00  0.00     0.010 A 
ATOM     65  C   UNL A   1      46.761  33.835  27.899  1.00  0.00     0.020 A 
ATOM     66  C   UNL A   1      44.438  34.467  28.077  1.00  0.00     0.020 A 
ATOM     67  C   UNL A   1      45.771  34.816  27.915  1.00  0.00     0.054 A 
BRANCH  67  68
ATOM     68  S   UNL A   1      46.244  36.560  27.806  1.00  0.00     0.124 S 
ATOM     69  O   UNL A   1      47.178  36.546  26.684  1.00  0.00    -0.237 OA
ATOM     70  O   UNL A   1      44.962  37.213  27.558  1.00  0.00    -0.237 OA
ATOM     71  O   UNL A   1      46.836  36.835  29.112  1.00  0.00    -0.744 OA
ENDBRANCH  67  68
ENDBRANCH  48  62
BRANCH  49  72
ATOM     72  C   UNL A   1      37.111  31.807  31.362  1.00  0.00    -0.014 A 
ATOM     73  C   UNL A   1      36.149  31.734  32.385  1.00  0.00     0.010 A 
ATOM     74  C   UNL A   1      36.955  32.808  30.381  1.00  0.00     0.010 A 
ATOM     75  C   UNL A   1      35.097  32.663  32.453  1.00  0.00     0.020 A 
ATOM     76  C   UNL A   1      35.909  33.736  30.441  1.00  0.00     0.020 A 
ATOM     77  C   UNL A   1      34.995  33.671  31.491  1.00  0.00     0.054 A 
BRANCH  77  78
ATOM     78  S   UNL A   1      33.728  34.962  31.678  1.00  0.00     0.124 S 
ATOM     79  O   UNL A   1      32.840  34.382  32.681  1.00  0.00    -0.237 OA
ATOM     80  O   UNL A   1      34.511  36.114  32.117  1.00  0.00    -0.237 OA
ATOM     81  O   UNL A   1      33.155  35.080  30.338  1.00  0.00    -0.744 OA
ENDBRANCH  77  78
ENDBRANCH  49  72
BRANCH  61  82
ATOM     82  C   UNL A   1      42.343  29.382  33.927  1.00  0.00    -0.014 A 
ATOM     83  C   UNL A   1      41.688  28.174  33.615  1.00  0.00     0.010 A 
ATOM     84  C   UNL A   1      42.867  29.544  35.221  1.00  0.00     0.010 A 
ATOM     85  C   UNL A   1      41.548  27.163  34.580  1.00  0.00     0.020 A 
ATOM     86  C   UNL A   1      42.745  28.536  36.181  1.00  0.00     0.020 A 
ATOM     87  C   UNL A   1      42.082  27.352  35.859  1.00  0.00     0.054 A 
BRANCH  87  88
ATOM     88  S   UNL A   1      41.958  26.018  37.086  1.00  0.00     0.124 S 
ATOM     89  O   UNL A   1      40.545  26.054  37.453  1.00  0.00    -0.237 OA
ATOM     90  O   UNL A   1      42.382  24.841  36.331  1.00  0.00    -0.237 OA
ATOM     91  O   UNL A   1      42.882  26.430  38.142  1.00  0.00    -0.744 OA
ENDBRANCH  87  88
ENDBRANCH  61  82
ENDBRANCH  35  36
ENDBRANCH  27  30
ENDBRANCH  25  26
ENDBRANCH  24  25
ENDBRANCH  23  24
ENDBRANCH   1  23
TORSDOF 19
ENDMDL
MODEL 2
REMARK VINA RESULT:     -11.0      2.760      9.297
REMARK SMILES Cc1nsc(N[C@@H](C)C2CCCC2)c1C(=O)NCCCCCCNC(=O)c1ccc(-c2c3nc(c(-c4ccc(S(=O)(=O)[O-])cc4)c4ccc([nH]4)c(-c4ccc(S(=O)(=O)[O-])cc4)c4nc(c(-c5ccc(S(=O)(=O)[O-])cc5)c5ccc2[nH]5)C=C4)C=C3)cc1
REMARK SMILES IDX 20 1 19 2 18 3 17 4 15 5 16 6 14 8 1 9 2 10 3 11 4 12 5 13
REMARK SMILES IDX 6 14 7 16 8 17 9 18 10 19 13 20 11 21 12 22 21 23 22 24
REMARK SMILES IDX 23 25 24 26 25 27 26 29 27 30 28 31 86 32 29 33 85 34 30 35
REMARK SMILES IDX 31 36 32 37 79 38 33 39 84 40 78 41 80 42 34 43 83 44 77 45
REMARK SMILES IDX 76 46 35 48 65 49 46 50 64 51 47 52 50 53 63 54 81 55 48 56
REMARK SMILES IDX 49 57 62 59 82 60 51 61 36 62 37 63 45 64 38 65 44 66 39 67
REMARK SMILES IDX 40 68 41 69 42 70 43 71 66 72 67 73 75 74 68 75 74 76 69 77
REMARK SMILES IDX 70 78 71 79 72 80 73 81 52 82 53 83 61 84 54 85 60 86 55 87
REMARK SMILES IDX 56 88 57 89 58 90 59 91
REMARK H PARENT 17 7 6 15 24 28 80 47 50 58
REMARK Flexibility Score: inf
ROOT
ATOM      1  C   UNL A   1      32.891  29.214  24.696  1.00  0.00     0.002 C 
ENDROOT
BRANCH   1   2
ATOM      2  C   UNL A   1      33.991  28.494  23.904  1.00  0.00     0.021 C 
BRANCH   2   3
ATOM      3  C   UNL A   1      33.797  28.566  22.388  1.00  0.00     0.116 C 
BRANCH   3   4
ATOM      4  N   UNL A   1      33.595  27.245  21.862  1.00  0.00    -0.352 N 
ATOM      5  C   UNL A   1      32.747  26.213  22.131  1.00  0.00     0.256 C 
ATOM      6  O   UNL A   1      32.965  25.234  21.400  1.00  0.00    -0.269 OA
ATOM      7  H   UNL A   1      34.222  27.034  21.131  1.00  0.00     0.163 HD
BRANCH   5   8
ATOM      8  C   UNL A   1      31.623  26.216  23.090  1.00  0.00     0.097 A 
ATOM      9  C   UNL A   1      29.943  28.232  22.516  1.00  0.00     0.069 C 
ATOM     10  C   UNL A   1      30.416  27.026  23.249  1.00  0.00     0.066 A 
ATOM     11  N   UNL A   1      29.590  26.662  24.233  1.00  0.00    -0.195 NA
ATOM     12  S   UNL A   1      30.265  25.465  25.113  1.00  0.00    -0.018 S 
ATOM     13  C   UNL A   1      31.681  25.309  24.168  1.00  0.00     0.122 A 
BRANCH  13  14
ATOM     14  N   UNL A   1      32.693  24.429  24.415  1.00  0.00    -0.372 N 
ATOM     15  H   UNL A   1      32.704  23.610  23.870  1.00  0.00     0.161 HD
BRANCH  14  16
ATOM     16  C   UNL A   1      33.755  24.570  25.394  1.00  0.00     0.080 C 
ATOM     17  C   UNL A   1      33.448  23.591  26.530  1.00  0.00     0.031 C 
BRANCH  16  18
ATOM     18  C   UNL A   1      35.141  24.285  24.776  1.00  0.00     0.011 C 
ATOM     19  C   UNL A   1      36.180  23.602  25.671  1.00  0.00     0.006 C 
ATOM     20  C   UNL A   1      35.104  23.347  23.568  1.00  0.00     0.006 C 
ATOM     21  C   UNL A   1      37.271  23.178  24.694  1.00  0.00     0.000 C 
ATOM     22  C   UNL A   1      36.557  22.916  23.369  1.00  0.00     0.000 C 
ENDBRANCH  16  18
ENDBRANCH  14  16
ENDBRANCH  13  14
ENDBRANCH   5   8
ENDBRANCH   3   4
ENDBRANCH   2   3
ENDBRANCH   1   2
BRANCH   1  23
ATOM     23  C   UNL A   1      32.469  28.524  26.002  1.00  0.00     0.002 C 
BRANCH  23  24
ATOM     24  C   UNL A   1      33.067  29.111  27.288  1.00  0.00     0.021 C 
BRANCH  24  25
ATOM     25  C   UNL A   1      34.064  30.229  27.019  1.00  0.00     0.116 C 
BRANCH  25  26
ATOM     26  N   UNL A   1      33.973  31.278  28.030  1.00  0.00    -0.352 N 
ATOM     27  C   UNL A   1      34.850  31.563  29.058  1.00  0.00     0.251 C 
ATOM     28  H   UNL A   1      33.182  31.860  27.972  1.00  0.00     0.163 HD
ATOM     29  O   UNL A   1      34.491  32.232  30.012  1.00  0.00    -0.269 OA
BRANCH  27  30
ATOM     30  C   UNL A   1      36.221  31.032  28.977  1.00  0.00     0.039 A 
ATOM     31  C   UNL A   1      37.320  31.894  28.923  1.00  0.00     0.014 A 
ATOM     32  C   UNL A   1      36.398  29.651  28.984  1.00  0.00     0.014 A 
ATOM     33  C   UNL A   1      38.602  31.353  28.958  1.00  0.00     0.010 A 
ATOM     34  C   UNL A   1      37.655  29.126  29.158  1.00  0.00     0.010 A 
ATOM     35  C   UNL A   1      38.763  29.965  29.097  1.00  0.00    -0.014 A 
BRANCH  35  36
ATOM     36  C   UNL A   1      40.091  29.386  29.285  1.00  0.00     0.031 A 
ATOM     37  C   UNL A   1      40.512  29.220  30.703  1.00  0.00     0.074 A 
ATOM     38  C   UNL A   1      40.800  28.830  28.280  1.00  0.00     0.049 A 
ATOM     39  N   UNL A   1      41.445  29.857  31.331  1.00  0.00    -0.248 NA
ATOM     40  C   UNL A   1      39.719  28.326  31.563  1.00  0.00     0.031 C 
ATOM     41  C   UNL A   1      40.392  28.640  26.881  1.00  0.00     0.029 A 
ATOM     42  N   UNL A   1      42.004  28.197  28.329  1.00  0.00    -0.354 N 
ATOM     43  C   UNL A   1      41.510  29.290  32.601  1.00  0.00     0.074 A 
ATOM     44  C   UNL A   1      40.317  28.492  32.745  1.00  0.00     0.031 C 
ATOM     45  C   UNL A   1      41.208  27.741  26.288  1.00  0.00     0.029 A 
ATOM     46  C   UNL A   1      42.301  27.450  27.196  1.00  0.00     0.049 A 
ATOM     47  H   UNL A   1      42.613  28.264  29.100  1.00  0.00     0.167 HD
ATOM     48  C   UNL A   1      42.658  29.310  33.334  1.00  0.00     0.031 A 
ATOM     49  C   UNL A   1      43.372  26.644  27.003  1.00  0.00     0.031 A 
ATOM     50  C   UNL A   1      43.629  30.214  32.773  1.00  0.00     0.049 A 
ATOM     51  C   UNL A   1      44.421  27.095  27.943  1.00  0.00     0.074 A 
ATOM     52  C   UNL A   1      43.708  31.574  32.566  1.00  0.00     0.029 A 
ATOM     53  N   UNL A   1      44.580  29.636  31.966  1.00  0.00    -0.354 N 
ATOM     54  N   UNL A   1      44.979  28.273  27.876  1.00  0.00    -0.248 NA
ATOM     55  C   UNL A   1      44.578  26.406  29.213  1.00  0.00     0.031 C 
ATOM     56  C   UNL A   1      44.423  31.722  31.338  1.00  0.00     0.029 A 
ATOM     57  C   UNL A   1      44.791  30.452  30.886  1.00  0.00     0.049 A 
ATOM     58  H   UNL A   1      45.034  28.779  32.137  1.00  0.00     0.167 HD
ATOM     59  C   UNL A   1      45.170  28.650  29.196  1.00  0.00     0.074 A 
ATOM     60  C   UNL A   1      45.048  27.410  29.959  1.00  0.00     0.031 C 
ATOM     61  C   UNL A   1      45.131  29.965  29.562  1.00  0.00     0.031 A 
BRANCH  48  62
ATOM     62  C   UNL A   1      43.075  28.204  34.280  1.00  0.00    -0.014 A 
ATOM     63  C   UNL A   1      43.531  28.549  35.571  1.00  0.00     0.010 A 
ATOM     64  C   UNL A   1      43.318  26.884  33.852  1.00  0.00     0.010 A 
ATOM     65  C   UNL A   1      44.256  27.641  36.355  1.00  0.00     0.020 A 
ATOM     66  C   UNL A   1      44.002  25.959  34.642  1.00  0.00     0.020 A 
ATOM     67  C   UNL A   1      44.500  26.355  35.875  1.00  0.00     0.054 A 
BRANCH  67  68
ATOM     68  S   UNL A   1      45.543  25.229  36.836  1.00  0.00     0.124 S 
ATOM     69  O   UNL A   1      44.558  24.551  37.672  1.00  0.00    -0.237 OA
ATOM     70  O   UNL A   1      46.161  24.415  35.794  1.00  0.00    -0.237 OA
ATOM     71  O   UNL A   1      46.454  26.126  37.542  1.00  0.00    -0.744 OA
ENDBRANCH  67  68
ENDBRANCH  48  62
BRANCH  49  72
ATOM     72  C   UNL A   1      43.438  25.376  26.245  1.00  0.00    -0.014 A 
ATOM     73  C   UNL A   1      44.421  25.156  25.263  1.00  0.00     0.010 A 
ATOM     74  C   UNL A   1      42.688  24.265  26.688  1.00  0.00     0.010 A 
ATOM     75  C   UNL A   1      44.680  23.862  24.780  1.00  0.00     0.020 A 
ATOM     76  C   UNL A   1      42.941  22.974  26.210  1.00  0.00     0.020 A 
ATOM     77  C   UNL A   1      43.951  22.775  25.271  1.00  0.00     0.054 A 
BRANCH  77  78
ATOM     78  S   UNL A   1      44.403  21.090  24.760  1.00  0.00     0.124 S 
ATOM     79  O   UNL A   1      43.278  20.303  25.254  1.00  0.00    -0.237 OA
ATOM     80  O   UNL A   1      44.500  21.214  23.308  1.00  0.00    -0.237 OA
ATOM     81  O   UNL A   1      45.674  20.852  25.445  1.00  0.00    -0.744 OA
ENDBRANCH  77  78
ENDBRANCH  49  72
BRANCH  61  82
ATOM     82  C   UNL A   1      45.227  31.005  28.468  1.00  0.00    -0.014 A 
ATOM     83  C   UNL A   1      44.108  31.556  27.811  1.00  0.00     0.010 A 
ATOM     84  C   UNL A   1      46.495  31.548  28.198  1.00  0.00     0.010 A 
ATOM     85  C   UNL A   1      44.259  32.612  26.898  1.00  0.00     0.020 A 
ATOM     86  C   UNL A   1      46.651  32.609  27.302  1.00  0.00     0.020 A 
ATOM     87  C   UNL A   1      45.533  33.133  26.652  1.00  0.00     0.054 A 
BRANCH  87  88
ATOM     88  S   UNL A   1      45.720  34.542  25.520  1.00  0.00     0.124 S 
ATOM     89  O   UNL A   1      47.152  34.528  25.229  1.00  0.00    -0.237 OA
ATOM     90  O   UNL A   1      44.849  34.180  24.404  1.00  0.00    -0.237 OA
ATOM     91  O   UNL A   1      45.260  35.685  26.307  1.00  0.00    -0.744 OA
ENDBRANCH  87  88
ENDBRANCH  61  82
ENDBRANCH  35  36
ENDBRANCH  27  30
ENDBRANCH  25  26
ENDBRANCH  24  25
ENDBRANCH  23  24
ENDBRANCH   1  23
TORSDOF 19
ENDMDL
MODEL 3
REMARK VINA RESULT:     -10.7      2.746      4.820
REMARK SMILES Cc1nsc(N[C@@H](C)C2CCCC2)c1C(=O)NCCCCCCNC(=O)c1ccc(-c2c3nc(c(-c4ccc(S(=O)(=O)[O-])cc4)c4ccc([nH]4)c(-c4ccc(S(=O)(=O)[O-])cc4)c4nc(c(-c5ccc(S(=O)(=O)[O-])cc5)c5ccc2[nH]5)C=C4)C=C3)cc1
REMARK SMILES IDX 20 1 19 2 18 3 17 4 15 5 16 6 14 8 1 9 2 10 3 11 4 12 5 13
REMARK SMILES IDX 6 14 7 16 8 17 9 18 10 19 13 20 11 21 12 22 21 23 22 24
REMARK SMILES IDX 23 25 24 26 25 27 26 29 27 30 28 31 86 32 29 33 85 34 30 35
REMARK SMILES IDX 31 36 32 37 79 38 33 39 84 40 78 41 80 42 34 43 83 44 77 45
REMARK SMILES IDX 76 46 35 48 65 49 46 50 64 51 47 52 50 53 63 54 81 55 48 56
REMARK SMILES IDX 49 57 62 59 82 60 51 61 36 62 37 63 45 64 38 65 44 66 39 67
REMARK SMILES IDX 40 68 41 69 42 70 43 71 66 72 67 73 75 74 68 75 74 76 69 77
REMARK SMILES IDX 70 78 71 79 72 80 73 81 52 82 53 83 61 84 54 85 60 86 55 87
REMARK SMILES IDX 56 88 57 89 58 90 59 91
REMARK H PARENT 17 7 6 15 24 28 80 47 50 58
REMARK Flexibility Score: inf
ROOT
ATOM      1  C   UNL A   1      38.961  22.220  25.909  1.00  0.00     0.002 C 
ENDROOT
BRANCH   1   2
ATOM      2  C   UNL A   1      37.818  23.244  25.867  1.00  0.00     0.021 C 
BRANCH   2   3
ATOM      3  C   UNL A   1      36.447  22.616  25.611  1.00  0.00     0.116 C 
BRANCH   3   4
ATOM      4  N   UNL A   1      35.875  23.171  24.415  1.00  0.00    -0.352 N 
ATOM      5  C   UNL A   1      34.636  23.595  24.039  1.00  0.00     0.256 C 
ATOM      6  O   UNL A   1      34.622  23.996  22.865  1.00  0.00    -0.269 OA
ATOM      7  H   UNL A   1      36.539  23.267  23.693  1.00  0.00     0.163 HD
BRANCH   5   8
ATOM      8  C   UNL A   1      33.434  23.687  24.892  1.00  0.00     0.097 A 
ATOM      9  C   UNL A   1      33.187  26.184  25.853  1.00  0.00     0.069 C 
ATOM     10  C   UNL A   1      32.783  24.768  25.632  1.00  0.00     0.066 A 
ATOM     11  N   UNL A   1      31.642  24.454  26.249  1.00  0.00    -0.195 NA
ATOM     12  S   UNL A   1      31.367  22.850  26.128  1.00  0.00    -0.018 S 
ATOM     13  C   UNL A   1      32.732  22.494  25.164  1.00  0.00     0.122 A 
BRANCH  13  14
ATOM     14  N   UNL A   1      33.071  21.252  24.716  1.00  0.00    -0.372 N 
ATOM     15  H   UNL A   1      34.006  20.977  24.848  1.00  0.00     0.161 HD
BRANCH  14  16
ATOM     16  C   UNL A   1      32.201  20.290  24.063  1.00  0.00     0.080 C 
ATOM     17  C   UNL A   1      32.027  20.755  22.615  1.00  0.00     0.031 C 
BRANCH  16  18
ATOM     18  C   UNL A   1      32.786  18.863  24.120  1.00  0.00     0.011 C 
ATOM     19  C   UNL A   1      32.848  18.078  22.805  1.00  0.00     0.006 C 
ATOM     20  C   UNL A   1      34.242  18.803  24.588  1.00  0.00     0.006 C 
ATOM     21  C   UNL A   1      33.750  16.895  23.137  1.00  0.00     0.000 C 
ATOM     22  C   UNL A   1      34.712  17.398  24.212  1.00  0.00     0.000 C 
ENDBRANCH  16  18
ENDBRANCH  14  16
ENDBRANCH  13  14
ENDBRANCH   5   8
ENDBRANCH   3   4
ENDBRANCH   2   3
ENDBRANCH   1   2
BRANCH   1  23
ATOM     23  C   UNL A   1      38.548  20.769  25.619  1.00  0.00     0.002 C 
BRANCH  23  24
ATOM     24  C   UNL A   1      39.662  19.721  25.754  1.00  0.00     0.021 C 
BRANCH  24  25
ATOM     25  C   UNL A   1      40.830  20.207  26.599  1.00  0.00     0.116 C 
BRANCH  25  26
ATOM     26  N   UNL A   1      42.106  19.747  26.058  1.00  0.00    -0.352 N 
ATOM     27  C   UNL A   1      43.178  20.498  25.620  1.00  0.00     0.251 C 
ATOM     28  H   UNL A   1      42.217  18.771  25.997  1.00  0.00     0.163 HD
ATOM     29  O   UNL A   1      44.025  20.007  24.895  1.00  0.00    -0.269 OA
BRANCH  27  30
ATOM     30  C   UNL A   1      43.267  21.906  26.044  1.00  0.00     0.039 A 
ATOM     31  C   UNL A   1      42.674  22.920  25.288  1.00  0.00     0.014 A 
ATOM     32  C   UNL A   1      43.934  22.198  27.232  1.00  0.00     0.014 A 
ATOM     33  C   UNL A   1      42.689  24.222  25.780  1.00  0.00     0.010 A 
ATOM     34  C   UNL A   1      43.826  23.452  27.782  1.00  0.00     0.010 A 
ATOM     35  C   UNL A   1      43.249  24.479  27.041  1.00  0.00    -0.014 A 
BRANCH  35  36
ATOM     36  C   UNL A   1      43.145  25.805  27.646  1.00  0.00     0.031 A 
ATOM     37  C   UNL A   1      44.218  26.761  27.258  1.00  0.00     0.074 A 
ATOM     38  C   UNL A   1      42.054  26.221  28.323  1.00  0.00     0.049 A 
ATOM     39  N   UNL A   1      45.158  27.240  28.002  1.00  0.00    -0.248 NA
ATOM     40  C   UNL A   1      44.332  27.137  25.838  1.00  0.00     0.031 C 
ATOM     41  C   UNL A   1      40.789  25.503  28.531  1.00  0.00     0.029 A 
ATOM     42  N   UNL A   1      41.799  27.441  28.869  1.00  0.00    -0.354 N 
ATOM     43  C   UNL A   1      45.851  28.150  27.208  1.00  0.00     0.074 A 
ATOM     44  C   UNL A   1      45.421  27.909  25.853  1.00  0.00     0.031 C 
ATOM     45  C   UNL A   1      39.835  26.371  28.932  1.00  0.00     0.029 A 
ATOM     46  C   UNL A   1      40.465  27.650  29.198  1.00  0.00     0.049 A 
ATOM     47  H   UNL A   1      42.499  28.117  29.020  1.00  0.00     0.167 HD
ATOM     48  C   UNL A   1      46.529  29.200  27.751  1.00  0.00     0.031 A 
ATOM     49  C   UNL A   1      39.905  28.791  29.662  1.00  0.00     0.031 A 
ATOM     50  C   UNL A   1      46.672  29.059  29.177  1.00  0.00     0.049 A 
ATOM     51  C   UNL A   1      40.996  29.590  30.262  1.00  0.00     0.074 A 
ATOM     52  C   UNL A   1      47.310  28.178  30.022  1.00  0.00     0.029 A 
ATOM     53  N   UNL A   1      45.743  29.730  29.935  1.00  0.00    -0.354 N 
ATOM     54  N   UNL A   1      41.671  29.200  31.308  1.00  0.00    -0.248 NA
ATOM     55  C   UNL A   1      41.623  30.638  29.474  1.00  0.00     0.031 C 
ATOM     56  C   UNL A   1      46.456  28.068  31.161  1.00  0.00     0.029 A 
ATOM     57  C   UNL A   1      45.367  28.926  30.979  1.00  0.00     0.049 A 
ATOM     58  H   UNL A   1      45.405  30.638  29.759  1.00  0.00     0.167 HD
ATOM     59  C   UNL A   1      42.969  29.624  31.070  1.00  0.00     0.074 A 
ATOM     60  C   UNL A   1      42.845  30.624  30.013  1.00  0.00     0.031 C 
ATOM     61  C   UNL A   1      44.036  28.924  31.557  1.00  0.00     0.031 A 
BRANCH  48  62
ATOM     62  C   UNL A   1      46.666  30.551  27.083  1.00  0.00    -0.014 A 
ATOM     63  C   UNL A   1      47.931  31.180  27.073  1.00  0.00     0.010 A 
ATOM     64  C   UNL A   1      45.557  31.349  26.735  1.00  0.00     0.010 A 
ATOM     65  C   UNL A   1      48.062  32.550  26.804  1.00  0.00     0.020 A 
ATOM     66  C   UNL A   1      45.683  32.704  26.424  1.00  0.00     0.020 A 
ATOM     67  C   UNL A   1      46.931  33.306  26.498  1.00  0.00     0.054 A 
BRANCH  67  68
ATOM     68  S   UNL A   1      47.089  35.095  26.276  1.00  0.00     0.124 S 
ATOM     69  O   UNL A   1      48.104  35.178  25.230  1.00  0.00    -0.237 OA
ATOM     70  O   UNL A   1      45.737  35.479  25.880  1.00  0.00    -0.237 OA
ATOM     71  O   UNL A   1      47.505  35.567  27.594  1.00  0.00    -0.744 OA
ENDBRANCH  67  68
ENDBRANCH  48  62
BRANCH  49  72
ATOM     72  C   UNL A   1      38.551  29.322  29.390  1.00  0.00    -0.014 A 
ATOM     73  C   UNL A   1      37.801  29.971  30.388  1.00  0.00     0.010 A 
ATOM     74  C   UNL A   1      38.106  29.431  28.056  1.00  0.00     0.010 A 
ATOM     75  C   UNL A   1      36.675  30.743  30.056  1.00  0.00     0.020 A 
ATOM     76  C   UNL A   1      36.985  30.198  27.718  1.00  0.00     0.020 A 
ATOM     77  C   UNL A   1      36.285  30.868  28.719  1.00  0.00     0.054 A 
BRANCH  77  78
ATOM     78  S   UNL A   1      34.927  31.997  28.285  1.00  0.00     0.124 S 
ATOM     79  O   UNL A   1      34.416  32.386  29.596  1.00  0.00    -0.237 OA
ATOM     80  O   UNL A   1      35.615  33.046  27.538  1.00  0.00    -0.237 OA
ATOM     81  O   UNL A   1      34.026  31.163  27.491  1.00  0.00    -0.744 OA
ENDBRANCH  77  78
ENDBRANCH  49  72
BRANCH  61  82
ATOM     82  C   UNL A   1      43.773  27.897  32.636  1.00  0.00    -0.014 A 
ATOM     83  C   UNL A   1      43.198  28.204  33.886  1.00  0.00     0.010 A 
ATOM     84  C   UNL A   1      43.986  26.546  32.311  1.00  0.00     0.010 A 
ATOM     85  C   UNL A   1      42.860  27.184  34.790  1.00  0.00     0.020 A 
ATOM     86  C   UNL A   1      43.638  25.526  33.200  1.00  0.00     0.020 A 
ATOM     87  C   UNL A   1      43.081  25.849  34.438  1.00  0.00     0.054 A 
BRANCH  87  88
ATOM     88  S   UNL A   1      42.584  24.528  35.581  1.00  0.00     0.124 S 
ATOM     89  O   UNL A   1      42.809  23.321  34.790  1.00  0.00    -0.237 OA
ATOM     90  O   UNL A   1      43.491  24.716  36.711  1.00  0.00    -0.237 OA
ATOM     91  O   UNL A   1      41.181  24.826  35.869  1.00  0.00    -0.744 OA
ENDBRANCH  87  88
ENDBRANCH  61  82
ENDBRANCH  35  36
ENDBRANCH  27  30
ENDBRANCH  25  26
ENDBRANCH  24  25
ENDBRANCH  23  24
ENDBRANCH   1  23
TORSDOF 19
ENDMDL
