MODEL 1
REMARK VINA RESULT:     -10.8      0.000      0.000
REMARK SMILES CNC(=O)NC1=[NH+]N=CN[C@@H]1C(=O)NCCCCCCNC(=O)c1ccc(-c2c3nc(c(-c4ccc(S(=O)(=O)[O-])cc4)c4ccc([nH]4)c(-c4ccc(S(=O)(=O)[O-])cc4)c4nc(c(-c5ccc(S(=O)(=O)[O-])cc5)c5ccc2[nH]5)C=C4)C=C3)cc1
REMARK SMILES IDX 19 1 18 2 17 3 16 4 15 5 14 6 12 7 13 8 11 10 1 11 2 12 3 13
REMARK SMILES IDX 4 15 5 16 6 17 7 19 8 20 10 22 9 23 20 25 21 26 22 27 23 29
REMARK SMILES IDX 24 30 25 31 83 32 26 33 82 34 27 35 28 36 29 37 76 38 30 39
REMARK SMILES IDX 81 40 75 41 77 42 31 43 80 44 74 45 73 46 32 48 62 49 43 50
REMARK SMILES IDX 61 51 44 52 47 53 60 54 78 55 45 56 46 57 59 59 79 60 48 61
REMARK SMILES IDX 33 62 34 63 42 64 35 65 41 66 36 67 37 68 38 69 39 70 40 71
REMARK SMILES IDX 63 72 64 73 72 74 65 75 71 76 66 77 67 78 68 79 69 80 70 81
REMARK SMILES IDX 49 82 50 83 58 84 51 85 57 86 52 87 53 88 54 89 55 90 56 91
REMARK H PARENT 14 9 2 14 5 18 7 21 10 24 21 28 77 47 47 58
REMARK Flexibility Score: inf
ROOT
ATOM      1  C   UNL A   1      31.679  32.247  26.966  1.00  0.00     0.021 C 
ENDROOT
BRANCH   1   2
ATOM      2  C   UNL A   1      31.800  30.826  26.411  1.00  0.00     0.002 C 
BRANCH   2   3
ATOM      3  C   UNL A   1      32.604  29.861  27.290  1.00  0.00     0.002 C 
BRANCH   3   4
ATOM      4  C   UNL A   1      31.996  28.461  27.419  1.00  0.00     0.021 C 
BRANCH   4   5
ATOM      5  C   UNL A   1      32.620  27.441  26.469  1.00  0.00     0.116 C 
BRANCH   5   6
ATOM      6  N   UNL A   1      31.625  26.500  25.998  1.00  0.00    -0.354 N 
ATOM      7  C   UNL A   1      31.521  25.877  24.790  1.00  0.00     0.255 C 
ATOM      8  O   UNL A   1      30.479  25.251  24.564  1.00  0.00    -0.272 OA
ATOM      9  H   UNL A   1      30.917  26.278  26.646  1.00  0.00     0.163 HD
BRANCH   7  10
ATOM     10  C   UNL A   1      32.622  25.963  23.724  1.00  0.00     0.287 C 
ATOM     11  C   UNL A   1      33.940  28.821  22.613  1.00  0.00     0.147 C 
ATOM     12  N   UNL A   1      32.606  29.127  23.092  1.00  0.00    -0.321 N 
ATOM     13  C   UNL A   1      31.418  28.587  22.712  1.00  0.00     0.406 C 
ATOM     14  H   UNL A   1      32.553  29.822  23.789  1.00  0.00     0.167 HD
ATOM     15  O   UNL A   1      30.369  29.180  22.943  1.00  0.00    -0.221 OA
ATOM     16  N   UNL A   1      31.440  27.405  22.031  1.00  0.00    -0.191 N 
ATOM     17  C   UNL A   1      32.090  26.231  22.318  1.00  0.00     0.309 C 
ATOM     18  H   UNL A   1      30.908  27.394  21.203  1.00  0.00     0.317 HD
ATOM     19  N   UNL A   1      32.224  25.422  21.311  1.00  0.00    -0.148 N 
ATOM     20  N   UNL A   1      33.017  24.268  21.455  1.00  0.00    -0.077 NA
ATOM     21  H   UNL A   1      31.775  25.614  20.455  1.00  0.00     0.342 HD
ATOM     22  N   UNL A   1      33.459  24.773  23.731  1.00  0.00    -0.352 N 
ATOM     23  C   UNL A   1      33.579  24.041  22.595  1.00  0.00     0.241 C 
ATOM     24  H   UNL A   1      33.933  24.502  24.550  1.00  0.00     0.163 HD
ENDBRANCH   7  10
ENDBRANCH   5   6
ENDBRANCH   4   5
ENDBRANCH   3   4
ENDBRANCH   2   3
ENDBRANCH   1   2
BRANCH   1  25
ATOM     25  C   UNL A   1      32.977  32.805  27.536  1.00  0.00     0.116 C 
BRANCH  25  26
ATOM     26  N   UNL A   1      32.883  34.236  27.779  1.00  0.00    -0.352 N 
ATOM     27  C   UNL A   1      33.492  34.990  28.749  1.00  0.00     0.251 C 
ATOM     28  H   UNL A   1      32.298  34.733  27.161  1.00  0.00     0.163 HD
ATOM     29  O   UNL A   1      33.115  36.134  28.968  1.00  0.00    -0.269 OA
BRANCH  27  30
ATOM     30  C   UNL A   1      34.601  34.403  29.529  1.00  0.00     0.039 A 
ATOM     31  C   UNL A   1      34.313  33.726  30.715  1.00  0.00     0.014 A 
ATOM     32  C   UNL A   1      35.922  34.525  29.085  1.00  0.00     0.014 A 
ATOM     33  C   UNL A   1      35.350  33.129  31.434  1.00  0.00     0.010 A 
ATOM     34  C   UNL A   1      36.942  33.865  29.762  1.00  0.00     0.010 A 
ATOM     35  C   UNL A   1      36.668  33.169  30.948  1.00  0.00    -0.014 A 
BRANCH  35  36
ATOM     36  C   UNL A   1      37.773  32.492  31.670  1.00  0.00     0.031 A 
ATOM     37  C   UNL A   1      38.244  33.021  32.998  1.00  0.00     0.074 A 
ATOM     38  C   UNL A   1      38.387  31.433  31.103  1.00  0.00     0.049 A 
ATOM     39  N   UNL A   1      39.221  32.593  33.754  1.00  0.00    -0.248 NA
ATOM     40  C   UNL A   1      37.540  34.198  33.534  1.00  0.00     0.031 C 
ATOM     41  C   UNL A   1      38.047  30.853  29.802  1.00  0.00     0.029 A 
ATOM     42  N   UNL A   1      39.430  30.660  31.548  1.00  0.00    -0.354 N 
ATOM     43  C   UNL A   1      39.259  33.454  34.845  1.00  0.00     0.074 A 
ATOM     44  C   UNL A   1      38.243  34.459  34.628  1.00  0.00     0.031 C 
ATOM     45  C   UNL A   1      38.845  29.799  29.568  1.00  0.00     0.029 A 
ATOM     46  C   UNL A   1      39.781  29.655  30.677  1.00  0.00     0.049 A 
ATOM     47  H   UNL A   1      39.883  30.810  32.409  1.00  0.00     0.167 HD
ATOM     48  C   UNL A   1      40.054  33.400  35.940  1.00  0.00     0.031 A 
ATOM     49  C   UNL A   1      40.755  28.728  30.758  1.00  0.00     0.031 A 
ATOM     50  C   UNL A   1      41.059  32.393  36.154  1.00  0.00     0.049 A 
ATOM     51  C   UNL A   1      41.637  28.701  31.977  1.00  0.00     0.074 A 
ATOM     52  C   UNL A   1      41.881  32.220  37.254  1.00  0.00     0.029 A 
ATOM     53  N   UNL A   1      41.383  31.392  35.252  1.00  0.00    -0.354 N 
ATOM     54  N   UNL A   1      41.611  29.481  33.030  1.00  0.00    -0.248 NA
ATOM     55  C   UNL A   1      42.674  27.660  32.021  1.00  0.00     0.031 C 
ATOM     56  C   UNL A   1      42.742  31.150  36.991  1.00  0.00     0.029 A 
ATOM     57  C   UNL A   1      42.411  30.615  35.756  1.00  0.00     0.049 A 
ATOM     58  H   UNL A   1      40.946  31.254  34.379  1.00  0.00     0.167 HD
ATOM     59  C   UNL A   1      42.609  29.008  33.876  1.00  0.00     0.074 A 
ATOM     60  C   UNL A   1      43.206  27.864  33.218  1.00  0.00     0.031 C 
ATOM     61  C   UNL A   1      42.996  29.478  35.088  1.00  0.00     0.031 A 
BRANCH  48  62
ATOM     62  C   UNL A   1      39.871  34.466  36.991  1.00  0.00    -0.014 A 
ATOM     63  C   UNL A   1      40.519  35.710  36.887  1.00  0.00     0.010 A 
ATOM     64  C   UNL A   1      38.999  34.238  38.072  1.00  0.00     0.010 A 
ATOM     65  C   UNL A   1      40.330  36.691  37.863  1.00  0.00     0.020 A 
ATOM     66  C   UNL A   1      38.784  35.229  39.035  1.00  0.00     0.020 A 
ATOM     67  C   UNL A   1      39.464  36.444  38.932  1.00  0.00     0.054 A 
BRANCH  67  68
ATOM     68  S   UNL A   1      39.216  37.748  40.168  1.00  0.00     0.124 S 
ATOM     69  O   UNL A   1      40.518  38.408  40.176  1.00  0.00    -0.237 OA
ATOM     70  O   UNL A   1      38.120  38.526  39.595  1.00  0.00    -0.237 OA
ATOM     71  O   UNL A   1      38.884  37.014  41.386  1.00  0.00    -0.744 OA
ENDBRANCH  67  68
ENDBRANCH  48  62
BRANCH  49  72
ATOM     72  C   UNL A   1      40.939  27.742  29.656  1.00  0.00    -0.014 A 
ATOM     73  C   UNL A   1      42.054  27.822  28.802  1.00  0.00     0.010 A 
ATOM     74  C   UNL A   1      40.002  26.712  29.459  1.00  0.00     0.010 A 
ATOM     75  C   UNL A   1      42.213  26.908  27.757  1.00  0.00     0.020 A 
ATOM     76  C   UNL A   1      40.174  25.777  28.435  1.00  0.00     0.020 A 
ATOM     77  C   UNL A   1      41.272  25.889  27.581  1.00  0.00     0.054 A 
BRANCH  77  78
ATOM     78  S   UNL A   1      41.522  24.690  26.243  1.00  0.00     0.124 S 
ATOM     79  O   UNL A   1      40.326  23.860  26.352  1.00  0.00    -0.237 OA
ATOM     80  O   UNL A   1      41.595  25.546  25.063  1.00  0.00    -0.237 OA
ATOM     81  O   UNL A   1      42.776  24.032  26.604  1.00  0.00    -0.744 OA
ENDBRANCH  77  78
ENDBRANCH  49  72
BRANCH  61  82
ATOM     82  C   UNL A   1      44.095  28.736  35.802  1.00  0.00    -0.014 A 
ATOM     83  C   UNL A   1      45.434  29.155  35.719  1.00  0.00     0.010 A 
ATOM     84  C   UNL A   1      43.772  27.633  36.613  1.00  0.00     0.010 A 
ATOM     85  C   UNL A   1      46.435  28.465  36.409  1.00  0.00     0.020 A 
ATOM     86  C   UNL A   1      44.764  26.960  37.329  1.00  0.00     0.020 A 
ATOM     87  C   UNL A   1      46.092  27.371  37.210  1.00  0.00     0.054 A 
BRANCH  87  88
ATOM     88  S   UNL A   1      47.403  26.521  38.130  1.00  0.00     0.124 S 
ATOM     89  O   UNL A   1      48.157  25.875  37.059  1.00  0.00    -0.237 OA
ATOM     90  O   UNL A   1      48.087  27.623  38.805  1.00  0.00    -0.237 OA
ATOM     91  O   UNL A   1      46.675  25.613  39.013  1.00  0.00    -0.744 OA
ENDBRANCH  87  88
ENDBRANCH  61  82
ENDBRANCH  35  36
ENDBRANCH  27  30
ENDBRANCH  25  26
ENDBRANCH   1  25
TORSDOF 16
ENDMDL
MODEL 2
REMARK VINA RESULT:     -10.7      4.592      6.150
REMARK SMILES CNC(=O)NC1=[NH+]N=CN[C@@H]1C(=O)NCCCCCCNC(=O)c1ccc(-c2c3nc(c(-c4ccc(S(=O)(=O)[O-])cc4)c4ccc([nH]4)c(-c4ccc(S(=O)(=O)[O-])cc4)c4nc(c(-c5ccc(S(=O)(=O)[O-])cc5)c5ccc2[nH]5)C=C4)C=C3)cc1
REMARK SMILES IDX 19 1 18 2 17 3 16 4 15 5 14 6 12 7 13 8 11 10 1 11 2 12 3 13
REMARK SMILES IDX 4 15 5 16 6 17 7 19 8 20 10 22 9 23 20 25 21 26 22 27 23 29
REMARK SMILES IDX 24 30 25 31 83 32 26 33 82 34 27 35 28 36 29 37 76 38 30 39
REMARK SMILES IDX 81 40 75 41 77 42 31 43 80 44 74 45 73 46 32 48 62 49 43 50
REMARK SMILES IDX 61 51 44 52 47 53 60 54 78 55 45 56 46 57 59 59 79 60 48 61
REMARK SMILES IDX 33 62 34 63 42 64 35 65 41 66 36 67 37 68 38 69 39 70 40 71
REMARK SMILES IDX 63 72 64 73 72 74 65 75 71 76 66 77 67 78 68 79 69 80 70 81
REMARK SMILES IDX 49 82 50 83 58 84 51 85 57 86 52 87 53 88 54 89 55 90 56 91
REMARK H PARENT 14 9 2 14 5 18 7 21 10 24 21 28 77 47 47 58
REMARK Flexibility Score: inf
ROOT
ATOM      1  C   UNL A   1      32.509  27.659  27.166  1.00  0.00     0.021 C 
ENDROOT
BRANCH   1   2
ATOM      2  C   UNL A   1      31.491  27.809  26.033  1.00  0.00     0.002 C 
BRANCH   2   3
ATOM      3  C   UNL A   1      31.126  26.501  25.321  1.00  0.00     0.002 C 
BRANCH   3   4
ATOM      4  C   UNL A   1      32.326  25.619  24.958  1.00  0.00     0.021 C 
BRANCH   4   5
ATOM      5  C   UNL A   1      31.953  24.418  24.092  1.00  0.00     0.116 C 
BRANCH   5   6
ATOM      6  N   UNL A   1      33.100  23.949  23.342  1.00  0.00    -0.354 N 
ATOM      7  C   UNL A   1      33.860  22.832  23.526  1.00  0.00     0.255 C 
ATOM      8  O   UNL A   1      34.899  22.740  22.862  1.00  0.00    -0.272 OA
ATOM      9  H   UNL A   1      33.372  24.521  22.588  1.00  0.00     0.163 HD
BRANCH   7  10
ATOM     10  C   UNL A   1      33.482  21.738  24.534  1.00  0.00     0.287 C 
ATOM     11  C   UNL A   1      33.725  22.073  27.846  1.00  0.00     0.147 C 
ATOM     12  N   UNL A   1      34.689  22.982  27.256  1.00  0.00    -0.321 N 
ATOM     13  C   UNL A   1      35.706  22.708  26.398  1.00  0.00     0.406 C 
ATOM     14  H   UNL A   1      34.592  23.928  27.512  1.00  0.00     0.167 HD
ATOM     15  O   UNL A   1      36.633  23.500  26.267  1.00  0.00    -0.221 OA
ATOM     16  N   UNL A   1      35.683  21.514  25.738  1.00  0.00    -0.191 N 
ATOM     17  C   UNL A   1      34.676  20.919  25.021  1.00  0.00     0.309 C 
ATOM     18  H   UNL A   1      36.521  20.998  25.785  1.00  0.00     0.317 HD
ATOM     19  N   UNL A   1      34.822  19.642  24.833  1.00  0.00    -0.148 N 
ATOM     20  N   UNL A   1      33.769  18.907  24.255  1.00  0.00    -0.077 NA
ATOM     21  H   UNL A   1      35.660  19.194  25.090  1.00  0.00     0.342 HD
ATOM     22  N   UNL A   1      32.449  20.862  24.002  1.00  0.00    -0.352 N 
ATOM     23  C   UNL A   1      32.690  19.530  23.916  1.00  0.00     0.241 C 
ATOM     24  H   UNL A   1      31.585  21.231  23.708  1.00  0.00     0.163 HD
ENDBRANCH   7  10
ENDBRANCH   5   6
ENDBRANCH   4   5
ENDBRANCH   3   4
ENDBRANCH   2   3
ENDBRANCH   1   2
BRANCH   1  25
ATOM     25  C   UNL A   1      33.788  28.463  26.963  1.00  0.00     0.116 C 
BRANCH  25  26
ATOM     26  N   UNL A   1      33.627  29.841  27.400  1.00  0.00    -0.352 N 
ATOM     27  C   UNL A   1      34.465  30.607  28.168  1.00  0.00     0.251 C 
ATOM     28  H   UNL A   1      32.799  30.286  27.103  1.00  0.00     0.163 HD
ATOM     29  O   UNL A   1      34.069  31.661  28.650  1.00  0.00    -0.269 OA
BRANCH  27  30
ATOM     30  C   UNL A   1      35.846  30.143  28.413  1.00  0.00     0.039 A 
ATOM     31  C   UNL A   1      36.785  30.231  27.384  1.00  0.00     0.014 A 
ATOM     32  C   UNL A   1      36.209  29.623  29.660  1.00  0.00     0.014 A 
ATOM     33  C   UNL A   1      38.103  29.838  27.621  1.00  0.00     0.010 A 
ATOM     34  C   UNL A   1      37.539  29.306  29.916  1.00  0.00     0.010 A 
ATOM     35  C   UNL A   1      38.496  29.400  28.896  1.00  0.00    -0.014 A 
BRANCH  35  36
ATOM     36  C   UNL A   1      39.905  29.033  29.181  1.00  0.00     0.031 A 
ATOM     37  C   UNL A   1      40.839  30.041  29.796  1.00  0.00     0.074 A 
ATOM     38  C   UNL A   1      40.356  27.810  28.836  1.00  0.00     0.049 A 
ATOM     39  N   UNL A   1      42.111  29.920  30.076  1.00  0.00    -0.248 NA
ATOM     40  C   UNL A   1      40.276  31.364  30.116  1.00  0.00     0.031 C 
ATOM     41  C   UNL A   1      39.557  26.761  28.197  1.00  0.00     0.029 A 
ATOM     42  N   UNL A   1      41.599  27.244  28.970  1.00  0.00    -0.354 N 
ATOM     43  C   UNL A   1      42.503  31.151  30.590  1.00  0.00     0.074 A 
ATOM     44  C   UNL A   1      41.349  32.020  30.535  1.00  0.00     0.031 C 
ATOM     45  C   UNL A   1      40.321  25.671  28.023  1.00  0.00     0.029 A 
ATOM     46  C   UNL A   1      41.672  25.956  28.493  1.00  0.00     0.049 A 
ATOM     47  H   UNL A   1      42.366  27.715  29.369  1.00  0.00     0.167 HD
ATOM     48  C   UNL A   1      43.709  31.518  31.084  1.00  0.00     0.031 A 
ATOM     49  C   UNL A   1      42.713  25.103  28.433  1.00  0.00     0.031 A 
ATOM     50  C   UNL A   1      44.852  30.646  31.143  1.00  0.00     0.049 A 
ATOM     51  C   UNL A   1      44.048  25.541  28.971  1.00  0.00     0.074 A 
ATOM     52  C   UNL A   1      46.104  30.905  31.673  1.00  0.00     0.029 A 
ATOM     53  N   UNL A   1      44.885  29.349  30.654  1.00  0.00    -0.354 N 
ATOM     54  N   UNL A   1      44.380  26.686  29.517  1.00  0.00    -0.248 NA
ATOM     55  C   UNL A   1      45.146  24.568  28.893  1.00  0.00     0.031 C 
ATOM     56  C   UNL A   1      46.912  29.786  31.450  1.00  0.00     0.029 A 
ATOM     57  C   UNL A   1      46.144  28.805  30.843  1.00  0.00     0.049 A 
ATOM     58  H   UNL A   1      44.126  28.884  30.232  1.00  0.00     0.167 HD
ATOM     59  C   UNL A   1      45.719  26.560  29.875  1.00  0.00     0.074 A 
ATOM     60  C   UNL A   1      46.128  25.223  29.498  1.00  0.00     0.031 C 
ATOM     61  C   UNL A   1      46.535  27.470  30.461  1.00  0.00     0.031 A 
BRANCH  48  62
ATOM     62  C   UNL A   1      43.856  32.928  31.597  1.00  0.00    -0.014 A 
ATOM     63  C   UNL A   1      44.171  33.989  30.729  1.00  0.00     0.010 A 
ATOM     64  C   UNL A   1      43.626  33.203  32.958  1.00  0.00     0.010 A 
ATOM     65  C   UNL A   1      44.292  35.292  31.219  1.00  0.00     0.020 A 
ATOM     66  C   UNL A   1      43.717  34.511  33.446  1.00  0.00     0.020 A 
ATOM     67  C   UNL A   1      44.064  35.545  32.575  1.00  0.00     0.054 A 
BRANCH  67  68
ATOM     68  S   UNL A   1      44.200  37.251  33.175  1.00  0.00     0.124 S 
ATOM     69  O   UNL A   1      44.274  38.005  31.926  1.00  0.00    -0.237 OA
ATOM     70  O   UNL A   1      42.966  37.419  33.938  1.00  0.00    -0.237 OA
ATOM     71  O   UNL A   1      45.425  37.244  33.970  1.00  0.00    -0.744 OA
ENDBRANCH  67  68
ENDBRANCH  48  62
BRANCH  49  72
ATOM     72  C   UNL A   1      42.531  23.744  27.849  1.00  0.00    -0.014 A 
ATOM     73  C   UNL A   1      42.238  22.643  28.674  1.00  0.00     0.010 A 
ATOM     74  C   UNL A   1      42.646  23.546  26.461  1.00  0.00     0.010 A 
ATOM     75  C   UNL A   1      42.088  21.366  28.125  1.00  0.00     0.020 A 
ATOM     76  C   UNL A   1      42.465  22.276  25.905  1.00  0.00     0.020 A 
ATOM     77  C   UNL A   1      42.201  21.191  26.742  1.00  0.00     0.054 A 
BRANCH  77  78
ATOM     78  S   UNL A   1      41.962  19.532  26.049  1.00  0.00     0.124 S 
ATOM     79  O   UNL A   1      40.518  19.495  25.839  1.00  0.00    -0.237 OA
ATOM     80  O   UNL A   1      42.778  19.576  24.839  1.00  0.00    -0.237 OA
ATOM     81  O   UNL A   1      42.466  18.648  27.099  1.00  0.00    -0.744 OA
ENDBRANCH  77  78
ENDBRANCH  49  72
BRANCH  61  82
ATOM     82  C   UNL A   1      47.946  27.040  30.767  1.00  0.00    -0.014 A 
ATOM     83  C   UNL A   1      48.999  27.291  29.869  1.00  0.00     0.010 A 
ATOM     84  C   UNL A   1      48.230  26.425  32.000  1.00  0.00     0.010 A 
ATOM     85  C   UNL A   1      50.304  26.904  30.184  1.00  0.00     0.020 A 
ATOM     86  C   UNL A   1      49.538  26.065  32.332  1.00  0.00     0.020 A 
ATOM     87  C   UNL A   1      50.565  26.294  31.416  1.00  0.00     0.054 A 
BRANCH  87  88
ATOM     88  S   UNL A   1      52.274  25.843  31.818  1.00  0.00     0.124 S 
ATOM     89  O   UNL A   1      52.583  26.761  32.911  1.00  0.00    -0.237 OA
ATOM     90  O   UNL A   1      52.154  24.436  32.194  1.00  0.00    -0.237 OA
ATOM     91  O   UNL A   1      53.000  26.089  30.575  1.00  0.00    -0.744 OA
ENDBRANCH  87  88
ENDBRANCH  61  82
ENDBRANCH  35  36
ENDBRANCH  27  30
ENDBRANCH  25  26
ENDBRANCH   1  25
TORSDOF 16
ENDMDL
MODEL 3
REMARK VINA RESULT:     -10.7      3.994      9.498
REMARK SMILES CNC(=O)NC1=[NH+]N=CN[C@@H]1C(=O)NCCCCCCNC(=O)c1ccc(-c2c3nc(c(-c4ccc(S(=O)(=O)[O-])cc4)c4ccc([nH]4)c(-c4ccc(S(=O)(=O)[O-])cc4)c4nc(c(-c5ccc(S(=O)(=O)[O-])cc5)c5ccc2[nH]5)C=C4)C=C3)cc1
REMARK SMILES IDX 19 1 18 2 17 3 16 4 15 5 14 6 12 7 13 8 11 10 1 11 2 12 3 13
REMARK SMILES IDX 4 15 5 16 6 17 7 19 8 20 10 22 9 23 20 25 21 26 22 27 23 29
REMARK SMILES IDX 24 30 25 31 83 32 26 33 82 34 27 35 28 36 29 37 76 38 30 39
REMARK SMILES IDX 81 40 75 41 77 42 31 43 80 44 74 45 73 46 32 48 62 49 43 50
REMARK SMILES IDX 61 51 44 52 47 53 60 54 78 55 45 56 46 57 59 59 79 60 48 61
REMARK SMILES IDX 33 62 34 63 42 64 35 65 41 66 36 67 37 68 38 69 39 70 40 71
REMARK SMILES IDX 63 72 64 73 72 74 65 75 71 76 66 77 67 78 68 79 69 80 70 81
REMARK SMILES IDX 49 82 50 83 58 84 51 85 57 86 52 87 53 88 54 89 55 90 56 91
REMARK H PARENT 14 9 2 14 5 18 7 21 10 24 21 28 77 47 47 58
REMARK Flexibility Score: inf
ROOT
ATOM      1  C   UNL A   1      35.264  23.273  26.158  1.00  0.00     0.021 C 
ENDROOT
BRANCH   1   2
ATOM      2  C   UNL A   1      34.094  24.111  25.637  1.00  0.00     0.002 C 
BRANCH   2   3
ATOM      3  C   UNL A   1      34.326  25.626  25.669  1.00  0.00     0.002 C 
BRANCH   3   4
ATOM      4  C   UNL A   1      33.118  26.444  26.138  1.00  0.00     0.021 C 
BRANCH   4   5
ATOM      5  C   UNL A   1      33.429  27.927  26.328  1.00  0.00     0.116 C 
BRANCH   5   6
ATOM      6  N   UNL A   1      33.851  28.528  25.080  1.00  0.00    -0.354 N 
ATOM      7  C   UNL A   1      33.147  28.728  23.931  1.00  0.00     0.255 C 
ATOM      8  O   UNL A   1      33.781  29.103  22.937  1.00  0.00    -0.272 OA
ATOM      9  H   UNL A   1      34.786  28.839  25.059  1.00  0.00     0.163 HD
BRANCH   7  10
ATOM     10  C   UNL A   1      31.636  28.473  23.837  1.00  0.00     0.287 C 
ATOM     11  C   UNL A   1      30.252  25.439  23.688  1.00  0.00     0.147 C 
ATOM     12  N   UNL A   1      31.599  25.317  23.163  1.00  0.00    -0.321 N 
ATOM     13  C   UNL A   1      32.177  25.989  22.133  1.00  0.00     0.406 C 
ATOM     14  H   UNL A   1      32.173  24.657  23.615  1.00  0.00     0.167 HD
ATOM     15  O   UNL A   1      33.180  25.540  21.589  1.00  0.00    -0.221 OA
ATOM     16  N   UNL A   1      31.579  27.138  21.702  1.00  0.00    -0.191 N 
ATOM     17  C   UNL A   1      31.146  28.230  22.411  1.00  0.00     0.309 C 
ATOM     18  H   UNL A   1      31.435  27.190  20.729  1.00  0.00     0.317 HD
ATOM     19  N   UNL A   1      30.295  28.984  21.784  1.00  0.00    -0.148 N 
ATOM     20  N   UNL A   1      29.664  30.034  22.478  1.00  0.00    -0.077 NA
ATOM     21  H   UNL A   1      30.093  28.823  20.834  1.00  0.00     0.342 HD
ATOM     22  N   UNL A   1      30.878  29.549  24.458  1.00  0.00    -0.352 N 
ATOM     23  C   UNL A   1      29.962  30.225  23.720  1.00  0.00     0.241 C 
ATOM     24  H   UNL A   1      31.028  29.783  25.402  1.00  0.00     0.163 HD
ENDBRANCH   7  10
ENDBRANCH   5   6
ENDBRANCH   4   5
ENDBRANCH   3   4
ENDBRANCH   2   3
ENDBRANCH   1   2
BRANCH   1  25
ATOM     25  C   UNL A   1      36.632  23.751  25.683  1.00  0.00     0.116 C 
BRANCH  25  26
ATOM     26  N   UNL A   1      37.658  22.747  25.916  1.00  0.00    -0.352 N 
ATOM     27  C   UNL A   1      38.941  22.914  26.370  1.00  0.00     0.251 C 
ATOM     28  H   UNL A   1      37.395  21.819  25.719  1.00  0.00     0.163 HD
ATOM     29  O   UNL A   1      39.752  22.001  26.275  1.00  0.00    -0.269 OA
BRANCH  27  30
ATOM     30  C   UNL A   1      39.335  24.207  26.966  1.00  0.00     0.039 A 
ATOM     31  C   UNL A   1      38.978  24.481  28.287  1.00  0.00     0.014 A 
ATOM     32  C   UNL A   1      40.055  25.143  26.217  1.00  0.00     0.014 A 
ATOM     33  C   UNL A   1      39.386  25.680  28.874  1.00  0.00     0.010 A 
ATOM     34  C   UNL A   1      40.525  26.301  26.828  1.00  0.00     0.010 A 
ATOM     35  C   UNL A   1      40.187  26.586  28.158  1.00  0.00    -0.014 A 
BRANCH  35  36
ATOM     36  C   UNL A   1      40.676  27.839  28.784  1.00  0.00     0.031 A 
ATOM     37  C   UNL A   1      42.083  27.920  29.312  1.00  0.00     0.074 A 
ATOM     38  C   UNL A   1      39.836  28.884  28.924  1.00  0.00     0.049 A 
ATOM     39  N   UNL A   1      42.675  28.909  29.930  1.00  0.00    -0.248 NA
ATOM     40  C   UNL A   1      42.928  26.725  29.147  1.00  0.00     0.031 C 
ATOM     41  C   UNL A   1      38.438  28.913  28.488  1.00  0.00     0.029 A 
ATOM     42  N   UNL A   1      40.035  30.124  29.478  1.00  0.00    -0.354 N 
ATOM     43  C   UNL A   1      43.951  28.454  30.238  1.00  0.00     0.074 A 
ATOM     44  C   UNL A   1      44.032  27.082  29.787  1.00  0.00     0.031 C 
ATOM     45  C   UNL A   1      37.915  30.118  28.764  1.00  0.00     0.029 A 
ATOM     46  C   UNL A   1      38.922  30.931  29.436  1.00  0.00     0.049 A 
ATOM     47  H   UNL A   1      40.893  30.409  29.869  1.00  0.00     0.167 HD
ATOM     48  C   UNL A   1      44.972  29.123  30.823  1.00  0.00     0.031 A 
ATOM     49  C   UNL A   1      38.732  32.184  29.894  1.00  0.00     0.031 A 
ATOM     50  C   UNL A   1      44.888  30.490  31.263  1.00  0.00     0.049 A 
ATOM     51  C   UNL A   1      39.876  32.900  30.559  1.00  0.00     0.074 A 
ATOM     52  C   UNL A   1      45.882  31.276  31.820  1.00  0.00     0.029 A 
ATOM     53  N   UNL A   1      43.747  31.275  31.200  1.00  0.00    -0.354 N 
ATOM     54  N   UNL A   1      41.098  32.475  30.778  1.00  0.00    -0.248 NA
ATOM     55  C   UNL A   1      39.619  34.268  31.028  1.00  0.00     0.031 C 
ATOM     56  C   UNL A   1      45.325  32.516  32.149  1.00  0.00     0.029 A 
ATOM     57  C   UNL A   1      44.002  32.526  31.734  1.00  0.00     0.049 A 
ATOM     58  H   UNL A   1      42.881  30.984  30.830  1.00  0.00     0.167 HD
ATOM     59  C   UNL A   1      41.763  33.535  31.385  1.00  0.00     0.074 A 
ATOM     60  C   UNL A   1      40.813  34.624  31.482  1.00  0.00     0.031 C 
ATOM     61  C   UNL A   1      43.044  33.600  31.823  1.00  0.00     0.031 A 
BRANCH  48  62
ATOM     62  C   UNL A   1      46.270  28.383  31.027  1.00  0.00    -0.014 A 
ATOM     63  C   UNL A   1      47.298  28.440  30.068  1.00  0.00     0.010 A 
ATOM     64  C   UNL A   1      46.483  27.660  32.215  1.00  0.00     0.010 A 
ATOM     65  C   UNL A   1      48.499  27.757  30.277  1.00  0.00     0.020 A 
ATOM     66  C   UNL A   1      47.695  27.001  32.441  1.00  0.00     0.020 A 
ATOM     67  C   UNL A   1      48.690  27.041  31.462  1.00  0.00     0.054 A 
BRANCH  67  68
ATOM     68  S   UNL A   1      50.271  26.190  31.718  1.00  0.00     0.124 S 
ATOM     69  O   UNL A   1      50.048  24.924  31.024  1.00  0.00    -0.237 OA
ATOM     70  O   UNL A   1      51.226  27.094  31.082  1.00  0.00    -0.237 OA
ATOM     71  O   UNL A   1      50.382  26.091  33.171  1.00  0.00    -0.744 OA
ENDBRANCH  67  68
ENDBRANCH  48  62
BRANCH  49  72
ATOM     72  C   UNL A   1      37.406  32.844  29.732  1.00  0.00    -0.014 A 
ATOM     73  C   UNL A   1      36.477  32.855  30.788  1.00  0.00     0.010 A 
ATOM     74  C   UNL A   1      37.067  33.470  28.519  1.00  0.00     0.010 A 
ATOM     75  C   UNL A   1      35.226  33.458  30.626  1.00  0.00     0.020 A 
ATOM     76  C   UNL A   1      35.830  34.102  28.363  1.00  0.00     0.020 A 
ATOM     77  C   UNL A   1      34.911  34.079  29.414  1.00  0.00     0.054 A 
BRANCH  77  78
ATOM     78  S   UNL A   1      33.297  34.889  29.240  1.00  0.00     0.124 S 
ATOM     79  O   UNL A   1      33.674  36.221  28.776  1.00  0.00    -0.237 OA
ATOM     80  O   UNL A   1      32.624  34.043  28.260  1.00  0.00    -0.237 OA
ATOM     81  O   UNL A   1      32.739  34.831  30.590  1.00  0.00    -0.744 OA
ENDBRANCH  77  78
ENDBRANCH  49  72
BRANCH  61  82
ATOM     82  C   UNL A   1      43.509  34.905  32.416  1.00  0.00    -0.014 A 
ATOM     83  C   UNL A   1      43.426  35.151  33.798  1.00  0.00     0.010 A 
ATOM     84  C   UNL A   1      44.090  35.876  31.582  1.00  0.00     0.010 A 
ATOM     85  C   UNL A   1      43.885  36.360  34.329  1.00  0.00     0.020 A 
ATOM     86  C   UNL A   1      44.579  37.072  32.112  1.00  0.00     0.020 A 
ATOM     87  C   UNL A   1      44.460  37.312  33.482  1.00  0.00     0.054 A 
BRANCH  87  88
ATOM     88  S   UNL A   1      45.088  38.853  34.203  1.00  0.00     0.124 S 
ATOM     89  O   UNL A   1      45.628  39.539  33.033  1.00  0.00    -0.237 OA
ATOM     90  O   UNL A   1      43.886  39.448  34.782  1.00  0.00    -0.237 OA
ATOM     91  O   UNL A   1      46.082  38.401  35.174  1.00  0.00    -0.744 OA
ENDBRANCH  87  88
ENDBRANCH  61  82
ENDBRANCH  35  36
ENDBRANCH  27  30
ENDBRANCH  25  26
ENDBRANCH   1  25
TORSDOF 16
ENDMDL
