MODEL 1
REMARK VINA RESULT:     -10.6      0.000      0.000
REMARK SMILES O=C(NCCCCCCNC(=O)[C@H]1CCCN1S(=O)(=O)c1cccc([N+](=O)[O-])c1)c1ccc(-c2c3nc(c(-c4ccc(S(=O)(=O)[O-])cc4)c4ccc([nH]4)c(-c4ccc(S(=O)(=O)[O-])cc4)c4nc(c(-c5ccc(S(=O)(=O)[O-])cc5)c5ccc2[nH]5)C=C4)C=C3)cc1
REMARK SMILES IDX 6 1 5 2 4 3 3 4 1 5 2 6 30 8 31 9 89 10 32 11 88 12 33 13
REMARK SMILES IDX 34 14 35 15 82 16 36 17 87 18 81 19 83 20 37 21 86 22 80 23
REMARK SMILES IDX 79 24 38 26 68 27 49 28 67 29 50 30 53 31 66 32 84 33 51 34
REMARK SMILES IDX 52 35 65 37 85 38 54 39 39 40 40 41 48 42 41 43 47 44 42 45
REMARK SMILES IDX 43 46 44 47 45 48 46 49 69 50 70 51 78 52 71 53 77 54 72 55
REMARK SMILES IDX 73 56 74 57 75 58 76 59 55 60 56 61 64 62 57 63 63 64 58 65
REMARK SMILES IDX 59 66 60 67 61 68 62 69 7 70 8 71 9 72 10 73 11 74 12 76
REMARK SMILES IDX 13 77 14 78 17 79 15 80 16 81 18 82 19 83 20 84 21 85 22 86
REMARK SMILES IDX 29 87 23 88 25 89 24 90 26 91 27 92 28 93
REMARK H PARENT 3 7 83 25 53 36 10 75
REMARK Flexibility Score: inf
ROOT
ATOM      1  C   UNL A   1      31.642  28.740  26.082  1.00  0.00     0.002 C 
ENDROOT
BRANCH   1   2
ATOM      2  C   UNL A   1      32.822  27.782  26.260  1.00  0.00     0.021 C 
BRANCH   2   3
ATOM      3  C   UNL A   1      34.105  28.430  26.771  1.00  0.00     0.116 C 
BRANCH   3   4
ATOM      4  N   UNL A   1      33.875  29.755  27.314  1.00  0.00    -0.352 N 
ATOM      5  O   UNL A   1      34.267  31.536  28.636  1.00  0.00    -0.269 OA
ATOM      6  C   UNL A   1      34.690  30.504  28.126  1.00  0.00     0.251 C 
ATOM      7  H   UNL A   1      33.019  30.175  27.066  1.00  0.00     0.163 HD
BRANCH   6   8
ATOM      8  C   UNL A   1      36.075  30.054  28.392  1.00  0.00     0.039 A 
ATOM      9  C   UNL A   1      37.069  30.184  27.417  1.00  0.00     0.014 A 
ATOM     10  C   UNL A   1      36.389  29.539  29.652  1.00  0.00     0.014 A 
ATOM     11  C   UNL A   1      38.358  29.724  27.674  1.00  0.00     0.010 A 
ATOM     12  C   UNL A   1      37.697  29.134  29.931  1.00  0.00     0.010 A 
ATOM     13  C   UNL A   1      38.690  29.222  28.943  1.00  0.00    -0.014 A 
BRANCH  13  14
ATOM     14  C   UNL A   1      40.107  28.923  29.264  1.00  0.00     0.031 A 
ATOM     15  C   UNL A   1      41.004  29.953  29.890  1.00  0.00     0.074 A 
ATOM     16  C   UNL A   1      40.582  27.699  28.955  1.00  0.00     0.049 A 
ATOM     17  N   UNL A   1      42.269  29.847  30.209  1.00  0.00    -0.248 NA
ATOM     18  C   UNL A   1      40.416  31.267  30.191  1.00  0.00     0.031 C 
ATOM     19  C   UNL A   1      39.804  26.630  28.320  1.00  0.00     0.029 A 
ATOM     20  N   UNL A   1      41.825  27.147  29.124  1.00  0.00    -0.354 N 
ATOM     21  C   UNL A   1      42.636  31.083  30.727  1.00  0.00     0.074 A 
ATOM     22  C   UNL A   1      41.462  31.928  30.675  1.00  0.00     0.031 C 
ATOM     23  C   UNL A   1      40.583  25.550  28.168  1.00  0.00     0.029 A 
ATOM     24  C   UNL A   1      41.925  25.864  28.640  1.00  0.00     0.049 A 
ATOM     25  H   UNL A   1      42.574  27.624  29.551  1.00  0.00     0.167 HD
ATOM     26  C   UNL A   1      43.845  31.470  31.199  1.00  0.00     0.031 A 
ATOM     27  C   UNL A   1      42.986  25.040  28.552  1.00  0.00     0.031 A 
ATOM     28  C   UNL A   1      45.003  30.617  31.254  1.00  0.00     0.049 A 
ATOM     29  C   UNL A   1      44.319  25.514  29.053  1.00  0.00     0.074 A 
ATOM     30  C   UNL A   1      46.248  30.894  31.796  1.00  0.00     0.029 A 
ATOM     31  N   UNL A   1      45.071  29.334  30.734  1.00  0.00    -0.354 N 
ATOM     32  N   UNL A   1      44.621  26.656  29.622  1.00  0.00    -0.248 NA
ATOM     33  C   UNL A   1      45.453  24.594  28.893  1.00  0.00     0.031 C 
ATOM     34  C   UNL A   1      47.085  29.801  31.551  1.00  0.00     0.029 A 
ATOM     35  C   UNL A   1      46.348  28.825  30.899  1.00  0.00     0.049 A 
ATOM     36  H   UNL A   1      44.322  28.856  30.311  1.00  0.00     0.167 HD
ATOM     37  C   UNL A   1      45.983  26.593  29.887  1.00  0.00     0.074 A 
ATOM     38  C   UNL A   1      46.438  25.289  29.444  1.00  0.00     0.031 C 
ATOM     39  C   UNL A   1      46.786  27.533  30.439  1.00  0.00     0.031 A 
BRANCH  26  40
ATOM     40  C   UNL A   1      44.002  32.887  31.682  1.00  0.00    -0.014 A 
ATOM     41  C   UNL A   1      44.305  33.930  30.791  1.00  0.00     0.010 A 
ATOM     42  C   UNL A   1      43.729  33.192  33.029  1.00  0.00     0.010 A 
ATOM     43  C   UNL A   1      44.341  35.254  31.240  1.00  0.00     0.020 A 
ATOM     44  C   UNL A   1      43.748  34.516  33.477  1.00  0.00     0.020 A 
ATOM     45  C   UNL A   1      44.060  35.539  32.581  1.00  0.00     0.054 A 
BRANCH  45  46
ATOM     46  S   UNL A   1      44.046  37.272  33.119  1.00  0.00     0.124 S 
ATOM     47  O   UNL A   1      45.294  37.361  33.874  1.00  0.00    -0.237 OA
ATOM     48  O   UNL A   1      44.026  38.001  31.854  1.00  0.00    -0.237 OA
ATOM     49  O   UNL A   1      42.827  37.378  33.916  1.00  0.00    -0.744 OA
ENDBRANCH  45  46
ENDBRANCH  26  40
BRANCH  27  50
ATOM     50  C   UNL A   1      42.837  23.708  27.908  1.00  0.00    -0.014 A 
ATOM     51  C   UNL A   1      42.289  22.625  28.614  1.00  0.00     0.010 A 
ATOM     52  C   UNL A   1      43.241  23.524  26.573  1.00  0.00     0.010 A 
ATOM     53  C   UNL A   1      42.167  21.374  28.001  1.00  0.00     0.020 A 
ATOM     54  C   UNL A   1      43.096  22.284  25.950  1.00  0.00     0.020 A 
ATOM     55  C   UNL A   1      42.575  21.211  26.674  1.00  0.00     0.054 A 
BRANCH  55  56
ATOM     56  S   UNL A   1      42.376  19.591  25.882  1.00  0.00     0.124 S 
ATOM     57  O   UNL A   1      43.315  19.683  24.769  1.00  0.00    -0.237 OA
ATOM     58  O   UNL A   1      42.748  18.666  26.951  1.00  0.00    -0.237 OA
ATOM     59  O   UNL A   1      40.963  19.566  25.513  1.00  0.00    -0.744 OA
ENDBRANCH  55  56
ENDBRANCH  27  50
BRANCH  39  60
ATOM     60  C   UNL A   1      48.241  27.188  30.588  1.00  0.00    -0.014 A 
ATOM     61  C   UNL A   1      49.173  27.576  29.611  1.00  0.00     0.010 A 
ATOM     62  C   UNL A   1      48.687  26.515  31.741  1.00  0.00     0.010 A 
ATOM     63  C   UNL A   1      50.529  27.278  29.772  1.00  0.00     0.020 A 
ATOM     64  C   UNL A   1      50.044  26.237  31.915  1.00  0.00     0.020 A 
ATOM     65  C   UNL A   1      50.955  26.610  30.924  1.00  0.00     0.054 A 
BRANCH  65  66
ATOM     66  S   UNL A   1      52.727  26.283  31.137  1.00  0.00     0.124 S 
ATOM     67  O   UNL A   1      52.714  25.032  31.893  1.00  0.00    -0.237 OA
ATOM     68  O   UNL A   1      53.203  26.180  29.760  1.00  0.00    -0.237 OA
ATOM     69  O   UNL A   1      53.207  27.450  31.872  1.00  0.00    -0.744 OA
ENDBRANCH  65  66
ENDBRANCH  39  60
ENDBRANCH  13  14
ENDBRANCH   6   8
ENDBRANCH   3   4
ENDBRANCH   2   3
ENDBRANCH   1   2
BRANCH   1  70
ATOM     70  C   UNL A   1      31.575  29.456  24.729  1.00  0.00     0.002 C 
BRANCH  70  71
ATOM     71  C   UNL A   1      32.346  28.782  23.589  1.00  0.00     0.021 C 
BRANCH  71  72
ATOM     72  C   UNL A   1      31.511  27.862  22.704  1.00  0.00     0.116 C 
BRANCH  72  73
ATOM     73  N   UNL A   1      32.328  26.910  21.990  1.00  0.00    -0.355 N 
ATOM     74  C   UNL A   1      32.809  25.706  22.405  1.00  0.00     0.238 C 
ATOM     75  H   UNL A   1      32.573  27.168  21.072  1.00  0.00     0.163 HD
ATOM     76  O   UNL A   1      33.515  25.083  21.606  1.00  0.00    -0.273 OA
BRANCH  74  77
ATOM     77  C   UNL A   1      32.447  25.154  23.802  1.00  0.00     0.162 C 
ATOM     78  C   UNL A   1      30.935  25.233  24.015  1.00  0.00     0.032 C 
ATOM     79  N   UNL A   1      32.742  23.683  23.907  1.00  0.00    -0.185 NA
ATOM     80  C   UNL A   1      30.401  23.994  23.314  1.00  0.00     0.019 C 
ATOM     81  C   UNL A   1      31.571  23.015  23.241  1.00  0.00     0.103 C 
BRANCH  79  82
ATOM     82  S   UNL A   1      33.044  23.046  25.476  1.00  0.00     0.244 S 
ATOM     83  O   UNL A   1      33.177  24.147  26.403  1.00  0.00    -0.207 OA
ATOM     84  O   UNL A   1      32.072  21.998  25.707  1.00  0.00    -0.207 OA
BRANCH  82  85
ATOM     85  C   UNL A   1      34.636  22.255  25.370  1.00  0.00     0.089 A 
ATOM     86  C   UNL A   1      34.729  20.934  24.910  1.00  0.00     0.022 A 
ATOM     87  C   UNL A   1      35.775  22.925  25.823  1.00  0.00     0.107 A 
ATOM     88  C   UNL A   1      35.972  20.297  24.862  1.00  0.00     0.008 A 
ATOM     89  C   UNL A   1      37.022  22.298  25.713  1.00  0.00     0.270 A 
ATOM     90  C   UNL A   1      37.128  20.981  25.245  1.00  0.00     0.086 A 
BRANCH  89  91
ATOM     91  N   UNL A   1      38.235  23.057  26.030  1.00  0.00     0.062 N 
ATOM     92  O   UNL A   1      38.128  24.277  26.194  1.00  0.00    -0.258 OA
ATOM     93  O   UNL A   1      39.287  22.412  26.158  1.00  0.00    -0.258 OA
ENDBRANCH  89  91
ENDBRANCH  82  85
ENDBRANCH  79  82
ENDBRANCH  74  77
ENDBRANCH  72  73
ENDBRANCH  71  72
ENDBRANCH  70  71
ENDBRANCH   1  70
TORSDOF 19
ENDMDL
MODEL 2
REMARK VINA RESULT:     -10.5      1.294      8.242
REMARK SMILES O=C(NCCCCCCNC(=O)[C@H]1CCCN1S(=O)(=O)c1cccc([N+](=O)[O-])c1)c1ccc(-c2c3nc(c(-c4ccc(S(=O)(=O)[O-])cc4)c4ccc([nH]4)c(-c4ccc(S(=O)(=O)[O-])cc4)c4nc(c(-c5ccc(S(=O)(=O)[O-])cc5)c5ccc2[nH]5)C=C4)C=C3)cc1
REMARK SMILES IDX 6 1 5 2 4 3 3 4 1 5 2 6 30 8 31 9 89 10 32 11 88 12 33 13
REMARK SMILES IDX 34 14 35 15 82 16 36 17 87 18 81 19 83 20 37 21 86 22 80 23
REMARK SMILES IDX 79 24 38 26 68 27 49 28 67 29 50 30 53 31 66 32 84 33 51 34
REMARK SMILES IDX 52 35 65 37 85 38 54 39 39 40 40 41 48 42 41 43 47 44 42 45
REMARK SMILES IDX 43 46 44 47 45 48 46 49 69 50 70 51 78 52 71 53 77 54 72 55
REMARK SMILES IDX 73 56 74 57 75 58 76 59 55 60 56 61 64 62 57 63 63 64 58 65
REMARK SMILES IDX 59 66 60 67 61 68 62 69 7 70 8 71 9 72 10 73 11 74 12 76
REMARK SMILES IDX 13 77 14 78 17 79 15 80 16 81 18 82 19 83 20 84 21 85 22 86
REMARK SMILES IDX 29 87 23 88 25 89 24 90 26 91 27 92 28 93
REMARK H PARENT 3 7 83 25 53 36 10 75
REMARK Flexibility Score: inf
ROOT
ATOM      1  C   UNL A   1      32.840  28.698  25.131  1.00  0.00     0.002 C 
ENDROOT
BRANCH   1   2
ATOM      2  C   UNL A   1      32.887  27.720  26.307  1.00  0.00     0.021 C 
BRANCH   2   3
ATOM      3  C   UNL A   1      33.377  28.318  27.622  1.00  0.00     0.116 C 
BRANCH   3   4
ATOM      4  N   UNL A   1      33.332  29.768  27.618  1.00  0.00    -0.352 N 
ATOM      5  O   UNL A   1      34.058  31.853  28.069  1.00  0.00    -0.269 OA
ATOM      6  C   UNL A   1      34.319  30.658  27.963  1.00  0.00     0.251 C 
ATOM      7  H   UNL A   1      32.480  30.168  27.328  1.00  0.00     0.163 HD
BRANCH   6   8
ATOM      8  C   UNL A   1      35.693  30.170  28.218  1.00  0.00     0.039 A 
ATOM      9  C   UNL A   1      36.662  30.203  27.211  1.00  0.00     0.014 A 
ATOM     10  C   UNL A   1      36.023  29.717  29.497  1.00  0.00     0.014 A 
ATOM     11  C   UNL A   1      37.939  29.709  27.460  1.00  0.00     0.010 A 
ATOM     12  C   UNL A   1      37.323  29.278  29.765  1.00  0.00     0.010 A 
ATOM     13  C   UNL A   1      38.289  29.269  28.746  1.00  0.00    -0.014 A 
BRANCH  13  14
ATOM     14  C   UNL A   1      39.703  28.933  29.046  1.00  0.00     0.031 A 
ATOM     15  C   UNL A   1      40.294  27.609  28.656  1.00  0.00     0.074 A 
ATOM     16  C   UNL A   1      40.443  29.846  29.707  1.00  0.00     0.049 A 
ATOM     17  N   UNL A   1      41.506  27.162  28.869  1.00  0.00    -0.248 NA
ATOM     18  C   UNL A   1      39.421  26.662  27.945  1.00  0.00     0.031 C 
ATOM     19  C   UNL A   1      39.960  31.156  30.157  1.00  0.00     0.029 A 
ATOM     20  N   UNL A   1      41.750  29.816  30.120  1.00  0.00    -0.354 N 
ATOM     21  C   UNL A   1      41.538  25.878  28.340  1.00  0.00     0.074 A 
ATOM     22  C   UNL A   1      40.222  25.612  27.800  1.00  0.00     0.031 C 
ATOM     23  C   UNL A   1      40.960  31.807  30.769  1.00  0.00     0.029 A 
ATOM     24  C   UNL A   1      42.135  30.944  30.804  1.00  0.00     0.049 A 
ATOM     25  H   UNL A   1      42.355  29.059  29.942  1.00  0.00     0.167 HD
ATOM     26  C   UNL A   1      42.574  25.006  28.314  1.00  0.00     0.031 A 
ATOM     27  C   UNL A   1      43.291  31.243  31.425  1.00  0.00     0.031 A 
ATOM     28  C   UNL A   1      43.882  25.287  28.846  1.00  0.00     0.049 A 
ATOM     29  C   UNL A   1      44.407  30.240  31.405  1.00  0.00     0.074 A 
ATOM     30  C   UNL A   1      45.019  24.498  28.787  1.00  0.00     0.029 A 
ATOM     31  N   UNL A   1      44.225  26.430  29.551  1.00  0.00    -0.354 N 
ATOM     32  N   UNL A   1      44.443  29.067  30.820  1.00  0.00    -0.248 NA
ATOM     33  C   UNL A   1      45.631  30.595  32.135  1.00  0.00     0.031 C 
ATOM     34  C   UNL A   1      46.033  25.138  29.508  1.00  0.00     0.029 A 
ATOM     35  C   UNL A   1      45.540  26.346  29.974  1.00  0.00     0.049 A 
ATOM     36  H   UNL A   1      43.622  27.188  29.725  1.00  0.00     0.167 HD
ATOM     37  C   UNL A   1      45.696  28.542  31.113  1.00  0.00     0.074 A 
ATOM     38  C   UNL A   1      46.396  29.537  31.900  1.00  0.00     0.031 C 
ATOM     39  C   UNL A   1      46.215  27.339  30.768  1.00  0.00     0.031 A 
BRANCH  26  40
ATOM     40  C   UNL A   1      42.347  23.648  27.707  1.00  0.00    -0.014 A 
ATOM     41  C   UNL A   1      42.662  23.388  26.362  1.00  0.00     0.010 A 
ATOM     42  C   UNL A   1      41.920  22.587  28.529  1.00  0.00     0.010 A 
ATOM     43  C   UNL A   1      42.545  22.094  25.847  1.00  0.00     0.020 A 
ATOM     44  C   UNL A   1      41.818  21.289  28.021  1.00  0.00     0.020 A 
ATOM     45  C   UNL A   1      42.126  21.052  26.680  1.00  0.00     0.054 A 
BRANCH  45  46
ATOM     46  S   UNL A   1      42.050  19.370  26.001  1.00  0.00     0.124 S 
ATOM     47  O   UNL A   1      40.619  19.212  25.750  1.00  0.00    -0.237 OA
ATOM     48  O   UNL A   1      42.889  19.466  24.810  1.00  0.00    -0.237 OA
ATOM     49  O   UNL A   1      42.590  18.538  27.074  1.00  0.00    -0.744 OA
ENDBRANCH  45  46
ENDBRANCH  26  40
BRANCH  27  50
ATOM     50  C   UNL A   1      43.424  32.524  32.167  1.00  0.00    -0.014 A 
ATOM     51  C   UNL A   1      43.099  32.603  33.532  1.00  0.00     0.010 A 
ATOM     52  C   UNL A   1      43.887  33.675  31.503  1.00  0.00     0.010 A 
ATOM     53  C   UNL A   1      43.216  33.817  34.214  1.00  0.00     0.020 A 
ATOM     54  C   UNL A   1      44.030  34.883  32.189  1.00  0.00     0.020 A 
ATOM     55  C   UNL A   1      43.678  34.951  33.537  1.00  0.00     0.054 A 
BRANCH  55  56
ATOM     56  S   UNL A   1      43.858  36.510  34.447  1.00  0.00     0.124 S 
ATOM     57  O   UNL A   1      43.141  36.220  35.685  1.00  0.00    -0.237 OA
ATOM     58  O   UNL A   1      45.308  36.641  34.570  1.00  0.00    -0.237 OA
ATOM     59  O   UNL A   1      43.225  37.489  33.568  1.00  0.00    -0.744 OA
ENDBRANCH  55  56
ENDBRANCH  27  50
BRANCH  39  60
ATOM     60  C   UNL A   1      47.607  27.033  31.247  1.00  0.00    -0.014 A 
ATOM     61  C   UNL A   1      47.813  26.326  32.444  1.00  0.00     0.010 A 
ATOM     62  C   UNL A   1      48.715  27.409  30.467  1.00  0.00     0.010 A 
ATOM     63  C   UNL A   1      49.108  26.018  32.867  1.00  0.00     0.020 A 
ATOM     64  C   UNL A   1      50.010  27.082  30.875  1.00  0.00     0.020 A 
ATOM     65  C   UNL A   1      50.198  26.399  32.079  1.00  0.00     0.054 A 
BRANCH  65  66
ATOM     66  S   UNL A   1      51.868  25.940  32.620  1.00  0.00     0.124 S 
ATOM     67  O   UNL A   1      51.602  24.778  33.466  1.00  0.00    -0.237 OA
ATOM     68  O   UNL A   1      52.549  25.656  31.360  1.00  0.00    -0.237 OA
ATOM     69  O   UNL A   1      52.341  27.129  33.325  1.00  0.00    -0.744 OA
ENDBRANCH  65  66
ENDBRANCH  39  60
ENDBRANCH  13  14
ENDBRANCH   6   8
ENDBRANCH   3   4
ENDBRANCH   2   3
ENDBRANCH   1   2
BRANCH   1  70
ATOM     70  C   UNL A   1      33.974  28.554  24.111  1.00  0.00     0.002 C 
BRANCH  70  71
ATOM     71  C   UNL A   1      33.565  28.715  22.643  1.00  0.00     0.021 C 
BRANCH  71  72
ATOM     72  C   UNL A   1      32.366  27.875  22.214  1.00  0.00     0.116 C 
BRANCH  72  73
ATOM     73  N   UNL A   1      32.768  26.668  21.531  1.00  0.00    -0.355 N 
ATOM     74  C   UNL A   1      32.941  25.413  22.030  1.00  0.00     0.238 C 
ATOM     75  H   UNL A   1      32.944  26.768  20.568  1.00  0.00     0.163 HD
ATOM     76  O   UNL A   1      33.320  24.547  21.236  1.00  0.00    -0.273 OA
BRANCH  74  77
ATOM     77  C   UNL A   1      32.638  25.108  23.513  1.00  0.00     0.162 C 
ATOM     78  C   UNL A   1      31.275  25.687  23.895  1.00  0.00     0.032 C 
ATOM     79  N   UNL A   1      32.474  23.632  23.750  1.00  0.00    -0.185 NA
ATOM     80  C   UNL A   1      30.284  24.640  23.408  1.00  0.00     0.019 C 
ATOM     81  C   UNL A   1      31.068  23.334  23.309  1.00  0.00     0.103 C 
BRANCH  79  82
ATOM     82  S   UNL A   1      32.794  23.044  25.334  1.00  0.00     0.244 S 
ATOM     83  O   UNL A   1      33.706  23.955  25.989  1.00  0.00    -0.207 OA
ATOM     84  O   UNL A   1      31.518  22.716  25.936  1.00  0.00    -0.207 OA
BRANCH  82  85
ATOM     85  C   UNL A   1      33.663  21.507  25.105  1.00  0.00     0.089 A 
ATOM     86  C   UNL A   1      35.057  21.467  25.238  1.00  0.00     0.022 A 
ATOM     87  C   UNL A   1      32.960  20.364  24.712  1.00  0.00     0.107 A 
ATOM     88  C   UNL A   1      35.747  20.270  25.021  1.00  0.00     0.008 A 
ATOM     89  C   UNL A   1      33.654  19.159  24.558  1.00  0.00     0.270 A 
ATOM     90  C   UNL A   1      35.047  19.105  24.698  1.00  0.00     0.086 A 
BRANCH  89  91
ATOM     91  N   UNL A   1      32.900  17.926  24.311  1.00  0.00     0.062 N 
ATOM     92  O   UNL A   1      31.957  17.663  25.064  1.00  0.00    -0.258 OA
ATOM     93  O   UNL A   1      33.234  17.249  23.327  1.00  0.00    -0.258 OA
ENDBRANCH  89  91
ENDBRANCH  82  85
ENDBRANCH  79  82
ENDBRANCH  74  77
ENDBRANCH  72  73
ENDBRANCH  71  72
ENDBRANCH  70  71
ENDBRANCH   1  70
TORSDOF 19
ENDMDL
MODEL 3
REMARK VINA RESULT:     -10.5      4.795     10.335
REMARK SMILES O=C(NCCCCCCNC(=O)[C@H]1CCCN1S(=O)(=O)c1cccc([N+](=O)[O-])c1)c1ccc(-c2c3nc(c(-c4ccc(S(=O)(=O)[O-])cc4)c4ccc([nH]4)c(-c4ccc(S(=O)(=O)[O-])cc4)c4nc(c(-c5ccc(S(=O)(=O)[O-])cc5)c5ccc2[nH]5)C=C4)C=C3)cc1
REMARK SMILES IDX 6 1 5 2 4 3 3 4 1 5 2 6 30 8 31 9 89 10 32 11 88 12 33 13
REMARK SMILES IDX 34 14 35 15 82 16 36 17 87 18 81 19 83 20 37 21 86 22 80 23
REMARK SMILES IDX 79 24 38 26 68 27 49 28 67 29 50 30 53 31 66 32 84 33 51 34
REMARK SMILES IDX 52 35 65 37 85 38 54 39 39 40 40 41 48 42 41 43 47 44 42 45
REMARK SMILES IDX 43 46 44 47 45 48 46 49 69 50 70 51 78 52 71 53 77 54 72 55
REMARK SMILES IDX 73 56 74 57 75 58 76 59 55 60 56 61 64 62 57 63 63 64 58 65
REMARK SMILES IDX 59 66 60 67 61 68 62 69 7 70 8 71 9 72 10 73 11 74 12 76
REMARK SMILES IDX 13 77 14 78 17 79 15 80 16 81 18 82 19 83 20 84 21 85 22 86
REMARK SMILES IDX 29 87 23 88 25 89 24 90 26 91 27 92 28 93
REMARK H PARENT 3 7 83 25 53 36 10 75
REMARK Flexibility Score: inf
ROOT
ATOM      1  C   UNL A   1      41.269  22.055  27.851  1.00  0.00     0.002 C 
ENDROOT
BRANCH   1   2
ATOM      2  C   UNL A   1      42.659  22.216  27.229  1.00  0.00     0.021 C 
BRANCH   2   3
ATOM      3  C   UNL A   1      43.160  23.653  27.134  1.00  0.00     0.116 C 
BRANCH   3   4
ATOM      4  N   UNL A   1      42.585  24.363  26.007  1.00  0.00    -0.352 N 
ATOM      5  O   UNL A   1      41.311  25.911  24.980  1.00  0.00    -0.269 OA
ATOM      6  C   UNL A   1      41.875  25.538  26.004  1.00  0.00     0.251 C 
ATOM      7  H   UNL A   1      42.725  23.947  25.125  1.00  0.00     0.163 HD
BRANCH   6   8
ATOM      8  C   UNL A   1      41.782  26.344  27.242  1.00  0.00     0.039 A 
ATOM      9  C   UNL A   1      42.652  27.416  27.464  1.00  0.00     0.014 A 
ATOM     10  C   UNL A   1      40.781  26.047  28.169  1.00  0.00     0.014 A 
ATOM     11  C   UNL A   1      42.571  28.142  28.649  1.00  0.00     0.010 A 
ATOM     12  C   UNL A   1      40.660  26.814  29.331  1.00  0.00     0.010 A 
ATOM     13  C   UNL A   1      41.557  27.866  29.580  1.00  0.00    -0.014 A 
BRANCH  13  14
ATOM     14  C   UNL A   1      41.360  28.770  30.739  1.00  0.00     0.031 A 
ATOM     15  C   UNL A   1      42.187  28.639  31.986  1.00  0.00     0.074 A 
ATOM     16  C   UNL A   1      40.393  29.707  30.654  1.00  0.00     0.049 A 
ATOM     17  N   UNL A   1      42.117  29.340  33.088  1.00  0.00    -0.248 NA
ATOM     18  C   UNL A   1      43.217  27.588  32.006  1.00  0.00     0.031 C 
ATOM     19  C   UNL A   1      39.512  29.905  29.498  1.00  0.00     0.029 A 
ATOM     20  N   UNL A   1      39.984  30.661  31.549  1.00  0.00    -0.354 N 
ATOM     21  C   UNL A   1      43.074  28.806  33.942  1.00  0.00     0.074 A 
ATOM     22  C   UNL A   1      43.710  27.716  33.233  1.00  0.00     0.031 C 
ATOM     23  C   UNL A   1      38.679  30.925  29.750  1.00  0.00     0.029 A 
ATOM     24  C   UNL A   1      38.926  31.416  31.100  1.00  0.00     0.049 A 
ATOM     25  H   UNL A   1      40.406  30.793  32.428  1.00  0.00     0.167 HD
ATOM     26  C   UNL A   1      43.387  29.194  35.202  1.00  0.00     0.031 A 
ATOM     27  C   UNL A   1      38.208  32.373  31.714  1.00  0.00     0.031 A 
ATOM     28  C   UNL A   1      42.753  30.286  35.893  1.00  0.00     0.049 A 
ATOM     29  C   UNL A   1      38.559  32.755  33.122  1.00  0.00     0.074 A 
ATOM     30  C   UNL A   1      43.062  30.808  37.138  1.00  0.00     0.029 A 
ATOM     31  N   UNL A   1      41.672  31.010  35.414  1.00  0.00    -0.354 N 
ATOM     32  N   UNL A   1      39.528  32.297  33.877  1.00  0.00    -0.248 NA
ATOM     33  C   UNL A   1      37.717  33.774  33.763  1.00  0.00     0.031 C 
ATOM     34  C   UNL A   1      42.131  31.808  37.437  1.00  0.00     0.029 A 
ATOM     35  C   UNL A   1      41.272  31.941  36.358  1.00  0.00     0.049 A 
ATOM     36  H   UNL A   1      41.252  30.882  34.534  1.00  0.00     0.167 HD
ATOM     37  C   UNL A   1      39.412  32.972  35.086  1.00  0.00     0.074 A 
ATOM     38  C   UNL A   1      38.298  33.890  34.950  1.00  0.00     0.031 C 
ATOM     39  C   UNL A   1      40.154  32.835  36.211  1.00  0.00     0.031 A 
BRANCH  26  40
ATOM     40  C   UNL A   1      44.450  28.427  35.941  1.00  0.00    -0.014 A 
ATOM     41  C   UNL A   1      45.796  28.827  35.902  1.00  0.00     0.010 A 
ATOM     42  C   UNL A   1      44.075  27.358  36.777  1.00  0.00     0.010 A 
ATOM     43  C   UNL A   1      46.752  28.167  36.680  1.00  0.00     0.020 A 
ATOM     44  C   UNL A   1      45.026  26.707  37.569  1.00  0.00     0.020 A 
ATOM     45  C   UNL A   1      46.360  27.111  37.510  1.00  0.00     0.054 A 
BRANCH  45  46
ATOM     46  S   UNL A   1      47.610  26.319  38.560  1.00  0.00     0.124 S 
ATOM     47  O   UNL A   1      48.819  26.470  37.754  1.00  0.00    -0.237 OA
ATOM     48  O   UNL A   1      47.564  27.124  39.778  1.00  0.00    -0.237 OA
ATOM     49  O   UNL A   1      47.125  24.948  38.704  1.00  0.00    -0.744 OA
ENDBRANCH  45  46
ENDBRANCH  26  40
BRANCH  27  50
ATOM     50  C   UNL A   1      37.049  32.991  31.018  1.00  0.00    -0.014 A 
ATOM     51  C   UNL A   1      37.208  33.619  29.771  1.00  0.00     0.010 A 
ATOM     52  C   UNL A   1      35.771  32.945  31.606  1.00  0.00     0.010 A 
ATOM     53  C   UNL A   1      36.112  34.207  29.134  1.00  0.00     0.020 A 
ATOM     54  C   UNL A   1      34.670  33.509  30.960  1.00  0.00     0.020 A 
ATOM     55  C   UNL A   1      34.850  34.152  29.734  1.00  0.00     0.054 A 
BRANCH  55  56
ATOM     56  S   UNL A   1      33.432  34.889  28.877  1.00  0.00     0.124 S 
ATOM     57  O   UNL A   1      33.091  33.849  27.911  1.00  0.00    -0.237 OA
ATOM     58  O   UNL A   1      32.471  35.086  29.960  1.00  0.00    -0.237 OA
ATOM     59  O   UNL A   1      33.980  36.118  28.310  1.00  0.00    -0.744 OA
ENDBRANCH  55  56
ENDBRANCH  27  50
BRANCH  39  60
ATOM     60  C   UNL A   1      39.781  33.696  37.385  1.00  0.00    -0.014 A 
ATOM     61  C   UNL A   1      38.878  33.230  38.356  1.00  0.00     0.010 A 
ATOM     62  C   UNL A   1      40.377  34.960  37.545  1.00  0.00     0.010 A 
ATOM     63  C   UNL A   1      38.560  34.024  39.461  1.00  0.00     0.020 A 
ATOM     64  C   UNL A   1      40.079  35.746  38.660  1.00  0.00     0.020 A 
ATOM     65  C   UNL A   1      39.163  35.277  39.605  1.00  0.00     0.054 A 
BRANCH  65  66
ATOM     66  S   UNL A   1      38.776  36.267  41.076  1.00  0.00     0.124 S 
ATOM     67  O   UNL A   1      40.050  36.254  41.792  1.00  0.00    -0.237 OA
ATOM     68  O   UNL A   1      38.389  37.554  40.505  1.00  0.00    -0.237 OA
ATOM     69  O   UNL A   1      37.694  35.524  41.716  1.00  0.00    -0.744 OA
ENDBRANCH  65  66
ENDBRANCH  39  60
ENDBRANCH  13  14
ENDBRANCH   6   8
ENDBRANCH   3   4
ENDBRANCH   2   3
ENDBRANCH   1   2
BRANCH   1  70
ATOM     70  C   UNL A   1      40.116  21.908  26.853  1.00  0.00     0.002 C 
BRANCH  70  71
ATOM     71  C   UNL A   1      39.340  23.194  26.549  1.00  0.00     0.021 C 
BRANCH  71  72
ATOM     72  C   UNL A   1      37.882  22.985  26.152  1.00  0.00     0.116 C 
BRANCH  72  73
ATOM     73  N   UNL A   1      37.698  23.040  24.721  1.00  0.00    -0.355 N 
ATOM     74  C   UNL A   1      36.544  23.014  23.999  1.00  0.00     0.238 C 
ATOM     75  H   UNL A   1      38.525  23.105  24.192  1.00  0.00     0.163 HD
ATOM     76  O   UNL A   1      36.655  23.048  22.770  1.00  0.00    -0.273 OA
BRANCH  74  77
ATOM     77  C   UNL A   1      35.173  22.977  24.710  1.00  0.00     0.162 C 
ATOM     78  C   UNL A   1      34.825  24.367  25.241  1.00  0.00     0.032 C 
ATOM     79  N   UNL A   1      34.059  22.677  23.745  1.00  0.00    -0.185 NA
ATOM     80  C   UNL A   1      34.251  25.088  24.030  1.00  0.00     0.019 C 
ATOM     81  C   UNL A   1      33.777  23.994  23.076  1.00  0.00     0.103 C 
BRANCH  79  82
ATOM     82  S   UNL A   1      32.634  21.954  24.380  1.00  0.00     0.244 S 
ATOM     83  O   UNL A   1      32.792  21.801  25.809  1.00  0.00    -0.207 OA
ATOM     84  O   UNL A   1      31.505  22.680  23.835  1.00  0.00    -0.207 OA
BRANCH  82  85
ATOM     85  C   UNL A   1      32.577  20.318  23.680  1.00  0.00     0.089 A 
ATOM     86  C   UNL A   1      32.153  20.140  22.357  1.00  0.00     0.022 A 
ATOM     87  C   UNL A   1      32.877  19.211  24.480  1.00  0.00     0.107 A 
ATOM     88  C   UNL A   1      32.071  18.853  21.816  1.00  0.00     0.008 A 
ATOM     89  C   UNL A   1      32.849  17.933  23.908  1.00  0.00     0.270 A 
ATOM     90  C   UNL A   1      32.436  17.745  22.583  1.00  0.00     0.086 A 
BRANCH  89  91
ATOM     91  N   UNL A   1      33.323  16.789  24.693  1.00  0.00     0.062 N 
ATOM     92  O   UNL A   1      32.922  16.679  25.856  1.00  0.00    -0.258 OA
ATOM     93  O   UNL A   1      34.063  15.978  24.117  1.00  0.00    -0.258 OA
ENDBRANCH  89  91
ENDBRANCH  82  85
ENDBRANCH  79  82
ENDBRANCH  74  77
ENDBRANCH  72  73
ENDBRANCH  71  72
ENDBRANCH  70  71
ENDBRANCH   1  70
TORSDOF 19
ENDMDL
