MODEL 1
REMARK VINA RESULT:     -11.8      0.000      0.000
REMARK SMILES Cc1cc(C)cc(Oc2nc3ccccn3c(=O)c2/C=C2\SC(=S)N(CCC(=O)NCCCCCCNC(=O)c3ccc(-c4c5nc(c(-c6ccc(S(=O)(=O)[O-])cc6)c6ccc([nH]6)c(-c6ccc(S(=O)(=O)[O-])cc6)c6nc(c(-c7ccc(S(=O)(=O)[O-])cc7)c7ccc4[nH]7)C=C6)C=C5)cc3)C2=O)c1
REMARK SMILES IDX 32 1 31 2 30 3 28 4 29 5 27 7 26 8 25 9 20 10 21 11 22 12
REMARK SMILES IDX 100 13 23 14 101 15 24 16 19 17 9 18 10 19 11 20 17 21 12 22
REMARK SMILES IDX 16 23 18 24 13 25 15 26 14 27 8 28 7 29 1 30 2 31 3 32
REMARK SMILES IDX 102 33 4 34 5 35 6 36 33 37 34 38 35 39 36 40 37 41 38 42
REMARK SMILES IDX 39 44 40 45 41 46 99 47 42 48 98 49 43 50 44 51 45 52 92 53
REMARK SMILES IDX 46 54 97 55 91 56 93 57 47 58 96 59 90 60 89 61 48 63 78 64
REMARK SMILES IDX 59 65 77 66 60 67 63 68 76 69 94 70 61 71 62 72 75 74 95 75
REMARK SMILES IDX 64 76 49 77 50 78 58 79 51 80 57 81 52 82 53 83 54 84 55 85
REMARK SMILES IDX 56 86 79 87 80 88 88 89 81 90 87 91 82 92 83 93 84 94 85 95
REMARK SMILES IDX 86 96 65 97 66 98 74 99 67 100 73 101 68 102 69 103 70 104
REMARK SMILES IDX 71 105 72 106
REMARK H PARENT 30 6 37 43 93 62 63 73
REMARK Flexibility Score: inf
ROOT
ATOM      1  C   UNL A   1      38.610  22.505  26.037  1.00  0.00     0.021 C 
ENDROOT
BRANCH   1   2
ATOM      2  C   UNL A   1      37.161  22.170  25.715  1.00  0.00     0.116 C 
BRANCH   2   3
ATOM      3  N   UNL A   1      36.284  23.247  26.121  1.00  0.00    -0.356 N 
ATOM      4  C   UNL A   1      34.941  23.240  26.356  1.00  0.00     0.221 C 
ATOM      5  O   UNL A   1      34.363  24.327  26.427  1.00  0.00    -0.275 OA
ATOM      6  H   UNL A   1      36.725  24.117  26.249  1.00  0.00     0.163 HD
BRANCH   4   7
ATOM      7  C   UNL A   1      34.175  21.947  26.595  1.00  0.00     0.122 C 
BRANCH   7   8
ATOM      8  C   UNL A   1      32.675  22.134  26.876  1.00  0.00     0.137 C 
BRANCH   8   9
ATOM      9  N   UNL A   1      31.990  22.882  25.809  1.00  0.00    -0.292 N 
ATOM     10  C   UNL A   1      30.941  26.149  24.922  1.00  0.00     0.041 C 
ATOM     11  C   UNL A   1      31.059  24.815  24.898  1.00  0.00     0.081 C 
ATOM     12  S   UNL A   1      31.199  23.801  23.528  1.00  0.00    -0.054 SA
ATOM     13  C   UNL A   1      31.237  23.994  26.124  1.00  0.00     0.266 C 
ATOM     14  C   UNL A   1      31.982  22.535  24.471  1.00  0.00     0.148 C 
ATOM     15  O   UNL A   1      30.781  24.282  27.220  1.00  0.00    -0.268 OA
ATOM     16  S   UNL A   1      32.624  21.174  23.756  1.00  0.00    -0.052 S 
BRANCH  10  17
ATOM     17  C   UNL A   1      30.727  27.007  23.764  1.00  0.00     0.104 A 
ATOM     18  C   UNL A   1      31.612  27.903  23.215  1.00  0.00     0.234 A 
ATOM     19  N   UNL A   1      31.311  28.851  22.277  1.00  0.00    -0.194 NA
ATOM     20  C   UNL A   1      30.128  29.311  22.444  1.00  0.00     0.143 A 
ATOM     21  C   UNL A   1      29.245  27.067  23.431  1.00  0.00     0.269 A 
ATOM     22  C   UNL A   1      29.752  31.208  22.382  1.00  0.00     0.048 A 
ATOM     23  N   UNL A   1      28.880  28.330  23.073  1.00  0.00    -0.267 N 
ATOM     24  O   UNL A   1      28.468  26.173  23.757  1.00  0.00    -0.268 OA
ATOM     25  C   UNL A   1      28.075  31.718  23.008  1.00  0.00     0.005 A 
ATOM     26  C   UNL A   1      27.320  28.888  23.567  1.00  0.00     0.096 A 
ATOM     27  C   UNL A   1      26.907  30.345  23.593  1.00  0.00     0.019 A 
BRANCH  18  28
ATOM     28  O   UNL A   1      32.789  28.305  23.858  1.00  0.00    -0.438 OA
BRANCH  28  29
ATOM     29  C   UNL A   1      32.827  28.871  25.100  1.00  0.00     0.130 A 
ATOM     30  C   UNL A   1      31.321  31.919  26.543  1.00  0.00     0.044 C 
ATOM     31  C   UNL A   1      32.195  30.714  26.450  1.00  0.00    -0.047 A 
ATOM     32  C   UNL A   1      33.350  30.556  27.229  1.00  0.00     0.007 A 
ATOM     33  C   UNL A   1      31.879  29.789  25.470  1.00  0.00     0.050 A 
ATOM     34  C   UNL A   1      34.236  29.499  26.987  1.00  0.00    -0.047 A 
ATOM     35  C   UNL A   1      35.466  29.352  27.842  1.00  0.00     0.044 C 
ATOM     36  C   UNL A   1      33.975  28.664  25.893  1.00  0.00     0.050 A 
ENDBRANCH  28  29
ENDBRANCH  18  28
ENDBRANCH  10  17
ENDBRANCH   8   9
ENDBRANCH   7   8
ENDBRANCH   4   7
ENDBRANCH   2   3
ENDBRANCH   1   2
BRANCH   1  37
ATOM     37  C   UNL A   1      39.108  23.950  26.201  1.00  0.00     0.002 C 
BRANCH  37  38
ATOM     38  C   UNL A   1      39.565  24.388  27.606  1.00  0.00     0.002 C 
BRANCH  38  39
ATOM     39  C   UNL A   1      40.985  23.973  28.010  1.00  0.00     0.021 C 
BRANCH  39  40
ATOM     40  C   UNL A   1      42.234  24.314  27.196  1.00  0.00     0.116 C 
BRANCH  40  41
ATOM     41  N   UNL A   1      42.016  25.374  26.225  1.00  0.00    -0.352 N 
ATOM     42  C   UNL A   1      41.706  26.715  26.285  1.00  0.00     0.251 C 
ATOM     43  H   UNL A   1      42.113  25.056  25.299  1.00  0.00     0.163 HD
ATOM     44  O   UNL A   1      41.470  27.278  25.213  1.00  0.00    -0.269 OA
BRANCH  42  45
ATOM     45  C   UNL A   1      41.582  27.552  27.504  1.00  0.00     0.039 A 
ATOM     46  C   UNL A   1      40.259  27.133  28.639  1.00  0.00     0.014 A 
ATOM     47  C   UNL A   1      42.702  28.875  28.003  1.00  0.00     0.014 A 
ATOM     48  C   UNL A   1      40.015  27.922  30.241  1.00  0.00     0.010 A 
ATOM     49  C   UNL A   1      42.458  29.761  29.822  1.00  0.00     0.010 A 
ATOM     50  C   UNL A   1      41.079  29.214  30.869  1.00  0.00    -0.014 A 
BRANCH  50  51
ATOM     51  C   UNL A   1      40.826  29.817  32.176  1.00  0.00     0.031 A 
ATOM     52  C   UNL A   1      41.807  29.580  33.276  1.00  0.00     0.074 A 
ATOM     53  C   UNL A   1      39.751  30.607  32.318  1.00  0.00     0.049 A 
ATOM     54  N   UNL A   1      41.856  30.088  34.475  1.00  0.00    -0.248 NA
ATOM     55  C   UNL A   1      42.891  28.633  32.990  1.00  0.00     0.031 C 
ATOM     56  C   UNL A   1      38.734  30.853  31.292  1.00  0.00     0.029 A 
ATOM     57  N   UNL A   1      39.346  31.372  33.375  1.00  0.00    -0.354 N 
ATOM     58  C   UNL A   1      42.989  29.537  35.062  1.00  0.00     0.074 A 
ATOM     59  C   UNL A   1      43.540  28.581  34.139  1.00  0.00     0.031 C 
ATOM     60  C   UNL A   1      37.853  31.756  31.753  1.00  0.00     0.029 A 
ATOM     61  C   UNL A   1      38.223  32.121  33.114  1.00  0.00     0.049 A 
ATOM     62  H   UNL A   1      39.814  31.386  34.241  1.00  0.00     0.167 HD
ATOM     63  C   UNL A   1      43.555  29.851  36.247  1.00  0.00     0.031 A 
ATOM     64  C   UNL A   1      37.587  33.008  33.900  1.00  0.00     0.031 A 
ATOM     65  C   UNL A   1      42.976  30.814  37.136  1.00  0.00     0.049 A 
ATOM     66  C   UNL A   1      38.188  33.280  35.255  1.00  0.00     0.074 A 
ATOM     67  C   UNL A   1      43.422  31.232  38.374  1.00  0.00     0.029 A 
ATOM     68  N   UNL A   1      41.806  31.513  36.864  1.00  0.00    -0.354 N 
ATOM     69  N   UNL A   1      39.287  32.788  35.783  1.00  0.00    -0.248 NA
ATOM     70  C   UNL A   1      37.480  34.238  36.107  1.00  0.00     0.031 C 
ATOM     71  C   UNL A   1      42.477  32.128  38.883  1.00  0.00     0.029 A 
ATOM     72  C   UNL A   1      41.494  32.338  37.924  1.00  0.00     0.049 A 
ATOM     73  H   UNL A   1      41.278  31.432  36.037  1.00  0.00     0.167 HD
ATOM     74  C   UNL A   1      39.422  33.405  37.020  1.00  0.00     0.074 A 
ATOM     75  C   UNL A   1      38.308  34.330  37.137  1.00  0.00     0.031 C 
ATOM     76  C   UNL A   1      40.366  33.233  37.981  1.00  0.00     0.031 A 
BRANCH  63  77
ATOM     77  C   UNL A   1      44.830  29.147  36.624  1.00  0.00    -0.014 A 
ATOM     78  C   UNL A   1      44.810  27.940  37.351  1.00  0.00     0.010 A 
ATOM     79  C   UNL A   1      46.068  29.689  36.241  1.00  0.00     0.010 A 
ATOM     80  C   UNL A   1      46.002  27.304  37.707  1.00  0.00     0.020 A 
ATOM     81  C   UNL A   1      47.262  29.039  36.563  1.00  0.00     0.020 A 
ATOM     82  C   UNL A   1      47.221  27.853  37.299  1.00  0.00     0.054 A 
BRANCH  82  83
ATOM     83  S   UNL A   1      48.748  26.965  37.709  1.00  0.00     0.124 S 
ATOM     84  O   UNL A   1      49.136  27.594  38.970  1.00  0.00    -0.237 OA
ATOM     85  O   UNL A   1      48.290  25.582  37.812  1.00  0.00    -0.237 OA
ATOM     86  O   UNL A   1      49.628  27.247  36.579  1.00  0.00    -0.744 OA
ENDBRANCH  82  83
ENDBRANCH  63  77
BRANCH  64  87
ATOM     87  C   UNL A   1      36.346  33.691  33.437  1.00  0.00    -0.014 A 
ATOM     88  C   UNL A   1      36.402  34.855  32.648  1.00  0.00     0.010 A 
ATOM     89  C   UNL A   1      35.085  33.189  33.810  1.00  0.00     0.010 A 
ATOM     90  C   UNL A   1      35.230  35.526  32.286  1.00  0.00     0.020 A 
ATOM     91  C   UNL A   1      33.909  33.833  33.417  1.00  0.00     0.020 A 
ATOM     92  C   UNL A   1      33.990  35.012  32.674  1.00  0.00     0.054 A 
BRANCH  92  93
ATOM     93  S   UNL A   1      32.484  35.901  32.195  1.00  0.00     0.124 S 
ATOM     94  O   UNL A   1      32.619  37.151  32.935  1.00  0.00    -0.237 OA
ATOM     95  O   UNL A   1      32.629  36.002  30.745  1.00  0.00    -0.237 OA
ATOM     96  O   UNL A   1      31.406  35.021  32.646  1.00  0.00    -0.744 OA
ENDBRANCH  92  93
ENDBRANCH  64  87
BRANCH  76  97
ATOM     97  C   UNL A   1      40.242  34.095  39.204  1.00  0.00    -0.014 A 
ATOM     98  C   UNL A   1      40.775  35.394  39.239  1.00  0.00     0.010 A 
ATOM     99  C   UNL A   1      39.555  33.594  40.325  1.00  0.00     0.010 A 
ATOM    100  C   UNL A   1      40.684  36.153  40.405  1.00  0.00     0.020 A 
ATOM    101  C   UNL A   1      39.414  34.372  41.471  1.00  0.00     0.020 A 
ATOM    102  C   UNL A   1      40.004  35.636  41.512  1.00  0.00     0.054 A 
BRANCH 102 103
ATOM    103  S   UNL A   1      39.891  36.650  43.006  1.00  0.00     0.124 S 
ATOM    104  O   UNL A   1      38.717  36.086  43.666  1.00  0.00    -0.237 OA
ATOM    105  O   UNL A   1      41.170  36.389  43.663  1.00  0.00    -0.237 OA
ATOM    106  O   UNL A   1      39.725  38.007  42.491  1.00  0.00    -0.744 OA
ENDBRANCH 102 103
ENDBRANCH  76  97
ENDBRANCH  50  51
ENDBRANCH  42  45
ENDBRANCH  40  41
ENDBRANCH  39  40
ENDBRANCH  38  39
ENDBRANCH  37  38
ENDBRANCH   1  37
TORSDOF 21
ENDMDL
MODEL 2
REMARK VINA RESULT:     -11.7      5.387      6.436
REMARK SMILES Cc1cc(C)cc(Oc2nc3ccccn3c(=O)c2/C=C2\SC(=S)N(CCC(=O)NCCCCCCNC(=O)c3ccc(-c4c5nc(c(-c6ccc(S(=O)(=O)[O-])cc6)c6ccc([nH]6)c(-c6ccc(S(=O)(=O)[O-])cc6)c6nc(c(-c7ccc(S(=O)(=O)[O-])cc7)c7ccc4[nH]7)C=C6)C=C5)cc3)C2=O)c1
REMARK SMILES IDX 32 1 31 2 30 3 28 4 29 5 27 7 26 8 25 9 20 10 21 11 22 12
REMARK SMILES IDX 100 13 23 14 101 15 24 16 19 17 9 18 10 19 11 20 17 21 12 22
REMARK SMILES IDX 16 23 18 24 13 25 15 26 14 27 8 28 7 29 1 30 2 31 3 32
REMARK SMILES IDX 102 33 4 34 5 35 6 36 33 37 34 38 35 39 36 40 37 41 38 42
REMARK SMILES IDX 39 44 40 45 41 46 99 47 42 48 98 49 43 50 44 51 45 52 92 53
REMARK SMILES IDX 46 54 97 55 91 56 93 57 47 58 96 59 90 60 89 61 48 63 78 64
REMARK SMILES IDX 59 65 77 66 60 67 63 68 76 69 94 70 61 71 62 72 75 74 95 75
REMARK SMILES IDX 64 76 49 77 50 78 58 79 51 80 57 81 52 82 53 83 54 84 55 85
REMARK SMILES IDX 56 86 79 87 80 88 88 89 81 90 87 91 82 92 83 93 84 94 85 95
REMARK SMILES IDX 86 96 65 97 66 98 74 99 67 100 73 101 68 102 69 103 70 104
REMARK SMILES IDX 71 105 72 106
REMARK H PARENT 30 6 37 43 93 62 63 73
REMARK Flexibility Score: inf
ROOT
ATOM      1  C   UNL A   1      36.600  22.631  23.851  1.00  0.00     0.021 C 
ENDROOT
BRANCH   1   2
ATOM      2  C   UNL A   1      35.496  23.501  24.435  1.00  0.00     0.116 C 
BRANCH   2   3
ATOM      3  N   UNL A   1      35.550  23.491  25.881  1.00  0.00    -0.356 N 
ATOM      4  C   UNL A   1      34.736  22.868  26.782  1.00  0.00     0.221 C 
ATOM      5  O   UNL A   1      34.808  23.219  27.961  1.00  0.00    -0.275 OA
ATOM      6  H   UNL A   1      36.285  24.012  26.275  1.00  0.00     0.163 HD
BRANCH   4   7
ATOM      7  C   UNL A   1      33.815  21.727  26.376  1.00  0.00     0.122 C 
BRANCH   7   8
ATOM      8  C   UNL A   1      32.322  21.987  26.634  1.00  0.00     0.137 C 
BRANCH   8   9
ATOM      9  N   UNL A   1      31.704  22.817  25.587  1.00  0.00    -0.292 N 
ATOM     10  C   UNL A   1      30.774  26.159  24.861  1.00  0.00     0.041 C 
ATOM     11  C   UNL A   1      30.861  24.826  24.759  1.00  0.00     0.081 C 
ATOM     12  S   UNL A   1      31.040  23.896  23.335  1.00  0.00    -0.054 SA
ATOM     13  C   UNL A   1      30.964  23.928  25.938  1.00  0.00     0.266 C 
ATOM     14  C   UNL A   1      31.748  22.553  24.231  1.00  0.00     0.148 C 
ATOM     15  O   UNL A   1      30.466  24.160  27.029  1.00  0.00    -0.268 OA
ATOM     16  S   UNL A   1      32.390  21.222  23.461  1.00  0.00    -0.052 S 
BRANCH  10  17
ATOM     17  C   UNL A   1      30.634  27.092  23.750  1.00  0.00     0.104 A 
ATOM     18  C   UNL A   1      31.578  27.968  23.272  1.00  0.00     0.234 A 
ATOM     19  N   UNL A   1      31.350  28.983  22.384  1.00  0.00    -0.194 NA
ATOM     20  C   UNL A   1      30.190  29.497  22.555  1.00  0.00     0.143 A 
ATOM     21  C   UNL A   1      29.165  27.252  23.392  1.00  0.00     0.269 A 
ATOM     22  C   UNL A   1      29.918  31.412  22.595  1.00  0.00     0.048 A 
ATOM     23  N   UNL A   1      28.876  28.551  23.100  1.00  0.00    -0.267 N 
ATOM     24  O   UNL A   1      28.334  26.385  23.650  1.00  0.00    -0.268 OA
ATOM     25  C   UNL A   1      28.257  31.977  23.216  1.00  0.00     0.005 A 
ATOM     26  C   UNL A   1      27.339  29.166  23.594  1.00  0.00     0.096 A 
ATOM     27  C   UNL A   1      27.003  30.640  23.697  1.00  0.00     0.019 A 
BRANCH  18  28
ATOM     28  O   UNL A   1      32.759  28.267  23.961  1.00  0.00    -0.438 OA
BRANCH  28  29
ATOM     29  C   UNL A   1      32.800  28.887  25.176  1.00  0.00     0.130 A 
ATOM     30  C   UNL A   1      31.180  31.917  26.531  1.00  0.00     0.044 C 
ATOM     31  C   UNL A   1      32.111  30.753  26.466  1.00  0.00    -0.047 A 
ATOM     32  C   UNL A   1      33.291  30.685  27.219  1.00  0.00     0.007 A 
ATOM     33  C   UNL A   1      31.817  29.772  25.534  1.00  0.00     0.050 A 
ATOM     34  C   UNL A   1      34.222  29.663  26.998  1.00  0.00    -0.047 A 
ATOM     35  C   UNL A   1      35.479  29.613  27.825  1.00  0.00     0.044 C 
ATOM     36  C   UNL A   1      33.976  28.770  25.947  1.00  0.00     0.050 A 
ENDBRANCH  28  29
ENDBRANCH  18  28
ENDBRANCH  10  17
ENDBRANCH   8   9
ENDBRANCH   7   8
ENDBRANCH   4   7
ENDBRANCH   2   3
ENDBRANCH   1   2
BRANCH   1  37
ATOM     37  C   UNL A   1      36.768  21.148  24.219  1.00  0.00     0.002 C 
BRANCH  37  38
ATOM     38  C   UNL A   1      37.933  20.778  25.157  1.00  0.00     0.002 C 
BRANCH  38  39
ATOM     39  C   UNL A   1      38.634  21.951  25.853  1.00  0.00     0.021 C 
BRANCH  39  40
ATOM     40  C   UNL A   1      39.892  21.803  26.710  1.00  0.00     0.116 C 
BRANCH  40  41
ATOM     41  N   UNL A   1      41.111  21.695  25.926  1.00  0.00    -0.352 N 
ATOM     42  C   UNL A   1      42.258  22.446  25.779  1.00  0.00     0.251 C 
ATOM     43  H   UNL A   1      41.121  20.888  25.362  1.00  0.00     0.163 HD
ATOM     44  O   UNL A   1      43.044  22.090  24.898  1.00  0.00    -0.269 OA
BRANCH  42  45
ATOM     45  C   UNL A   1      42.632  23.665  26.537  1.00  0.00     0.039 A 
ATOM     46  C   UNL A   1      42.649  25.209  25.626  1.00  0.00     0.014 A 
ATOM     47  C   UNL A   1      42.961  23.756  28.309  1.00  0.00     0.014 A 
ATOM     48  C   UNL A   1      42.933  26.822  26.377  1.00  0.00     0.010 A 
ATOM     49  C   UNL A   1      43.259  25.574  29.181  1.00  0.00     0.010 A 
ATOM     50  C   UNL A   1      43.229  27.051  28.125  1.00  0.00    -0.014 A 
BRANCH  50  51
ATOM     51  C   UNL A   1      43.456  28.387  28.673  1.00  0.00     0.031 A 
ATOM     52  C   UNL A   1      44.852  28.909  28.733  1.00  0.00     0.074 A 
ATOM     53  C   UNL A   1      42.391  29.113  29.047  1.00  0.00     0.049 A 
ATOM     54  N   UNL A   1      45.288  30.089  29.072  1.00  0.00    -0.248 NA
ATOM     55  C   UNL A   1      45.916  27.970  28.359  1.00  0.00     0.031 C 
ATOM     56  C   UNL A   1      41.001  28.649  29.045  1.00  0.00     0.029 A 
ATOM     57  N   UNL A   1      42.307  30.407  29.476  1.00  0.00    -0.354 N 
ATOM     58  C   UNL A   1      46.670  30.027  28.923  1.00  0.00     0.074 A 
ATOM     59  C   UNL A   1      47.012  28.676  28.568  1.00  0.00     0.031 C 
ATOM     60  C   UNL A   1      40.197  29.664  29.401  1.00  0.00     0.029 A 
ATOM     61  C   UNL A   1      41.017  30.833  29.689  1.00  0.00     0.049 A 
ATOM     62  H   UNL A   1      43.095  30.980  29.620  1.00  0.00     0.167 HD
ATOM     63  C   UNL A   1      47.567  31.032  29.014  1.00  0.00     0.031 A 
ATOM     64  C   UNL A   1      40.570  32.045  30.063  1.00  0.00     0.031 A 
ATOM     65  C   UNL A   1      47.183  32.367  29.366  1.00  0.00     0.049 A 
ATOM     66  C   UNL A   1      41.598  33.131  30.244  1.00  0.00     0.074 A 
ATOM     67  C   UNL A   1      47.974  33.488  29.511  1.00  0.00     0.029 A 
ATOM     68  N   UNL A   1      45.874  32.751  29.630  1.00  0.00    -0.354 N 
ATOM     69  N   UNL A   1      42.899  33.076  30.055  1.00  0.00    -0.248 NA
ATOM     70  C   UNL A   1      41.102  34.444  30.665  1.00  0.00     0.031 C 
ATOM     71  C   UNL A   1      47.151  34.535  29.938  1.00  0.00     0.029 A 
ATOM     72  C   UNL A   1      45.836  34.087  29.968  1.00  0.00     0.049 A 
ATOM     73  H   UNL A   1      45.090  32.158  29.582  1.00  0.00     0.167 HD
ATOM     74  C   UNL A   1      43.373  34.358  30.300  1.00  0.00     0.074 A 
ATOM     75  C   UNL A   1      42.209  35.168  30.616  1.00  0.00     0.031 C 
ATOM     76  C   UNL A   1      44.643  34.836  30.277  1.00  0.00     0.031 A 
BRANCH  63  77
ATOM     77  C   UNL A   1      49.011  30.710  28.740  1.00  0.00    -0.014 A 
ATOM     78  C   UNL A   1      49.894  30.367  29.783  1.00  0.00     0.010 A 
ATOM     79  C   UNL A   1      49.495  30.738  27.421  1.00  0.00     0.010 A 
ATOM     80  C   UNL A   1      51.235  30.084  29.515  1.00  0.00     0.020 A 
ATOM     81  C   UNL A   1      50.827  30.421  27.143  1.00  0.00     0.020 A 
ATOM     82  C   UNL A   1      51.691  30.101  28.194  1.00  0.00     0.054 A 
BRANCH  82  83
ATOM     83  S   UNL A   1      53.417  29.655  27.869  1.00  0.00     0.124 S 
ATOM     84  O   UNL A   1      53.710  30.430  26.665  1.00  0.00    -0.237 OA
ATOM     85  O   UNL A   1      54.092  30.103  29.084  1.00  0.00    -0.237 OA
ATOM     86  O   UNL A   1      53.373  28.208  27.680  1.00  0.00    -0.744 OA
ENDBRANCH  82  83
ENDBRANCH  63  77
BRANCH  64  87
ATOM     87  C   UNL A   1      39.117  32.293  30.282  1.00  0.00    -0.014 A 
ATOM     88  C   UNL A   1      38.346  33.001  29.341  1.00  0.00     0.010 A 
ATOM     89  C   UNL A   1      38.493  31.838  31.458  1.00  0.00     0.010 A 
ATOM     90  C   UNL A   1      37.001  33.291  29.596  1.00  0.00     0.020 A 
ATOM     91  C   UNL A   1      37.139  32.089  31.700  1.00  0.00     0.020 A 
ATOM     92  C   UNL A   1      36.407  32.835  30.775  1.00  0.00     0.054 A 
BRANCH  92  93
ATOM     93  S   UNL A   1      34.663  33.224  31.084  1.00  0.00     0.124 S 
ATOM     94  O   UNL A   1      34.052  32.935  29.791  1.00  0.00    -0.237 OA
ATOM     95  O   UNL A   1      34.325  32.303  32.167  1.00  0.00    -0.237 OA
ATOM     96  O   UNL A   1      34.688  34.636  31.463  1.00  0.00    -0.744 OA
ENDBRANCH  92  93
ENDBRANCH  64  87
BRANCH  76  97
ATOM     97  C   UNL A   1      44.813  36.301  30.558  1.00  0.00    -0.014 A 
ATOM     98  C   UNL A   1      44.884  37.241  29.517  1.00  0.00     0.010 A 
ATOM     99  C   UNL A   1      44.878  36.737  31.894  1.00  0.00     0.010 A 
ATOM    100  C   UNL A   1      45.088  38.589  29.808  1.00  0.00     0.020 A 
ATOM    101  C   UNL A   1      45.025  38.089  32.189  1.00  0.00     0.020 A 
ATOM    102  C   UNL A   1      45.156  39.002  31.142  1.00  0.00     0.054 A 
BRANCH 102 103
ATOM    103  S   UNL A   1      45.409  40.760  31.488  1.00  0.00     0.124 S 
ATOM    104  O   UNL A   1      45.979  40.725  32.832  1.00  0.00    -0.237 OA
ATOM    105  O   UNL A   1      46.326  41.164  30.425  1.00  0.00    -0.237 OA
ATOM    106  O   UNL A   1      44.066  41.328  31.396  1.00  0.00    -0.744 OA
ENDBRANCH 102 103
ENDBRANCH  76  97
ENDBRANCH  50  51
ENDBRANCH  42  45
ENDBRANCH  40  41
ENDBRANCH  39  40
ENDBRANCH  38  39
ENDBRANCH  37  38
ENDBRANCH   1  37
TORSDOF 21
ENDMDL
MODEL 3
REMARK VINA RESULT:     -11.5      5.137     10.681
REMARK SMILES Cc1cc(C)cc(Oc2nc3ccccn3c(=O)c2/C=C2\SC(=S)N(CCC(=O)NCCCCCCNC(=O)c3ccc(-c4c5nc(c(-c6ccc(S(=O)(=O)[O-])cc6)c6ccc([nH]6)c(-c6ccc(S(=O)(=O)[O-])cc6)c6nc(c(-c7ccc(S(=O)(=O)[O-])cc7)c7ccc4[nH]7)C=C6)C=C5)cc3)C2=O)c1
REMARK SMILES IDX 32 1 31 2 30 3 28 4 29 5 27 7 26 8 25 9 20 10 21 11 22 12
REMARK SMILES IDX 100 13 23 14 101 15 24 16 19 17 9 18 10 19 11 20 17 21 12 22
REMARK SMILES IDX 16 23 18 24 13 25 15 26 14 27 8 28 7 29 1 30 2 31 3 32
REMARK SMILES IDX 102 33 4 34 5 35 6 36 33 37 34 38 35 39 36 40 37 41 38 42
REMARK SMILES IDX 39 44 40 45 41 46 99 47 42 48 98 49 43 50 44 51 45 52 92 53
REMARK SMILES IDX 46 54 97 55 91 56 93 57 47 58 96 59 90 60 89 61 48 63 78 64
REMARK SMILES IDX 59 65 77 66 60 67 63 68 76 69 94 70 61 71 62 72 75 74 95 75
REMARK SMILES IDX 64 76 49 77 50 78 58 79 51 80 57 81 52 82 53 83 54 84 55 85
REMARK SMILES IDX 56 86 79 87 80 88 88 89 81 90 87 91 82 92 83 93 84 94 85 95
REMARK SMILES IDX 86 96 65 97 66 98 74 99 67 100 73 101 68 102 69 103 70 104
REMARK SMILES IDX 71 105 72 106
REMARK H PARENT 30 6 37 43 93 62 63 73
REMARK Flexibility Score: inf
ROOT
ATOM      1  C   UNL A   1      32.660  28.975  23.908  1.00  0.00     0.021 C 
ENDROOT
BRANCH   1   2
ATOM      2  C   UNL A   1      33.631  28.782  22.751  1.00  0.00     0.116 C 
BRANCH   2   3
ATOM      3  N   UNL A   1      33.174  27.728  21.872  1.00  0.00    -0.356 N 
ATOM      4  C   UNL A   1      33.397  26.383  21.929  1.00  0.00     0.221 C 
ATOM      5  O   UNL A   1      33.137  25.713  20.927  1.00  0.00    -0.275 OA
ATOM      6  H   UNL A   1      32.617  28.026  21.117  1.00  0.00     0.163 HD
BRANCH   4   7
ATOM      7  C   UNL A   1      33.881  25.705  23.202  1.00  0.00     0.122 C 
BRANCH   7   8
ATOM      8  C   UNL A   1      33.770  24.171  23.192  1.00  0.00     0.137 C 
BRANCH   8   9
ATOM      9  N   UNL A   1      34.654  23.535  24.183  1.00  0.00    -0.292 N 
ATOM     10  C   UNL A   1      38.031  23.435  25.253  1.00  0.00     0.041 C 
ATOM     11  C   UNL A   1      36.741  23.100  25.126  1.00  0.00     0.081 C 
ATOM     12  S   UNL A   1      35.673  22.568  26.351  1.00  0.00    -0.054 SA
ATOM     13  C   UNL A   1      35.974  23.287  23.867  1.00  0.00     0.266 C 
ATOM     14  C   UNL A   1      34.263  23.093  25.432  1.00  0.00     0.148 C 
ATOM     15  O   UNL A   1      36.460  23.228  22.747  1.00  0.00    -0.268 OA
ATOM     16  S   UNL A   1      32.728  23.062  26.081  1.00  0.00    -0.052 S 
BRANCH  10  17
ATOM     17  C   UNL A   1      38.849  23.245  26.444  1.00  0.00     0.104 A 
ATOM     18  C   UNL A   1      39.182  24.187  27.387  1.00  0.00     0.234 A 
ATOM     19  N   UNL A   1      40.128  24.039  28.364  1.00  0.00    -0.194 NA
ATOM     20  C   UNL A   1      41.111  23.328  27.956  1.00  0.00     0.143 A 
ATOM     21  C   UNL A   1      39.613  21.935  26.342  1.00  0.00     0.269 A 
ATOM     22  C   UNL A   1      42.948  23.847  28.273  1.00  0.00     0.048 A 
ATOM     23  N   UNL A   1      40.882  22.076  26.817  1.00  0.00    -0.267 N 
ATOM     24  O   UNL A   1      39.221  21.006  25.640  1.00  0.00    -0.268 OA
ATOM     25  C   UNL A   1      44.229  22.910  27.302  1.00  0.00     0.005 A 
ATOM     26  C   UNL A   1      42.144  21.211  26.014  1.00  0.00     0.096 A 
ATOM     27  C   UNL A   1      43.619  21.533  26.152  1.00  0.00     0.019 A 
BRANCH  18  28
ATOM     28  O   UNL A   1      38.979  25.559  27.200  1.00  0.00    -0.438 OA
BRANCH  28  29
ATOM     29  C   UNL A   1      39.987  26.475  27.105  1.00  0.00     0.130 A 
ATOM     30  C   UNL A   1      43.197  26.531  25.279  1.00  0.00     0.044 C 
ATOM     31  C   UNL A   1      42.142  26.958  26.242  1.00  0.00    -0.047 A 
ATOM     32  C   UNL A   1      42.412  27.781  27.344  1.00  0.00     0.007 A 
ATOM     33  C   UNL A   1      40.881  26.413  26.068  1.00  0.00     0.050 A 
ATOM     34  C   UNL A   1      41.436  28.014  28.320  1.00  0.00    -0.047 A 
ATOM     35  C   UNL A   1      41.753  28.905  29.491  1.00  0.00     0.044 C 
ATOM     36  C   UNL A   1      40.218  27.331  28.203  1.00  0.00     0.050 A 
ENDBRANCH  28  29
ENDBRANCH  18  28
ENDBRANCH  10  17
ENDBRANCH   8   9
ENDBRANCH   7   8
ENDBRANCH   4   7
ENDBRANCH   2   3
ENDBRANCH   1   2
BRANCH   1  37
ATOM     37  C   UNL A   1      32.943  28.443  25.322  1.00  0.00     0.002 C 
BRANCH  37  38
ATOM     38  C   UNL A   1      31.919  28.781  26.424  1.00  0.00     0.002 C 
BRANCH  38  39
ATOM     39  C   UNL A   1      31.868  30.248  26.867  1.00  0.00     0.021 C 
BRANCH  39  40
ATOM     40  C   UNL A   1      33.110  31.090  27.164  1.00  0.00     0.116 C 
BRANCH  40  41
ATOM     41  N   UNL A   1      32.798  32.460  27.538  1.00  0.00    -0.352 N 
ATOM     42  C   UNL A   1      33.412  33.441  28.287  1.00  0.00     0.251 C 
ATOM     43  H   UNL A   1      31.938  32.761  27.166  1.00  0.00     0.163 HD
ATOM     44  O   UNL A   1      32.764  34.470  28.491  1.00  0.00    -0.269 OA
BRANCH  42  45
ATOM     45  C   UNL A   1      34.755  33.378  28.914  1.00  0.00     0.039 A 
ATOM     46  C   UNL A   1      36.035  32.517  28.000  1.00  0.00     0.014 A 
ATOM     47  C   UNL A   1      35.246  34.180  30.454  1.00  0.00     0.014 A 
ATOM     48  C   UNL A   1      37.762  32.444  28.507  1.00  0.00     0.010 A 
ATOM     49  C   UNL A   1      37.201  34.131  31.030  1.00  0.00     0.010 A 
ATOM     50  C   UNL A   1      38.384  33.232  29.986  1.00  0.00    -0.014 A 
BRANCH  50  51
ATOM     51  C   UNL A   1      39.798  33.133  30.344  1.00  0.00     0.031 A 
ATOM     52  C   UNL A   1      40.740  34.171  29.832  1.00  0.00     0.074 A 
ATOM     53  C   UNL A   1      40.180  32.145  31.168  1.00  0.00     0.049 A 
ATOM     54  N   UNL A   1      42.002  34.355  30.098  1.00  0.00    -0.248 NA
ATOM     55  C   UNL A   1      40.187  35.143  28.883  1.00  0.00     0.031 C 
ATOM     56  C   UNL A   1      39.315  31.078  31.677  1.00  0.00     0.029 A 
ATOM     57  N   UNL A   1      41.393  31.891  31.744  1.00  0.00    -0.354 N 
ATOM     58  C   UNL A   1      42.372  35.478  29.365  1.00  0.00     0.074 A 
ATOM     59  C   UNL A   1      41.242  35.871  28.566  1.00  0.00     0.031 C 
ATOM     60  C   UNL A   1      40.012  30.317  32.536  1.00  0.00     0.029 A 
ATOM     61  C   UNL A   1      41.378  30.821  32.607  1.00  0.00     0.049 A 
ATOM     62  H   UNL A   1      42.200  32.423  31.559  1.00  0.00     0.167 HD
ATOM     63  C   UNL A   1      43.538  36.158  29.406  1.00  0.00     0.031 A 
ATOM     64  C   UNL A   1      42.368  30.326  33.371  1.00  0.00     0.031 A 
ATOM     65  C   UNL A   1      44.638  35.735  30.220  1.00  0.00     0.049 A 
ATOM     66  C   UNL A   1      43.690  31.051  33.335  1.00  0.00     0.074 A 
ATOM     67  C   UNL A   1      45.886  36.308  30.360  1.00  0.00     0.029 A 
ATOM     68  N   UNL A   1      44.608  34.613  31.039  1.00  0.00    -0.354 N 
ATOM     69  N   UNL A   1      44.016  32.140  32.674  1.00  0.00    -0.248 NA
ATOM     70  C   UNL A   1      44.765  30.497  34.160  1.00  0.00     0.031 C 
ATOM     71  C   UNL A   1      46.636  35.488  31.208  1.00  0.00     0.029 A 
ATOM     72  C   UNL A   1      45.826  34.457  31.667  1.00  0.00     0.049 A 
ATOM     73  H   UNL A   1      43.832  34.018  31.156  1.00  0.00     0.167 HD
ATOM     74  C   UNL A   1      45.327  32.422  33.032  1.00  0.00     0.074 A 
ATOM     75  C   UNL A   1      45.714  31.405  33.995  1.00  0.00     0.031 C 
ATOM     76  C   UNL A   1      46.149  33.418  32.613  1.00  0.00     0.031 A 
BRANCH  63  77
ATOM     77  C   UNL A   1      43.660  37.391  28.553  1.00  0.00    -0.014 A 
ATOM     78  C   UNL A   1      42.851  38.522  28.784  1.00  0.00     0.010 A 
ATOM     79  C   UNL A   1      44.603  37.431  27.513  1.00  0.00     0.010 A 
ATOM     80  C   UNL A   1      42.967  39.656  27.976  1.00  0.00     0.020 A 
ATOM     81  C   UNL A   1      44.748  38.576  26.724  1.00  0.00     0.020 A 
ATOM     82  C   UNL A   1      43.924  39.679  26.957  1.00  0.00     0.054 A 
BRANCH  82  83
ATOM     83  S   UNL A   1      44.103  41.192  25.975  1.00  0.00     0.124 S 
ATOM     84  O   UNL A   1      45.180  40.831  25.055  1.00  0.00    -0.237 OA
ATOM     85  O   UNL A   1      42.781  41.332  25.369  1.00  0.00    -0.237 OA
ATOM     86  O   UNL A   1      44.446  42.210  26.963  1.00  0.00    -0.744 OA
ENDBRANCH  82  83
ENDBRANCH  63  77
BRANCH  64  87
ATOM     87  C   UNL A   1      42.156  29.118  34.216  1.00  0.00    -0.014 A 
ATOM     88  C   UNL A   1      41.696  29.224  35.542  1.00  0.00     0.010 A 
ATOM     89  C   UNL A   1      42.440  27.839  33.702  1.00  0.00     0.010 A 
ATOM     90  C   UNL A   1      41.574  28.087  36.346  1.00  0.00     0.020 A 
ATOM     91  C   UNL A   1      42.280  26.695  34.488  1.00  0.00     0.020 A 
ATOM     92  C   UNL A   1      41.868  26.829  35.815  1.00  0.00     0.054 A 
BRANCH  92  93
ATOM     93  S   UNL A   1      41.704  25.369  36.877  1.00  0.00     0.124 S 
ATOM     94  O   UNL A   1      41.463  24.309  35.904  1.00  0.00    -0.237 OA
ATOM     95  O   UNL A   1      42.999  25.327  37.553  1.00  0.00    -0.237 OA
ATOM     96  O   UNL A   1      40.569  25.696  37.740  1.00  0.00    -0.744 OA
ENDBRANCH  92  93
ENDBRANCH  64  87
BRANCH  76  97
ATOM     97  C   UNL A   1      47.516  33.464  33.232  1.00  0.00    -0.014 A 
ATOM     98  C   UNL A   1      47.755  34.165  34.425  1.00  0.00     0.010 A 
ATOM     99  C   UNL A   1      48.570  32.767  32.612  1.00  0.00     0.010 A 
ATOM    100  C   UNL A   1      49.045  34.228  34.951  1.00  0.00     0.020 A 
ATOM    101  C   UNL A   1      49.847  32.781  33.166  1.00  0.00     0.020 A 
ATOM    102  C   UNL A   1      50.081  33.534  34.317  1.00  0.00     0.054 A 
BRANCH 102 103
ATOM    103  S   UNL A   1      51.741  33.624  35.031  1.00  0.00     0.124 S 
ATOM    104  O   UNL A   1      52.227  34.896  34.506  1.00  0.00    -0.237 OA
ATOM    105  O   UNL A   1      51.470  33.596  36.466  1.00  0.00    -0.237 OA
ATOM    106  O   UNL A   1      52.409  32.436  34.504  1.00  0.00    -0.744 OA
ENDBRANCH 102 103
ENDBRANCH  76  97
ENDBRANCH  50  51
ENDBRANCH  42  45
ENDBRANCH  40  41
ENDBRANCH  39  40
ENDBRANCH  38  39
ENDBRANCH  37  38
ENDBRANCH   1  37
TORSDOF 21
ENDMDL
