MODEL 1
REMARK VINA RESULT:     -11.7      0.000      0.000
REMARK SMILES Cc1ccc(-c2nn(CCC(=O)NCCCCCCNC(=O)c3ccc(-c4c5nc(c(-c6ccc(S(=O)(=O)[O-])cc6)c6ccc([nH]6)c(-c6ccc(S(=O)(=O)[O-])cc6)c6nc(c(-c7ccc(S(=O)(=O)[O-])cc7)c7ccc4[nH]7)C=C6)C=C5)cc3)c(=O)c3noc(C)c23)cc1C
REMARK SMILES IDX 16 1 15 2 14 3 13 4 11 5 12 6 10 8 9 9 8 10 6 11 7 12 90 13
REMARK SMILES IDX 85 14 88 15 83 16 86 17 87 18 89 19 84 20 5 21 1 22 2 23
REMARK SMILES IDX 3 24 92 25 4 26 91 27 93 28 17 29 18 30 19 31 20 32 21 33
REMARK SMILES IDX 22 35 23 36 24 37 82 38 25 39 81 40 26 41 27 42 28 43 75 44
REMARK SMILES IDX 29 45 80 46 74 47 76 48 30 49 79 50 73 51 72 52 31 54 61 55
REMARK SMILES IDX 42 56 60 57 43 58 46 59 59 60 77 61 44 62 45 63 58 65 78 66
REMARK SMILES IDX 47 67 32 68 33 69 41 70 34 71 40 72 35 73 36 74 37 75 38 76
REMARK SMILES IDX 39 77 62 78 63 79 71 80 64 81 70 82 65 83 66 84 67 85 68 86
REMARK SMILES IDX 69 87 48 88 49 89 57 90 50 91 56 92 51 93 52 94 53 95 54 96
REMARK SMILES IDX 55 97
REMARK H PARENT 13 7 20 34 76 53 46 64
REMARK Flexibility Score: inf
ROOT
ATOM      1  C   UNL A   1      36.273  23.706  26.008  1.00  0.00     0.002 C 
ENDROOT
BRANCH   1   2
ATOM      2  C   UNL A   1      35.570  22.693  25.104  1.00  0.00     0.021 C 
BRANCH   2   3
ATOM      3  C   UNL A   1      34.728  21.599  25.765  1.00  0.00     0.116 C 
BRANCH   3   4
ATOM      4  N   UNL A   1      33.869  22.151  26.802  1.00  0.00    -0.356 N 
ATOM      5  C   UNL A   1      32.546  22.477  26.780  1.00  0.00     0.221 C 
ATOM      6  O   UNL A   1      32.066  23.035  27.770  1.00  0.00    -0.275 OA
ATOM      7  H   UNL A   1      34.318  22.316  27.663  1.00  0.00     0.163 HD
BRANCH   5   8
ATOM      8  C   UNL A   1      31.665  22.117  25.601  1.00  0.00     0.124 C 
BRANCH   8   9
ATOM      9  C   UNL A   1      30.827  23.287  25.095  1.00  0.00     0.158 C 
BRANCH   9  10
ATOM     10  N   UNL A   1      31.626  24.405  24.589  1.00  0.00    -0.227 N 
ATOM     11  C   UNL A   1      32.310  26.624  24.992  1.00  0.00     0.104 A 
ATOM     12  N   UNL A   1      31.639  25.577  25.391  1.00  0.00    -0.169 NA
ATOM     13  C   UNL A   1      32.929  26.620  23.699  1.00  0.00     0.078 A 
ATOM     14  C   UNL A   1      33.069  25.427  22.986  1.00  0.00     0.183 A 
ATOM     15  C   UNL A   1      33.447  27.591  22.878  1.00  0.00     0.143 A 
ATOM     16  C   UNL A   1      32.449  24.198  23.450  1.00  0.00     0.296 A 
ATOM     17  N   UNL A   1      33.690  25.617  21.816  1.00  0.00    -0.074 NA
ATOM     18  O   UNL A   1      33.934  26.985  21.755  1.00  0.00    -0.360 OA
ATOM     19  C   UNL A   1      33.539  29.066  22.914  1.00  0.00     0.091 C 
ATOM     20  O   UNL A   1      32.558  23.123  22.874  1.00  0.00    -0.265 OA
BRANCH  11  21
ATOM     21  C   UNL A   1      32.649  27.743  25.884  1.00  0.00     0.003 A 
ATOM     22  C   UNL A   1      34.409  31.289  27.566  1.00  0.00     0.044 C 
ATOM     23  C   UNL A   1      33.735  30.054  27.024  1.00  0.00    -0.048 A 
ATOM     24  C   UNL A   1      34.486  28.870  26.960  1.00  0.00     0.004 A 
ATOM     25  C   UNL A   1      32.404  30.063  26.548  1.00  0.00    -0.048 A 
ATOM     26  C   UNL A   1      33.951  27.723  26.392  1.00  0.00     0.011 A 
ATOM     27  C   UNL A   1      31.860  28.889  25.986  1.00  0.00     0.014 A 
ATOM     28  C   UNL A   1      31.576  31.321  26.506  1.00  0.00     0.044 C 
ENDBRANCH  11  21
ENDBRANCH   9  10
ENDBRANCH   8   9
ENDBRANCH   5   8
ENDBRANCH   3   4
ENDBRANCH   2   3
ENDBRANCH   1   2
BRANCH   1  29
ATOM     29  C   UNL A   1      37.805  23.636  26.037  1.00  0.00     0.002 C 
BRANCH  29  30
ATOM     30  C   UNL A   1      38.484  22.394  25.417  1.00  0.00     0.021 C 
BRANCH  30  31
ATOM     31  C   UNL A   1      39.150  21.378  26.371  1.00  0.00     0.116 C 
BRANCH  31  32
ATOM     32  N   UNL A   1      40.547  21.158  26.052  1.00  0.00    -0.352 N 
ATOM     33  C   UNL A   1      41.658  21.959  26.042  1.00  0.00     0.251 C 
ATOM     34  H   UNL A   1      40.738  20.229  25.784  1.00  0.00     0.163 HD
ATOM     35  O   UNL A   1      42.676  21.472  25.541  1.00  0.00    -0.269 OA
BRANCH  33  36
ATOM     36  C   UNL A   1      41.739  23.352  26.565  1.00  0.00     0.039 A 
ATOM     37  C   UNL A   1      42.363  24.288  25.725  1.00  0.00     0.014 A 
ATOM     38  C   UNL A   1      41.446  23.729  27.881  1.00  0.00     0.014 A 
ATOM     39  C   UNL A   1      42.707  25.563  26.183  1.00  0.00     0.010 A 
ATOM     40  C   UNL A   1      41.787  25.025  28.340  1.00  0.00     0.010 A 
ATOM     41  C   UNL A   1      42.433  25.949  27.500  1.00  0.00    -0.014 A 
BRANCH  41  42
ATOM     42  C   UNL A   1      42.758  27.352  27.867  1.00  0.00     0.031 A 
ATOM     43  C   UNL A   1      41.591  28.247  28.159  1.00  0.00     0.074 A 
ATOM     44  C   UNL A   1      43.969  27.708  28.364  1.00  0.00     0.049 A 
ATOM     45  N   UNL A   1      40.965  28.258  29.300  1.00  0.00    -0.248 NA
ATOM     46  C   UNL A   1      40.921  29.031  27.120  1.00  0.00     0.031 C 
ATOM     47  C   UNL A   1      44.706  26.895  29.343  1.00  0.00     0.029 A 
ATOM     48  N   UNL A   1      44.664  28.901  28.335  1.00  0.00    -0.354 N 
ATOM     49  C   UNL A   1      39.836  29.051  29.154  1.00  0.00     0.074 A 
ATOM     50  C   UNL A   1      39.838  29.487  27.774  1.00  0.00     0.031 C 
ATOM     51  C   UNL A   1      45.641  27.667  29.936  1.00  0.00     0.029 A 
ATOM     52  C   UNL A   1      45.684  28.977  29.288  1.00  0.00     0.049 A 
ATOM     53  H   UNL A   1      44.462  29.628  27.702  1.00  0.00     0.167 HD
ATOM     54  C   UNL A   1      38.996  29.338  30.188  1.00  0.00     0.031 A 
ATOM     55  C   UNL A   1      46.117  30.125  29.891  1.00  0.00     0.031 A 
ATOM     56  C   UNL A   1      39.426  28.832  31.459  1.00  0.00     0.049 A 
ATOM     57  C   UNL A   1      44.959  30.403  30.816  1.00  0.00     0.074 A 
ATOM     58  C   UNL A   1      39.189  27.752  32.279  1.00  0.00     0.029 A 
ATOM     59  N   UNL A   1      40.372  29.566  32.133  1.00  0.00    -0.354 N 
ATOM     60  N   UNL A   1      44.711  29.796  31.945  1.00  0.00    -0.248 NA
ATOM     61  C   UNL A   1      43.817  31.119  30.241  1.00  0.00     0.031 C 
ATOM     62  C   UNL A   1      40.335  27.668  33.135  1.00  0.00     0.029 A 
ATOM     63  C   UNL A   1      41.211  28.684  32.755  1.00  0.00     0.049 A 
ATOM     64  H   UNL A   1      40.434  30.548  32.164  1.00  0.00     0.167 HD
ATOM     65  C   UNL A   1      43.321  29.772  32.053  1.00  0.00     0.074 A 
ATOM     66  C   UNL A   1      42.834  30.605  30.968  1.00  0.00     0.031 C 
ATOM     67  C   UNL A   1      42.631  28.935  32.885  1.00  0.00     0.031 A 
BRANCH  54  68
ATOM     68  C   UNL A   1      37.851  30.287  30.162  1.00  0.00    -0.014 A 
ATOM     69  C   UNL A   1      38.137  31.635  29.867  1.00  0.00     0.010 A 
ATOM     70  C   UNL A   1      36.592  29.961  30.688  1.00  0.00     0.010 A 
ATOM     71  C   UNL A   1      37.231  32.647  30.175  1.00  0.00     0.020 A 
ATOM     72  C   UNL A   1      35.664  30.977  30.976  1.00  0.00     0.020 A 
ATOM     73  C   UNL A   1      36.006  32.316  30.749  1.00  0.00     0.054 A 
BRANCH  73  74
ATOM     74  S   UNL A   1      34.909  33.673  31.249  1.00  0.00     0.124 S 
ATOM     75  O   UNL A   1      33.916  32.983  32.068  1.00  0.00    -0.237 OA
ATOM     76  O   UNL A   1      35.820  34.556  31.973  1.00  0.00    -0.237 OA
ATOM     77  O   UNL A   1      34.413  34.198  29.979  1.00  0.00    -0.744 OA
ENDBRANCH  73  74
ENDBRANCH  54  68
BRANCH  55  78
ATOM     78  C   UNL A   1      46.712  31.173  28.995  1.00  0.00    -0.014 A 
ATOM     79  C   UNL A   1      46.782  30.885  27.615  1.00  0.00     0.010 A 
ATOM     80  C   UNL A   1      47.198  32.424  29.417  1.00  0.00     0.010 A 
ATOM     81  C   UNL A   1      47.147  31.860  26.683  1.00  0.00     0.020 A 
ATOM     82  C   UNL A   1      47.539  33.420  28.487  1.00  0.00     0.020 A 
ATOM     83  C   UNL A   1      47.469  33.142  27.122  1.00  0.00     0.054 A 
BRANCH  83  84
ATOM     84  S   UNL A   1      47.694  34.447  25.884  1.00  0.00     0.124 S 
ATOM     85  O   UNL A   1      46.485  34.327  25.076  1.00  0.00    -0.237 OA
ATOM     86  O   UNL A   1      47.779  35.644  26.720  1.00  0.00    -0.237 OA
ATOM     87  O   UNL A   1      48.936  34.076  25.212  1.00  0.00    -0.744 OA
ENDBRANCH  83  84
ENDBRANCH  55  78
BRANCH  67  88
ATOM     88  C   UNL A   1      43.432  28.102  33.836  1.00  0.00    -0.014 A 
ATOM     89  C   UNL A   1      43.691  28.565  35.134  1.00  0.00     0.010 A 
ATOM     90  C   UNL A   1      43.844  26.803  33.480  1.00  0.00     0.010 A 
ATOM     91  C   UNL A   1      44.294  27.730  36.076  1.00  0.00     0.020 A 
ATOM     92  C   UNL A   1      44.431  25.955  34.423  1.00  0.00     0.020 A 
ATOM     93  C   UNL A   1      44.638  26.421  35.722  1.00  0.00     0.054 A 
BRANCH  93  94
ATOM     94  S   UNL A   1      45.296  25.323  37.005  1.00  0.00     0.124 S 
ATOM     95  O   UNL A   1      46.332  26.146  37.623  1.00  0.00    -0.237 OA
ATOM     96  O   UNL A   1      44.120  25.067  37.833  1.00  0.00    -0.237 OA
ATOM     97  O   UNL A   1      45.787  24.167  36.259  1.00  0.00    -0.744 OA
ENDBRANCH  93  94
ENDBRANCH  67  88
ENDBRANCH  41  42
ENDBRANCH  33  36
ENDBRANCH  31  32
ENDBRANCH  30  31
ENDBRANCH  29  30
ENDBRANCH   1  29
TORSDOF 19
ENDMDL
MODEL 2
REMARK VINA RESULT:     -10.4      4.717      7.910
REMARK SMILES Cc1ccc(-c2nn(CCC(=O)NCCCCCCNC(=O)c3ccc(-c4c5nc(c(-c6ccc(S(=O)(=O)[O-])cc6)c6ccc([nH]6)c(-c6ccc(S(=O)(=O)[O-])cc6)c6nc(c(-c7ccc(S(=O)(=O)[O-])cc7)c7ccc4[nH]7)C=C6)C=C5)cc3)c(=O)c3noc(C)c23)cc1C
REMARK SMILES IDX 16 1 15 2 14 3 13 4 11 5 12 6 10 8 9 9 8 10 6 11 7 12 90 13
REMARK SMILES IDX 85 14 88 15 83 16 86 17 87 18 89 19 84 20 5 21 1 22 2 23
REMARK SMILES IDX 3 24 92 25 4 26 91 27 93 28 17 29 18 30 19 31 20 32 21 33
REMARK SMILES IDX 22 35 23 36 24 37 82 38 25 39 81 40 26 41 27 42 28 43 75 44
REMARK SMILES IDX 29 45 80 46 74 47 76 48 30 49 79 50 73 51 72 52 31 54 61 55
REMARK SMILES IDX 42 56 60 57 43 58 46 59 59 60 77 61 44 62 45 63 58 65 78 66
REMARK SMILES IDX 47 67 32 68 33 69 41 70 34 71 40 72 35 73 36 74 37 75 38 76
REMARK SMILES IDX 39 77 62 78 63 79 71 80 64 81 70 82 65 83 66 84 67 85 68 86
REMARK SMILES IDX 69 87 48 88 49 89 57 90 50 91 56 92 51 93 52 94 53 95 54 96
REMARK SMILES IDX 55 97
REMARK H PARENT 13 7 20 34 76 53 46 64
REMARK Flexibility Score: inf
ROOT
ATOM      1  C   UNL A   1      43.843  25.813  27.665  1.00  0.00     0.002 C 
ENDROOT
BRANCH   1   2
ATOM      2  C   UNL A   1      43.543  24.411  28.196  1.00  0.00     0.021 C 
BRANCH   2   3
ATOM      3  C   UNL A   1      42.228  24.190  28.946  1.00  0.00     0.116 C 
BRANCH   3   4
ATOM      4  N   UNL A   1      41.904  22.773  29.035  1.00  0.00    -0.356 N 
ATOM      5  C   UNL A   1      41.165  21.978  28.211  1.00  0.00     0.221 C 
ATOM      6  O   UNL A   1      40.946  20.817  28.563  1.00  0.00    -0.275 OA
ATOM      7  H   UNL A   1      42.282  22.313  29.819  1.00  0.00     0.163 HD
BRANCH   5   8
ATOM      8  C   UNL A   1      40.667  22.479  26.870  1.00  0.00     0.124 C 
BRANCH   8   9
ATOM      9  C   UNL A   1      40.844  21.465  25.744  1.00  0.00     0.158 C 
BRANCH   9  10
ATOM     10  N   UNL A   1      42.220  20.986  25.598  1.00  0.00    -0.227 N 
ATOM     11  C   UNL A   1      44.462  21.631  25.267  1.00  0.00     0.104 A 
ATOM     12  N   UNL A   1      43.215  21.984  25.427  1.00  0.00    -0.169 NA
ATOM     13  C   UNL A   1      44.797  20.242  25.149  1.00  0.00     0.078 A 
ATOM     14  C   UNL A   1      43.864  19.259  25.486  1.00  0.00     0.183 A 
ATOM     15  C   UNL A   1      45.902  19.553  24.715  1.00  0.00     0.143 A 
ATOM     16  C   UNL A   1      42.488  19.606  25.800  1.00  0.00     0.296 A 
ATOM     17  N   UNL A   1      44.364  18.027  25.335  1.00  0.00    -0.074 NA
ATOM     18  O   UNL A   1      45.655  18.218  24.855  1.00  0.00    -0.360 OA
ATOM     19  C   UNL A   1      47.203  19.915  24.113  1.00  0.00     0.091 C 
ATOM     20  O   UNL A   1      41.638  18.786  26.121  1.00  0.00    -0.265 OA
BRANCH  11  21
ATOM     21  C   UNL A   1      45.584  22.572  25.408  1.00  0.00     0.003 A 
ATOM     22  C   UNL A   1      47.977  26.141  25.574  1.00  0.00     0.044 C 
ATOM     23  C   UNL A   1      47.192  24.855  25.555  1.00  0.00    -0.048 A 
ATOM     24  C   UNL A   1      46.743  24.378  24.314  1.00  0.00     0.004 A 
ATOM     25  C   UNL A   1      46.864  24.148  26.735  1.00  0.00    -0.048 A 
ATOM     26  C   UNL A   1      45.942  23.247  24.238  1.00  0.00     0.011 A 
ATOM     27  C   UNL A   1      46.063  22.990  26.650  1.00  0.00     0.014 A 
ATOM     28  C   UNL A   1      47.239  24.655  28.103  1.00  0.00     0.044 C 
ENDBRANCH  11  21
ENDBRANCH   9  10
ENDBRANCH   8   9
ENDBRANCH   5   8
ENDBRANCH   3   4
ENDBRANCH   2   3
ENDBRANCH   1   2
BRANCH   1  29
ATOM     29  C   UNL A   1      43.629  26.026  26.161  1.00  0.00     0.002 C 
BRANCH  29  30
ATOM     30  C   UNL A   1      42.346  25.447  25.525  1.00  0.00     0.021 C 
BRANCH  30  31
ATOM     31  C   UNL A   1      41.037  26.255  25.665  1.00  0.00     0.116 C 
BRANCH  31  32
ATOM     32  N   UNL A   1      40.095  25.625  26.568  1.00  0.00    -0.352 N 
ATOM     33  C   UNL A   1      39.559  25.974  27.780  1.00  0.00     0.251 C 
ATOM     34  H   UNL A   1      39.768  24.756  26.238  1.00  0.00     0.163 HD
ATOM     35  O   UNL A   1      38.905  25.101  28.358  1.00  0.00    -0.269 OA
BRANCH  33  36
ATOM     36  C   UNL A   1      39.705  27.294  28.455  1.00  0.00     0.039 A 
ATOM     37  C   UNL A   1      39.750  28.414  27.608  1.00  0.00     0.014 A 
ATOM     38  C   UNL A   1      40.012  27.470  29.809  1.00  0.00     0.014 A 
ATOM     39  C   UNL A   1      40.111  29.676  28.089  1.00  0.00     0.010 A 
ATOM     40  C   UNL A   1      40.368  28.751  30.296  1.00  0.00     0.010 A 
ATOM     41  C   UNL A   1      40.433  29.864  29.438  1.00  0.00    -0.014 A 
BRANCH  41  42
ATOM     42  C   UNL A   1      40.720  31.257  29.870  1.00  0.00     0.031 A 
ATOM     43  C   UNL A   1      39.553  32.040  30.394  1.00  0.00     0.074 A 
ATOM     44  C   UNL A   1      41.965  31.665  30.221  1.00  0.00     0.049 A 
ATOM     45  N   UNL A   1      39.099  31.923  31.607  1.00  0.00    -0.248 NA
ATOM     46  C   UNL A   1      38.692  32.845  29.526  1.00  0.00     0.031 C 
ATOM     47  C   UNL A   1      42.885  30.839  31.019  1.00  0.00     0.029 A 
ATOM     48  N   UNL A   1      42.572  32.904  30.193  1.00  0.00    -0.354 N 
ATOM     49  C   UNL A   1      37.913  32.639  31.685  1.00  0.00     0.074 A 
ATOM     50  C   UNL A   1      37.689  33.171  30.359  1.00  0.00     0.031 C 
ATOM     51  C   UNL A   1      43.845  31.634  31.537  1.00  0.00     0.029 A 
ATOM     52  C   UNL A   1      43.712  32.986  30.998  1.00  0.00     0.049 A 
ATOM     53  H   UNL A   1      42.236  33.658  29.656  1.00  0.00     0.167 HD
ATOM     54  C   UNL A   1      37.215  32.788  32.846  1.00  0.00     0.031 A 
ATOM     55  C   UNL A   1      44.155  34.117  31.627  1.00  0.00     0.031 A 
ATOM     56  C   UNL A   1      37.854  32.225  33.999  1.00  0.00     0.049 A 
ATOM     57  C   UNL A   1      43.127  34.242  32.723  1.00  0.00     0.074 A 
ATOM     58  C   UNL A   1      37.807  31.074  34.753  1.00  0.00     0.029 A 
ATOM     59  N   UNL A   1      38.840  32.976  34.593  1.00  0.00    -0.354 N 
ATOM     60  N   UNL A   1      43.084  33.539  33.823  1.00  0.00    -0.248 NA
ATOM     61  C   UNL A   1      41.872  34.911  32.374  1.00  0.00     0.031 C 
ATOM     62  C   UNL A   1      39.068  31.014  35.431  1.00  0.00     0.029 A 
ATOM     63  C   UNL A   1      39.814  32.116  35.018  1.00  0.00     0.049 A 
ATOM     64  H   UNL A   1      38.844  33.956  34.695  1.00  0.00     0.167 HD
ATOM     65  C   UNL A   1      41.728  33.404  34.121  1.00  0.00     0.074 A 
ATOM     66  C   UNL A   1      41.038  34.275  33.185  1.00  0.00     0.031 C 
ATOM     67  C   UNL A   1      41.219  32.461  34.969  1.00  0.00     0.031 A 
BRANCH  54  68
ATOM     68  C   UNL A   1      36.021  33.650  33.057  1.00  0.00    -0.014 A 
ATOM     69  C   UNL A   1      34.762  33.017  33.060  1.00  0.00     0.010 A 
ATOM     70  C   UNL A   1      36.076  35.049  32.961  1.00  0.00     0.010 A 
ATOM     71  C   UNL A   1      33.589  33.747  32.878  1.00  0.00     0.020 A 
ATOM     72  C   UNL A   1      34.893  35.791  32.803  1.00  0.00     0.020 A 
ATOM     73  C   UNL A   1      33.662  35.129  32.728  1.00  0.00     0.054 A 
BRANCH  73  74
ATOM     74  S   UNL A   1      32.125  36.025  32.368  1.00  0.00     0.124 S 
ATOM     75  O   UNL A   1      32.183  37.134  33.317  1.00  0.00    -0.237 OA
ATOM     76  O   UNL A   1      32.300  36.387  30.964  1.00  0.00    -0.237 OA
ATOM     77  O   UNL A   1      31.082  35.036  32.629  1.00  0.00    -0.744 OA
ENDBRANCH  73  74
ENDBRANCH  54  68
BRANCH  55  78
ATOM     78  C   UNL A   1      44.547  35.267  30.746  1.00  0.00    -0.014 A 
ATOM     79  C   UNL A   1      45.366  34.983  29.631  1.00  0.00     0.010 A 
ATOM     80  C   UNL A   1      44.159  36.607  30.934  1.00  0.00     0.010 A 
ATOM     81  C   UNL A   1      45.633  35.948  28.656  1.00  0.00     0.020 A 
ATOM     82  C   UNL A   1      44.397  37.576  29.945  1.00  0.00     0.020 A 
ATOM     83  C   UNL A   1      45.097  37.226  28.791  1.00  0.00     0.054 A 
BRANCH  83  84
ATOM     84  S   UNL A   1      45.248  38.377  27.398  1.00  0.00     0.124 S 
ATOM     85  O   UNL A   1      46.091  37.634  26.466  1.00  0.00    -0.237 OA
ATOM     86  O   UNL A   1      43.854  38.545  26.993  1.00  0.00    -0.237 OA
ATOM     87  O   UNL A   1      45.863  39.560  27.993  1.00  0.00    -0.744 OA
ENDBRANCH  83  84
ENDBRANCH  55  78
BRANCH  67  88
ATOM     88  C   UNL A   1      42.200  31.623  35.728  1.00  0.00    -0.014 A 
ATOM     89  C   UNL A   1      42.947  30.637  35.067  1.00  0.00     0.010 A 
ATOM     90  C   UNL A   1      42.462  31.880  37.087  1.00  0.00     0.010 A 
ATOM     91  C   UNL A   1      43.975  29.966  35.729  1.00  0.00     0.020 A 
ATOM     92  C   UNL A   1      43.502  31.225  37.751  1.00  0.00     0.020 A 
ATOM     93  C   UNL A   1      44.264  30.281  37.061  1.00  0.00     0.054 A 
BRANCH  93  94
ATOM     94  S   UNL A   1      45.689  29.486  37.848  1.00  0.00     0.124 S 
ATOM     95  O   UNL A   1      46.718  29.590  36.817  1.00  0.00    -0.237 OA
ATOM     96  O   UNL A   1      45.899  30.318  39.031  1.00  0.00    -0.237 OA
ATOM     97  O   UNL A   1      45.224  28.128  38.126  1.00  0.00    -0.744 OA
ENDBRANCH  93  94
ENDBRANCH  67  88
ENDBRANCH  41  42
ENDBRANCH  33  36
ENDBRANCH  31  32
ENDBRANCH  30  31
ENDBRANCH  29  30
ENDBRANCH   1  29
TORSDOF 19
ENDMDL
MODEL 3
REMARK VINA RESULT:      -9.8      4.087      9.872
REMARK SMILES Cc1ccc(-c2nn(CCC(=O)NCCCCCCNC(=O)c3ccc(-c4c5nc(c(-c6ccc(S(=O)(=O)[O-])cc6)c6ccc([nH]6)c(-c6ccc(S(=O)(=O)[O-])cc6)c6nc(c(-c7ccc(S(=O)(=O)[O-])cc7)c7ccc4[nH]7)C=C6)C=C5)cc3)c(=O)c3noc(C)c23)cc1C
REMARK SMILES IDX 16 1 15 2 14 3 13 4 11 5 12 6 10 8 9 9 8 10 6 11 7 12 90 13
REMARK SMILES IDX 85 14 88 15 83 16 86 17 87 18 89 19 84 20 5 21 1 22 2 23
REMARK SMILES IDX 3 24 92 25 4 26 91 27 93 28 17 29 18 30 19 31 20 32 21 33
REMARK SMILES IDX 22 35 23 36 24 37 82 38 25 39 81 40 26 41 27 42 28 43 75 44
REMARK SMILES IDX 29 45 80 46 74 47 76 48 30 49 79 50 73 51 72 52 31 54 61 55
REMARK SMILES IDX 42 56 60 57 43 58 46 59 59 60 77 61 44 62 45 63 58 65 78 66
REMARK SMILES IDX 47 67 32 68 33 69 41 70 34 71 40 72 35 73 36 74 37 75 38 76
REMARK SMILES IDX 39 77 62 78 63 79 71 80 64 81 70 82 65 83 66 84 67 85 68 86
REMARK SMILES IDX 69 87 48 88 49 89 57 90 50 91 56 92 51 93 52 94 53 95 54 96
REMARK SMILES IDX 55 97
REMARK H PARENT 13 7 20 34 76 53 46 64
REMARK Flexibility Score: inf
ROOT
ATOM      1  C   UNL A   1      45.290  23.479  24.860  1.00  0.00     0.002 C 
ENDROOT
BRANCH   1   2
ATOM      2  C   UNL A   1      44.681  24.875  24.996  1.00  0.00     0.021 C 
BRANCH   2   3
ATOM      3  C   UNL A   1      45.517  25.962  25.676  1.00  0.00     0.116 C 
BRANCH   3   4
ATOM      4  N   UNL A   1      46.191  25.446  26.858  1.00  0.00    -0.356 N 
ATOM      5  C   UNL A   1      47.234  25.949  27.576  1.00  0.00     0.221 C 
ATOM      6  O   UNL A   1      47.699  25.262  28.489  1.00  0.00    -0.275 OA
ATOM      7  H   UNL A   1      45.834  24.593  27.196  1.00  0.00     0.163 HD
BRANCH   5   8
ATOM      8  C   UNL A   1      47.780  27.336  27.307  1.00  0.00     0.124 C 
BRANCH   8   9
ATOM      9  C   UNL A   1      47.640  27.769  25.851  1.00  0.00     0.158 C 
BRANCH   9  10
ATOM     10  N   UNL A   1      48.811  27.454  25.030  1.00  0.00    -0.227 N 
ATOM     11  C   UNL A   1      51.097  26.886  25.070  1.00  0.00     0.104 A 
ATOM     12  N   UNL A   1      50.006  27.153  25.735  1.00  0.00    -0.169 NA
ATOM     13  C   UNL A   1      51.108  27.011  23.643  1.00  0.00     0.078 A 
ATOM     14  C   UNL A   1      49.909  27.134  22.936  1.00  0.00     0.183 A 
ATOM     15  C   UNL A   1      52.094  27.082  22.690  1.00  0.00     0.143 A 
ATOM     16  C   UNL A   1      48.643  27.306  23.628  1.00  0.00     0.296 A 
ATOM     17  N   UNL A   1      50.116  27.215  21.616  1.00  0.00    -0.074 NA
ATOM     18  O   UNL A   1      51.498  27.175  21.465  1.00  0.00    -0.360 OA
ATOM     19  C   UNL A   1      53.571  27.134  22.702  1.00  0.00     0.091 C 
ATOM     20  O   UNL A   1      47.564  27.398  23.057  1.00  0.00    -0.265 OA
BRANCH  11  21
ATOM     21  C   UNL A   1      52.275  26.256  25.686  1.00  0.00     0.003 A 
ATOM     22  C   UNL A   1      56.070  24.331  26.309  1.00  0.00     0.044 C 
ATOM     23  C   UNL A   1      54.741  25.027  26.163  1.00  0.00    -0.048 A 
ATOM     24  C   UNL A   1      53.672  24.294  25.626  1.00  0.00     0.004 A 
ATOM     25  C   UNL A   1      54.554  26.386  26.505  1.00  0.00    -0.048 A 
ATOM     26  C   UNL A   1      52.447  24.902  25.386  1.00  0.00     0.011 A 
ATOM     27  C   UNL A   1      53.303  26.994  26.273  1.00  0.00     0.014 A 
ATOM     28  C   UNL A   1      55.685  27.250  27.000  1.00  0.00     0.044 C 
ENDBRANCH  11  21
ENDBRANCH   9  10
ENDBRANCH   8   9
ENDBRANCH   5   8
ENDBRANCH   3   4
ENDBRANCH   2   3
ENDBRANCH   1   2
BRANCH   1  29
ATOM     29  C   UNL A   1      44.301  22.331  24.617  1.00  0.00     0.002 C 
BRANCH  29  30
ATOM     30  C   UNL A   1      44.197  21.228  25.694  1.00  0.00     0.021 C 
BRANCH  30  31
ATOM     31  C   UNL A   1      43.175  20.091  25.473  1.00  0.00     0.116 C 
BRANCH  31  32
ATOM     32  N   UNL A   1      42.125  20.093  26.472  1.00  0.00    -0.352 N 
ATOM     33  C   UNL A   1      41.607  21.048  27.306  1.00  0.00     0.251 C 
ATOM     34  H   UNL A   1      41.689  19.215  26.573  1.00  0.00     0.163 HD
ATOM     35  O   UNL A   1      40.818  20.650  28.168  1.00  0.00    -0.269 OA
BRANCH  33  36
ATOM     36  C   UNL A   1      41.918  22.505  27.269  1.00  0.00     0.039 A 
ATOM     37  C   UNL A   1      42.818  22.965  28.245  1.00  0.00     0.014 A 
ATOM     38  C   UNL A   1      41.231  23.450  26.500  1.00  0.00     0.014 A 
ATOM     39  C   UNL A   1      43.017  24.331  28.466  1.00  0.00     0.010 A 
ATOM     40  C   UNL A   1      41.440  24.834  26.719  1.00  0.00     0.010 A 
ATOM     41  C   UNL A   1      42.326  25.287  27.713  1.00  0.00    -0.014 A 
BRANCH  41  42
ATOM     42  C   UNL A   1      42.669  26.712  27.963  1.00  0.00     0.031 A 
ATOM     43  C   UNL A   1      41.545  27.695  27.834  1.00  0.00     0.074 A 
ATOM     44  C   UNL A   1      43.750  27.078  28.696  1.00  0.00     0.049 A 
ATOM     45  N   UNL A   1      40.666  27.904  28.770  1.00  0.00    -0.248 NA
ATOM     46  C   UNL A   1      41.212  28.349  26.567  1.00  0.00     0.031 C 
ATOM     47  C   UNL A   1      44.160  26.383  29.926  1.00  0.00     0.029 A 
ATOM     48  N   UNL A   1      44.529  28.217  28.685  1.00  0.00    -0.354 N 
ATOM     49  C   UNL A   1      39.676  28.721  28.245  1.00  0.00     0.074 A 
ATOM     50  C   UNL A   1      40.046  28.948  26.864  1.00  0.00     0.031 C 
ATOM     51  C   UNL A   1      44.985  27.188  30.628  1.00  0.00     0.029 A 
ATOM     52  C   UNL A   1      45.292  28.384  29.845  1.00  0.00     0.049 A 
ATOM     53  H   UNL A   1      44.546  28.852  27.933  1.00  0.00     0.167 HD
ATOM     54  C   UNL A   1      38.638  29.198  28.989  1.00  0.00     0.031 A 
ATOM     55  C   UNL A   1      45.661  29.586  30.381  1.00  0.00     0.031 A 
ATOM     56  C   UNL A   1      38.706  28.865  30.382  1.00  0.00     0.049 A 
ATOM     57  C   UNL A   1      44.342  30.053  30.943  1.00  0.00     0.074 A 
ATOM     58  C   UNL A   1      38.189  27.930  31.251  1.00  0.00     0.029 A 
ATOM     59  N   UNL A   1      39.519  29.643  31.169  1.00  0.00    -0.354 N 
ATOM     60  N   UNL A   1      43.781  29.632  32.044  1.00  0.00    -0.248 NA
ATOM     61  C   UNL A   1      43.436  30.731  30.013  1.00  0.00     0.031 C 
ATOM     62  C   UNL A   1      39.085  27.917  32.369  1.00  0.00     0.029 A 
ATOM     63  C   UNL A   1      40.108  28.822  32.091  1.00  0.00     0.049 A 
ATOM     64  H   UNL A   1      39.654  30.615  31.086  1.00  0.00     0.167 HD
ATOM     65  C   UNL A   1      42.408  29.691  31.803  1.00  0.00     0.074 A 
ATOM     66  C   UNL A   1      42.268  30.378  30.531  1.00  0.00     0.031 C 
ATOM     67  C   UNL A   1      41.470  29.021  32.538  1.00  0.00     0.031 A 
BRANCH  54  68
ATOM     68  C   UNL A   1      37.616  30.187  28.553  1.00  0.00    -0.014 A 
ATOM     69  C   UNL A   1      37.889  31.547  28.801  1.00  0.00     0.010 A 
ATOM     70  C   UNL A   1      36.314  29.812  28.188  1.00  0.00     0.010 A 
ATOM     71  C   UNL A   1      36.873  32.500  28.779  1.00  0.00     0.020 A 
ATOM     72  C   UNL A   1      35.292  30.775  28.139  1.00  0.00     0.020 A 
ATOM     73  C   UNL A   1      35.574  32.106  28.470  1.00  0.00     0.054 A 
BRANCH  73  74
ATOM     74  S   UNL A   1      34.261  33.355  28.576  1.00  0.00     0.124 S 
ATOM     75  O   UNL A   1      33.182  32.736  27.811  1.00  0.00    -0.237 OA
ATOM     76  O   UNL A   1      34.039  33.449  30.016  1.00  0.00    -0.237 OA
ATOM     77  O   UNL A   1      34.861  34.537  27.962  1.00  0.00    -0.744 OA
ENDBRANCH  73  74
ENDBRANCH  54  68
BRANCH  55  78
ATOM     78  C   UNL A   1      46.540  30.460  29.534  1.00  0.00    -0.014 A 
ATOM     79  C   UNL A   1      47.905  30.545  29.884  1.00  0.00     0.010 A 
ATOM     80  C   UNL A   1      46.116  31.197  28.412  1.00  0.00     0.010 A 
ATOM     81  C   UNL A   1      48.833  31.182  29.056  1.00  0.00     0.020 A 
ATOM     82  C   UNL A   1      47.045  31.815  27.558  1.00  0.00     0.020 A 
ATOM     83  C   UNL A   1      48.404  31.764  27.866  1.00  0.00     0.054 A 
BRANCH  83  84
ATOM     84  S   UNL A   1      49.655  32.360  26.697  1.00  0.00     0.124 S 
ATOM     85  O   UNL A   1      50.216  31.117  26.175  1.00  0.00    -0.237 OA
ATOM     86  O   UNL A   1      48.845  33.131  25.755  1.00  0.00    -0.237 OA
ATOM     87  O   UNL A   1      50.556  33.154  27.528  1.00  0.00    -0.744 OA
ENDBRANCH  83  84
ENDBRANCH  55  78
BRANCH  67  88
ATOM     88  C   UNL A   1      41.947  28.299  33.760  1.00  0.00    -0.014 A 
ATOM     89  C   UNL A   1      42.541  27.034  33.645  1.00  0.00     0.010 A 
ATOM     90  C   UNL A   1      41.903  28.920  35.023  1.00  0.00     0.010 A 
ATOM     91  C   UNL A   1      43.133  26.427  34.754  1.00  0.00     0.020 A 
ATOM     92  C   UNL A   1      42.509  28.327  36.133  1.00  0.00     0.020 A 
ATOM     93  C   UNL A   1      43.136  27.089  35.986  1.00  0.00     0.054 A 
BRANCH  93  94
ATOM     94  S   UNL A   1      44.027  26.333  37.371  1.00  0.00     0.124 S 
ATOM     95  O   UNL A   1      44.240  24.967  36.902  1.00  0.00    -0.237 OA
ATOM     96  O   UNL A   1      45.228  27.160  37.461  1.00  0.00    -0.237 OA
ATOM     97  O   UNL A   1      43.104  26.465  38.497  1.00  0.00    -0.744 OA
ENDBRANCH  93  94
ENDBRANCH  67  88
ENDBRANCH  41  42
ENDBRANCH  33  36
ENDBRANCH  31  32
ENDBRANCH  30  31
ENDBRANCH  29  30
ENDBRANCH   1  29
TORSDOF 19
ENDMDL
