MODEL 1
REMARK VINA RESULT:     -10.4      0.000      0.000
REMARK SMILES O=C(NCCCCCCNC(=O)[C@H]1CC[C@H](CNC(=O)c2ccccc2O)O1)c1ccc(-c2c3nc(c(-c4ccc(S(=O)(=O)[O-])cc4)c4ccc([nH]4)c(-c4ccc(S(=O)(=O)[O-])cc4)c4nc(c(-c5ccc(S(=O)(=O)[O-])cc5)c5ccc2[nH]5)C=C4)C=C3)cc1
REMARK SMILES IDX 7 1 6 2 5 3 4 4 3 5 1 6 2 7 29 9 30 10 88 11 31 12 87 13
REMARK SMILES IDX 32 14 33 15 34 16 81 17 35 18 86 19 80 20 82 21 36 22 85 23
REMARK SMILES IDX 79 24 78 25 37 27 67 28 48 29 66 30 49 31 52 32 65 33 83 34
REMARK SMILES IDX 50 35 51 36 64 38 84 39 53 40 38 41 39 42 47 43 40 44 46 45
REMARK SMILES IDX 41 46 42 47 43 48 44 49 45 50 68 51 69 52 77 53 70 54 76 55
REMARK SMILES IDX 71 56 72 57 73 58 74 59 75 60 54 61 55 62 63 63 56 64 62 65
REMARK SMILES IDX 57 66 58 67 59 68 60 69 61 70 8 71 9 72 10 73 11 74 12 76
REMARK SMILES IDX 13 77 14 78 28 79 15 80 16 81 17 82 18 83 19 84 20 86 21 87
REMARK SMILES IDX 22 88 26 89 23 90 25 91 24 92 27 93
REMARK H PARENT 3 8 82 26 52 37 10 75 18 85 27 94
REMARK Flexibility Score: inf
ROOT
ATOM      1  C   UNL A   1      35.529  31.289  27.664  1.00  0.00     0.002 C 
ENDROOT
BRANCH   1   2
ATOM      2  C   UNL A   1      34.672  32.187  28.559  1.00  0.00     0.002 C 
BRANCH   2   3
ATOM      3  C   UNL A   1      35.406  33.343  29.241  1.00  0.00     0.021 C 
BRANCH   3   4
ATOM      4  C   UNL A   1      36.537  32.933  30.176  1.00  0.00     0.116 C 
BRANCH   4   5
ATOM      5  N   UNL A   1      36.148  31.886  31.105  1.00  0.00    -0.352 N 
ATOM      6  O   UNL A   1      36.217  29.853  32.079  1.00  0.00    -0.269 OA
ATOM      7  C   UNL A   1      36.768  30.688  31.367  1.00  0.00     0.251 C 
ATOM      8  H   UNL A   1      35.324  32.059  31.618  1.00  0.00     0.163 HD
BRANCH   7   9
ATOM      9  C   UNL A   1      38.090  30.397  30.768  1.00  0.00     0.039 A 
ATOM     10  C   UNL A   1      38.256  30.362  29.381  1.00  0.00     0.014 A 
ATOM     11  C   UNL A   1      39.182  30.159  31.609  1.00  0.00     0.014 A 
ATOM     12  C   UNL A   1      39.472  29.960  28.839  1.00  0.00     0.010 A 
ATOM     13  C   UNL A   1      40.425  29.831  31.060  1.00  0.00     0.010 A 
ATOM     14  C   UNL A   1      40.574  29.701  29.671  1.00  0.00    -0.014 A 
BRANCH  14  15
ATOM     15  C   UNL A   1      41.882  29.356  29.058  1.00  0.00     0.031 A 
ATOM     16  C   UNL A   1      43.002  30.358  28.988  1.00  0.00     0.074 A 
ATOM     17  C   UNL A   1      42.065  28.106  28.589  1.00  0.00     0.049 A 
ATOM     18  N   UNL A   1      44.217  30.199  28.528  1.00  0.00    -0.248 NA
ATOM     19  C   UNL A   1      42.725  31.711  29.494  1.00  0.00     0.031 C 
ATOM     20  C   UNL A   1      41.050  27.047  28.594  1.00  0.00     0.029 A 
ATOM     21  N   UNL A   1      43.168  27.503  28.041  1.00  0.00    -0.354 N 
ATOM     22  C   UNL A   1      44.844  31.432  28.668  1.00  0.00     0.074 A 
ATOM     23  C   UNL A   1      43.868  32.336  29.239  1.00  0.00     0.031 C 
ATOM     24  C   UNL A   1      41.594  25.915  28.126  1.00  0.00     0.029 A 
ATOM     25  C   UNL A   1      42.974  26.178  27.734  1.00  0.00     0.049 A 
ATOM     26  H   UNL A   1      44.018  27.975  27.885  1.00  0.00     0.167 HD
ATOM     27  C   UNL A   1      46.117  31.778  28.354  1.00  0.00     0.031 A 
ATOM     28  C   UNL A   1      43.807  25.272  27.191  1.00  0.00     0.031 A 
ATOM     29  C   UNL A   1      47.086  30.876  27.786  1.00  0.00     0.049 A 
ATOM     30  C   UNL A   1      45.205  25.686  26.835  1.00  0.00     0.074 A 
ATOM     31  C   UNL A   1      48.407  31.126  27.457  1.00  0.00     0.029 A 
ATOM     32  N   UNL A   1      46.838  29.551  27.454  1.00  0.00    -0.354 N 
ATOM     33  N   UNL A   1      45.785  26.849  27.005  1.00  0.00    -0.248 NA
ATOM     34  C   UNL A   1      46.059  24.665  26.217  1.00  0.00     0.031 C 
ATOM     35  C   UNL A   1      48.946  29.966  26.889  1.00  0.00     0.029 A 
ATOM     36  C   UNL A   1      47.974  28.978  26.908  1.00  0.00     0.049 A 
ATOM     37  H   UNL A   1      45.980  29.087  27.588  1.00  0.00     0.167 HD
ATOM     38  C   UNL A   1      47.080  26.697  26.524  1.00  0.00     0.074 A 
ATOM     39  C   UNL A   1      47.202  25.324  26.077  1.00  0.00     0.031 C 
ATOM     40  C   UNL A   1      48.076  27.613  26.458  1.00  0.00     0.031 A 
BRANCH  27  41
ATOM     41  C   UNL A   1      46.531  33.206  28.597  1.00  0.00    -0.014 A 
ATOM     42  C   UNL A   1      46.358  34.192  27.611  1.00  0.00     0.010 A 
ATOM     43  C   UNL A   1      47.064  33.574  29.846  1.00  0.00     0.010 A 
ATOM     44  C   UNL A   1      46.747  35.512  27.854  1.00  0.00     0.020 A 
ATOM     45  C   UNL A   1      47.435  34.898  30.101  1.00  0.00     0.020 A 
ATOM     46  C   UNL A   1      47.291  35.856  29.096  1.00  0.00     0.054 A 
BRANCH  46  47
ATOM     47  S   UNL A   1      47.781  37.578  29.387  1.00  0.00     0.124 S 
ATOM     48  O   UNL A   1      47.231  38.249  28.211  1.00  0.00    -0.237 OA
ATOM     49  O   UNL A   1      47.123  37.891  30.653  1.00  0.00    -0.237 OA
ATOM     50  O   UNL A   1      49.239  37.518  29.445  1.00  0.00    -0.744 OA
ENDBRANCH  46  47
ENDBRANCH  27  41
BRANCH  28  51
ATOM     51  C   UNL A   1      43.328  23.884  26.951  1.00  0.00    -0.014 A 
ATOM     52  C   UNL A   1      43.025  23.449  25.650  1.00  0.00     0.010 A 
ATOM     53  C   UNL A   1      43.212  22.980  28.023  1.00  0.00     0.010 A 
ATOM     54  C   UNL A   1      42.607  22.134  25.426  1.00  0.00     0.020 A 
ATOM     55  C   UNL A   1      42.820  21.659  27.799  1.00  0.00     0.020 A 
ATOM     56  C   UNL A   1      42.510  21.247  26.502  1.00  0.00     0.054 A 
BRANCH  56  57
ATOM     57  S   UNL A   1      42.032  19.526  26.181  1.00  0.00     0.124 S 
ATOM     58  O   UNL A   1      40.596  19.648  25.958  1.00  0.00    -0.237 OA
ATOM     59  O   UNL A   1      42.831  19.189  25.004  1.00  0.00    -0.237 OA
ATOM     60  O   UNL A   1      42.421  18.832  27.406  1.00  0.00    -0.744 OA
ENDBRANCH  56  57
ENDBRANCH  28  51
BRANCH  40  61
ATOM     61  C   UNL A   1      49.393  27.149  25.898  1.00  0.00    -0.014 A 
ATOM     62  C   UNL A   1      49.738  27.394  24.557  1.00  0.00     0.010 A 
ATOM     63  C   UNL A   1      50.307  26.482  26.733  1.00  0.00     0.010 A 
ATOM     64  C   UNL A   1      50.961  26.947  24.051  1.00  0.00     0.020 A 
ATOM     65  C   UNL A   1      51.540  26.054  26.237  1.00  0.00     0.020 A 
ATOM     66  C   UNL A   1      51.853  26.276  24.894  1.00  0.00     0.054 A 
BRANCH  66  67
ATOM     67  S   UNL A   1      53.448  25.728  24.224  1.00  0.00     0.124 S 
ATOM     68  O   UNL A   1      53.270  25.957  22.793  1.00  0.00    -0.237 OA
ATOM     69  O   UNL A   1      54.398  26.616  24.890  1.00  0.00    -0.237 OA
ATOM     70  O   UNL A   1      53.527  24.326  24.628  1.00  0.00    -0.744 OA
ENDBRANCH  66  67
ENDBRANCH  40  61
ENDBRANCH  14  15
ENDBRANCH   7   9
ENDBRANCH   4   5
ENDBRANCH   3   4
ENDBRANCH   2   3
ENDBRANCH   1   2
BRANCH   1  71
ATOM     71  C   UNL A   1      34.933  29.920  27.315  1.00  0.00     0.021 C 
BRANCH  71  72
ATOM     72  C   UNL A   1      33.560  29.952  26.647  1.00  0.00     0.116 C 
BRANCH  72  73
ATOM     73  N   UNL A   1      33.572  29.332  25.336  1.00  0.00    -0.354 N 
ATOM     74  C   UNL A   1      33.273  28.053  24.967  1.00  0.00     0.249 C 
ATOM     75  H   UNL A   1      33.835  29.927  24.597  1.00  0.00     0.163 HD
ATOM     76  O   UNL A   1      33.309  27.777  23.765  1.00  0.00    -0.272 OA
BRANCH  74  77
ATOM     77  C   UNL A   1      32.929  27.002  26.036  1.00  0.00     0.207 C 
ATOM     78  C   UNL A   1      31.513  27.178  26.565  1.00  0.00     0.045 C 
ATOM     79  O   UNL A   1      33.011  25.687  25.461  1.00  0.00    -0.363 OA
ATOM     80  C   UNL A   1      30.718  26.180  25.762  1.00  0.00     0.037 C 
ATOM     81  C   UNL A   1      31.715  25.056  25.538  1.00  0.00     0.138 C 
BRANCH  81  82
ATOM     82  C   UNL A   1      31.767  24.016  26.670  1.00  0.00     0.148 C 
BRANCH  82  83
ATOM     83  N   UNL A   1      31.455  22.664  26.238  1.00  0.00    -0.349 N 
ATOM     84  C   UNL A   1      32.238  21.776  25.546  1.00  0.00     0.255 C 
ATOM     85  H   UNL A   1      30.557  22.341  26.476  1.00  0.00     0.163 HD
ATOM     86  O   UNL A   1      31.773  20.688  25.208  1.00  0.00    -0.269 OA
BRANCH  84  87
ATOM     87  C   UNL A   1      33.607  22.138  25.122  1.00  0.00     0.081 A 
ATOM     88  C   UNL A   1      34.611  22.070  26.096  1.00  0.00     0.018 A 
ATOM     89  C   UNL A   1      33.920  22.583  23.832  1.00  0.00     0.128 A 
ATOM     90  C   UNL A   1      35.928  22.395  25.769  1.00  0.00     0.001 A 
ATOM     91  C   UNL A   1      35.239  22.900  23.503  1.00  0.00     0.047 A 
ATOM     92  C   UNL A   1      36.242  22.799  24.472  1.00  0.00     0.004 A 
BRANCH  89  93
ATOM     93  O   UNL A   1      32.941  22.717  22.886  1.00  0.00    -0.507 OA
ATOM     94  H   UNL A   1      32.131  22.256  22.983  1.00  0.00     0.293 HD
ENDBRANCH  89  93
ENDBRANCH  84  87
ENDBRANCH  82  83
ENDBRANCH  81  82
ENDBRANCH  74  77
ENDBRANCH  72  73
ENDBRANCH  71  72
ENDBRANCH   1  71
TORSDOF 20
ENDMDL
MODEL 2
REMARK VINA RESULT:     -10.4      6.203      8.559
REMARK SMILES O=C(NCCCCCCNC(=O)[C@H]1CC[C@H](CNC(=O)c2ccccc2O)O1)c1ccc(-c2c3nc(c(-c4ccc(S(=O)(=O)[O-])cc4)c4ccc([nH]4)c(-c4ccc(S(=O)(=O)[O-])cc4)c4nc(c(-c5ccc(S(=O)(=O)[O-])cc5)c5ccc2[nH]5)C=C4)C=C3)cc1
REMARK SMILES IDX 7 1 6 2 5 3 4 4 3 5 1 6 2 7 29 9 30 10 88 11 31 12 87 13
REMARK SMILES IDX 32 14 33 15 34 16 81 17 35 18 86 19 80 20 82 21 36 22 85 23
REMARK SMILES IDX 79 24 78 25 37 27 67 28 48 29 66 30 49 31 52 32 65 33 83 34
REMARK SMILES IDX 50 35 51 36 64 38 84 39 53 40 38 41 39 42 47 43 40 44 46 45
REMARK SMILES IDX 41 46 42 47 43 48 44 49 45 50 68 51 69 52 77 53 70 54 76 55
REMARK SMILES IDX 71 56 72 57 73 58 74 59 75 60 54 61 55 62 63 63 56 64 62 65
REMARK SMILES IDX 57 66 58 67 59 68 60 69 61 70 8 71 9 72 10 73 11 74 12 76
REMARK SMILES IDX 13 77 14 78 28 79 15 80 16 81 17 82 18 83 19 84 20 86 21 87
REMARK SMILES IDX 22 88 26 89 23 90 25 91 24 92 27 93
REMARK H PARENT 3 8 82 26 52 37 10 75 18 85 27 94
REMARK Flexibility Score: inf
ROOT
ATOM      1  C   UNL A   1      35.782  32.937  28.426  1.00  0.00     0.002 C 
ENDROOT
BRANCH   1   2
ATOM      2  C   UNL A   1      34.454  33.023  29.183  1.00  0.00     0.002 C 
BRANCH   2   3
ATOM      3  C   UNL A   1      33.482  34.101  28.701  1.00  0.00     0.021 C 
BRANCH   3   4
ATOM      4  C   UNL A   1      33.651  35.467  29.353  1.00  0.00     0.116 C 
BRANCH   4   5
ATOM      5  N   UNL A   1      32.728  35.683  30.454  1.00  0.00    -0.352 N 
ATOM      6  O   UNL A   1      31.889  35.426  32.531  1.00  0.00    -0.269 OA
ATOM      7  C   UNL A   1      32.838  35.286  31.765  1.00  0.00     0.251 C 
ATOM      8  H   UNL A   1      31.909  36.183  30.229  1.00  0.00     0.163 HD
BRANCH   7   9
ATOM      9  C   UNL A   1      34.094  34.666  32.243  1.00  0.00     0.039 A 
ATOM     10  C   UNL A   1      35.309  35.353  32.158  1.00  0.00     0.014 A 
ATOM     11  C   UNL A   1      34.055  33.379  32.787  1.00  0.00     0.014 A 
ATOM     12  C   UNL A   1      36.494  34.706  32.491  1.00  0.00     0.010 A 
ATOM     13  C   UNL A   1      35.240  32.759  33.195  1.00  0.00     0.010 A 
ATOM     14  C   UNL A   1      36.473  33.406  33.023  1.00  0.00    -0.014 A 
BRANCH  14  15
ATOM     15  C   UNL A   1      37.749  32.775  33.448  1.00  0.00     0.031 A 
ATOM     16  C   UNL A   1      38.383  33.104  34.772  1.00  0.00     0.074 A 
ATOM     17  C   UNL A   1      38.321  31.865  32.635  1.00  0.00     0.049 A 
ATOM     18  N   UNL A   1      39.467  32.606  35.310  1.00  0.00    -0.248 NA
ATOM     19  C   UNL A   1      37.719  34.125  35.599  1.00  0.00     0.031 C 
ATOM     20  C   UNL A   1      37.805  31.467  31.321  1.00  0.00     0.029 A 
ATOM     21  N   UNL A   1      39.442  31.093  32.797  1.00  0.00    -0.354 N 
ATOM     22  C   UNL A   1      39.630  33.263  36.524  1.00  0.00     0.074 A 
ATOM     23  C   UNL A   1      38.542  34.212  36.636  1.00  0.00     0.031 C 
ATOM     24  C   UNL A   1      38.575  30.489  30.824  1.00  0.00     0.029 A 
ATOM     25  C   UNL A   1      39.670  30.230  31.752  1.00  0.00     0.049 A 
ATOM     26  H   UNL A   1      40.027  31.150  33.587  1.00  0.00     0.167 HD
ATOM     27  C   UNL A   1      40.595  33.089  37.461  1.00  0.00     0.031 A 
ATOM     28  C   UNL A   1      40.654  29.334  31.552  1.00  0.00     0.031 A 
ATOM     29  C   UNL A   1      41.676  32.145  37.346  1.00  0.00     0.049 A 
ATOM     30  C   UNL A   1      41.719  29.175  32.596  1.00  0.00     0.074 A 
ATOM     31  C   UNL A   1      42.687  31.877  38.253  1.00  0.00     0.029 A 
ATOM     32  N   UNL A   1      41.893  31.316  36.254  1.00  0.00    -0.354 N 
ATOM     33  N   UNL A   1      41.836  29.785  33.751  1.00  0.00    -0.248 NA
ATOM     34  C   UNL A   1      42.784  28.205  32.311  1.00  0.00     0.031 C 
ATOM     35  C   UNL A   1      43.538  30.918  37.692  1.00  0.00     0.029 A 
ATOM     36  C   UNL A   1      43.031  30.553  36.456  1.00  0.00     0.049 A 
ATOM     37  H   UNL A   1      41.322  31.277  35.453  1.00  0.00     0.167 HD
ATOM     38  C   UNL A   1      42.983  29.264  34.337  1.00  0.00     0.074 A 
ATOM     39  C   UNL A   1      43.511  28.275  33.419  1.00  0.00     0.031 C 
ATOM     40  C   UNL A   1      43.549  29.580  35.527  1.00  0.00     0.031 A 
BRANCH  27  41
ATOM     41  C   UNL A   1      40.538  33.960  38.689  1.00  0.00    -0.014 A 
ATOM     42  C   UNL A   1      41.162  35.220  38.717  1.00  0.00     0.010 A 
ATOM     43  C   UNL A   1      39.817  33.528  39.817  1.00  0.00     0.010 A 
ATOM     44  C   UNL A   1      41.099  36.014  39.865  1.00  0.00     0.020 A 
ATOM     45  C   UNL A   1      39.733  34.330  40.960  1.00  0.00     0.020 A 
ATOM     46  C   UNL A   1      40.391  35.561  40.983  1.00  0.00     0.054 A 
BRANCH  46  47
ATOM     47  S   UNL A   1      40.319  36.616  42.457  1.00  0.00     0.124 S 
ATOM     48  O   UNL A   1      39.640  37.803  41.942  1.00  0.00    -0.237 OA
ATOM     49  O   UNL A   1      39.544  35.808  43.395  1.00  0.00    -0.237 OA
ATOM     50  O   UNL A   1      41.722  36.807  42.815  1.00  0.00    -0.744 OA
ENDBRANCH  46  47
ENDBRANCH  27  41
BRANCH  28  51
ATOM     51  C   UNL A   1      40.668  28.524  30.305  1.00  0.00    -0.014 A 
ATOM     52  C   UNL A   1      41.530  28.857  29.248  1.00  0.00     0.010 A 
ATOM     53  C   UNL A   1      39.843  27.389  30.189  1.00  0.00     0.010 A 
ATOM     54  C   UNL A   1      41.563  28.073  28.091  1.00  0.00     0.020 A 
ATOM     55  C   UNL A   1      39.893  26.589  29.045  1.00  0.00     0.020 A 
ATOM     56  C   UNL A   1      40.745  26.942  27.999  1.00  0.00     0.054 A 
BRANCH  56  57
ATOM     57  S   UNL A   1      40.853  25.899  26.519  1.00  0.00     0.124 S 
ATOM     58  O   UNL A   1      41.221  26.868  25.492  1.00  0.00    -0.237 OA
ATOM     59  O   UNL A   1      41.891  24.936  26.882  1.00  0.00    -0.237 OA
ATOM     60  O   UNL A   1      39.510  25.337  26.400  1.00  0.00    -0.744 OA
ENDBRANCH  56  57
ENDBRANCH  28  51
BRANCH  40  61
ATOM     61  C   UNL A   1      44.793  28.828  35.911  1.00  0.00    -0.014 A 
ATOM     62  C   UNL A   1      44.724  27.666  36.701  1.00  0.00     0.010 A 
ATOM     63  C   UNL A   1      46.045  29.275  35.455  1.00  0.00     0.010 A 
ATOM     64  C   UNL A   1      45.890  26.985  37.057  1.00  0.00     0.020 A 
ATOM     65  C   UNL A   1      47.212  28.584  35.789  1.00  0.00     0.020 A 
ATOM     66  C   UNL A   1      47.128  27.451  36.602  1.00  0.00     0.054 A 
BRANCH  66  67
ATOM     67  S   UNL A   1      48.629  26.537  37.053  1.00  0.00     0.124 S 
ATOM     68  O   UNL A   1      48.268  25.985  38.355  1.00  0.00    -0.237 OA
ATOM     69  O   UNL A   1      48.751  25.564  35.969  1.00  0.00    -0.237 OA
ATOM     70  O   UNL A   1      49.665  27.567  37.076  1.00  0.00    -0.744 OA
ENDBRANCH  66  67
ENDBRANCH  40  61
ENDBRANCH  14  15
ENDBRANCH   7   9
ENDBRANCH   4   5
ENDBRANCH   3   4
ENDBRANCH   2   3
ENDBRANCH   1   2
BRANCH   1  71
ATOM     71  C   UNL A   1      36.215  31.535  27.983  1.00  0.00     0.021 C 
BRANCH  71  72
ATOM     72  C   UNL A   1      35.121  30.470  28.009  1.00  0.00     0.116 C 
BRANCH  72  73
ATOM     73  N   UNL A   1      34.276  30.521  26.831  1.00  0.00    -0.354 N 
ATOM     74  C   UNL A   1      33.436  29.580  26.312  1.00  0.00     0.249 C 
ATOM     75  H   UNL A   1      34.315  31.366  26.327  1.00  0.00     0.163 HD
ATOM     76  O   UNL A   1      32.777  29.884  25.314  1.00  0.00    -0.272 OA
BRANCH  74  77
ATOM     77  C   UNL A   1      33.347  28.186  26.956  1.00  0.00     0.207 C 
ATOM     78  C   UNL A   1      31.923  27.846  27.371  1.00  0.00     0.045 C 
ATOM     79  O   UNL A   1      33.766  27.190  26.007  1.00  0.00    -0.363 OA
ATOM     80  C   UNL A   1      31.418  27.013  26.220  1.00  0.00     0.037 C 
ATOM     81  C   UNL A   1      32.669  26.288  25.753  1.00  0.00     0.138 C 
BRANCH  81  82
ATOM     82  C   UNL A   1      32.960  24.975  26.500  1.00  0.00     0.148 C 
BRANCH  82  83
ATOM     83  N   UNL A   1      31.771  24.323  27.024  1.00  0.00    -0.349 N 
ATOM     84  C   UNL A   1      31.060  23.273  26.501  1.00  0.00     0.255 C 
ATOM     85  H   UNL A   1      31.429  24.686  27.872  1.00  0.00     0.163 HD
ATOM     86  O   UNL A   1      30.030  22.897  27.059  1.00  0.00    -0.269 OA
BRANCH  84  87
ATOM     87  C   UNL A   1      31.464  22.640  25.228  1.00  0.00     0.081 A 
ATOM     88  C   UNL A   1      31.088  23.294  24.047  1.00  0.00     0.018 A 
ATOM     89  C   UNL A   1      32.144  21.419  25.158  1.00  0.00     0.128 A 
ATOM     90  C   UNL A   1      31.436  22.757  22.808  1.00  0.00     0.001 A 
ATOM     91  C   UNL A   1      32.500  20.887  23.917  1.00  0.00     0.047 A 
ATOM     92  C   UNL A   1      32.150  21.561  22.744  1.00  0.00     0.004 A 
BRANCH  89  93
ATOM     93  O   UNL A   1      32.462  20.734  26.298  1.00  0.00    -0.507 OA
ATOM     94  H   UNL A   1      33.351  20.704  26.594  1.00  0.00     0.293 HD
ENDBRANCH  89  93
ENDBRANCH  84  87
ENDBRANCH  82  83
ENDBRANCH  81  82
ENDBRANCH  74  77
ENDBRANCH  72  73
ENDBRANCH  71  72
ENDBRANCH   1  71
TORSDOF 20
ENDMDL
MODEL 3
REMARK VINA RESULT:     -10.3      6.101     10.748
REMARK SMILES O=C(NCCCCCCNC(=O)[C@H]1CC[C@H](CNC(=O)c2ccccc2O)O1)c1ccc(-c2c3nc(c(-c4ccc(S(=O)(=O)[O-])cc4)c4ccc([nH]4)c(-c4ccc(S(=O)(=O)[O-])cc4)c4nc(c(-c5ccc(S(=O)(=O)[O-])cc5)c5ccc2[nH]5)C=C4)C=C3)cc1
REMARK SMILES IDX 7 1 6 2 5 3 4 4 3 5 1 6 2 7 29 9 30 10 88 11 31 12 87 13
REMARK SMILES IDX 32 14 33 15 34 16 81 17 35 18 86 19 80 20 82 21 36 22 85 23
REMARK SMILES IDX 79 24 78 25 37 27 67 28 48 29 66 30 49 31 52 32 65 33 83 34
REMARK SMILES IDX 50 35 51 36 64 38 84 39 53 40 38 41 39 42 47 43 40 44 46 45
REMARK SMILES IDX 41 46 42 47 43 48 44 49 45 50 68 51 69 52 77 53 70 54 76 55
REMARK SMILES IDX 71 56 72 57 73 58 74 59 75 60 54 61 55 62 63 63 56 64 62 65
REMARK SMILES IDX 57 66 58 67 59 68 60 69 61 70 8 71 9 72 10 73 11 74 12 76
REMARK SMILES IDX 13 77 14 78 28 79 15 80 16 81 17 82 18 83 19 84 20 86 21 87
REMARK SMILES IDX 22 88 26 89 23 90 25 91 24 92 27 93
REMARK H PARENT 3 8 82 26 52 37 10 75 18 85 27 94
REMARK Flexibility Score: inf
ROOT
ATOM      1  C   UNL A   1      35.465  31.149  27.643  1.00  0.00     0.002 C 
ENDROOT
BRANCH   1   2
ATOM      2  C   UNL A   1      34.645  31.961  28.648  1.00  0.00     0.002 C 
BRANCH   2   3
ATOM      3  C   UNL A   1      33.596  32.899  28.047  1.00  0.00     0.021 C 
BRANCH   3   4
ATOM      4  C   UNL A   1      33.899  34.385  28.184  1.00  0.00     0.116 C 
BRANCH   4   5
ATOM      5  N   UNL A   1      33.066  35.040  29.179  1.00  0.00    -0.352 N 
ATOM      6  O   UNL A   1      32.289  35.507  31.244  1.00  0.00    -0.269 OA
ATOM      7  C   UNL A   1      33.173  35.013  30.548  1.00  0.00     0.251 C 
ATOM      8  H   UNL A   1      32.322  35.577  28.821  1.00  0.00     0.163 HD
BRANCH   7   9
ATOM      9  C   UNL A   1      34.343  34.366  31.183  1.00  0.00     0.039 A 
ATOM     10  C   UNL A   1      35.637  34.841  30.951  1.00  0.00     0.014 A 
ATOM     11  C   UNL A   1      34.142  33.269  32.026  1.00  0.00     0.014 A 
ATOM     12  C   UNL A   1      36.731  34.142  31.450  1.00  0.00     0.010 A 
ATOM     13  C   UNL A   1      35.241  32.614  32.591  1.00  0.00     0.010 A 
ATOM     14  C   UNL A   1      36.546  33.027  32.284  1.00  0.00    -0.014 A 
BRANCH  14  15
ATOM     15  C   UNL A   1      37.733  32.353  32.870  1.00  0.00     0.031 A 
ATOM     16  C   UNL A   1      38.475  31.282  32.118  1.00  0.00     0.074 A 
ATOM     17  C   UNL A   1      38.162  32.743  34.087  1.00  0.00     0.049 A 
ATOM     18  N   UNL A   1      39.555  30.632  32.469  1.00  0.00    -0.248 NA
ATOM     19  C   UNL A   1      37.938  30.887  30.807  1.00  0.00     0.031 C 
ATOM     20  C   UNL A   1      37.519  33.767  34.918  1.00  0.00     0.029 A 
ATOM     21  N   UNL A   1      39.246  32.349  34.828  1.00  0.00    -0.354 N 
ATOM     22  C   UNL A   1      39.817  29.737  31.438  1.00  0.00     0.074 A 
ATOM     23  C   UNL A   1      38.770  29.915  30.454  1.00  0.00     0.031 C 
ATOM     24  C   UNL A   1      38.251  33.957  36.025  1.00  0.00     0.029 A 
ATOM     25  C   UNL A   1      39.379  33.032  36.012  1.00  0.00     0.049 A 
ATOM     26  H   UNL A   1      39.870  31.644  34.537  1.00  0.00     0.167 HD
ATOM     27  C   UNL A   1      40.838  28.853  31.319  1.00  0.00     0.031 A 
ATOM     28  C   UNL A   1      40.299  32.925  36.988  1.00  0.00     0.031 A 
ATOM     29  C   UNL A   1      41.878  28.679  32.300  1.00  0.00     0.049 A 
ATOM     30  C   UNL A   1      41.407  31.926  36.841  1.00  0.00     0.074 A 
ATOM     31  C   UNL A   1      42.968  27.827  32.258  1.00  0.00     0.029 A 
ATOM     32  N   UNL A   1      41.955  29.363  33.504  1.00  0.00    -0.354 N 
ATOM     33  N   UNL A   1      41.652  31.111  35.842  1.00  0.00    -0.248 NA
ATOM     34  C   UNL A   1      42.364  31.831  37.950  1.00  0.00     0.031 C 
ATOM     35  C   UNL A   1      43.681  27.966  33.454  1.00  0.00     0.029 A 
ATOM     36  C   UNL A   1      43.062  28.939  34.221  1.00  0.00     0.049 A 
ATOM     37  H   UNL A   1      41.317  30.050  33.805  1.00  0.00     0.167 HD
ATOM     38  C   UNL A   1      42.800  30.414  36.198  1.00  0.00     0.074 A 
ATOM     39  C   UNL A   1      43.211  30.918  37.493  1.00  0.00     0.031 C 
ATOM     40  C   UNL A   1      43.452  29.443  35.514  1.00  0.00     0.031 A 
BRANCH  27  41
ATOM     41  C   UNL A   1      40.867  27.984  30.089  1.00  0.00    -0.014 A 
ATOM     42  C   UNL A   1      39.875  27.013  29.860  1.00  0.00     0.010 A 
ATOM     43  C   UNL A   1      41.878  28.168  29.129  1.00  0.00     0.010 A 
ATOM     44  C   UNL A   1      39.918  26.215  28.714  1.00  0.00     0.020 A 
ATOM     45  C   UNL A   1      41.912  27.386  27.969  1.00  0.00     0.020 A 
ATOM     46  C   UNL A   1      40.941  26.402  27.778  1.00  0.00     0.054 A 
BRANCH  46  47
ATOM     47  S   UNL A   1      40.968  25.358  26.295  1.00  0.00     0.124 S 
ATOM     48  O   UNL A   1      41.303  26.326  25.253  1.00  0.00    -0.237 OA
ATOM     49  O   UNL A   1      42.010  24.383  26.604  1.00  0.00    -0.237 OA
ATOM     50  O   UNL A   1      39.613  24.816  26.228  1.00  0.00    -0.744 OA
ENDBRANCH  46  47
ENDBRANCH  27  41
BRANCH  28  51
ATOM     51  C   UNL A   1      40.199  33.795  38.191  1.00  0.00    -0.014 A 
ATOM     52  C   UNL A   1      40.695  35.109  38.163  1.00  0.00     0.010 A 
ATOM     53  C   UNL A   1      39.570  33.321  39.357  1.00  0.00     0.010 A 
ATOM     54  C   UNL A   1      40.569  35.933  39.285  1.00  0.00     0.020 A 
ATOM     55  C   UNL A   1      39.420  34.151  40.470  1.00  0.00     0.020 A 
ATOM     56  C   UNL A   1      39.930  35.449  40.431  1.00  0.00     0.054 A 
BRANCH  56  57
ATOM     57  S   UNL A   1      39.716  36.557  41.852  1.00  0.00     0.124 S 
ATOM     58  O   UNL A   1      39.387  37.821  41.202  1.00  0.00    -0.237 OA
ATOM     59  O   UNL A   1      38.625  35.921  42.589  1.00  0.00    -0.237 OA
ATOM     60  O   UNL A   1      41.015  36.511  42.517  1.00  0.00    -0.744 OA
ENDBRANCH  56  57
ENDBRANCH  28  51
BRANCH  40  61
ATOM     61  C   UNL A   1      44.693  28.879  36.149  1.00  0.00    -0.014 A 
ATOM     62  C   UNL A   1      44.631  27.750  36.986  1.00  0.00     0.010 A 
ATOM     63  C   UNL A   1      45.941  29.469  35.882  1.00  0.00     0.010 A 
ATOM     64  C   UNL A   1      45.792  27.245  37.575  1.00  0.00     0.020 A 
ATOM     65  C   UNL A   1      47.107  28.953  36.451  1.00  0.00     0.020 A 
ATOM     66  C   UNL A   1      47.023  27.852  37.307  1.00  0.00     0.054 A 
BRANCH  66  67
ATOM     67  S   UNL A   1      48.523  27.163  38.060  1.00  0.00     0.124 S 
ATOM     68  O   UNL A   1      47.974  26.364  39.152  1.00  0.00    -0.237 OA
ATOM     69  O   UNL A   1      49.115  26.404  36.961  1.00  0.00    -0.237 OA
ATOM     70  O   UNL A   1      49.277  28.347  38.469  1.00  0.00    -0.744 OA
ENDBRANCH  66  67
ENDBRANCH  40  61
ENDBRANCH  14  15
ENDBRANCH   7   9
ENDBRANCH   4   5
ENDBRANCH   3   4
ENDBRANCH   2   3
ENDBRANCH   1   2
BRANCH   1  71
ATOM     71  C   UNL A   1      35.378  29.624  27.779  1.00  0.00     0.021 C 
BRANCH  71  72
ATOM     72  C   UNL A   1      34.341  28.943  26.889  1.00  0.00     0.116 C 
BRANCH  72  73
ATOM     73  N   UNL A   1      33.065  28.778  27.558  1.00  0.00    -0.354 N 
ATOM     74  C   UNL A   1      32.039  27.919  27.293  1.00  0.00     0.249 C 
ATOM     75  H   UNL A   1      32.916  29.379  28.324  1.00  0.00     0.163 HD
ATOM     76  O   UNL A   1      31.063  27.936  28.049  1.00  0.00    -0.272 OA
BRANCH  74  77
ATOM     77  C   UNL A   1      32.110  26.986  26.073  1.00  0.00     0.207 C 
ATOM     78  C   UNL A   1      31.526  25.614  26.376  1.00  0.00     0.045 C 
ATOM     79  O   UNL A   1      31.346  27.547  24.992  1.00  0.00    -0.363 OA
ATOM     80  C   UNL A   1      30.121  25.712  25.838  1.00  0.00     0.037 C 
ATOM     81  C   UNL A   1      30.278  26.640  24.646  1.00  0.00     0.138 C 
BRANCH  81  82
ATOM     82  C   UNL A   1      30.668  25.935  23.337  1.00  0.00     0.148 C 
BRANCH  82  83
ATOM     83  N   UNL A   1      31.900  26.434  22.747  1.00  0.00    -0.349 N 
ATOM     84  C   UNL A   1      33.114  25.809  22.623  1.00  0.00     0.255 C 
ATOM     85  H   UNL A   1      31.855  27.349  22.386  1.00  0.00     0.163 HD
ATOM     86  O   UNL A   1      34.069  26.422  22.150  1.00  0.00    -0.269 OA
BRANCH  84  87
ATOM     87  C   UNL A   1      33.317  24.435  23.129  1.00  0.00     0.081 A 
ATOM     88  C   UNL A   1      32.608  23.411  22.487  1.00  0.00     0.018 A 
ATOM     89  C   UNL A   1      34.129  24.133  24.228  1.00  0.00     0.128 A 
ATOM     90  C   UNL A   1      32.752  22.089  22.909  1.00  0.00     0.001 A 
ATOM     91  C   UNL A   1      34.279  22.808  24.644  1.00  0.00     0.047 A 
ATOM     92  C   UNL A   1      33.594  21.788  23.978  1.00  0.00     0.004 A 
BRANCH  89  93
ATOM     93  O   UNL A   1      34.778  25.127  24.908  1.00  0.00    -0.507 OA
ATOM     94  H   UNL A   1      35.628  24.969  25.269  1.00  0.00     0.293 HD
ENDBRANCH  89  93
ENDBRANCH  84  87
ENDBRANCH  82  83
ENDBRANCH  81  82
ENDBRANCH  74  77
ENDBRANCH  72  73
ENDBRANCH  71  72
ENDBRANCH   1  71
TORSDOF 20
ENDMDL
