MODEL 1
REMARK VINA RESULT:     -11.2      0.000      0.000
REMARK SMILES COc1ccc2c(c1)[C@@](NC=O)(C(=O)NCCCCCCNC(=O)c1ccc(-c3c4nc(c(-c5ccc(S(=O)(=O)[O-])cc5)c5ccc([nH]5)c(-c5ccc(S(=O)(=O)[O-])cc5)c5nc(c(-c6ccc(S(=O)(=O)[O-])cc6)c6ccc3[nH]6)C=C5)C=C4)cc1)CCC2
REMARK SMILES IDX 19 1 18 2 17 3 16 4 15 5 13 6 14 7 9 9 3 10 4 11 8 12 5 13
REMARK SMILES IDX 7 14 6 15 87 16 85 17 86 18 2 19 1 20 10 21 11 22 12 24
REMARK SMILES IDX 20 25 21 26 22 27 23 28 24 30 25 31 26 32 84 33 27 34 83 35
REMARK SMILES IDX 28 36 29 37 30 38 77 39 31 40 82 41 76 42 78 43 32 44 81 45
REMARK SMILES IDX 75 46 74 47 33 49 63 50 44 51 62 52 45 53 48 54 61 55 79 56
REMARK SMILES IDX 46 57 47 58 60 60 80 61 49 62 34 63 35 64 43 65 36 66 42 67
REMARK SMILES IDX 37 68 38 69 39 70 40 71 41 72 64 73 65 74 73 75 66 76 72 77
REMARK SMILES IDX 67 78 68 79 69 80 70 81 71 82 50 83 51 84 59 85 52 86 58 87
REMARK SMILES IDX 53 88 54 89 55 90 56 91 57 92
REMARK H PARENT 15 8 10 23 22 29 78 48 48 59
REMARK Flexibility Score: inf
ROOT
ATOM      1  C   UNL A   1      38.201  22.071  25.769  1.00  0.00     0.002 C 
ENDROOT
BRANCH   1   2
ATOM      2  C   UNL A   1      37.404  21.365  24.669  1.00  0.00     0.002 C 
BRANCH   2   3
ATOM      3  C   UNL A   1      35.898  21.647  24.693  1.00  0.00     0.021 C 
BRANCH   3   4
ATOM      4  C   UNL A   1      35.499  22.839  25.574  1.00  0.00     0.116 C 
BRANCH   4   5
ATOM      5  N   UNL A   1      34.802  22.353  26.757  1.00  0.00    -0.354 N 
ATOM      6  C   UNL A   1      33.468  22.257  27.047  1.00  0.00     0.250 C 
ATOM      7  O   UNL A   1      33.183  22.389  28.245  1.00  0.00    -0.272 OA
ATOM      8  H   UNL A   1      35.397  22.036  27.476  1.00  0.00     0.163 HD
BRANCH   6   9
ATOM      9  C   UNL A   1      32.358  22.022  25.943  1.00  0.00     0.144 C 
ATOM     10  C   UNL A   1      32.757  18.252  25.209  1.00  0.00     0.119 A 
ATOM     11  C   UNL A   1      32.640  18.204  23.830  1.00  0.00     0.047 A 
ATOM     12  C   UNL A   1      32.729  19.484  25.864  1.00  0.00     0.053 A 
ATOM     13  C   UNL A   1      32.463  19.386  23.116  1.00  0.00     0.008 A 
ATOM     14  C   UNL A   1      32.525  20.697  25.180  1.00  0.00    -0.006 A 
ATOM     15  C   UNL A   1      32.395  20.630  23.774  1.00  0.00    -0.042 A 
ATOM     16  C   UNL A   1      32.277  21.864  22.914  1.00  0.00     0.036 C 
ATOM     17  C   UNL A   1      32.510  23.245  24.984  1.00  0.00     0.044 C 
ATOM     18  C   UNL A   1      31.777  23.090  23.660  1.00  0.00     0.008 C 
BRANCH  10  19
ATOM     19  O   UNL A   1      32.989  17.073  25.863  1.00  0.00    -0.497 OA
ATOM     20  C   UNL A   1      32.776  15.924  25.043  1.00  0.00     0.278 C 
ENDBRANCH  10  19
BRANCH   9  21
ATOM     21  N   UNL A   1      31.044  22.102  26.606  1.00  0.00    -0.341 N 
ATOM     22  C   UNL A   1      30.285  23.206  26.825  1.00  0.00     0.338 C 
ATOM     23  H   UNL A   1      30.671  21.251  26.929  1.00  0.00     0.164 HD
ATOM     24  O   UNL A   1      29.295  23.180  27.542  1.00  0.00    -0.279 OA
ENDBRANCH   9  21
ENDBRANCH   6   9
ENDBRANCH   4   5
ENDBRANCH   3   4
ENDBRANCH   2   3
ENDBRANCH   1   2
BRANCH   1  25
ATOM     25  C   UNL A   1      39.322  21.234  26.391  1.00  0.00     0.021 C 
BRANCH  25  26
ATOM     26  C   UNL A   1      39.899  20.163  25.469  1.00  0.00     0.116 C 
BRANCH  26  27
ATOM     27  N   UNL A   1      40.725  19.214  26.200  1.00  0.00    -0.352 N 
ATOM     28  C   UNL A   1      41.962  19.399  26.765  1.00  0.00     0.251 C 
ATOM     29  H   UNL A   1      40.342  18.314  26.305  1.00  0.00     0.163 HD
ATOM     30  O   UNL A   1      42.621  18.431  27.130  1.00  0.00    -0.269 OA
BRANCH  28  31
ATOM     31  C   UNL A   1      42.499  20.768  26.920  1.00  0.00     0.039 A 
ATOM     32  C   UNL A   1      42.944  21.455  25.788  1.00  0.00     0.014 A 
ATOM     33  C   UNL A   1      42.580  21.363  28.184  1.00  0.00     0.014 A 
ATOM     34  C   UNL A   1      43.424  22.761  25.917  1.00  0.00     0.010 A 
ATOM     35  C   UNL A   1      42.998  22.686  28.301  1.00  0.00     0.010 A 
ATOM     36  C   UNL A   1      43.430  23.395  27.170  1.00  0.00    -0.014 A 
BRANCH  36  37
ATOM     37  C   UNL A   1      43.892  24.799  27.319  1.00  0.00     0.031 A 
ATOM     38  C   UNL A   1      45.339  25.145  27.093  1.00  0.00     0.074 A 
ATOM     39  C   UNL A   1      43.022  25.751  27.712  1.00  0.00     0.049 A 
ATOM     40  N   UNL A   1      45.943  26.298  27.237  1.00  0.00    -0.248 NA
ATOM     41  C   UNL A   1      46.228  24.050  26.672  1.00  0.00     0.031 C 
ATOM     42  C   UNL A   1      41.600  25.535  27.996  1.00  0.00     0.029 A 
ATOM     43  N   UNL A   1      43.207  27.090  27.947  1.00  0.00    -0.354 N 
ATOM     44  C   UNL A   1      47.280  26.064  26.933  1.00  0.00     0.074 A 
ATOM     45  C   UNL A   1      47.408  24.652  26.652  1.00  0.00     0.031 C 
ATOM     46  C   UNL A   1      41.040  26.703  28.347  1.00  0.00     0.029 A 
ATOM     47  C   UNL A   1      42.066  27.743  28.351  1.00  0.00     0.049 A 
ATOM     48  H   UNL A   1      44.075  27.541  27.838  1.00  0.00     0.167 HD
ATOM     49  C   UNL A   1      48.304  26.949  26.874  1.00  0.00     0.031 A 
ATOM     50  C   UNL A   1      41.868  29.030  28.694  1.00  0.00     0.031 A 
ATOM     51  C   UNL A   1      48.172  28.355  27.150  1.00  0.00     0.049 A 
ATOM     52  C   UNL A   1      43.025  29.990  28.638  1.00  0.00     0.074 A 
ATOM     53  C   UNL A   1      49.143  29.340  27.082  1.00  0.00     0.029 A 
ATOM     54  N   UNL A   1      46.998  28.977  27.544  1.00  0.00    -0.354 N 
ATOM     55  N   UNL A   1      44.271  29.759  28.299  1.00  0.00    -0.248 NA
ATOM     56  C   UNL A   1      42.747  31.386  29.001  1.00  0.00     0.031 C 
ATOM     57  C   UNL A   1      48.564  30.552  27.478  1.00  0.00     0.029 A 
ATOM     58  C   UNL A   1      47.221  30.330  27.739  1.00  0.00     0.049 A 
ATOM     59  H   UNL A   1      46.133  28.525  27.666  1.00  0.00     0.167 HD
ATOM     60  C   UNL A   1      44.918  30.987  28.379  1.00  0.00     0.074 A 
ATOM     61  C   UNL A   1      43.923  31.959  28.785  1.00  0.00     0.031 C 
ATOM     62  C   UNL A   1      46.219  31.284  28.138  1.00  0.00     0.031 A 
BRANCH  49  63
ATOM     63  C   UNL A   1      49.660  26.417  26.492  1.00  0.00    -0.014 A 
ATOM     64  C   UNL A   1      50.099  26.448  25.155  1.00  0.00     0.010 A 
ATOM     65  C   UNL A   1      50.522  25.911  27.482  1.00  0.00     0.010 A 
ATOM     66  C   UNL A   1      51.355  25.944  24.808  1.00  0.00     0.020 A 
ATOM     67  C   UNL A   1      51.793  25.433  27.144  1.00  0.00     0.020 A 
ATOM     68  C   UNL A   1      52.193  25.437  25.806  1.00  0.00     0.054 A 
BRANCH  68  69
ATOM     69  S   UNL A   1      53.826  24.807  25.330  1.00  0.00     0.124 S 
ATOM     70  O   UNL A   1      54.148  25.646  24.179  1.00  0.00    -0.237 OA
ATOM     71  O   UNL A   1      54.626  25.052  26.528  1.00  0.00    -0.237 OA
ATOM     72  O   UNL A   1      53.580  23.399  25.026  1.00  0.00    -0.744 OA
ENDBRANCH  68  69
ENDBRANCH  49  63
BRANCH  50  73
ATOM     73  C   UNL A   1      40.516  29.491  29.113  1.00  0.00    -0.014 A 
ATOM     74  C   UNL A   1      39.516  29.738  28.157  1.00  0.00     0.010 A 
ATOM     75  C   UNL A   1      40.223  29.688  30.475  1.00  0.00     0.010 A 
ATOM     76  C   UNL A   1      38.257  30.201  28.551  1.00  0.00     0.020 A 
ATOM     77  C   UNL A   1      38.956  30.122  30.875  1.00  0.00     0.020 A 
ATOM     78  C   UNL A   1      37.986  30.391  29.909  1.00  0.00     0.054 A 
BRANCH  78  79
ATOM     79  S   UNL A   1      36.334  30.959  30.401  1.00  0.00     0.124 S 
ATOM     80  O   UNL A   1      35.556  30.710  29.193  1.00  0.00    -0.237 OA
ATOM     81  O   UNL A   1      36.031  30.097  31.541  1.00  0.00    -0.237 OA
ATOM     82  O   UNL A   1      36.544  32.366  30.734  1.00  0.00    -0.744 OA
ENDBRANCH  78  79
ENDBRANCH  50  73
BRANCH  62  83
ATOM     83  C   UNL A   1      46.635  32.725  28.270  1.00  0.00    -0.014 A 
ATOM     84  C   UNL A   1      47.205  33.214  29.459  1.00  0.00     0.010 A 
ATOM     85  C   UNL A   1      46.501  33.588  27.166  1.00  0.00     0.010 A 
ATOM     86  C   UNL A   1      47.606  34.550  29.551  1.00  0.00     0.020 A 
ATOM     87  C   UNL A   1      46.925  34.916  27.247  1.00  0.00     0.020 A 
ATOM     88  C   UNL A   1      47.463  35.393  28.444  1.00  0.00     0.054 A 
BRANCH  88  89
ATOM     89  S   UNL A   1      48.031  37.111  28.575  1.00  0.00     0.124 S 
ATOM     90  O   UNL A   1      47.184  37.631  29.644  1.00  0.00    -0.237 OA
ATOM     91  O   UNL A   1      49.445  36.955  28.913  1.00  0.00    -0.237 OA
ATOM     92  O   UNL A   1      47.772  37.662  27.247  1.00  0.00    -0.744 OA
ENDBRANCH  88  89
ENDBRANCH  62  83
ENDBRANCH  36  37
ENDBRANCH  28  31
ENDBRANCH  26  27
ENDBRANCH  25  26
ENDBRANCH   1  25
TORSDOF 18
ENDMDL
MODEL 2
REMARK VINA RESULT:     -11.1      2.405      3.656
REMARK SMILES COc1ccc2c(c1)[C@@](NC=O)(C(=O)NCCCCCCNC(=O)c1ccc(-c3c4nc(c(-c5ccc(S(=O)(=O)[O-])cc5)c5ccc([nH]5)c(-c5ccc(S(=O)(=O)[O-])cc5)c5nc(c(-c6ccc(S(=O)(=O)[O-])cc6)c6ccc3[nH]6)C=C5)C=C4)cc1)CCC2
REMARK SMILES IDX 19 1 18 2 17 3 16 4 15 5 13 6 14 7 9 9 3 10 4 11 8 12 5 13
REMARK SMILES IDX 7 14 6 15 87 16 85 17 86 18 2 19 1 20 10 21 11 22 12 24
REMARK SMILES IDX 20 25 21 26 22 27 23 28 24 30 25 31 26 32 84 33 27 34 83 35
REMARK SMILES IDX 28 36 29 37 30 38 77 39 31 40 82 41 76 42 78 43 32 44 81 45
REMARK SMILES IDX 75 46 74 47 33 49 63 50 44 51 62 52 45 53 48 54 61 55 79 56
REMARK SMILES IDX 46 57 47 58 60 60 80 61 49 62 34 63 35 64 43 65 36 66 42 67
REMARK SMILES IDX 37 68 38 69 39 70 40 71 41 72 64 73 65 74 73 75 66 76 72 77
REMARK SMILES IDX 67 78 68 79 69 80 70 81 71 82 50 83 51 84 59 85 52 86 58 87
REMARK SMILES IDX 53 88 54 89 55 90 56 91 57 92
REMARK H PARENT 15 8 10 23 22 29 78 48 48 59
REMARK Flexibility Score: inf
ROOT
ATOM      1  C   UNL A   1      35.436  21.125  25.237  1.00  0.00     0.002 C 
ENDROOT
BRANCH   1   2
ATOM      2  C   UNL A   1      34.010  21.004  25.779  1.00  0.00     0.002 C 
BRANCH   2   3
ATOM      3  C   UNL A   1      33.859  21.363  27.261  1.00  0.00     0.021 C 
BRANCH   3   4
ATOM      4  C   UNL A   1      33.213  22.734  27.510  1.00  0.00     0.116 C 
BRANCH   4   5
ATOM      5  N   UNL A   1      31.773  22.630  27.319  1.00  0.00    -0.354 N 
ATOM      6  C   UNL A   1      30.859  23.518  26.820  1.00  0.00     0.250 C 
ATOM      7  O   UNL A   1      29.724  23.427  27.306  1.00  0.00    -0.272 OA
ATOM      8  H   UNL A   1      31.389  21.767  27.598  1.00  0.00     0.163 HD
BRANCH   6   9
ATOM      9  C   UNL A   1      31.217  24.602  25.723  1.00  0.00     0.144 C 
ATOM     10  C   UNL A   1      32.223  22.388  22.722  1.00  0.00     0.119 A 
ATOM     11  C   UNL A   1      33.330  23.052  22.222  1.00  0.00     0.047 A 
ATOM     12  C   UNL A   1      31.597  22.858  23.878  1.00  0.00     0.053 A 
ATOM     13  C   UNL A   1      33.787  24.202  22.862  1.00  0.00     0.008 A 
ATOM     14  C   UNL A   1      32.011  24.031  24.536  1.00  0.00    -0.006 A 
ATOM     15  C   UNL A   1      33.136  24.704  24.006  1.00  0.00    -0.042 A 
ATOM     16  C   UNL A   1      33.745  25.911  24.676  1.00  0.00     0.036 C 
ATOM     17  C   UNL A   1      32.052  25.668  26.498  1.00  0.00     0.044 C 
ATOM     18  C   UNL A   1      32.791  26.649  25.601  1.00  0.00     0.008 C 
BRANCH  10  19
ATOM     19  O   UNL A   1      31.847  21.231  22.097  1.00  0.00    -0.497 OA
ATOM     20  C   UNL A   1      32.219  20.056  22.818  1.00  0.00     0.278 C 
ENDBRANCH  10  19
BRANCH   9  21
ATOM     21  N   UNL A   1      29.954  25.222  25.279  1.00  0.00    -0.341 N 
ATOM     22  C   UNL A   1      29.680  25.788  24.076  1.00  0.00     0.338 C 
ATOM     23  H   UNL A   1      29.221  25.225  25.936  1.00  0.00     0.164 HD
ATOM     24  O   UNL A   1      28.658  26.430  23.880  1.00  0.00    -0.279 OA
ENDBRANCH   9  21
ENDBRANCH   6   9
ENDBRANCH   4   5
ENDBRANCH   3   4
ENDBRANCH   2   3
ENDBRANCH   1   2
BRANCH   1  25
ATOM     25  C   UNL A   1      35.891  22.555  24.933  1.00  0.00     0.021 C 
BRANCH  25  26
ATOM     26  C   UNL A   1      37.033  23.057  25.812  1.00  0.00     0.116 C 
BRANCH  26  27
ATOM     27  N   UNL A   1      38.017  22.015  26.058  1.00  0.00    -0.352 N 
ATOM     28  C   UNL A   1      39.345  22.138  26.385  1.00  0.00     0.251 C 
ATOM     29  H   UNL A   1      37.685  21.092  25.978  1.00  0.00     0.163 HD
ATOM     30  O   UNL A   1      40.086  21.163  26.317  1.00  0.00    -0.269 OA
BRANCH  28  31
ATOM     31  C   UNL A   1      39.876  23.451  26.810  1.00  0.00     0.039 A 
ATOM     32  C   UNL A   1      40.457  23.570  28.075  1.00  0.00     0.014 A 
ATOM     33  C   UNL A   1      39.784  24.563  25.968  1.00  0.00     0.014 A 
ATOM     34  C   UNL A   1      40.993  24.797  28.475  1.00  0.00     0.010 A 
ATOM     35  C   UNL A   1      40.374  25.767  26.343  1.00  0.00     0.010 A 
ATOM     36  C   UNL A   1      40.979  25.897  27.602  1.00  0.00    -0.014 A 
BRANCH  36  37
ATOM     37  C   UNL A   1      41.586  27.196  27.992  1.00  0.00     0.031 A 
ATOM     38  C   UNL A   1      43.075  27.392  27.897  1.00  0.00     0.074 A 
ATOM     39  C   UNL A   1      40.804  28.177  28.485  1.00  0.00     0.049 A 
ATOM     40  N   UNL A   1      43.794  28.427  28.251  1.00  0.00    -0.248 NA
ATOM     41  C   UNL A   1      43.861  26.272  27.356  1.00  0.00     0.031 C 
ATOM     42  C   UNL A   1      39.351  28.096  28.659  1.00  0.00     0.029 A 
ATOM     43  N   UNL A   1      41.123  29.433  28.937  1.00  0.00    -0.354 N 
ATOM     44  C   UNL A   1      45.114  28.080  27.983  1.00  0.00     0.074 A 
ATOM     45  C   UNL A   1      45.101  26.720  27.490  1.00  0.00     0.031 C 
ATOM     46  C   UNL A   1      38.904  29.259  29.160  1.00  0.00     0.029 A 
ATOM     47  C   UNL A   1      40.038  30.153  29.379  1.00  0.00     0.049 A 
ATOM     48  H   UNL A   1      42.042  29.785  28.944  1.00  0.00     0.167 HD
ATOM     49  C   UNL A   1      46.233  28.832  28.116  1.00  0.00     0.031 A 
ATOM     50  C   UNL A   1      39.963  31.388  29.910  1.00  0.00     0.031 A 
ATOM     51  C   UNL A   1      46.242  30.186  28.602  1.00  0.00     0.049 A 
ATOM     52  C   UNL A   1      41.223  32.197  30.064  1.00  0.00     0.074 A 
ATOM     53  C   UNL A   1      47.320  31.043  28.739  1.00  0.00     0.029 A 
ATOM     54  N   UNL A   1      45.122  30.881  29.028  1.00  0.00    -0.354 N 
ATOM     55  N   UNL A   1      42.454  31.868  29.756  1.00  0.00    -0.248 NA
ATOM     56  C   UNL A   1      41.079  33.546  30.627  1.00  0.00     0.031 C 
ATOM     57  C   UNL A   1      46.856  32.244  29.290  1.00  0.00     0.029 A 
ATOM     58  C   UNL A   1      45.482  32.152  29.444  1.00  0.00     0.049 A 
ATOM     59  H   UNL A   1      44.204  30.524  29.034  1.00  0.00     0.167 HD
ATOM     60  C   UNL A   1      43.229  32.983  30.062  1.00  0.00     0.074 A 
ATOM     61  C   UNL A   1      42.325  33.997  30.564  1.00  0.00     0.031 C 
ATOM     62  C   UNL A   1      44.569  33.151  29.937  1.00  0.00     0.031 A 
BRANCH  49  63
ATOM     63  C   UNL A   1      47.543  28.201  27.724  1.00  0.00    -0.014 A 
ATOM     64  C   UNL A   1      48.288  27.446  28.648  1.00  0.00     0.010 A 
ATOM     65  C   UNL A   1      48.020  28.330  26.406  1.00  0.00     0.010 A 
ATOM     66  C   UNL A   1      49.506  26.870  28.277  1.00  0.00     0.020 A 
ATOM     67  C   UNL A   1      49.224  27.731  26.022  1.00  0.00     0.020 A 
ATOM     68  C   UNL A   1      49.967  27.020  26.966  1.00  0.00     0.054 A 
BRANCH  68  69
ATOM     69  S   UNL A   1      51.543  26.247  26.507  1.00  0.00     0.124 S 
ATOM     70  O   UNL A   1      52.491  26.977  27.344  1.00  0.00    -0.237 OA
ATOM     71  O   UNL A   1      51.332  24.847  26.873  1.00  0.00    -0.237 OA
ATOM     72  O   UNL A   1      51.651  26.503  25.073  1.00  0.00    -0.744 OA
ENDBRANCH  68  69
ENDBRANCH  49  63
BRANCH  50  73
ATOM     73  C   UNL A   1      38.647  31.943  30.327  1.00  0.00    -0.014 A 
ATOM     74  C   UNL A   1      37.868  32.693  29.428  1.00  0.00     0.010 A 
ATOM     75  C   UNL A   1      38.164  31.726  31.631  1.00  0.00     0.010 A 
ATOM     76  C   UNL A   1      36.646  33.239  29.831  1.00  0.00     0.020 A 
ATOM     77  C   UNL A   1      36.929  32.246  32.029  1.00  0.00     0.020 A 
ATOM     78  C   UNL A   1      36.185  33.012  31.131  1.00  0.00     0.054 A 
BRANCH  78  79
ATOM     79  S   UNL A   1      34.581  33.701  31.624  1.00  0.00     0.124 S 
ATOM     80  O   UNL A   1      34.032  32.630  32.448  1.00  0.00    -0.237 OA
ATOM     81  O   UNL A   1      34.965  34.918  32.337  1.00  0.00    -0.237 OA
ATOM     82  O   UNL A   1      33.901  33.924  30.350  1.00  0.00    -0.744 OA
ENDBRANCH  78  79
ENDBRANCH  50  73
BRANCH  62  83
ATOM     83  C   UNL A   1      45.136  34.493  30.314  1.00  0.00    -0.014 A 
ATOM     84  C   UNL A   1      45.601  34.750  31.616  1.00  0.00     0.010 A 
ATOM     85  C   UNL A   1      45.252  35.496  29.333  1.00  0.00     0.010 A 
ATOM     86  C   UNL A   1      46.144  35.996  31.938  1.00  0.00     0.020 A 
ATOM     87  C   UNL A   1      45.819  36.734  29.645  1.00  0.00     0.020 A 
ATOM     88  C   UNL A   1      46.250  36.981  30.951  1.00  0.00     0.054 A 
BRANCH  88  89
ATOM     89  S   UNL A   1      46.999  38.575  31.382  1.00  0.00     0.124 S 
ATOM     90  O   UNL A   1      47.233  39.166  30.068  1.00  0.00    -0.237 OA
ATOM     91  O   UNL A   1      45.956  39.214  32.182  1.00  0.00    -0.237 OA
ATOM     92  O   UNL A   1      48.202  38.203  32.122  1.00  0.00    -0.744 OA
ENDBRANCH  88  89
ENDBRANCH  62  83
ENDBRANCH  36  37
ENDBRANCH  28  31
ENDBRANCH  26  27
ENDBRANCH  25  26
ENDBRANCH   1  25
TORSDOF 18
ENDMDL
MODEL 3
REMARK VINA RESULT:     -11.0      4.298      6.294
REMARK SMILES COc1ccc2c(c1)[C@@](NC=O)(C(=O)NCCCCCCNC(=O)c1ccc(-c3c4nc(c(-c5ccc(S(=O)(=O)[O-])cc5)c5ccc([nH]5)c(-c5ccc(S(=O)(=O)[O-])cc5)c5nc(c(-c6ccc(S(=O)(=O)[O-])cc6)c6ccc3[nH]6)C=C5)C=C4)cc1)CCC2
REMARK SMILES IDX 19 1 18 2 17 3 16 4 15 5 13 6 14 7 9 9 3 10 4 11 8 12 5 13
REMARK SMILES IDX 7 14 6 15 87 16 85 17 86 18 2 19 1 20 10 21 11 22 12 24
REMARK SMILES IDX 20 25 21 26 22 27 23 28 24 30 25 31 26 32 84 33 27 34 83 35
REMARK SMILES IDX 28 36 29 37 30 38 77 39 31 40 82 41 76 42 78 43 32 44 81 45
REMARK SMILES IDX 75 46 74 47 33 49 63 50 44 51 62 52 45 53 48 54 61 55 79 56
REMARK SMILES IDX 46 57 47 58 60 60 80 61 49 62 34 63 35 64 43 65 36 66 42 67
REMARK SMILES IDX 37 68 38 69 39 70 40 71 41 72 64 73 65 74 73 75 66 76 72 77
REMARK SMILES IDX 67 78 68 79 69 80 70 81 71 82 50 83 51 84 59 85 52 86 58 87
REMARK SMILES IDX 53 88 54 89 55 90 56 91 57 92
REMARK H PARENT 15 8 10 23 22 29 78 48 48 59
REMARK Flexibility Score: inf
ROOT
ATOM      1  C   UNL A   1      33.988  24.064  25.116  1.00  0.00     0.002 C 
ENDROOT
BRANCH   1   2
ATOM      2  C   UNL A   1      34.448  24.094  23.656  1.00  0.00     0.002 C 
BRANCH   2   3
ATOM      3  C   UNL A   1      33.400  23.611  22.648  1.00  0.00     0.021 C 
BRANCH   3   4
ATOM      4  C   UNL A   1      32.754  24.739  21.829  1.00  0.00     0.116 C 
BRANCH   4   5
ATOM      5  N   UNL A   1      33.562  25.945  21.950  1.00  0.00    -0.354 N 
ATOM      6  C   UNL A   1      33.218  27.241  22.225  1.00  0.00     0.250 C 
ATOM      7  O   UNL A   1      33.941  28.096  21.697  1.00  0.00    -0.272 OA
ATOM      8  H   UNL A   1      34.526  25.803  21.808  1.00  0.00     0.163 HD
BRANCH   6   9
ATOM      9  C   UNL A   1      31.979  27.633  23.129  1.00  0.00     0.144 C 
ATOM     10  C   UNL A   1      33.708  28.873  26.352  1.00  0.00     0.119 A 
ATOM     11  C   UNL A   1      32.914  28.323  27.344  1.00  0.00     0.047 A 
ATOM     12  C   UNL A   1      33.435  28.592  25.012  1.00  0.00     0.053 A 
ATOM     13  C   UNL A   1      31.833  27.521  26.991  1.00  0.00     0.008 A 
ATOM     14  C   UNL A   1      32.336  27.809  24.614  1.00  0.00    -0.006 A 
ATOM     15  C   UNL A   1      31.528  27.264  25.639  1.00  0.00    -0.042 A 
ATOM     16  C   UNL A   1      30.384  26.324  25.352  1.00  0.00     0.036 C 
ATOM     17  C   UNL A   1      30.974  26.457  22.927  1.00  0.00     0.044 C 
ATOM     18  C   UNL A   1      29.837  26.432  23.939  1.00  0.00     0.008 C 
BRANCH  10  19
ATOM     19  O   UNL A   1      34.794  29.606  26.747  1.00  0.00    -0.497 OA
ATOM     20  C   UNL A   1      34.444  30.777  27.484  1.00  0.00     0.278 C 
ENDBRANCH  10  19
BRANCH   9  21
ATOM     21  N   UNL A   1      31.387  28.861  22.566  1.00  0.00    -0.341 N 
ATOM     22  C   UNL A   1      30.143  29.027  22.048  1.00  0.00     0.338 C 
ATOM     23  H   UNL A   1      31.964  29.658  22.568  1.00  0.00     0.164 HD
ATOM     24  O   UNL A   1      29.822  30.043  21.448  1.00  0.00    -0.279 OA
ENDBRANCH   9  21
ENDBRANCH   6   9
ENDBRANCH   4   5
ENDBRANCH   3   4
ENDBRANCH   2   3
ENDBRANCH   1   2
BRANCH   1  25
ATOM     25  C   UNL A   1      35.033  23.547  26.109  1.00  0.00     0.021 C 
BRANCH  25  26
ATOM     26  C   UNL A   1      36.451  24.053  25.858  1.00  0.00     0.116 C 
BRANCH  26  27
ATOM     27  N   UNL A   1      37.424  22.975  25.924  1.00  0.00    -0.352 N 
ATOM     28  C   UNL A   1      38.752  23.028  26.267  1.00  0.00     0.251 C 
ATOM     29  H   UNL A   1      37.083  22.082  25.691  1.00  0.00     0.163 HD
ATOM     30  O   UNL A   1      39.485  22.071  26.036  1.00  0.00    -0.269 OA
BRANCH  28  31
ATOM     31  C   UNL A   1      39.297  24.245  26.907  1.00  0.00     0.039 A 
ATOM     32  C   UNL A   1      40.043  25.139  26.136  1.00  0.00     0.014 A 
ATOM     33  C   UNL A   1      39.086  24.491  28.267  1.00  0.00     0.014 A 
ATOM     34  C   UNL A   1      40.534  26.310  26.720  1.00  0.00     0.010 A 
ATOM     35  C   UNL A   1      39.522  25.687  28.830  1.00  0.00     0.010 A 
ATOM     36  C   UNL A   1      40.255  26.605  28.065  1.00  0.00    -0.014 A 
BRANCH  36  37
ATOM     37  C   UNL A   1      40.730  27.866  28.689  1.00  0.00     0.031 A 
ATOM     38  C   UNL A   1      42.142  27.970  29.201  1.00  0.00     0.074 A 
ATOM     39  C   UNL A   1      39.875  28.897  28.847  1.00  0.00     0.049 A 
ATOM     40  N   UNL A   1      42.719  28.961  29.832  1.00  0.00    -0.248 NA
ATOM     41  C   UNL A   1      43.012  26.801  28.998  1.00  0.00     0.031 C 
ATOM     42  C   UNL A   1      38.472  28.906  28.424  1.00  0.00     0.029 A 
ATOM     43  N   UNL A   1      40.060  30.133  29.412  1.00  0.00    -0.354 N 
ATOM     44  C   UNL A   1      44.012  28.532  30.108  1.00  0.00     0.074 A 
ATOM     45  C   UNL A   1      44.118  27.173  29.625  1.00  0.00     0.031 C 
ATOM     46  C   UNL A   1      37.931  30.097  28.726  1.00  0.00     0.029 A 
ATOM     47  C   UNL A   1      38.933  30.921  29.397  1.00  0.00     0.049 A 
ATOM     48  H   UNL A   1      40.918  30.429  29.792  1.00  0.00     0.167 HD
ATOM     49  C   UNL A   1      45.027  29.215  30.691  1.00  0.00     0.031 A 
ATOM     50  C   UNL A   1      38.725  32.162  29.877  1.00  0.00     0.031 A 
ATOM     51  C   UNL A   1      44.920  30.569  31.166  1.00  0.00     0.049 A 
ATOM     52  C   UNL A   1      39.863  32.893  30.537  1.00  0.00     0.074 A 
ATOM     53  C   UNL A   1      45.902  31.359  31.738  1.00  0.00     0.029 A 
ATOM     54  N   UNL A   1      43.766  31.334  31.122  1.00  0.00    -0.354 N 
ATOM     55  N   UNL A   1      41.093  32.488  30.741  1.00  0.00    -0.248 NA
ATOM     56  C   UNL A   1      39.585  34.252  31.021  1.00  0.00     0.031 C 
ATOM     57  C   UNL A   1      45.327  32.589  32.081  1.00  0.00     0.029 A 
ATOM     58  C   UNL A   1      44.004  32.583  31.671  1.00  0.00     0.049 A 
ATOM     59  H   UNL A   1      42.903  31.034  30.753  1.00  0.00     0.167 HD
ATOM     60  C   UNL A   1      41.745  33.554  31.352  1.00  0.00     0.074 A 
ATOM     61  C   UNL A   1      40.777  34.625  31.470  1.00  0.00     0.031 C 
ATOM     62  C   UNL A   1      43.030  33.639  31.776  1.00  0.00     0.031 A 
BRANCH  49  63
ATOM     63  C   UNL A   1      46.345  28.502  30.843  1.00  0.00    -0.014 A 
ATOM     64  C   UNL A   1      47.331  28.583  29.844  1.00  0.00     0.010 A 
ATOM     65  C   UNL A   1      46.618  27.771  32.014  1.00  0.00     0.010 A 
ATOM     66  C   UNL A   1      48.548  27.912  29.990  1.00  0.00     0.020 A 
ATOM     67  C   UNL A   1      47.846  27.122  32.179  1.00  0.00     0.020 A 
ATOM     68  C   UNL A   1      48.796  27.183  31.157  1.00  0.00     0.054 A 
BRANCH  68  69
ATOM     69  S   UNL A   1      50.391  26.337  31.329  1.00  0.00     0.124 S 
ATOM     70  O   UNL A   1      50.774  26.691  32.693  1.00  0.00    -0.237 OA
ATOM     71  O   UNL A   1      50.034  24.935  31.122  1.00  0.00    -0.237 OA
ATOM     72  O   UNL A   1      51.213  26.929  30.277  1.00  0.00    -0.744 OA
ENDBRANCH  68  69
ENDBRANCH  49  63
BRANCH  50  73
ATOM     73  C   UNL A   1      37.387  32.799  29.743  1.00  0.00    -0.014 A 
ATOM     74  C   UNL A   1      37.046  33.514  28.581  1.00  0.00     0.010 A 
ATOM     75  C   UNL A   1      36.443  32.697  30.782  1.00  0.00     0.010 A 
ATOM     76  C   UNL A   1      35.800  34.138  28.471  1.00  0.00     0.020 A 
ATOM     77  C   UNL A   1      35.185  33.294  30.664  1.00  0.00     0.020 A 
ATOM     78  C   UNL A   1      34.877  34.024  29.515  1.00  0.00     0.054 A 
BRANCH  78  79
ATOM     79  S   UNL A   1      33.253  34.812  29.337  1.00  0.00     0.124 S 
ATOM     80  O   UNL A   1      32.760  34.803  30.709  1.00  0.00    -0.237 OA
ATOM     81  O   UNL A   1      33.596  36.125  28.794  1.00  0.00    -0.237 OA
ATOM     82  O   UNL A   1      32.546  33.930  28.411  1.00  0.00    -0.744 OA
ENDBRANCH  78  79
ENDBRANCH  50  73
BRANCH  62  83
ATOM     83  C   UNL A   1      43.476  34.946  32.374  1.00  0.00    -0.014 A 
ATOM     84  C   UNL A   1      44.025  35.965  31.575  1.00  0.00     0.010 A 
ATOM     85  C   UNL A   1      43.294  35.176  33.750  1.00  0.00     0.010 A 
ATOM     86  C   UNL A   1      44.412  37.180  32.147  1.00  0.00     0.020 A 
ATOM     87  C   UNL A   1      43.654  36.399  34.321  1.00  0.00     0.020 A 
ATOM     88  C   UNL A   1      44.224  37.389  33.517  1.00  0.00     0.054 A 
BRANCH  88  89
ATOM     89  S   UNL A   1      44.693  38.991  34.229  1.00  0.00     0.124 S 
ATOM     90  O   UNL A   1      45.072  38.619  35.589  1.00  0.00    -0.237 OA
ATOM     91  O   UNL A   1      45.791  39.416  33.364  1.00  0.00    -0.237 OA
ATOM     92  O   UNL A   1      43.475  39.789  34.117  1.00  0.00    -0.744 OA
ENDBRANCH  88  89
ENDBRANCH  62  83
ENDBRANCH  36  37
ENDBRANCH  28  31
ENDBRANCH  26  27
ENDBRANCH  25  26
ENDBRANCH   1  25
TORSDOF 18
ENDMDL
