MODEL 1
REMARK VINA RESULT:     -12.3      0.000      0.000
REMARK SMILES Cc1nsc(Nc2ccccc2C(C)C)c1C(=O)NCCCCCCNC(=O)c1ccc(-c2c3nc(c(-c4ccc(S(=O)(=O)[O-])cc4)c4ccc([nH]4)c(-c4ccc(S(=O)(=O)[O-])cc4)c4nc(c(-c5ccc(S(=O)(=O)[O-])cc5)c5ccc2[nH]5)C=C4)C=C3)cc1
REMARK SMILES IDX 22 1 21 2 20 3 19 4 17 5 18 6 16 8 1 9 2 10 3 11 4 12 5 13
REMARK SMILES IDX 6 14 7 16 8 17 12 18 9 19 11 20 10 21 13 22 14 23 15 24
REMARK SMILES IDX 23 25 24 26 25 27 26 28 27 29 28 31 29 32 30 33 88 34 31 35
REMARK SMILES IDX 87 36 32 37 33 38 34 39 81 40 35 41 86 42 80 43 82 44 36 45
REMARK SMILES IDX 85 46 79 47 78 48 37 50 67 51 48 52 66 53 49 54 52 55 65 56
REMARK SMILES IDX 83 57 50 58 51 59 64 61 84 62 53 63 38 64 39 65 47 66 40 67
REMARK SMILES IDX 46 68 41 69 42 70 43 71 44 72 45 73 68 74 69 75 77 76 70 77
REMARK SMILES IDX 76 78 71 79 72 80 73 81 74 82 75 83 54 84 55 85 63 86 56 87
REMARK SMILES IDX 62 88 57 89 58 90 59 91 60 92 61 93
REMARK H PARENT 19 7 6 15 26 30 82 49 52 60
REMARK Flexibility Score: inf
ROOT
ATOM      1  C   UNL A   1      34.367  23.541  24.498  1.00  0.00     0.002 C 
ENDROOT
BRANCH   1   2
ATOM      2  C   UNL A   1      34.498  24.414  25.746  1.00  0.00     0.021 C 
BRANCH   2   3
ATOM      3  C   UNL A   1      33.864  25.797  25.722  1.00  0.00     0.116 C 
BRANCH   3   4
ATOM      4  N   UNL A   1      34.039  26.561  24.512  1.00  0.00    -0.352 N 
ATOM      5  C   UNL A   1      33.875  27.907  24.276  1.00  0.00     0.256 C 
ATOM      6  O   UNL A   1      34.136  28.282  23.127  1.00  0.00    -0.269 OA
ATOM      7  H   UNL A   1      34.320  26.036  23.728  1.00  0.00     0.163 HD
BRANCH   5   8
ATOM      8  C   UNL A   1      33.331  28.841  25.274  1.00  0.00     0.097 A 
ATOM      9  C   UNL A   1      35.206  29.167  27.143  1.00  0.00     0.069 C 
ATOM     10  C   UNL A   1      33.852  29.336  26.542  1.00  0.00     0.066 A 
ATOM     11  N   UNL A   1      33.021  30.085  27.267  1.00  0.00    -0.195 NA
ATOM     12  S   UNL A   1      31.621  30.303  26.438  1.00  0.00    -0.018 S 
ATOM     13  C   UNL A   1      32.151  29.547  24.990  1.00  0.00     0.127 A 
BRANCH  13  14
ATOM     14  N   UNL A   1      31.488  29.599  23.799  1.00  0.00    -0.345 N 
ATOM     15  H   UNL A   1      32.001  29.950  23.036  1.00  0.00     0.167 HD
BRANCH  14  16
ATOM     16  C   UNL A   1      30.157  29.210  23.527  1.00  0.00     0.043 A 
ATOM     17  C   UNL A   1      29.263  30.251  23.208  1.00  0.00     0.026 A 
ATOM     18  C   UNL A   1      29.652  27.895  23.672  1.00  0.00    -0.022 A 
ATOM     19  C   UNL A   1      27.909  30.010  22.984  1.00  0.00     0.002 A 
ATOM     20  C   UNL A   1      28.275  27.677  23.439  1.00  0.00     0.006 A 
ATOM     21  C   UNL A   1      27.414  28.719  23.095  1.00  0.00     0.000 A 
BRANCH  18  22
ATOM     22  C   UNL A   1      30.505  26.701  24.096  1.00  0.00     0.015 C 
ATOM     23  C   UNL A   1      30.279  26.323  25.565  1.00  0.00     0.012 C 
ATOM     24  C   UNL A   1      30.260  25.484  23.194  1.00  0.00     0.012 C 
ENDBRANCH  18  22
ENDBRANCH  14  16
ENDBRANCH  13  14
ENDBRANCH   5   8
ENDBRANCH   3   4
ENDBRANCH   2   3
ENDBRANCH   1   2
BRANCH   1  25
ATOM     25  C   UNL A   1      35.443  22.482  24.224  1.00  0.00     0.002 C 
BRANCH  25  26
ATOM     26  C   UNL A   1      36.328  22.001  25.382  1.00  0.00     0.021 C 
BRANCH  26  27
ATOM     27  C   UNL A   1      37.807  22.333  25.266  1.00  0.00     0.116 C 
BRANCH  27  28
ATOM     28  N   UNL A   1      38.676  21.506  26.110  1.00  0.00    -0.352 N 
ATOM     29  C   UNL A   1      39.838  21.877  26.782  1.00  0.00     0.251 C 
ATOM     30  H   UNL A   1      38.403  20.566  26.214  1.00  0.00     0.163 HD
ATOM     31  O   UNL A   1      40.660  21.046  27.122  1.00  0.00    -0.269 OA
BRANCH  29  32
ATOM     32  C   UNL A   1      40.039  23.310  27.084  1.00  0.00     0.039 A 
ATOM     33  C   UNL A   1      39.071  24.294  26.868  1.00  0.00     0.014 A 
ATOM     34  C   UNL A   1      41.258  23.643  27.655  1.00  0.00     0.014 A 
ATOM     35  C   UNL A   1      39.340  25.596  27.297  1.00  0.00     0.010 A 
ATOM     36  C   UNL A   1      41.378  24.811  28.341  1.00  0.00     0.010 A 
ATOM     37  C   UNL A   1      40.504  25.837  28.042  1.00  0.00    -0.014 A 
BRANCH  37  38
ATOM     38  C   UNL A   1      40.853  27.138  28.591  1.00  0.00     0.031 A 
ATOM     39  C   UNL A   1      42.075  27.721  27.998  1.00  0.00     0.074 A 
ATOM     40  C   UNL A   1      39.994  27.864  29.345  1.00  0.00     0.049 A 
ATOM     41  N   UNL A   1      43.259  27.741  28.507  1.00  0.00    -0.248 NA
ATOM     42  C   UNL A   1      42.021  28.155  26.591  1.00  0.00     0.031 C 
ATOM     43  C   UNL A   1      38.590  27.556  29.673  1.00  0.00     0.029 A 
ATOM     44  N   UNL A   1      40.150  29.102  29.885  1.00  0.00    -0.354 N 
ATOM     45  C   UNL A   1      44.030  28.460  27.601  1.00  0.00     0.074 A 
ATOM     46  C   UNL A   1      43.303  28.442  26.357  1.00  0.00     0.031 C 
ATOM     47  C   UNL A   1      37.969  28.666  30.128  1.00  0.00     0.029 A 
ATOM     48  C   UNL A   1      38.970  29.696  30.324  1.00  0.00     0.049 A 
ATOM     49  H   UNL A   1      41.027  29.544  29.959  1.00  0.00     0.167 HD
ATOM     50  C   UNL A   1      45.004  29.308  28.035  1.00  0.00     0.031 A 
ATOM     51  C   UNL A   1      38.822  30.947  30.823  1.00  0.00     0.031 A 
ATOM     52  C   UNL A   1      45.206  29.171  29.456  1.00  0.00     0.049 A 
ATOM     53  C   UNL A   1      40.155  31.369  31.313  1.00  0.00     0.074 A 
ATOM     54  C   UNL A   1      45.755  28.237  30.304  1.00  0.00     0.029 A 
ATOM     55  N   UNL A   1      44.380  29.975  30.204  1.00  0.00    -0.354 N 
ATOM     56  N   UNL A   1      40.784  30.755  32.278  1.00  0.00    -0.248 NA
ATOM     57  C   UNL A   1      40.985  32.224  30.475  1.00  0.00     0.031 C 
ATOM     58  C   UNL A   1      45.050  28.369  31.539  1.00  0.00     0.029 A 
ATOM     59  C   UNL A   1      44.133  29.416  31.431  1.00  0.00     0.049 A 
ATOM     60  H   UNL A   1      44.015  30.837  29.900  1.00  0.00     0.167 HD
ATOM     61  C   UNL A   1      42.117  30.800  31.909  1.00  0.00     0.074 A 
ATOM     62  C   UNL A   1      42.195  31.848  30.899  1.00  0.00     0.031 C 
ATOM     63  C   UNL A   1      42.970  29.781  32.221  1.00  0.00     0.031 A 
BRANCH  50  64
ATOM     64  C   UNL A   1      45.393  30.589  27.332  1.00  0.00    -0.014 A 
ATOM     65  C   UNL A   1      46.763  30.897  27.204  1.00  0.00     0.010 A 
ATOM     66  C   UNL A   1      44.479  31.623  27.044  1.00  0.00     0.010 A 
ATOM     67  C   UNL A   1      47.192  32.184  26.848  1.00  0.00     0.020 A 
ATOM     68  C   UNL A   1      44.894  32.897  26.651  1.00  0.00     0.020 A 
ATOM     69  C   UNL A   1      46.251  33.178  26.581  1.00  0.00     0.054 A 
BRANCH  69  70
ATOM     70  S   UNL A   1      46.810  34.854  26.197  1.00  0.00     0.124 S 
ATOM     71  O   UNL A   1      45.555  35.601  26.205  1.00  0.00    -0.237 OA
ATOM     72  O   UNL A   1      47.724  35.135  27.299  1.00  0.00    -0.237 OA
ATOM     73  O   UNL A   1      47.444  34.710  24.888  1.00  0.00    -0.744 OA
ENDBRANCH  69  70
ENDBRANCH  50  64
BRANCH  51  74
ATOM     74  C   UNL A   1      37.687  31.881  30.636  1.00  0.00    -0.014 A 
ATOM     75  C   UNL A   1      37.855  33.138  30.024  1.00  0.00     0.010 A 
ATOM     76  C   UNL A   1      36.369  31.407  30.807  1.00  0.00     0.010 A 
ATOM     77  C   UNL A   1      36.747  33.868  29.554  1.00  0.00     0.020 A 
ATOM     78  C   UNL A   1      35.261  32.127  30.340  1.00  0.00     0.020 A 
ATOM     79  C   UNL A   1      35.457  33.348  29.698  1.00  0.00     0.054 A 
BRANCH  79  80
ATOM     80  S   UNL A   1      34.047  34.223  28.951  1.00  0.00     0.124 S 
ATOM     81  O   UNL A   1      33.477  33.203  28.076  1.00  0.00    -0.237 OA
ATOM     82  O   UNL A   1      33.240  34.577  30.116  1.00  0.00    -0.237 OA
ATOM     83  O   UNL A   1      34.667  35.354  28.264  1.00  0.00    -0.744 OA
ENDBRANCH  79  80
ENDBRANCH  51  74
BRANCH  63  84
ATOM     84  C   UNL A   1      42.618  28.892  33.386  1.00  0.00    -0.014 A 
ATOM     85  C   UNL A   1      41.739  27.794  33.325  1.00  0.00     0.010 A 
ATOM     86  C   UNL A   1      43.299  29.142  34.591  1.00  0.00     0.010 A 
ATOM     87  C   UNL A   1      41.537  26.980  34.452  1.00  0.00     0.020 A 
ATOM     88  C   UNL A   1      43.116  28.327  35.708  1.00  0.00     0.020 A 
ATOM     89  C   UNL A   1      42.229  27.256  35.638  1.00  0.00     0.054 A 
BRANCH  89  90
ATOM     90  S   UNL A   1      41.990  26.190  37.088  1.00  0.00     0.124 S 
ATOM     91  O   UNL A   1      40.605  26.467  37.461  1.00  0.00    -0.237 OA
ATOM     92  O   UNL A   1      42.243  24.853  36.556  1.00  0.00    -0.237 OA
ATOM     93  O   UNL A   1      42.992  26.668  38.040  1.00  0.00    -0.744 OA
ENDBRANCH  89  90
ENDBRANCH  63  84
ENDBRANCH  37  38
ENDBRANCH  29  32
ENDBRANCH  27  28
ENDBRANCH  26  27
ENDBRANCH  25  26
ENDBRANCH   1  25
TORSDOF 19
ENDMDL
MODEL 2
REMARK VINA RESULT:     -12.0      3.083      9.552
REMARK SMILES Cc1nsc(Nc2ccccc2C(C)C)c1C(=O)NCCCCCCNC(=O)c1ccc(-c2c3nc(c(-c4ccc(S(=O)(=O)[O-])cc4)c4ccc([nH]4)c(-c4ccc(S(=O)(=O)[O-])cc4)c4nc(c(-c5ccc(S(=O)(=O)[O-])cc5)c5ccc2[nH]5)C=C4)C=C3)cc1
REMARK SMILES IDX 22 1 21 2 20 3 19 4 17 5 18 6 16 8 1 9 2 10 3 11 4 12 5 13
REMARK SMILES IDX 6 14 7 16 8 17 12 18 9 19 11 20 10 21 13 22 14 23 15 24
REMARK SMILES IDX 23 25 24 26 25 27 26 28 27 29 28 31 29 32 30 33 88 34 31 35
REMARK SMILES IDX 87 36 32 37 33 38 34 39 81 40 35 41 86 42 80 43 82 44 36 45
REMARK SMILES IDX 85 46 79 47 78 48 37 50 67 51 48 52 66 53 49 54 52 55 65 56
REMARK SMILES IDX 83 57 50 58 51 59 64 61 84 62 53 63 38 64 39 65 47 66 40 67
REMARK SMILES IDX 46 68 41 69 42 70 43 71 44 72 45 73 68 74 69 75 77 76 70 77
REMARK SMILES IDX 76 78 71 79 72 80 73 81 74 82 75 83 54 84 55 85 63 86 56 87
REMARK SMILES IDX 62 88 57 89 58 90 59 91 60 92 61 93
REMARK H PARENT 19 7 6 15 26 30 82 49 52 60
REMARK Flexibility Score: inf
ROOT
ATOM      1  C   UNL A   1      33.673  27.369  24.285  1.00  0.00     0.002 C 
ENDROOT
BRANCH   1   2
ATOM      2  C   UNL A   1      33.483  25.865  24.099  1.00  0.00     0.021 C 
BRANCH   2   3
ATOM      3  C   UNL A   1      34.538  24.933  24.676  1.00  0.00     0.116 C 
BRANCH   3   4
ATOM      4  N   UNL A   1      34.182  24.231  25.884  1.00  0.00    -0.352 N 
ATOM      5  C   UNL A   1      34.799  23.175  26.516  1.00  0.00     0.256 C 
ATOM      6  O   UNL A   1      34.271  22.805  27.571  1.00  0.00    -0.269 OA
ATOM      7  H   UNL A   1      33.368  24.560  26.328  1.00  0.00     0.163 HD
BRANCH   5   8
ATOM      8  C   UNL A   1      35.946  22.451  25.946  1.00  0.00     0.097 A 
ATOM      9  C   UNL A   1      38.108  23.954  26.376  1.00  0.00     0.069 C 
ATOM     10  C   UNL A   1      37.355  22.798  25.810  1.00  0.00     0.066 A 
ATOM     11  N   UNL A   1      38.106  21.945  25.113  1.00  0.00    -0.195 NA
ATOM     12  S   UNL A   1      37.191  20.658  24.662  1.00  0.00    -0.018 S 
ATOM     13  C   UNL A   1      35.792  21.114  25.548  1.00  0.00     0.127 A 
BRANCH  13  14
ATOM     14  N   UNL A   1      34.713  20.309  25.762  1.00  0.00    -0.345 N 
ATOM     15  H   UNL A   1      34.458  20.171  26.703  1.00  0.00     0.167 HD
BRANCH  14  16
ATOM     16  C   UNL A   1      33.914  19.649  24.800  1.00  0.00     0.043 A 
ATOM     17  C   UNL A   1      34.248  18.306  24.538  1.00  0.00     0.026 A 
ATOM     18  C   UNL A   1      32.912  20.270  24.017  1.00  0.00    -0.022 A 
ATOM     19  C   UNL A   1      33.583  17.563  23.565  1.00  0.00     0.002 A 
ATOM     20  C   UNL A   1      32.252  19.495  23.036  1.00  0.00     0.006 A 
ATOM     21  C   UNL A   1      32.579  18.157  22.814  1.00  0.00     0.000 A 
BRANCH  18  22
ATOM     22  C   UNL A   1      32.522  21.741  24.150  1.00  0.00     0.015 C 
ATOM     23  C   UNL A   1      32.018  22.327  22.825  1.00  0.00     0.012 C 
ATOM     24  C   UNL A   1      31.473  21.949  25.251  1.00  0.00     0.012 C 
ENDBRANCH  18  22
ENDBRANCH  14  16
ENDBRANCH  13  14
ENDBRANCH   5   8
ENDBRANCH   3   4
ENDBRANCH   2   3
ENDBRANCH   1   2
BRANCH   1  25
ATOM     25  C   UNL A   1      33.804  27.924  25.710  1.00  0.00     0.002 C 
BRANCH  25  26
ATOM     26  C   UNL A   1      33.512  29.410  25.961  1.00  0.00     0.021 C 
BRANCH  26  27
ATOM     27  C   UNL A   1      33.782  29.908  27.371  1.00  0.00     0.116 C 
BRANCH  27  28
ATOM     28  N   UNL A   1      34.102  31.337  27.453  1.00  0.00    -0.352 N 
ATOM     29  C   UNL A   1      35.146  31.952  28.140  1.00  0.00     0.251 C 
ATOM     30  H   UNL A   1      33.501  31.939  26.959  1.00  0.00     0.163 HD
ATOM     31  O   UNL A   1      35.088  33.129  28.446  1.00  0.00    -0.269 OA
BRANCH  29  32
ATOM     32  C   UNL A   1      36.334  31.139  28.475  1.00  0.00     0.039 A 
ATOM     33  C   UNL A   1      36.430  29.766  28.230  1.00  0.00     0.014 A 
ATOM     34  C   UNL A   1      37.405  31.827  29.023  1.00  0.00     0.014 A 
ATOM     35  C   UNL A   1      37.646  29.129  28.491  1.00  0.00     0.010 A 
ATOM     36  C   UNL A   1      38.648  31.281  28.971  1.00  0.00     0.010 A 
ATOM     37  C   UNL A   1      38.755  29.908  28.858  1.00  0.00    -0.014 A 
BRANCH  37  38
ATOM     38  C   UNL A   1      40.081  29.360  29.093  1.00  0.00     0.031 A 
ATOM     39  C   UNL A   1      40.409  29.199  30.525  1.00  0.00     0.074 A 
ATOM     40  C   UNL A   1      40.816  28.787  28.110  1.00  0.00     0.049 A 
ATOM     41  N   UNL A   1      41.141  29.972  31.252  1.00  0.00    -0.248 NA
ATOM     42  C   UNL A   1      39.678  28.173  31.289  1.00  0.00     0.031 C 
ATOM     43  C   UNL A   1      40.422  28.532  26.713  1.00  0.00     0.029 A 
ATOM     44  N   UNL A   1      42.037  28.193  28.178  1.00  0.00    -0.354 N 
ATOM     45  C   UNL A   1      41.198  29.352  32.494  1.00  0.00     0.074 A 
ATOM     46  C   UNL A   1      40.088  28.434  32.533  1.00  0.00     0.031 C 
ATOM     47  C   UNL A   1      41.264  27.637  26.153  1.00  0.00     0.029 A 
ATOM     48  C   UNL A   1      42.367  27.419  27.068  1.00  0.00     0.049 A 
ATOM     49  H   UNL A   1      42.639  28.301  28.949  1.00  0.00     0.167 HD
ATOM     50  C   UNL A   1      42.344  29.373  33.231  1.00  0.00     0.031 A 
ATOM     51  C   UNL A   1      43.475  26.657  26.906  1.00  0.00     0.031 A 
ATOM     52  C   UNL A   1      43.319  30.252  32.634  1.00  0.00     0.049 A 
ATOM     53  C   UNL A   1      44.497  27.188  27.837  1.00  0.00     0.074 A 
ATOM     54  C   UNL A   1      43.486  31.610  32.486  1.00  0.00     0.029 A 
ATOM     55  N   UNL A   1      44.110  29.633  31.697  1.00  0.00    -0.354 N 
ATOM     56  N   UNL A   1      44.976  28.400  27.751  1.00  0.00    -0.248 NA
ATOM     57  C   UNL A   1      44.708  26.526  29.118  1.00  0.00     0.031 C 
ATOM     58  C   UNL A   1      44.225  31.783  31.277  1.00  0.00     0.029 A 
ATOM     59  C   UNL A   1      44.542  30.528  30.752  1.00  0.00     0.049 A 
ATOM     60  H   UNL A   1      44.336  28.676  31.702  1.00  0.00     0.167 HD
ATOM     61  C   UNL A   1      45.151  28.800  29.064  1.00  0.00     0.074 A 
ATOM     62  C   UNL A   1      45.134  27.566  29.841  1.00  0.00     0.031 C 
ATOM     63  C   UNL A   1      44.977  30.102  29.434  1.00  0.00     0.031 A 
BRANCH  50  64
ATOM     64  C   UNL A   1      42.787  28.256  34.148  1.00  0.00    -0.014 A 
ATOM     65  C   UNL A   1      43.431  28.593  35.357  1.00  0.00     0.010 A 
ATOM     66  C   UNL A   1      42.850  26.906  33.750  1.00  0.00     0.010 A 
ATOM     67  C   UNL A   1      44.134  27.635  36.102  1.00  0.00     0.020 A 
ATOM     68  C   UNL A   1      43.513  25.936  34.503  1.00  0.00     0.020 A 
ATOM     69  C   UNL A   1      44.175  26.312  35.663  1.00  0.00     0.054 A 
BRANCH  69  70
ATOM     70  S   UNL A   1      45.145  25.097  36.587  1.00  0.00     0.124 S 
ATOM     71  O   UNL A   1      46.182  24.742  35.623  1.00  0.00    -0.237 OA
ATOM     72  O   UNL A   1      45.589  25.872  37.743  1.00  0.00    -0.237 OA
ATOM     73  O   UNL A   1      44.178  24.043  36.884  1.00  0.00    -0.744 OA
ENDBRANCH  69  70
ENDBRANCH  50  64
BRANCH  51  74
ATOM     74  C   UNL A   1      43.596  25.348  26.220  1.00  0.00    -0.014 A 
ATOM     75  C   UNL A   1      44.552  25.128  25.209  1.00  0.00     0.010 A 
ATOM     76  C   UNL A   1      42.950  24.220  26.768  1.00  0.00     0.010 A 
ATOM     77  C   UNL A   1      44.885  23.822  24.801  1.00  0.00     0.020 A 
ATOM     78  C   UNL A   1      43.278  22.918  26.368  1.00  0.00     0.020 A 
ATOM     79  C   UNL A   1      44.259  22.724  25.398  1.00  0.00     0.054 A 
BRANCH  79  80
ATOM     80  S   UNL A   1      44.805  21.040  24.976  1.00  0.00     0.124 S 
ATOM     81  O   UNL A   1      44.693  21.033  23.520  1.00  0.00    -0.237 OA
ATOM     82  O   UNL A   1      46.166  21.006  25.505  1.00  0.00    -0.237 OA
ATOM     83  O   UNL A   1      43.850  20.183  25.676  1.00  0.00    -0.744 OA
ENDBRANCH  79  80
ENDBRANCH  51  74
BRANCH  63  84
ATOM     84  C   UNL A   1      45.122  31.165  28.376  1.00  0.00    -0.014 A 
ATOM     85  C   UNL A   1      44.059  31.712  27.632  1.00  0.00     0.010 A 
ATOM     86  C   UNL A   1      46.410  31.701  28.199  1.00  0.00     0.010 A 
ATOM     87  C   UNL A   1      44.290  32.756  26.721  1.00  0.00     0.020 A 
ATOM     88  C   UNL A   1      46.643  32.750  27.311  1.00  0.00     0.020 A 
ATOM     89  C   UNL A   1      45.584  33.267  26.567  1.00  0.00     0.054 A 
BRANCH  89  90
ATOM     90  S   UNL A   1      45.881  34.634  25.410  1.00  0.00     0.124 S 
ATOM     91  O   UNL A   1      45.074  34.253  24.254  1.00  0.00    -0.237 OA
ATOM     92  O   UNL A   1      45.406  35.799  26.154  1.00  0.00    -0.237 OA
ATOM     93  O   UNL A   1      47.327  34.597  25.192  1.00  0.00    -0.744 OA
ENDBRANCH  89  90
ENDBRANCH  63  84
ENDBRANCH  37  38
ENDBRANCH  29  32
ENDBRANCH  27  28
ENDBRANCH  26  27
ENDBRANCH  25  26
ENDBRANCH   1  25
TORSDOF 19
ENDMDL
MODEL 3
REMARK VINA RESULT:     -12.0      1.912      2.973
REMARK SMILES Cc1nsc(Nc2ccccc2C(C)C)c1C(=O)NCCCCCCNC(=O)c1ccc(-c2c3nc(c(-c4ccc(S(=O)(=O)[O-])cc4)c4ccc([nH]4)c(-c4ccc(S(=O)(=O)[O-])cc4)c4nc(c(-c5ccc(S(=O)(=O)[O-])cc5)c5ccc2[nH]5)C=C4)C=C3)cc1
REMARK SMILES IDX 22 1 21 2 20 3 19 4 17 5 18 6 16 8 1 9 2 10 3 11 4 12 5 13
REMARK SMILES IDX 6 14 7 16 8 17 12 18 9 19 11 20 10 21 13 22 14 23 15 24
REMARK SMILES IDX 23 25 24 26 25 27 26 28 27 29 28 31 29 32 30 33 88 34 31 35
REMARK SMILES IDX 87 36 32 37 33 38 34 39 81 40 35 41 86 42 80 43 82 44 36 45
REMARK SMILES IDX 85 46 79 47 78 48 37 50 67 51 48 52 66 53 49 54 52 55 65 56
REMARK SMILES IDX 83 57 50 58 51 59 64 61 84 62 53 63 38 64 39 65 47 66 40 67
REMARK SMILES IDX 46 68 41 69 42 70 43 71 44 72 45 73 68 74 69 75 77 76 70 77
REMARK SMILES IDX 76 78 71 79 72 80 73 81 74 82 75 83 54 84 55 85 63 86 56 87
REMARK SMILES IDX 62 88 57 89 58 90 59 91 60 92 61 93
REMARK H PARENT 19 7 6 15 26 30 82 49 52 60
REMARK Flexibility Score: inf
ROOT
ATOM      1  C   UNL A   1      36.950  21.963  24.316  1.00  0.00     0.002 C 
ENDROOT
BRANCH   1   2
ATOM      2  C   UNL A   1      35.452  21.672  24.406  1.00  0.00     0.021 C 
BRANCH   2   3
ATOM      3  C   UNL A   1      34.495  22.623  23.702  1.00  0.00     0.116 C 
BRANCH   3   4
ATOM      4  N   UNL A   1      34.594  24.015  24.060  1.00  0.00    -0.352 N 
ATOM      5  C   UNL A   1      33.965  24.726  25.057  1.00  0.00     0.256 C 
ATOM      6  O   UNL A   1      34.283  25.918  25.143  1.00  0.00    -0.269 OA
ATOM      7  H   UNL A   1      35.211  24.542  23.503  1.00  0.00     0.163 HD
BRANCH   5   8
ATOM      8  C   UNL A   1      32.908  24.159  25.909  1.00  0.00     0.097 A 
ATOM      9  C   UNL A   1      34.107  22.581  27.695  1.00  0.00     0.069 C 
ATOM     10  C   UNL A   1      32.939  23.186  26.993  1.00  0.00     0.066 A 
ATOM     11  N   UNL A   1      31.755  22.796  27.467  1.00  0.00    -0.195 NA
ATOM     12  S   UNL A   1      30.563  23.629  26.706  1.00  0.00    -0.018 S 
ATOM     13  C   UNL A   1      31.606  24.680  25.836  1.00  0.00     0.127 A 
BRANCH  13  14
ATOM     14  N   UNL A   1      31.201  25.791  25.158  1.00  0.00    -0.345 N 
ATOM     15  H   UNL A   1      30.700  25.629  24.325  1.00  0.00     0.167 HD
BRANCH  14  16
ATOM     16  C   UNL A   1      31.411  27.145  25.502  1.00  0.00     0.043 A 
ATOM     17  C   UNL A   1      31.569  27.416  26.875  1.00  0.00     0.026 A 
ATOM     18  C   UNL A   1      31.349  28.230  24.594  1.00  0.00    -0.022 A 
ATOM     19  C   UNL A   1      31.716  28.717  27.353  1.00  0.00     0.002 A 
ATOM     20  C   UNL A   1      31.501  29.540  25.104  1.00  0.00     0.006 A 
ATOM     21  C   UNL A   1      31.686  29.781  26.465  1.00  0.00     0.000 A 
BRANCH  18  22
ATOM     22  C   UNL A   1      31.097  28.069  23.096  1.00  0.00     0.015 C 
ATOM     23  C   UNL A   1      30.669  29.386  22.437  1.00  0.00     0.012 C 
ATOM     24  C   UNL A   1      32.324  27.493  22.376  1.00  0.00     0.012 C 
ENDBRANCH  18  22
ENDBRANCH  14  16
ENDBRANCH  13  14
ENDBRANCH   5   8
ENDBRANCH   3   4
ENDBRANCH   2   3
ENDBRANCH   1   2
BRANCH   1  25
ATOM     25  C   UNL A   1      37.684  22.444  25.575  1.00  0.00     0.002 C 
BRANCH  25  26
ATOM     26  C   UNL A   1      38.925  21.678  26.053  1.00  0.00     0.021 C 
BRANCH  26  27
ATOM     27  C   UNL A   1      39.977  22.505  26.771  1.00  0.00     0.116 C 
BRANCH  27  28
ATOM     28  N   UNL A   1      41.354  22.228  26.345  1.00  0.00    -0.352 N 
ATOM     29  C   UNL A   1      42.329  23.131  25.930  1.00  0.00     0.251 C 
ATOM     30  H   UNL A   1      41.622  21.282  26.353  1.00  0.00     0.163 HD
ATOM     31  O   UNL A   1      43.274  22.767  25.253  1.00  0.00    -0.269 OA
BRANCH  29  32
ATOM     32  C   UNL A   1      42.193  24.543  26.345  1.00  0.00     0.039 A 
ATOM     33  C   UNL A   1      41.431  25.487  25.652  1.00  0.00     0.014 A 
ATOM     34  C   UNL A   1      42.841  24.895  27.519  1.00  0.00     0.014 A 
ATOM     35  C   UNL A   1      41.292  26.763  26.205  1.00  0.00     0.010 A 
ATOM     36  C   UNL A   1      42.446  26.007  28.194  1.00  0.00     0.010 A 
ATOM     37  C   UNL A   1      41.804  27.005  27.489  1.00  0.00    -0.014 A 
BRANCH  37  38
ATOM     38  C   UNL A   1      41.662  28.274  28.185  1.00  0.00     0.031 A 
ATOM     39  C   UNL A   1      42.729  29.246  27.866  1.00  0.00     0.074 A 
ATOM     40  C   UNL A   1      40.523  28.630  28.824  1.00  0.00     0.049 A 
ATOM     41  N   UNL A   1      43.763  29.536  28.580  1.00  0.00    -0.248 NA
ATOM     42  C   UNL A   1      42.761  29.816  26.508  1.00  0.00     0.031 C 
ATOM     43  C   UNL A   1      39.242  27.902  28.870  1.00  0.00     0.029 A 
ATOM     44  N   UNL A   1      40.219  29.787  29.472  1.00  0.00    -0.354 N 
ATOM     45  C   UNL A   1      44.412  30.547  27.883  1.00  0.00     0.074 A 
ATOM     46  C   UNL A   1      43.920  30.479  26.530  1.00  0.00     0.031 C 
ATOM     47  C   UNL A   1      38.257  28.727  29.286  1.00  0.00     0.029 A 
ATOM     48  C   UNL A   1      38.864  29.965  29.734  1.00  0.00     0.049 A 
ATOM     49  H   UNL A   1      40.903  30.444  29.735  1.00  0.00     0.167 HD
ATOM     50  C   UNL A   1      45.012  31.575  28.546  1.00  0.00     0.031 A 
ATOM     51  C   UNL A   1      38.277  31.053  30.289  1.00  0.00     0.031 A 
ATOM     52  C   UNL A   1      45.029  31.327  29.967  1.00  0.00     0.049 A 
ATOM     53  C   UNL A   1      39.333  31.769  31.040  1.00  0.00     0.074 A 
ATOM     54  C   UNL A   1      45.697  30.488  30.829  1.00  0.00     0.029 A 
ATOM     55  N   UNL A   1      43.898  31.768  30.611  1.00  0.00    -0.354 N 
ATOM     56  N   UNL A   1      39.964  31.243  32.056  1.00  0.00    -0.248 NA
ATOM     57  C   UNL A   1      39.986  32.920  30.431  1.00  0.00     0.031 C 
ATOM     58  C   UNL A   1      44.808  30.263  31.922  1.00  0.00     0.029 A 
ATOM     59  C   UNL A   1      43.647  31.016  31.729  1.00  0.00     0.049 A 
ATOM     60  H   UNL A   1      43.343  32.522  30.310  1.00  0.00     0.167 HD
ATOM     61  C   UNL A   1      41.262  31.706  31.937  1.00  0.00     0.074 A 
ATOM     62  C   UNL A   1      41.175  32.850  31.037  1.00  0.00     0.031 C 
ATOM     63  C   UNL A   1      42.324  30.938  32.321  1.00  0.00     0.031 A 
BRANCH  50  64
ATOM     64  C   UNL A   1      45.102  32.990  28.021  1.00  0.00    -0.014 A 
ATOM     65  C   UNL A   1      46.346  33.452  27.540  1.00  0.00     0.010 A 
ATOM     66  C   UNL A   1      44.103  33.962  28.235  1.00  0.00     0.010 A 
ATOM     67  C   UNL A   1      46.585  34.817  27.327  1.00  0.00     0.020 A 
ATOM     68  C   UNL A   1      44.318  35.319  27.989  1.00  0.00     0.020 A 
ATOM     69  C   UNL A   1      45.569  35.742  27.561  1.00  0.00     0.054 A 
BRANCH  69  70
ATOM     70  S   UNL A   1      45.906  37.507  27.357  1.00  0.00     0.124 S 
ATOM     71  O   UNL A   1      46.761  37.516  26.174  1.00  0.00    -0.237 OA
ATOM     72  O   UNL A   1      44.567  38.058  27.177  1.00  0.00    -0.237 OA
ATOM     73  O   UNL A   1      46.564  37.876  28.608  1.00  0.00    -0.744 OA
ENDBRANCH  69  70
ENDBRANCH  50  64
BRANCH  51  74
ATOM     74  C   UNL A   1      36.956  31.645  29.970  1.00  0.00    -0.014 A 
ATOM     75  C   UNL A   1      36.105  32.143  30.975  1.00  0.00     0.010 A 
ATOM     76  C   UNL A   1      36.656  31.981  28.633  1.00  0.00     0.010 A 
ATOM     77  C   UNL A   1      35.025  32.989  30.657  1.00  0.00     0.020 A 
ATOM     78  C   UNL A   1      35.584  32.824  28.309  1.00  0.00     0.020 A 
ATOM     79  C   UNL A   1      34.784  33.340  29.326  1.00  0.00     0.054 A 
BRANCH  79  80
ATOM     80  S   UNL A   1      33.485  34.554  28.939  1.00  0.00     0.124 S 
ATOM     81  O   UNL A   1      32.849  34.753  30.237  1.00  0.00    -0.237 OA
ATOM     82  O   UNL A   1      34.252  35.688  28.431  1.00  0.00    -0.237 OA
ATOM     83  O   UNL A   1      32.661  33.871  27.943  1.00  0.00    -0.744 OA
ENDBRANCH  79  80
ENDBRANCH  51  74
BRANCH  63  84
ATOM     84  C   UNL A   1      42.081  29.850  33.335  1.00  0.00    -0.014 A 
ATOM     85  C   UNL A   1      41.758  28.516  33.024  1.00  0.00     0.010 A 
ATOM     86  C   UNL A   1      42.286  30.195  34.683  1.00  0.00     0.010 A 
ATOM     87  C   UNL A   1      41.627  27.558  34.043  1.00  0.00     0.020 A 
ATOM     88  C   UNL A   1      42.176  29.245  35.698  1.00  0.00     0.020 A 
ATOM     89  C   UNL A   1      41.837  27.932  35.377  1.00  0.00     0.054 A 
BRANCH  89  90
ATOM     90  S   UNL A   1      41.695  26.692  36.693  1.00  0.00     0.124 S 
ATOM     91  O   UNL A   1      42.936  26.878  37.441  1.00  0.00    -0.237 OA
ATOM     92  O   UNL A   1      40.474  27.093  37.389  1.00  0.00    -0.237 OA
ATOM     93  O   UNL A   1      41.597  25.425  35.969  1.00  0.00    -0.744 OA
ENDBRANCH  89  90
ENDBRANCH  63  84
ENDBRANCH  37  38
ENDBRANCH  29  32
ENDBRANCH  27  28
ENDBRANCH  26  27
ENDBRANCH  25  26
ENDBRANCH   1  25
TORSDOF 19
ENDMDL
