MODEL 1
REMARK VINA RESULT:     -12.2      0.000      0.000
REMARK SMILES CS(=O)(=O)N1C[C@@H]2CN(C(=O)c3ccco3)C[C@]2(C(=O)NCCCCCCNC(=O)c2ccc(-c3c4nc(c(-c5ccc(S(=O)(=O)[O-])cc5)c5ccc([nH]5)c(-c5ccc(S(=O)(=O)[O-])cc5)c5nc(c(-c6ccc(S(=O)(=O)[O-])cc6)c6ccc3[nH]6)C=C5)C=C4)cc2)C1
REMARK SMILES IDX 25 1 24 2 23 3 22 4 21 5 19 6 20 7 18 9 5 10 6 11 91 12 7 13
REMARK SMILES IDX 8 14 17 15 9 16 2 17 1 18 3 19 4 20 10 21 11 22 12 23 13 24
REMARK SMILES IDX 16 25 14 26 15 27 26 28 27 29 28 30 29 31 30 33 31 34 32 35
REMARK SMILES IDX 90 36 33 37 89 38 34 39 35 40 36 41 83 42 37 43 88 44 82 45
REMARK SMILES IDX 84 46 38 47 87 48 81 49 80 50 39 52 69 53 50 54 68 55 51 56
REMARK SMILES IDX 54 57 67 58 85 59 52 60 53 61 66 63 86 64 55 65 40 66 41 67
REMARK SMILES IDX 49 68 42 69 48 70 43 71 44 72 45 73 46 74 47 75 70 76 71 77
REMARK SMILES IDX 79 78 72 79 78 80 73 81 74 82 75 83 76 84 77 85 56 86 57 87
REMARK SMILES IDX 65 88 58 89 64 90 59 91 60 92 61 93 62 94 63 95
REMARK H PARENT 21 8 28 32 84 51 54 62
REMARK Flexibility Score: inf
ROOT
ATOM      1  C   UNL A   1      33.306  30.746  27.214  1.00  0.00     0.002 C 
ENDROOT
BRANCH   1   2
ATOM      2  C   UNL A   1      31.994  30.055  26.848  1.00  0.00     0.002 C 
BRANCH   2   3
ATOM      3  C   UNL A   1      31.832  28.670  27.474  1.00  0.00     0.021 C 
BRANCH   3   4
ATOM      4  C   UNL A   1      32.034  27.514  26.497  1.00  0.00     0.116 C 
BRANCH   4   5
ATOM      5  N   UNL A   1      31.153  26.426  26.869  1.00  0.00    -0.356 N 
ATOM      6  C   UNL A   1      30.456  25.625  26.000  1.00  0.00     0.229 C 
ATOM      7  O   UNL A   1      29.446  25.050  26.409  1.00  0.00    -0.274 OA
ATOM      8  H   UNL A   1      31.046  26.244  27.831  1.00  0.00     0.163 HD
BRANCH   6   9
ATOM      9  C   UNL A   1      31.052  25.471  24.575  1.00  0.00     0.086 C 
ATOM     10  N   UNL A   1      31.923  23.204  24.019  1.00  0.00    -0.201 NA
ATOM     11  C   UNL A   1      32.160  24.009  22.851  1.00  0.00     0.108 C 
ATOM     12  C   UNL A   1      30.984  23.891  24.917  1.00  0.00     0.121 C 
ATOM     13  C   UNL A   1      31.094  25.064  23.048  1.00  0.00     0.042 C 
ATOM     14  C   UNL A   1      31.377  26.315  22.253  1.00  0.00     0.126 C 
ATOM     15  C   UNL A   1      30.007  26.634  24.140  1.00  0.00     0.138 C 
ATOM     16  N   UNL A   1      30.648  27.294  22.999  1.00  0.00    -0.334 N 
BRANCH  10  17
ATOM     17  S   UNL A   1      32.302  21.595  24.139  1.00  0.00     0.211 S 
ATOM     18  C   UNL A   1      34.052  21.632  24.470  1.00  0.00     0.176 C 
ATOM     19  O   UNL A   1      32.130  21.006  22.826  1.00  0.00    -0.213 OA
ATOM     20  O   UNL A   1      31.632  21.056  25.300  1.00  0.00    -0.213 OA
ENDBRANCH  10  17
BRANCH  16  21
ATOM     21  C   UNL A   1      30.869  28.643  22.735  1.00  0.00     0.289 C 
ATOM     22  O   UNL A   1      32.022  29.077  22.719  1.00  0.00    -0.265 OA
BRANCH  21  23
ATOM     23  C   UNL A   1      29.736  29.532  22.600  1.00  0.00     0.191 A 
ATOM     24  C   UNL A   1      29.231  30.455  23.499  1.00  0.00     0.056 A 
ATOM     25  O   UNL A   1      29.015  29.584  21.439  1.00  0.00    -0.459 OA
ATOM     26  C   UNL A   1      28.132  31.081  22.868  1.00  0.00     0.043 A 
ATOM     27  C   UNL A   1      28.065  30.544  21.605  1.00  0.00     0.196 A 
ENDBRANCH  21  23
ENDBRANCH  16  21
ENDBRANCH   6   9
ENDBRANCH   4   5
ENDBRANCH   3   4
ENDBRANCH   2   3
ENDBRANCH   1   2
BRANCH   1  28
ATOM     28  C   UNL A   1      34.497  29.802  27.412  1.00  0.00     0.021 C 
BRANCH  28  29
ATOM     29  C   UNL A   1      35.713  30.433  28.085  1.00  0.00     0.116 C 
BRANCH  29  30
ATOM     30  N   UNL A   1      35.624  30.378  29.534  1.00  0.00    -0.352 N 
ATOM     31  C   UNL A   1      36.541  29.912  30.438  1.00  0.00     0.251 C 
ATOM     32  H   UNL A   1      34.787  30.725  29.920  1.00  0.00     0.163 HD
ATOM     33  O   UNL A   1      36.223  29.754  31.612  1.00  0.00    -0.269 OA
BRANCH  31  34
ATOM     34  C   UNL A   1      37.911  29.592  29.988  1.00  0.00     0.039 A 
ATOM     35  C   UNL A   1      38.835  29.116  30.920  1.00  0.00     0.014 A 
ATOM     36  C   UNL A   1      38.290  29.787  28.656  1.00  0.00     0.014 A 
ATOM     37  C   UNL A   1      40.135  28.812  30.510  1.00  0.00     0.010 A 
ATOM     38  C   UNL A   1      39.566  29.420  28.236  1.00  0.00     0.010 A 
ATOM     39  C   UNL A   1      40.508  28.952  29.163  1.00  0.00    -0.014 A 
BRANCH  39  40
ATOM     40  C   UNL A   1      41.901  28.666  28.728  1.00  0.00     0.031 A 
ATOM     41  C   UNL A   1      42.276  27.275  28.285  1.00  0.00     0.074 A 
ATOM     42  C   UNL A   1      42.825  29.647  28.736  1.00  0.00     0.049 A 
ATOM     43  N   UNL A   1      43.436  26.823  27.882  1.00  0.00    -0.248 NA
ATOM     44  C   UNL A   1      41.214  26.254  28.312  1.00  0.00     0.031 C 
ATOM     45  C   UNL A   1      42.595  31.028  29.167  1.00  0.00     0.029 A 
ATOM     46  N   UNL A   1      44.147  29.634  28.366  1.00  0.00    -0.354 N 
ATOM     47  C   UNL A   1      43.242  25.474  27.607  1.00  0.00     0.074 A 
ATOM     48  C   UNL A   1      41.874  25.163  27.953  1.00  0.00     0.031 C 
ATOM     49  C   UNL A   1      43.726  31.734  29.009  1.00  0.00     0.029 A 
ATOM     50  C   UNL A   1      44.773  30.852  28.503  1.00  0.00     0.049 A 
ATOM     51  H   UNL A   1      44.605  28.828  28.034  1.00  0.00     0.167 HD
ATOM     52  C   UNL A   1      44.113  24.580  27.082  1.00  0.00     0.031 A 
ATOM     53  C   UNL A   1      46.046  31.214  28.252  1.00  0.00     0.031 A 
ATOM     54  C   UNL A   1      45.473  24.890  26.729  1.00  0.00     0.049 A 
ATOM     55  C   UNL A   1      47.004  30.186  27.703  1.00  0.00     0.074 A 
ATOM     56  C   UNL A   1      46.430  24.057  26.176  1.00  0.00     0.029 A 
ATOM     57  N   UNL A   1      46.068  26.133  26.885  1.00  0.00    -0.354 N 
ATOM     58  N   UNL A   1      46.787  28.925  27.411  1.00  0.00    -0.248 NA
ATOM     59  C   UNL A   1      48.375  30.639  27.428  1.00  0.00     0.031 C 
ATOM     60  C   UNL A   1      47.618  24.784  26.041  1.00  0.00     0.029 A 
ATOM     61  C   UNL A   1      47.379  26.087  26.444  1.00  0.00     0.049 A 
ATOM     62  H   UNL A   1      45.623  26.930  27.254  1.00  0.00     0.167 HD
ATOM     63  C   UNL A   1      47.981  28.452  26.873  1.00  0.00     0.074 A 
ATOM     64  C   UNL A   1      48.907  29.564  26.866  1.00  0.00     0.031 C 
ATOM     65  C   UNL A   1      48.282  27.209  26.422  1.00  0.00     0.031 A 
BRANCH  52  66
ATOM     66  C   UNL A   1      43.618  23.179  26.833  1.00  0.00    -0.014 A 
ATOM     67  C   UNL A   1      43.786  22.570  25.575  1.00  0.00     0.010 A 
ATOM     68  C   UNL A   1      43.047  22.436  27.881  1.00  0.00     0.010 A 
ATOM     69  C   UNL A   1      43.376  21.252  25.364  1.00  0.00     0.020 A 
ATOM     70  C   UNL A   1      42.663  21.105  27.683  1.00  0.00     0.020 A 
ATOM     71  C   UNL A   1      42.822  20.526  26.422  1.00  0.00     0.054 A 
BRANCH  71  72
ATOM     72  S   UNL A   1      42.359  18.796  26.134  1.00  0.00     0.124 S 
ATOM     73  O   UNL A   1      42.539  18.211  27.461  1.00  0.00    -0.237 OA
ATOM     74  O   UNL A   1      40.975  18.909  25.680  1.00  0.00    -0.237 OA
ATOM     75  O   UNL A   1      43.310  18.345  25.121  1.00  0.00    -0.744 OA
ENDBRANCH  71  72
ENDBRANCH  52  66
BRANCH  53  76
ATOM     76  C   UNL A   1      46.507  32.608  28.513  1.00  0.00    -0.014 A 
ATOM     77  C   UNL A   1      47.005  32.980  29.776  1.00  0.00     0.010 A 
ATOM     78  C   UNL A   1      46.392  33.590  27.512  1.00  0.00     0.010 A 
ATOM     79  C   UNL A   1      47.322  34.315  30.050  1.00  0.00     0.020 A 
ATOM     80  C   UNL A   1      46.746  34.918  27.770  1.00  0.00     0.020 A 
ATOM     81  C   UNL A   1      47.182  35.276  29.046  1.00  0.00     0.054 A 
BRANCH  81  82
ATOM     82  S   UNL A   1      47.584  37.004  29.425  1.00  0.00     0.124 S 
ATOM     83  O   UNL A   1      47.724  36.969  30.878  1.00  0.00    -0.237 OA
ATOM     84  O   UNL A   1      48.819  37.213  28.675  1.00  0.00    -0.237 OA
ATOM     85  O   UNL A   1      46.427  37.741  28.924  1.00  0.00    -0.744 OA
ENDBRANCH  81  82
ENDBRANCH  53  76
BRANCH  65  86
ATOM     86  C   UNL A   1      49.644  27.004  25.807  1.00  0.00    -0.014 A 
ATOM     87  C   UNL A   1      50.744  26.574  26.567  1.00  0.00     0.010 A 
ATOM     88  C   UNL A   1      49.810  27.222  24.426  1.00  0.00     0.010 A 
ATOM     89  C   UNL A   1      51.998  26.419  25.970  1.00  0.00     0.020 A 
ATOM     90  C   UNL A   1      51.053  27.034  23.818  1.00  0.00     0.020 A 
ATOM     91  C   UNL A   1      52.145  26.654  24.599  1.00  0.00     0.054 A 
BRANCH  91  92
ATOM     92  S   UNL A   1      53.779  26.434  23.845  1.00  0.00     0.124 S 
ATOM     93  O   UNL A   1      53.435  26.120  22.461  1.00  0.00    -0.237 OA
ATOM     94  O   UNL A   1      54.408  27.736  24.057  1.00  0.00    -0.237 OA
ATOM     95  O   UNL A   1      54.367  25.334  24.606  1.00  0.00    -0.744 OA
ENDBRANCH  91  92
ENDBRANCH  65  86
ENDBRANCH  39  40
ENDBRANCH  31  34
ENDBRANCH  29  30
ENDBRANCH  28  29
ENDBRANCH   1  28
TORSDOF 19
ENDMDL
MODEL 2
REMARK VINA RESULT:     -12.2      3.757      9.557
REMARK SMILES CS(=O)(=O)N1C[C@@H]2CN(C(=O)c3ccco3)C[C@]2(C(=O)NCCCCCCNC(=O)c2ccc(-c3c4nc(c(-c5ccc(S(=O)(=O)[O-])cc5)c5ccc([nH]5)c(-c5ccc(S(=O)(=O)[O-])cc5)c5nc(c(-c6ccc(S(=O)(=O)[O-])cc6)c6ccc3[nH]6)C=C5)C=C4)cc2)C1
REMARK SMILES IDX 25 1 24 2 23 3 22 4 21 5 19 6 20 7 18 9 5 10 6 11 91 12 7 13
REMARK SMILES IDX 8 14 17 15 9 16 2 17 1 18 3 19 4 20 10 21 11 22 12 23 13 24
REMARK SMILES IDX 16 25 14 26 15 27 26 28 27 29 28 30 29 31 30 33 31 34 32 35
REMARK SMILES IDX 90 36 33 37 89 38 34 39 35 40 36 41 83 42 37 43 88 44 82 45
REMARK SMILES IDX 84 46 38 47 87 48 81 49 80 50 39 52 69 53 50 54 68 55 51 56
REMARK SMILES IDX 54 57 67 58 85 59 52 60 53 61 66 63 86 64 55 65 40 66 41 67
REMARK SMILES IDX 49 68 42 69 48 70 43 71 44 72 45 73 46 74 47 75 70 76 71 77
REMARK SMILES IDX 79 78 72 79 78 80 73 81 74 82 75 83 76 84 77 85 56 86 57 87
REMARK SMILES IDX 65 88 58 89 64 90 59 91 60 92 61 93 62 94 63 95
REMARK H PARENT 21 8 28 32 84 51 54 62
REMARK Flexibility Score: inf
ROOT
ATOM      1  C   UNL A   1      33.632  27.959  23.891  1.00  0.00     0.002 C 
ENDROOT
BRANCH   1   2
ATOM      2  C   UNL A   1      33.711  26.435  23.807  1.00  0.00     0.002 C 
BRANCH   2   3
ATOM      3  C   UNL A   1      33.173  25.862  22.497  1.00  0.00     0.021 C 
BRANCH   3   4
ATOM      4  C   UNL A   1      33.736  24.489  22.136  1.00  0.00     0.116 C 
BRANCH   4   5
ATOM      5  N   UNL A   1      32.643  23.542  22.044  1.00  0.00    -0.356 N 
ATOM      6  C   UNL A   1      32.359  22.556  22.954  1.00  0.00     0.229 C 
ATOM      7  O   UNL A   1      31.713  21.576  22.580  1.00  0.00    -0.274 OA
ATOM      8  H   UNL A   1      32.052  23.614  21.260  1.00  0.00     0.163 HD
BRANCH   6   9
ATOM      9  C   UNL A   1      32.837  22.803  24.411  1.00  0.00     0.086 C 
ATOM     10  N   UNL A   1      31.447  24.390  25.738  1.00  0.00    -0.201 NA
ATOM     11  C   UNL A   1      32.512  23.978  26.613  1.00  0.00     0.108 C 
ATOM     12  C   UNL A   1      31.381  23.492  24.576  1.00  0.00     0.121 C 
ATOM     13  C   UNL A   1      32.859  22.647  25.984  1.00  0.00     0.042 C 
ATOM     14  C   UNL A   1      34.240  22.177  26.372  1.00  0.00     0.126 C 
ATOM     15  C   UNL A   1      33.430  21.294  24.346  1.00  0.00     0.138 C 
ATOM     16  N   UNL A   1      34.557  21.303  25.285  1.00  0.00    -0.334 N 
BRANCH  10  17
ATOM     17  S   UNL A   1      30.230  25.429  26.168  1.00  0.00     0.211 S 
ATOM     18  C   UNL A   1      29.640  26.010  24.590  1.00  0.00     0.176 C 
ATOM     19  O   UNL A   1      30.838  26.560  26.839  1.00  0.00    -0.213 OA
ATOM     20  O   UNL A   1      29.177  24.661  26.791  1.00  0.00    -0.213 OA
ENDBRANCH  10  17
BRANCH  16  21
ATOM     21  C   UNL A   1      35.869  20.864  25.135  1.00  0.00     0.289 C 
ATOM     22  O   UNL A   1      36.085  19.690  24.830  1.00  0.00    -0.265 OA
BRANCH  21  23
ATOM     23  C   UNL A   1      36.956  21.763  25.455  1.00  0.00     0.191 A 
ATOM     24  C   UNL A   1      38.233  21.474  25.905  1.00  0.00     0.056 A 
ATOM     25  O   UNL A   1      36.829  23.113  25.279  1.00  0.00    -0.459 OA
ATOM     26  C   UNL A   1      38.909  22.708  26.038  1.00  0.00     0.043 A 
ATOM     27  C   UNL A   1      38.026  23.670  25.610  1.00  0.00     0.196 A 
ENDBRANCH  21  23
ENDBRANCH  16  21
ENDBRANCH   6   9
ENDBRANCH   4   5
ENDBRANCH   3   4
ENDBRANCH   2   3
ENDBRANCH   1   2
BRANCH   1  28
ATOM     28  C   UNL A   1      33.021  28.501  25.187  1.00  0.00     0.021 C 
BRANCH  28  29
ATOM     29  C   UNL A   1      34.024  28.783  26.302  1.00  0.00     0.116 C 
BRANCH  29  30
ATOM     30  N   UNL A   1      33.763  30.050  26.963  1.00  0.00    -0.352 N 
ATOM     31  C   UNL A   1      34.512  30.701  27.908  1.00  0.00     0.251 C 
ATOM     32  H   UNL A   1      32.931  30.504  26.696  1.00  0.00     0.163 HD
ATOM     33  O   UNL A   1      34.045  31.663  28.507  1.00  0.00    -0.269 OA
BRANCH  31  34
ATOM     34  C   UNL A   1      35.880  30.231  28.205  1.00  0.00     0.039 A 
ATOM     35  C   UNL A   1      36.148  29.677  29.457  1.00  0.00     0.014 A 
ATOM     36  C   UNL A   1      36.902  30.362  27.258  1.00  0.00     0.014 A 
ATOM     37  C   UNL A   1      37.438  29.232  29.753  1.00  0.00     0.010 A 
ATOM     38  C   UNL A   1      38.170  29.856  27.530  1.00  0.00     0.010 A 
ATOM     39  C   UNL A   1      38.457  29.307  28.789  1.00  0.00    -0.014 A 
BRANCH  39  40
ATOM     40  C   UNL A   1      39.841  28.870  29.112  1.00  0.00     0.031 A 
ATOM     41  C   UNL A   1      40.773  29.808  29.835  1.00  0.00     0.074 A 
ATOM     42  C   UNL A   1      40.260  27.639  28.755  1.00  0.00     0.049 A 
ATOM     43  N   UNL A   1      42.017  29.618  30.196  1.00  0.00    -0.248 NA
ATOM     44  C   UNL A   1      40.246  31.138  30.184  1.00  0.00     0.031 C 
ATOM     45  C   UNL A   1      39.463  26.646  28.030  1.00  0.00     0.029 A 
ATOM     46  N   UNL A   1      41.464  27.010  28.958  1.00  0.00    -0.354 N 
ATOM     47  C   UNL A   1      42.416  30.798  30.814  1.00  0.00     0.074 A 
ATOM     48  C   UNL A   1      41.309  31.722  30.719  1.00  0.00     0.031 C 
ATOM     49  C   UNL A   1      40.188  25.526  27.876  1.00  0.00     0.029 A 
ATOM     50  C   UNL A   1      41.511  25.731  28.455  1.00  0.00     0.049 A 
ATOM     51  H   UNL A   1      42.221  27.435  29.421  1.00  0.00     0.167 HD
ATOM     52  C   UNL A   1      43.586  31.079  31.435  1.00  0.00     0.031 A 
ATOM     53  C   UNL A   1      42.511  24.827  28.457  1.00  0.00     0.031 A 
ATOM     54  C   UNL A   1      44.686  30.158  31.537  1.00  0.00     0.049 A 
ATOM     55  C   UNL A   1      43.817  25.182  29.123  1.00  0.00     0.074 A 
ATOM     56  C   UNL A   1      45.908  30.342  32.160  1.00  0.00     0.029 A 
ATOM     57  N   UNL A   1      44.695  28.874  31.013  1.00  0.00    -0.354 N 
ATOM     58  N   UNL A   1      44.157  26.290  29.738  1.00  0.00    -0.248 NA
ATOM     59  C   UNL A   1      44.866  24.152  29.115  1.00  0.00     0.031 C 
ATOM     60  C   UNL A   1      46.674  29.187  31.973  1.00  0.00     0.029 A 
ATOM     61  C   UNL A   1      45.902  28.259  31.294  1.00  0.00     0.049 A 
ATOM     62  H   UNL A   1      43.952  28.461  30.516  1.00  0.00     0.167 HD
ATOM     63  C   UNL A   1      45.440  26.069  30.231  1.00  0.00     0.074 A 
ATOM     64  C   UNL A   1      45.806  24.720  29.857  1.00  0.00     0.031 C 
ATOM     65  C   UNL A   1      46.244  26.906  30.934  1.00  0.00     0.031 A 
BRANCH  52  66
ATOM     66  C   UNL A   1      43.734  32.435  32.076  1.00  0.00    -0.014 A 
ATOM     67  C   UNL A   1      44.257  33.520  31.349  1.00  0.00     0.010 A 
ATOM     68  C   UNL A   1      43.278  32.648  33.389  1.00  0.00     0.010 A 
ATOM     69  C   UNL A   1      44.341  34.787  31.929  1.00  0.00     0.020 A 
ATOM     70  C   UNL A   1      43.331  33.923  33.962  1.00  0.00     0.020 A 
ATOM     71  C   UNL A   1      43.871  34.982  33.230  1.00  0.00     0.054 A 
BRANCH  71  72
ATOM     72  S   UNL A   1      43.934  36.653  33.931  1.00  0.00     0.124 S 
ATOM     73  O   UNL A   1      45.263  36.677  34.538  1.00  0.00    -0.237 OA
ATOM     74  O   UNL A   1      43.767  37.500  32.752  1.00  0.00    -0.237 OA
ATOM     75  O   UNL A   1      42.819  36.678  34.875  1.00  0.00    -0.744 OA
ENDBRANCH  71  72
ENDBRANCH  52  66
BRANCH  53  76
ATOM     76  C   UNL A   1      42.334  23.494  27.810  1.00  0.00    -0.014 A 
ATOM     77  C   UNL A   1      41.748  22.424  28.511  1.00  0.00     0.010 A 
ATOM     78  C   UNL A   1      42.806  23.274  26.503  1.00  0.00     0.010 A 
ATOM     79  C   UNL A   1      41.693  21.147  27.942  1.00  0.00     0.020 A 
ATOM     80  C   UNL A   1      42.717  22.008  25.916  1.00  0.00     0.020 A 
ATOM     81  C   UNL A   1      42.186  20.947  26.650  1.00  0.00     0.054 A 
BRANCH  81  82
ATOM     82  S   UNL A   1      42.121  19.281  25.936  1.00  0.00     0.124 S 
ATOM     83  O   UNL A   1      42.956  19.428  24.747  1.00  0.00    -0.237 OA
ATOM     84  O   UNL A   1      42.678  18.457  27.004  1.00  0.00    -0.237 OA
ATOM     85  O   UNL A   1      40.697  19.075  25.679  1.00  0.00    -0.744 OA
ENDBRANCH  81  82
ENDBRANCH  53  76
BRANCH  65  86
ATOM     86  C   UNL A   1      47.564  26.361  31.415  1.00  0.00    -0.014 A 
ATOM     87  C   UNL A   1      47.678  25.650  32.622  1.00  0.00     0.010 A 
ATOM     88  C   UNL A   1      48.711  26.545  30.619  1.00  0.00     0.010 A 
ATOM     89  C   UNL A   1      48.923  25.181  33.051  1.00  0.00     0.020 A 
ATOM     90  C   UNL A   1      49.950  26.046  31.026  1.00  0.00     0.020 A 
ATOM     91  C   UNL A   1      50.052  25.386  32.250  1.00  0.00     0.054 A 
BRANCH  91  92
ATOM     92  S   UNL A   1      51.654  24.757  32.822  1.00  0.00     0.124 S 
ATOM     93  O   UNL A   1      51.366  23.340  33.030  1.00  0.00    -0.237 OA
ATOM     94  O   UNL A   1      52.537  25.061  31.699  1.00  0.00    -0.237 OA
ATOM     95  O   UNL A   1      51.914  25.525  34.037  1.00  0.00    -0.744 OA
ENDBRANCH  91  92
ENDBRANCH  65  86
ENDBRANCH  39  40
ENDBRANCH  31  34
ENDBRANCH  29  30
ENDBRANCH  28  29
ENDBRANCH   1  28
TORSDOF 19
ENDMDL
MODEL 3
REMARK VINA RESULT:     -12.1      5.776     10.384
REMARK SMILES CS(=O)(=O)N1C[C@@H]2CN(C(=O)c3ccco3)C[C@]2(C(=O)NCCCCCCNC(=O)c2ccc(-c3c4nc(c(-c5ccc(S(=O)(=O)[O-])cc5)c5ccc([nH]5)c(-c5ccc(S(=O)(=O)[O-])cc5)c5nc(c(-c6ccc(S(=O)(=O)[O-])cc6)c6ccc3[nH]6)C=C5)C=C4)cc2)C1
REMARK SMILES IDX 25 1 24 2 23 3 22 4 21 5 19 6 20 7 18 9 5 10 6 11 91 12 7 13
REMARK SMILES IDX 8 14 17 15 9 16 2 17 1 18 3 19 4 20 10 21 11 22 12 23 13 24
REMARK SMILES IDX 16 25 14 26 15 27 26 28 27 29 28 30 29 31 30 33 31 34 32 35
REMARK SMILES IDX 90 36 33 37 89 38 34 39 35 40 36 41 83 42 37 43 88 44 82 45
REMARK SMILES IDX 84 46 38 47 87 48 81 49 80 50 39 52 69 53 50 54 68 55 51 56
REMARK SMILES IDX 54 57 67 58 85 59 52 60 53 61 66 63 86 64 55 65 40 66 41 67
REMARK SMILES IDX 49 68 42 69 48 70 43 71 44 72 45 73 46 74 47 75 70 76 71 77
REMARK SMILES IDX 79 78 72 79 78 80 73 81 74 82 75 83 76 84 77 85 56 86 57 87
REMARK SMILES IDX 65 88 58 89 64 90 59 91 60 92 61 93 62 94 63 95
REMARK H PARENT 21 8 28 32 84 51 54 62
REMARK Flexibility Score: inf
ROOT
ATOM      1  C   UNL A   1      31.410  30.415  26.561  1.00  0.00     0.002 C 
ENDROOT
BRANCH   1   2
ATOM      2  C   UNL A   1      32.714  29.626  26.457  1.00  0.00     0.002 C 
BRANCH   2   3
ATOM      3  C   UNL A   1      32.729  28.348  27.295  1.00  0.00     0.021 C 
BRANCH   3   4
ATOM      4  C   UNL A   1      32.790  27.062  26.475  1.00  0.00     0.116 C 
BRANCH   4   5
ATOM      5  N   UNL A   1      31.669  26.219  26.839  1.00  0.00    -0.356 N 
ATOM      6  C   UNL A   1      30.752  25.686  25.969  1.00  0.00     0.229 C 
ATOM      7  O   UNL A   1      29.643  25.369  26.403  1.00  0.00    -0.274 OA
ATOM      8  H   UNL A   1      31.556  26.011  27.794  1.00  0.00     0.163 HD
BRANCH   6   9
ATOM      9  C   UNL A   1      31.229  25.474  24.507  1.00  0.00     0.086 C 
ATOM     10  N   UNL A   1      31.981  23.164  23.952  1.00  0.00    -0.201 NA
ATOM     11  C   UNL A   1      32.151  23.930  22.746  1.00  0.00     0.108 C 
ATOM     12  C   UNL A   1      31.137  23.906  24.899  1.00  0.00     0.121 C 
ATOM     13  C   UNL A   1      31.138  25.025  22.994  1.00  0.00     0.042 C 
ATOM     14  C   UNL A   1      31.398  26.244  22.143  1.00  0.00     0.126 C 
ATOM     15  C   UNL A   1      30.190  26.660  24.121  1.00  0.00     0.138 C 
ATOM     16  N   UNL A   1      30.760  27.267  22.914  1.00  0.00    -0.334 N 
BRANCH  10  17
ATOM     17  S   UNL A   1      32.317  21.547  24.089  1.00  0.00     0.211 S 
ATOM     18  C   UNL A   1      34.061  21.542  24.455  1.00  0.00     0.176 C 
ATOM     19  O   UNL A   1      32.155  20.954  22.777  1.00  0.00    -0.213 OA
ATOM     20  O   UNL A   1      31.611  21.033  25.240  1.00  0.00    -0.213 OA
ENDBRANCH  10  17
BRANCH  16  21
ATOM     21  C   UNL A   1      31.003  28.600  22.595  1.00  0.00     0.289 C 
ATOM     22  O   UNL A   1      32.164  29.005  22.522  1.00  0.00    -0.265 OA
BRANCH  21  23
ATOM     23  C   UNL A   1      29.887  29.511  22.468  1.00  0.00     0.191 A 
ATOM     24  C   UNL A   1      29.197  30.198  23.452  1.00  0.00     0.056 A 
ATOM     25  O   UNL A   1      29.390  29.851  21.241  1.00  0.00    -0.459 OA
ATOM     26  C   UNL A   1      28.213  30.973  22.797  1.00  0.00     0.043 A 
ATOM     27  C   UNL A   1      28.396  30.756  21.452  1.00  0.00     0.196 A 
ENDBRANCH  21  23
ENDBRANCH  16  21
ENDBRANCH   6   9
ENDBRANCH   4   5
ENDBRANCH   3   4
ENDBRANCH   2   3
ENDBRANCH   1   2
BRANCH   1  28
ATOM     28  C   UNL A   1      31.572  31.938  26.500  1.00  0.00     0.021 C 
BRANCH  28  29
ATOM     29  C   UNL A   1      32.762  32.489  27.281  1.00  0.00     0.116 C 
BRANCH  29  30
ATOM     30  N   UNL A   1      32.586  33.888  27.627  1.00  0.00    -0.352 N 
ATOM     31  C   UNL A   1      33.213  34.622  28.599  1.00  0.00     0.251 C 
ATOM     32  H   UNL A   1      31.924  34.378  27.087  1.00  0.00     0.163 HD
ATOM     33  O   UNL A   1      32.800  35.741  28.888  1.00  0.00    -0.269 OA
BRANCH  31  34
ATOM     34  C   UNL A   1      34.382  34.055  29.302  1.00  0.00     0.039 A 
ATOM     35  C   UNL A   1      35.662  34.460  28.921  1.00  0.00     0.014 A 
ATOM     36  C   UNL A   1      34.214  33.106  30.316  1.00  0.00     0.014 A 
ATOM     37  C   UNL A   1      36.776  33.929  29.574  1.00  0.00     0.010 A 
ATOM     38  C   UNL A   1      35.322  32.630  31.011  1.00  0.00     0.010 A 
ATOM     39  C   UNL A   1      36.616  33.018  30.632  1.00  0.00    -0.014 A 
BRANCH  39  40
ATOM     40  C   UNL A   1      37.799  32.422  31.305  1.00  0.00     0.031 A 
ATOM     41  C   UNL A   1      38.239  32.946  32.649  1.00  0.00     0.074 A 
ATOM     42  C   UNL A   1      38.479  31.420  30.713  1.00  0.00     0.049 A 
ATOM     43  N   UNL A   1      39.250  32.569  33.390  1.00  0.00    -0.248 NA
ATOM     44  C   UNL A   1      37.452  34.049  33.227  1.00  0.00     0.031 C 
ATOM     45  C   UNL A   1      38.170  30.841  29.404  1.00  0.00     0.029 A 
ATOM     46  N   UNL A   1      39.572  30.706  31.139  1.00  0.00    -0.354 N 
ATOM     47  C   UNL A   1      39.216  33.382  34.518  1.00  0.00     0.074 A 
ATOM     48  C   UNL A   1      38.130  34.318  34.334  1.00  0.00     0.031 C 
ATOM     49  C   UNL A   1      39.033  29.843  29.148  1.00  0.00     0.029 A 
ATOM     50  C   UNL A   1      39.979  29.735  30.254  1.00  0.00     0.049 A 
ATOM     51  H   UNL A   1      40.021  30.873  31.999  1.00  0.00     0.167 HD
ATOM     52  C   UNL A   1      39.996  33.334  35.624  1.00  0.00     0.031 A 
ATOM     53  C   UNL A   1      41.001  28.860  30.324  1.00  0.00     0.031 A 
ATOM     54  C   UNL A   1      41.071  32.398  35.812  1.00  0.00     0.049 A 
ATOM     55  C   UNL A   1      41.876  28.855  31.552  1.00  0.00     0.074 A 
ATOM     56  C   UNL A   1      41.910  32.258  36.904  1.00  0.00     0.029 A 
ATOM     57  N   UNL A   1      41.452  31.433  34.891  1.00  0.00    -0.354 N 
ATOM     58  N   UNL A   1      41.800  29.606  32.626  1.00  0.00    -0.248 NA
ATOM     59  C   UNL A   1      42.964  27.866  31.587  1.00  0.00     0.031 C 
ATOM     60  C   UNL A   1      42.828  31.241  36.625  1.00  0.00     0.029 A 
ATOM     61  C   UNL A   1      42.515  30.700  35.389  1.00  0.00     0.049 A 
ATOM     62  H   UNL A   1      41.027  31.290  34.014  1.00  0.00     0.167 HD
ATOM     63  C   UNL A   1      42.797  29.145  33.481  1.00  0.00     0.074 A 
ATOM     64  C   UNL A   1      43.450  28.043  32.806  1.00  0.00     0.031 C 
ATOM     65  C   UNL A   1      43.141  29.591  34.715  1.00  0.00     0.031 A 
BRANCH  52  66
ATOM     66  C   UNL A   1      39.702  34.310  36.733  1.00  0.00    -0.014 A 
ATOM     67  C   UNL A   1      39.009  33.899  37.887  1.00  0.00     0.010 A 
ATOM     68  C   UNL A   1      40.186  35.628  36.660  1.00  0.00     0.010 A 
ATOM     69  C   UNL A   1      38.788  34.792  38.937  1.00  0.00     0.020 A 
ATOM     70  C   UNL A   1      39.993  36.517  37.723  1.00  0.00     0.020 A 
ATOM     71  C   UNL A   1      39.287  36.094  38.851  1.00  0.00     0.054 A 
BRANCH  71  72
ATOM     72  S   UNL A   1      39.040  37.210  40.259  1.00  0.00     0.124 S 
ATOM     73  O   UNL A   1      40.401  37.361  40.768  1.00  0.00    -0.237 OA
ATOM     74  O   UNL A   1      38.472  38.399  39.626  1.00  0.00    -0.237 OA
ATOM     75  O   UNL A   1      38.127  36.475  41.131  1.00  0.00    -0.744 OA
ENDBRANCH  71  72
ENDBRANCH  52  66
BRANCH  53  76
ATOM     76  C   UNL A   1      41.267  27.909  29.206  1.00  0.00    -0.014 A 
ATOM     77  C   UNL A   1      40.979  26.537  29.341  1.00  0.00     0.010 A 
ATOM     78  C   UNL A   1      41.867  28.363  28.018  1.00  0.00     0.010 A 
ATOM     79  C   UNL A   1      41.340  25.633  28.336  1.00  0.00     0.020 A 
ATOM     80  C   UNL A   1      42.194  27.468  26.995  1.00  0.00     0.020 A 
ATOM     81  C   UNL A   1      41.953  26.106  27.173  1.00  0.00     0.054 A 
BRANCH  81  82
ATOM     82  S   UNL A   1      42.428  24.916  25.889  1.00  0.00     0.124 S 
ATOM     83  O   UNL A   1      42.548  25.772  24.713  1.00  0.00    -0.237 OA
ATOM     84  O   UNL A   1      43.681  24.373  26.408  1.00  0.00    -0.237 OA
ATOM     85  O   UNL A   1      41.312  23.973  25.867  1.00  0.00    -0.744 OA
ENDBRANCH  81  82
ENDBRANCH  53  76
BRANCH  65  86
ATOM     86  C   UNL A   1      44.218  28.837  35.451  1.00  0.00    -0.014 A 
ATOM     87  C   UNL A   1      43.928  27.711  36.242  1.00  0.00     0.010 A 
ATOM     88  C   UNL A   1      45.557  29.255  35.321  1.00  0.00     0.010 A 
ATOM     89  C   UNL A   1      44.948  27.051  36.932  1.00  0.00     0.020 A 
ATOM     90  C   UNL A   1      46.583  28.576  35.980  1.00  0.00     0.020 A 
ATOM     91  C   UNL A   1      46.270  27.491  36.799  1.00  0.00     0.054 A 
BRANCH  91  92
ATOM     92  S   UNL A   1      47.578  26.609  37.694  1.00  0.00     0.124 S 
ATOM     93  O   UNL A   1      48.769  26.983  36.936  1.00  0.00    -0.237 OA
ATOM     94  O   UNL A   1      47.484  27.176  39.037  1.00  0.00    -0.237 OA
ATOM     95  O   UNL A   1      47.186  25.206  37.587  1.00  0.00    -0.744 OA
ENDBRANCH  91  92
ENDBRANCH  65  86
ENDBRANCH  39  40
ENDBRANCH  31  34
ENDBRANCH  29  30
ENDBRANCH  28  29
ENDBRANCH   1  28
TORSDOF 19
ENDMDL
