MODEL 1
REMARK VINA RESULT:     -10.0      0.000      0.000
REMARK SMILES C[C@@H](O)C[C@H](C(=O)NCCCCCCNC(=O)c1ccc(-c2c3nc(c(-c4ccc(S(=O)(=O)[O-])cc4)c4ccc([nH]4)c(-c4ccc(S(=O)(=O)[O-])cc4)c4nc(c(-c5ccc(S(=O)(=O)[O-])cc5)c5ccc2[nH]5)C=C4)C=C3)cc1)c1ccc(Br)cc1
REMARK SMILES IDX 11 1 10 2 9 3 8 4 6 5 7 6 5 8 4 9 2 10 1 11 3 12 78 14 79 15
REMARK SMILES IDX 84 16 80 17 83 18 81 19 82 20 12 21 13 22 14 23 15 24 16 25
REMARK SMILES IDX 17 27 18 28 19 29 77 30 20 31 76 32 21 33 22 34 23 35 70 36
REMARK SMILES IDX 24 37 75 38 69 39 71 40 25 41 74 42 68 43 67 44 26 46 56 47
REMARK SMILES IDX 37 48 55 49 38 50 41 51 54 52 72 53 39 54 40 55 53 57 73 58
REMARK SMILES IDX 42 59 27 60 28 61 36 62 29 63 35 64 30 65 31 66 32 67 33 68
REMARK SMILES IDX 34 69 57 70 58 71 66 72 59 73 65 74 60 75 61 76 62 77 63 78
REMARK SMILES IDX 64 79 43 80 44 81 52 82 45 83 51 84 46 85 47 86 48 87 49 88
REMARK SMILES IDX 50 89
REMARK H PARENT 8 7 3 13 15 26 71 45 41 56
REMARK Flexibility Score: inf
ROOT
ATOM      1  C   UNL A   1      34.141  24.024  22.812  1.00  0.00     0.002 C 
ENDROOT
BRANCH   1   2
ATOM      2  C   UNL A   1      33.237  25.143  23.334  1.00  0.00     0.021 C 
BRANCH   2   3
ATOM      3  C   UNL A   1      32.087  25.501  22.390  1.00  0.00     0.116 C 
BRANCH   3   4
ATOM      4  N   UNL A   1      30.850  25.666  23.122  1.00  0.00    -0.356 N 
ATOM      5  C   UNL A   1      30.246  26.766  23.647  1.00  0.00     0.227 C 
ATOM      6  O   UNL A   1      29.213  26.536  24.289  1.00  0.00    -0.274 OA
ATOM      7  H   UNL A   1      30.354  24.829  23.267  1.00  0.00     0.163 HD
BRANCH   5   8
ATOM      8  C   UNL A   1      30.712  28.220  23.377  1.00  0.00     0.111 C 
BRANCH   8   9
ATOM      9  C   UNL A   1      29.454  29.103  23.125  1.00  0.00     0.049 C 
BRANCH   9  10
ATOM     10  C   UNL A   1      29.391  29.957  21.853  1.00  0.00     0.112 C 
ATOM     11  C   UNL A   1      28.852  31.364  22.047  1.00  0.00     0.038 C 
BRANCH  10  12
ATOM     12  O   UNL A   1      30.725  30.063  21.342  1.00  0.00    -0.393 OA
ATOM     13  H   UNL A   1      31.230  30.691  21.882  1.00  0.00     0.210 HD
ENDBRANCH  10  12
ENDBRANCH   9  10
ENDBRANCH   8   9
BRANCH   8  14
ATOM     14  C   UNL A   1      31.656  28.825  24.406  1.00  0.00    -0.035 A 
ATOM     15  C   UNL A   1      32.938  28.309  24.635  1.00  0.00     0.006 A 
ATOM     16  C   UNL A   1      31.220  29.919  25.182  1.00  0.00     0.006 A 
ATOM     17  C   UNL A   1      33.765  28.877  25.608  1.00  0.00     0.016 A 
ATOM     18  C   UNL A   1      32.049  30.492  26.145  1.00  0.00     0.016 A 
ATOM     19  C   UNL A   1      33.319  29.967  26.354  1.00  0.00     0.017 A 
ATOM     20  Br  UNL A   1      34.446  30.738  27.658  1.00  0.00    -0.051 Br
ENDBRANCH   8  14
ENDBRANCH   5   8
ENDBRANCH   3   4
ENDBRANCH   2   3
ENDBRANCH   1   2
BRANCH   1  21
ATOM     21  C   UNL A   1      34.886  23.241  23.898  1.00  0.00     0.002 C 
BRANCH  21  22
ATOM     22  C   UNL A   1      36.410  23.392  23.869  1.00  0.00     0.021 C 
BRANCH  22  23
ATOM     23  C   UNL A   1      37.032  23.736  25.220  1.00  0.00     0.116 C 
BRANCH  23  24
ATOM     24  N   UNL A   1      38.077  22.789  25.582  1.00  0.00    -0.352 N 
ATOM     25  C   UNL A   1      39.285  23.021  26.189  1.00  0.00     0.251 C 
ATOM     26  H   UNL A   1      37.890  21.848  25.360  1.00  0.00     0.163 HD
ATOM     27  O   UNL A   1      40.157  22.153  26.180  1.00  0.00    -0.269 OA
BRANCH  25  28
ATOM     28  C   UNL A   1      39.536  24.321  26.842  1.00  0.00     0.039 A 
ATOM     29  C   UNL A   1      39.033  24.549  28.124  1.00  0.00     0.014 A 
ATOM     30  C   UNL A   1      40.279  25.307  26.187  1.00  0.00     0.014 A 
ATOM     31  C   UNL A   1      39.345  25.741  28.783  1.00  0.00     0.010 A 
ATOM     32  C   UNL A   1      40.643  26.463  26.869  1.00  0.00     0.010 A 
ATOM     33  C   UNL A   1      40.192  26.686  28.179  1.00  0.00    -0.014 A 
BRANCH  33  34
ATOM     34  C   UNL A   1      40.663  27.884  28.918  1.00  0.00     0.031 A 
ATOM     35  C   UNL A   1      41.984  27.863  29.638  1.00  0.00     0.074 A 
ATOM     36  C   UNL A   1      39.851  28.956  29.018  1.00  0.00     0.049 A 
ATOM     37  N   UNL A   1      42.512  28.778  30.409  1.00  0.00    -0.248 NA
ATOM     38  C   UNL A   1      42.810  26.652  29.492  1.00  0.00     0.031 C 
ATOM     39  C   UNL A   1      38.526  29.075  28.401  1.00  0.00     0.029 A 
ATOM     40  N   UNL A   1      40.007  30.142  29.692  1.00  0.00    -0.354 N 
ATOM     41  C   UNL A   1      43.714  28.247  30.860  1.00  0.00     0.074 A 
ATOM     42  C   UNL A   1      43.829  26.919  30.298  1.00  0.00     0.031 C 
ATOM     43  C   UNL A   1      37.997  30.267  28.717  1.00  0.00     0.029 A 
ATOM     44  C   UNL A   1      38.917  30.979  29.599  1.00  0.00     0.049 A 
ATOM     45  H   UNL A   1      40.822  30.374  30.193  1.00  0.00     0.167 HD
ATOM     46  C   UNL A   1      44.641  28.819  31.665  1.00  0.00     0.031 A 
ATOM     47  C   UNL A   1      38.669  32.168  30.181  1.00  0.00     0.031 A 
ATOM     48  C   UNL A   1      44.527  30.149  32.205  1.00  0.00     0.049 A 
ATOM     49  C   UNL A   1      39.710  32.769  31.087  1.00  0.00     0.074 A 
ATOM     50  C   UNL A   1      45.457  30.851  32.951  1.00  0.00     0.029 A 
ATOM     51  N   UNL A   1      43.417  30.968  32.074  1.00  0.00    -0.354 N 
ATOM     52  N   UNL A   1      40.892  32.298  31.406  1.00  0.00    -0.248 NA
ATOM     53  C   UNL A   1      39.387  34.060  31.711  1.00  0.00     0.031 C 
ATOM     54  C   UNL A   1      44.880  32.063  33.337  1.00  0.00     0.029 A 
ATOM     55  C   UNL A   1      43.618  32.146  32.773  1.00  0.00     0.049 A 
ATOM     56  H   UNL A   1      42.607  30.745  31.562  1.00  0.00     0.167 HD
ATOM     57  C   UNL A   1      41.458  33.244  32.255  1.00  0.00     0.074 A 
ATOM     58  C   UNL A   1      40.503  34.325  32.377  1.00  0.00     0.031 C 
ATOM     59  C   UNL A   1      42.658  33.215  32.884  1.00  0.00     0.031 A 
BRANCH  46  60
ATOM     60  C   UNL A   1      45.860  28.018  32.035  1.00  0.00    -0.014 A 
ATOM     61  C   UNL A   1      47.048  28.107  31.288  1.00  0.00     0.010 A 
ATOM     62  C   UNL A   1      45.848  27.249  33.214  1.00  0.00     0.010 A 
ATOM     63  C   UNL A   1      48.198  27.430  31.707  1.00  0.00     0.020 A 
ATOM     64  C   UNL A   1      47.002  26.592  33.650  1.00  0.00     0.020 A 
ATOM     65  C   UNL A   1      48.169  26.682  32.890  1.00  0.00     0.054 A 
BRANCH  65  66
ATOM     66  S   UNL A   1      49.695  25.875  33.444  1.00  0.00     0.124 S 
ATOM     67  O   UNL A   1      49.263  24.489  33.603  1.00  0.00    -0.237 OA
ATOM     68  O   UNL A   1      50.608  26.123  32.330  1.00  0.00    -0.237 OA
ATOM     69  O   UNL A   1      50.026  26.570  34.685  1.00  0.00    -0.744 OA
ENDBRANCH  65  66
ENDBRANCH  46  60
BRANCH  47  70
ATOM     70  C   UNL A   1      37.364  32.854  29.964  1.00  0.00    -0.014 A 
ATOM     71  C   UNL A   1      36.265  32.597  30.803  1.00  0.00     0.010 A 
ATOM     72  C   UNL A   1      37.209  33.754  28.893  1.00  0.00     0.010 A 
ATOM     73  C   UNL A   1      35.027  33.197  30.552  1.00  0.00     0.020 A 
ATOM     74  C   UNL A   1      35.983  34.383  28.660  1.00  0.00     0.020 A 
ATOM     75  C   UNL A   1      34.893  34.084  29.479  1.00  0.00     0.054 A 
BRANCH  75  76
ATOM     76  S   UNL A   1      33.282  34.860  29.177  1.00  0.00     0.124 S 
ATOM     77  O   UNL A   1      32.679  33.943  28.216  1.00  0.00    -0.237 OA
ATOM     78  O   UNL A   1      32.682  34.869  30.509  1.00  0.00    -0.237 OA
ATOM     79  O   UNL A   1      33.631  36.178  28.652  1.00  0.00    -0.744 OA
ENDBRANCH  75  76
ENDBRANCH  47  70
BRANCH  59  80
ATOM     80  C   UNL A   1      43.021  34.390  33.752  1.00  0.00    -0.014 A 
ATOM     81  C   UNL A   1      42.741  34.382  35.131  1.00  0.00     0.010 A 
ATOM     82  C   UNL A   1      43.724  35.476  33.201  1.00  0.00     0.010 A 
ATOM     83  C   UNL A   1      43.149  35.446  35.938  1.00  0.00     0.020 A 
ATOM     84  C   UNL A   1      44.160  36.527  34.011  1.00  0.00     0.020 A 
ATOM     85  C   UNL A   1      43.862  36.509  35.374  1.00  0.00     0.054 A 
BRANCH  85  86
ATOM     86  S   UNL A   1      44.445  37.838  36.461  1.00  0.00     0.124 S 
ATOM     87  O   UNL A   1      45.832  37.450  36.701  1.00  0.00    -0.237 OA
ATOM     88  O   UNL A   1      44.260  39.030  35.636  1.00  0.00    -0.237 OA
ATOM     89  O   UNL A   1      43.564  37.748  37.623  1.00  0.00    -0.744 OA
ENDBRANCH  85  86
ENDBRANCH  59  80
ENDBRANCH  33  34
ENDBRANCH  25  28
ENDBRANCH  23  24
ENDBRANCH  22  23
ENDBRANCH  21  22
ENDBRANCH   1  21
TORSDOF 20
ENDMDL
MODEL 2
REMARK VINA RESULT:      -9.2      4.969     10.043
REMARK SMILES C[C@@H](O)C[C@H](C(=O)NCCCCCCNC(=O)c1ccc(-c2c3nc(c(-c4ccc(S(=O)(=O)[O-])cc4)c4ccc([nH]4)c(-c4ccc(S(=O)(=O)[O-])cc4)c4nc(c(-c5ccc(S(=O)(=O)[O-])cc5)c5ccc2[nH]5)C=C4)C=C3)cc1)c1ccc(Br)cc1
REMARK SMILES IDX 11 1 10 2 9 3 8 4 6 5 7 6 5 8 4 9 2 10 1 11 3 12 78 14 79 15
REMARK SMILES IDX 84 16 80 17 83 18 81 19 82 20 12 21 13 22 14 23 15 24 16 25
REMARK SMILES IDX 17 27 18 28 19 29 77 30 20 31 76 32 21 33 22 34 23 35 70 36
REMARK SMILES IDX 24 37 75 38 69 39 71 40 25 41 74 42 68 43 67 44 26 46 56 47
REMARK SMILES IDX 37 48 55 49 38 50 41 51 54 52 72 53 39 54 40 55 53 57 73 58
REMARK SMILES IDX 42 59 27 60 28 61 36 62 29 63 35 64 30 65 31 66 32 67 33 68
REMARK SMILES IDX 34 69 57 70 58 71 66 72 59 73 65 74 60 75 61 76 62 77 63 78
REMARK SMILES IDX 64 79 43 80 44 81 52 82 45 83 51 84 46 85 47 86 48 87 49 88
REMARK SMILES IDX 50 89
REMARK H PARENT 8 7 3 13 15 26 71 45 41 56
REMARK Flexibility Score: inf
ROOT
ATOM      1  C   UNL A   1      34.939  30.345  27.402  1.00  0.00     0.002 C 
ENDROOT
BRANCH   1   2
ATOM      2  C   UNL A   1      34.307  28.976  27.136  1.00  0.00     0.021 C 
BRANCH   2   3
ATOM      3  C   UNL A   1      33.096  29.025  26.202  1.00  0.00     0.116 C 
BRANCH   3   4
ATOM      4  N   UNL A   1      33.500  28.856  24.822  1.00  0.00    -0.356 N 
ATOM      5  C   UNL A   1      33.459  27.781  23.990  1.00  0.00     0.227 C 
ATOM      6  O   UNL A   1      33.964  27.965  22.876  1.00  0.00    -0.274 OA
ATOM      7  H   UNL A   1      33.874  29.668  24.411  1.00  0.00     0.163 HD
BRANCH   5   8
ATOM      8  C   UNL A   1      32.729  26.454  24.327  1.00  0.00     0.111 C 
BRANCH   8   9
ATOM      9  C   UNL A   1      31.629  26.209  23.252  1.00  0.00     0.049 C 
BRANCH   9  10
ATOM     10  C   UNL A   1      30.478  25.248  23.575  1.00  0.00     0.112 C 
ATOM     11  C   UNL A   1      30.784  23.778  23.348  1.00  0.00     0.038 C 
BRANCH  10  12
ATOM     12  O   UNL A   1      30.151  25.422  24.959  1.00  0.00    -0.393 OA
ATOM     13  H   UNL A   1      30.961  25.374  25.491  1.00  0.00     0.210 HD
ENDBRANCH  10  12
ENDBRANCH   9  10
ENDBRANCH   8   9
BRANCH   8  14
ATOM     14  C   UNL A   1      33.615  25.237  24.545  1.00  0.00    -0.035 A 
ATOM     15  C   UNL A   1      34.313  24.626  23.495  1.00  0.00     0.006 A 
ATOM     16  C   UNL A   1      33.715  24.680  25.837  1.00  0.00     0.006 A 
ATOM     17  C   UNL A   1      35.096  23.492  23.733  1.00  0.00     0.016 A 
ATOM     18  C   UNL A   1      34.505  23.556  26.075  1.00  0.00     0.016 A 
ATOM     19  C   UNL A   1      35.192  22.967  25.020  1.00  0.00     0.017 A 
ATOM     20  Br  UNL A   1      36.262  21.444  25.337  1.00  0.00    -0.051 Br
ENDBRANCH   8  14
ENDBRANCH   5   8
ENDBRANCH   3   4
ENDBRANCH   2   3
ENDBRANCH   1   2
BRANCH   1  21
ATOM     21  C   UNL A   1      33.960  31.422  27.879  1.00  0.00     0.002 C 
BRANCH  21  22
ATOM     22  C   UNL A   1      34.559  32.458  28.835  1.00  0.00     0.021 C 
BRANCH  22  23
ATOM     23  C   UNL A   1      35.940  32.092  29.371  1.00  0.00     0.116 C 
BRANCH  23  24
ATOM     24  N   UNL A   1      35.849  31.204  30.522  1.00  0.00    -0.352 N 
ATOM     25  C   UNL A   1      36.692  30.193  30.906  1.00  0.00     0.251 C 
ATOM     26  H   UNL A   1      35.070  31.350  31.107  1.00  0.00     0.163 HD
ATOM     27  O   UNL A   1      36.329  29.371  31.747  1.00  0.00    -0.269 OA
BRANCH  25  28
ATOM     28  C   UNL A   1      38.033  30.090  30.296  1.00  0.00     0.039 A 
ATOM     29  C   UNL A   1      39.159  30.089  31.121  1.00  0.00     0.014 A 
ATOM     30  C   UNL A   1      38.170  29.981  28.910  1.00  0.00     0.014 A 
ATOM     31  C   UNL A   1      40.423  29.899  30.558  1.00  0.00     0.010 A 
ATOM     32  C   UNL A   1      39.422  29.726  28.359  1.00  0.00     0.010 A 
ATOM     33  C   UNL A   1      40.559  29.669  29.179  1.00  0.00    -0.014 A 
BRANCH  33  34
ATOM     34  C   UNL A   1      41.870  29.309  28.581  1.00  0.00     0.031 A 
ATOM     35  C   UNL A   1      42.124  27.910  28.089  1.00  0.00     0.074 A 
ATOM     36  C   UNL A   1      42.862  30.224  28.574  1.00  0.00     0.049 A 
ATOM     37  N   UNL A   1      43.234  27.392  27.628  1.00  0.00    -0.248 NA
ATOM     38  C   UNL A   1      40.997  26.965  28.142  1.00  0.00     0.031 C 
ATOM     39  C   UNL A   1      42.747  31.600  29.067  1.00  0.00     0.029 A 
ATOM     40  N   UNL A   1      44.167  30.131  28.158  1.00  0.00    -0.354 N 
ATOM     41  C   UNL A   1      42.948  26.060  27.360  1.00  0.00     0.074 A 
ATOM     42  C   UNL A   1      41.568  25.838  27.733  1.00  0.00     0.031 C 
ATOM     43  C   UNL A   1      43.927  32.223  28.916  1.00  0.00     0.029 A 
ATOM     44  C   UNL A   1      44.896  31.281  28.365  1.00  0.00     0.049 A 
ATOM     45  H   UNL A   1      44.545  29.321  27.748  1.00  0.00     0.167 HD
ATOM     46  C   UNL A   1      43.762  25.109  26.843  1.00  0.00     0.031 A 
ATOM     47  C   UNL A   1      46.203  31.541  28.168  1.00  0.00     0.031 A 
ATOM     48  C   UNL A   1      45.129  25.343  26.457  1.00  0.00     0.049 A 
ATOM     49  C   UNL A   1      47.087  30.458  27.611  1.00  0.00     0.074 A 
ATOM     50  C   UNL A   1      46.004  24.469  25.836  1.00  0.00     0.029 A 
ATOM     51  N   UNL A   1      45.824  26.523  26.669  1.00  0.00    -0.354 N 
ATOM     52  N   UNL A   1      46.766  29.236  27.255  1.00  0.00    -0.248 NA
ATOM     53  C   UNL A   1      48.508  30.785  27.427  1.00  0.00     0.031 C 
ATOM     54  C   UNL A   1      47.249  25.093  25.742  1.00  0.00     0.029 A 
ATOM     55  C   UNL A   1      47.133  26.380  26.240  1.00  0.00     0.049 A 
ATOM     56  H   UNL A   1      45.444  27.340  27.064  1.00  0.00     0.167 HD
ATOM     57  C   UNL A   1      47.942  28.657  26.791  1.00  0.00     0.074 A 
ATOM     58  C   UNL A   1      48.974  29.667  26.884  1.00  0.00     0.031 C 
ATOM     59  C   UNL A   1      48.150  27.397  26.337  1.00  0.00     0.031 A 
BRANCH  46  60
ATOM     60  C   UNL A   1      43.218  23.716  26.672  1.00  0.00    -0.014 A 
ATOM     61  C   UNL A   1      43.062  23.143  25.397  1.00  0.00     0.010 A 
ATOM     62  C   UNL A   1      42.962  22.931  27.812  1.00  0.00     0.010 A 
ATOM     63  C   UNL A   1      42.648  21.814  25.267  1.00  0.00     0.020 A 
ATOM     64  C   UNL A   1      42.573  21.595  27.686  1.00  0.00     0.020 A 
ATOM     65  C   UNL A   1      42.413  21.046  26.413  1.00  0.00     0.054 A 
BRANCH  65  66
ATOM     66  S   UNL A   1      41.946  19.305  26.210  1.00  0.00     0.124 S 
ATOM     67  O   UNL A   1      42.763  18.905  25.067  1.00  0.00    -0.237 OA
ATOM     68  O   UNL A   1      42.333  18.722  27.493  1.00  0.00    -0.237 OA
ATOM     69  O   UNL A   1      40.508  19.357  25.960  1.00  0.00    -0.744 OA
ENDBRANCH  65  66
ENDBRANCH  46  60
BRANCH  47  70
ATOM     70  C   UNL A   1      46.771  32.868  28.537  1.00  0.00    -0.014 A 
ATOM     71  C   UNL A   1      46.813  33.920  27.604  1.00  0.00     0.010 A 
ATOM     72  C   UNL A   1      47.299  33.077  29.824  1.00  0.00     0.010 A 
ATOM     73  C   UNL A   1      47.407  35.141  27.940  1.00  0.00     0.020 A 
ATOM     74  C   UNL A   1      47.860  34.308  30.176  1.00  0.00     0.020 A 
ATOM     75  C   UNL A   1      47.930  35.325  29.223  1.00  0.00     0.054 A 
BRANCH  75  76
ATOM     76  S   UNL A   1      48.685  36.920  29.643  1.00  0.00     0.124 S 
ATOM     77  O   UNL A   1      49.684  37.069  28.590  1.00  0.00    -0.237 OA
ATOM     78  O   UNL A   1      47.548  37.835  29.572  1.00  0.00    -0.237 OA
ATOM     79  O   UNL A   1      49.217  36.704  30.986  1.00  0.00    -0.744 OA
ENDBRANCH  75  76
ENDBRANCH  47  70
BRANCH  59  80
ATOM     80  C   UNL A   1      49.541  27.035  25.891  1.00  0.00    -0.014 A 
ATOM     81  C   UNL A   1      50.399  26.300  26.728  1.00  0.00     0.010 A 
ATOM     82  C   UNL A   1      49.963  27.360  24.589  1.00  0.00     0.010 A 
ATOM     83  C   UNL A   1      51.661  25.907  26.273  1.00  0.00     0.020 A 
ATOM     84  C   UNL A   1      51.212  26.944  24.121  1.00  0.00     0.020 A 
ATOM     85  C   UNL A   1      52.056  26.226  24.970  1.00  0.00     0.054 A 
BRANCH  85  86
ATOM     86  S   UNL A   1      53.667  25.636  24.382  1.00  0.00     0.124 S 
ATOM     87  O   UNL A   1      54.594  26.414  25.202  1.00  0.00    -0.237 OA
ATOM     88  O   UNL A   1      53.613  24.207  24.680  1.00  0.00    -0.237 OA
ATOM     89  O   UNL A   1      53.663  25.972  22.960  1.00  0.00    -0.744 OA
ENDBRANCH  85  86
ENDBRANCH  59  80
ENDBRANCH  33  34
ENDBRANCH  25  28
ENDBRANCH  23  24
ENDBRANCH  22  23
ENDBRANCH  21  22
ENDBRANCH   1  21
TORSDOF 20
ENDMDL
MODEL 3
REMARK VINA RESULT:      -9.0      4.002      7.176
REMARK SMILES C[C@@H](O)C[C@H](C(=O)NCCCCCCNC(=O)c1ccc(-c2c3nc(c(-c4ccc(S(=O)(=O)[O-])cc4)c4ccc([nH]4)c(-c4ccc(S(=O)(=O)[O-])cc4)c4nc(c(-c5ccc(S(=O)(=O)[O-])cc5)c5ccc2[nH]5)C=C4)C=C3)cc1)c1ccc(Br)cc1
REMARK SMILES IDX 11 1 10 2 9 3 8 4 6 5 7 6 5 8 4 9 2 10 1 11 3 12 78 14 79 15
REMARK SMILES IDX 84 16 80 17 83 18 81 19 82 20 12 21 13 22 14 23 15 24 16 25
REMARK SMILES IDX 17 27 18 28 19 29 77 30 20 31 76 32 21 33 22 34 23 35 70 36
REMARK SMILES IDX 24 37 75 38 69 39 71 40 25 41 74 42 68 43 67 44 26 46 56 47
REMARK SMILES IDX 37 48 55 49 38 50 41 51 54 52 72 53 39 54 40 55 53 57 73 58
REMARK SMILES IDX 42 59 27 60 28 61 36 62 29 63 35 64 30 65 31 66 32 67 33 68
REMARK SMILES IDX 34 69 57 70 58 71 66 72 59 73 65 74 60 75 61 76 62 77 63 78
REMARK SMILES IDX 64 79 43 80 44 81 52 82 45 83 51 84 46 85 47 86 48 87 49 88
REMARK SMILES IDX 50 89
REMARK H PARENT 8 7 3 13 15 26 71 45 41 56
REMARK Flexibility Score: inf
ROOT
ATOM      1  C   UNL A   1      44.161  23.415  28.968  1.00  0.00     0.002 C 
ENDROOT
BRANCH   1   2
ATOM      2  C   UNL A   1      44.672  23.570  27.533  1.00  0.00     0.021 C 
BRANCH   2   3
ATOM      3  C   UNL A   1      45.448  24.867  27.289  1.00  0.00     0.116 C 
BRANCH   3   4
ATOM      4  N   UNL A   1      44.744  25.721  26.357  1.00  0.00    -0.356 N 
ATOM      5  C   UNL A   1      44.824  27.057  26.113  1.00  0.00     0.227 C 
ATOM      6  O   UNL A   1      44.010  27.484  25.284  1.00  0.00    -0.274 OA
ATOM      7  H   UNL A   1      44.087  25.250  25.796  1.00  0.00     0.163 HD
BRANCH   5   8
ATOM      8  C   UNL A   1      45.919  27.981  26.707  1.00  0.00     0.111 C 
BRANCH   8   9
ATOM      9  C   UNL A   1      47.119  28.025  25.716  1.00  0.00     0.049 C 
BRANCH   9  10
ATOM     10  C   UNL A   1      48.537  27.805  26.258  1.00  0.00     0.112 C 
ATOM     11  C   UNL A   1      49.126  26.433  25.982  1.00  0.00     0.038 C 
BRANCH  10  12
ATOM     12  O   UNL A   1      49.386  28.782  25.644  1.00  0.00    -0.393 OA
ATOM     13  H   UNL A   1      49.860  29.277  26.332  1.00  0.00     0.210 HD
ENDBRANCH  10  12
ENDBRANCH   9  10
ENDBRANCH   8   9
BRANCH   8  14
ATOM     14  C   UNL A   1      45.465  29.367  27.140  1.00  0.00    -0.035 A 
ATOM     15  C   UNL A   1      44.160  29.827  26.918  1.00  0.00     0.006 A 
ATOM     16  C   UNL A   1      46.391  30.235  27.754  1.00  0.00     0.006 A 
ATOM     17  C   UNL A   1      43.790  31.117  27.307  1.00  0.00     0.016 A 
ATOM     18  C   UNL A   1      46.019  31.518  28.152  1.00  0.00     0.016 A 
ATOM     19  C   UNL A   1      44.718  31.953  27.925  1.00  0.00     0.017 A 
ATOM     20  Br  UNL A   1      44.208  33.691  28.461  1.00  0.00    -0.051 Br
ENDBRANCH   8  14
ENDBRANCH   5   8
ENDBRANCH   3   4
ENDBRANCH   2   3
ENDBRANCH   1   2
BRANCH   1  21
ATOM     21  C   UNL A   1      42.687  23.016  29.084  1.00  0.00     0.002 C 
BRANCH  21  22
ATOM     22  C   UNL A   1      42.072  22.443  27.804  1.00  0.00     0.021 C 
BRANCH  22  23
ATOM     23  C   UNL A   1      40.799  21.632  28.027  1.00  0.00     0.116 C 
BRANCH  23  24
ATOM     24  N   UNL A   1      39.901  21.722  26.884  1.00  0.00    -0.352 N 
ATOM     25  C   UNL A   1      39.159  22.789  26.447  1.00  0.00     0.251 C 
ATOM     26  H   UNL A   1      39.814  20.900  26.350  1.00  0.00     0.163 HD
ATOM     27  O   UNL A   1      38.254  22.620  25.630  1.00  0.00    -0.269 OA
BRANCH  25  28
ATOM     28  C   UNL A   1      39.444  24.140  26.970  1.00  0.00     0.039 A 
ATOM     29  C   UNL A   1      38.984  24.491  28.241  1.00  0.00     0.014 A 
ATOM     30  C   UNL A   1      40.177  25.052  26.206  1.00  0.00     0.014 A 
ATOM     31  C   UNL A   1      39.328  25.733  28.778  1.00  0.00     0.010 A 
ATOM     32  C   UNL A   1      40.574  26.261  26.768  1.00  0.00     0.010 A 
ATOM     33  C   UNL A   1      40.166  26.608  28.064  1.00  0.00    -0.014 A 
BRANCH  33  34
ATOM     34  C   UNL A   1      40.673  27.862  28.677  1.00  0.00     0.031 A 
ATOM     35  C   UNL A   1      42.059  27.919  29.259  1.00  0.00     0.074 A 
ATOM     36  C   UNL A   1      39.843  28.920  28.792  1.00  0.00     0.049 A 
ATOM     37  N   UNL A   1      42.633  28.894  29.915  1.00  0.00    -0.248 NA
ATOM     38  C   UNL A   1      42.901  26.720  29.106  1.00  0.00     0.031 C 
ATOM     39  C   UNL A   1      38.460  28.967  28.306  1.00  0.00     0.029 A 
ATOM     40  N   UNL A   1      40.030  30.150  29.371  1.00  0.00    -0.354 N 
ATOM     41  C   UNL A   1      43.889  28.421  30.274  1.00  0.00     0.074 A 
ATOM     42  C   UNL A   1      43.987  27.063  29.787  1.00  0.00     0.031 C 
ATOM     43  C   UNL A   1      37.930  30.165  28.598  1.00  0.00     0.029 A 
ATOM     44  C   UNL A   1      38.912  30.953  29.337  1.00  0.00     0.049 A 
ATOM     45  H   UNL A   1      40.883  30.433  29.772  1.00  0.00     0.167 HD
ATOM     46  C   UNL A   1      44.874  29.066  30.944  1.00  0.00     0.031 A 
ATOM     47  C   UNL A   1      38.687  32.171  29.866  1.00  0.00     0.031 A 
ATOM     48  C   UNL A   1      44.775  30.425  31.410  1.00  0.00     0.049 A 
ATOM     49  C   UNL A   1      39.794  32.854  30.624  1.00  0.00     0.074 A 
ATOM     50  C   UNL A   1      45.753  31.196  32.013  1.00  0.00     0.029 A 
ATOM     51  N   UNL A   1      43.633  31.207  31.341  1.00  0.00    -0.354 N 
ATOM     52  N   UNL A   1      41.016  32.432  30.850  1.00  0.00    -0.248 NA
ATOM     53  C   UNL A   1      39.496  34.175  31.195  1.00  0.00     0.031 C 
ATOM     54  C   UNL A   1      45.181  32.416  32.379  1.00  0.00     0.029 A 
ATOM     55  C   UNL A   1      43.867  32.433  31.941  1.00  0.00     0.049 A 
ATOM     56  H   UNL A   1      42.783  30.933  30.928  1.00  0.00     0.167 HD
ATOM     57  C   UNL A   1      41.635  33.444  31.577  1.00  0.00     0.074 A 
ATOM     58  C   UNL A   1      40.665  34.508  31.728  1.00  0.00     0.031 C 
ATOM     59  C   UNL A   1      42.892  33.484  32.082  1.00  0.00     0.031 A 
BRANCH  46  60
ATOM     60  C   UNL A   1      46.147  28.319  31.239  1.00  0.00    -0.014 A 
ATOM     61  C   UNL A   1      46.251  27.460  32.346  1.00  0.00     0.010 A 
ATOM     62  C   UNL A   1      47.218  28.397  30.329  1.00  0.00     0.010 A 
ATOM     63  C   UNL A   1      47.409  26.702  32.545  1.00  0.00     0.020 A 
ATOM     64  C   UNL A   1      48.367  27.621  30.509  1.00  0.00     0.020 A 
ATOM     65  C   UNL A   1      48.457  26.782  31.620  1.00  0.00     0.054 A 
BRANCH  65  66
ATOM     66  S   UNL A   1      49.915  25.732  31.867  1.00  0.00     0.124 S 
ATOM     67  O   UNL A   1      50.954  26.720  32.147  1.00  0.00    -0.237 OA
ATOM     68  O   UNL A   1      49.519  24.900  33.001  1.00  0.00    -0.237 OA
ATOM     69  O   UNL A   1      50.055  25.025  30.597  1.00  0.00    -0.744 OA
ENDBRANCH  65  66
ENDBRANCH  46  60
BRANCH  47  70
ATOM     70  C   UNL A   1      37.347  32.812  29.740  1.00  0.00    -0.014 A 
ATOM     71  C   UNL A   1      36.994  33.524  28.581  1.00  0.00     0.010 A 
ATOM     72  C   UNL A   1      36.424  32.732  30.799  1.00  0.00     0.010 A 
ATOM     73  C   UNL A   1      35.759  34.177  28.499  1.00  0.00     0.020 A 
ATOM     74  C   UNL A   1      35.175  33.352  30.707  1.00  0.00     0.020 A 
ATOM     75  C   UNL A   1      34.859  34.089  29.565  1.00  0.00     0.054 A 
BRANCH  75  76
ATOM     76  S   UNL A   1      33.259  34.931  29.434  1.00  0.00     0.124 S 
ATOM     77  O   UNL A   1      32.468  33.964  28.679  1.00  0.00    -0.237 OA
ATOM     78  O   UNL A   1      32.879  35.106  30.834  1.00  0.00    -0.237 OA
ATOM     79  O   UNL A   1      33.580  36.167  28.724  1.00  0.00    -0.744 OA
ENDBRANCH  75  76
ENDBRANCH  47  70
BRANCH  59  80
ATOM     80  C   UNL A   1      43.304  34.720  32.835  1.00  0.00    -0.014 A 
ATOM     81  C   UNL A   1      43.541  34.676  34.221  1.00  0.00     0.010 A 
ATOM     82  C   UNL A   1      43.538  35.918  32.136  1.00  0.00     0.010 A 
ATOM     83  C   UNL A   1      43.994  35.813  34.894  1.00  0.00     0.020 A 
ATOM     84  C   UNL A   1      44.020  37.048  32.801  1.00  0.00     0.020 A 
ATOM     85  C   UNL A   1      44.238  36.990  34.179  1.00  0.00     0.054 A 
BRANCH  85  86
ATOM     86  S   UNL A   1      44.899  38.426  35.068  1.00  0.00     0.124 S 
ATOM     87  O   UNL A   1      45.862  38.961  34.109  1.00  0.00    -0.237 OA
ATOM     88  O   UNL A   1      43.708  39.244  35.284  1.00  0.00    -0.237 OA
ATOM     89  O   UNL A   1      45.480  37.848  36.277  1.00  0.00    -0.744 OA
ENDBRANCH  85  86
ENDBRANCH  59  80
ENDBRANCH  33  34
ENDBRANCH  25  28
ENDBRANCH  23  24
ENDBRANCH  22  23
ENDBRANCH  21  22
ENDBRANCH   1  21
TORSDOF 20
ENDMDL
