MODEL 1
REMARK VINA RESULT:      -8.9      0.000      0.000
REMARK SMILES CCCCCCNC(=O)Oc1cccc(-c2ccc([C@@H](C)C(=O)NCCCCCCNC(=O)c3ccc(-c4c5nc(c(-c6ccc(S(=O)(=O)[O-])cc6)c6ccc([nH]6)c(-c6ccc(S(=O)(=O)[O-])cc6)c6nc(c(-c7ccc(S(=O)(=O)[O-])cc7)c7ccc4[nH]7)C=C6)C=C5)cc3)cc2Cl)c1
REMARK SMILES IDX 22 1 23 2 24 3 20 5 21 6 19 7 16 8 17 9 95 10 18 11 94 12
REMARK SMILES IDX 96 13 15 14 11 15 12 16 97 17 13 18 14 19 10 20 8 21 7 22
REMARK SMILES IDX 9 24 6 25 5 26 4 27 3 28 2 29 1 30 25 31 26 32 27 33 28 34
REMARK SMILES IDX 29 35 30 36 31 37 32 38 33 40 34 41 35 42 93 43 36 44 92 45
REMARK SMILES IDX 37 46 38 47 39 48 86 49 40 50 91 51 85 52 87 53 41 54 90 55
REMARK SMILES IDX 84 56 83 57 42 59 72 60 53 61 71 62 54 63 57 64 70 65 88 66
REMARK SMILES IDX 55 67 56 68 69 70 89 71 58 72 43 73 44 74 52 75 45 76 51 77
REMARK SMILES IDX 46 78 47 79 48 80 49 81 50 82 73 83 74 84 82 85 75 86 81 87
REMARK SMILES IDX 76 88 77 89 78 90 79 91 80 92 59 93 60 94 68 95 61 96 67 97
REMARK SMILES IDX 62 98 63 99 64 100 65 101 66 102
REMARK H PARENT 24 4 7 23 31 39 87 58 57 69
REMARK Flexibility Score: inf
ROOT
ATOM      1  C   UNL A   1      43.177  19.582  25.648  1.00  0.00     0.227 C 
ATOM      2  O   UNL A   1      43.365  18.387  25.381  1.00  0.00    -0.274 OA
ATOM      3  N   UNL A   1      43.858  20.483  24.889  1.00  0.00    -0.356 N 
ATOM      4  H   UNL A   1      44.371  20.082  24.151  1.00  0.00     0.163 HD
ENDROOT
BRANCH   1   5
ATOM      5  C   UNL A   1      42.202  19.968  26.770  1.00  0.00     0.105 C 
ATOM      6  C   UNL A   1      42.142  18.966  27.922  1.00  0.00     0.023 C 
BRANCH   5   7
ATOM      7  C   UNL A   1      40.857  20.477  26.274  1.00  0.00    -0.034 A 
ATOM      8  C   UNL A   1      38.247  21.346  25.448  1.00  0.00     0.000 A 
ATOM      9  C   UNL A   1      39.240  22.248  25.874  1.00  0.00     0.010 A 
ATOM     10  C   UNL A   1      38.619  19.987  25.397  1.00  0.00     0.049 A 
ATOM     11  C   UNL A   1      40.525  21.830  26.231  1.00  0.00     0.005 A 
ATOM     12  C   UNL A   1      39.886  19.563  25.838  1.00  0.00     0.025 A 
ATOM     13  Cl  UNL A   1      37.600  18.752  24.728  1.00  0.00    -0.084 Cl
BRANCH   8  14
ATOM     14  C   UNL A   1      36.913  21.884  25.085  1.00  0.00    -0.013 A 
ATOM     15  C   UNL A   1      34.585  22.370  25.599  1.00  0.00     0.133 A 
ATOM     16  C   UNL A   1      34.398  22.973  24.360  1.00  0.00     0.047 A 
ATOM     17  C   UNL A   1      35.825  21.849  25.973  1.00  0.00     0.056 A 
ATOM     18  C   UNL A   1      35.466  23.052  23.478  1.00  0.00     0.004 A 
ATOM     19  C   UNL A   1      36.701  22.498  23.831  1.00  0.00     0.009 A 
BRANCH  15  20
ATOM     20  O   UNL A   1      33.429  22.170  26.375  1.00  0.00    -0.410 OA
BRANCH  20  21
ATOM     21  C   UNL A   1      32.170  22.213  25.798  1.00  0.00     0.412 C 
ATOM     22  N   UNL A   1      31.746  20.985  25.370  1.00  0.00    -0.321 N 
ATOM     23  H   UNL A   1      30.882  20.953  24.899  1.00  0.00     0.167 HD
ATOM     24  O   UNL A   1      31.474  23.209  25.656  1.00  0.00    -0.224 OA
BRANCH  22  25
ATOM     25  C   UNL A   1      32.444  19.725  25.542  1.00  0.00     0.119 C 
BRANCH  25  26
ATOM     26  C   UNL A   1      32.927  19.157  24.207  1.00  0.00     0.021 C 
BRANCH  26  27
ATOM     27  C   UNL A   1      34.279  18.436  24.271  1.00  0.00     0.002 C 
BRANCH  27  28
ATOM     28  C   UNL A   1      34.234  16.930  23.985  1.00  0.00    -0.000 C 
BRANCH  28  29
ATOM     29  C   UNL A   1      34.086  16.033  25.216  1.00  0.00    -0.003 C 
ATOM     30  C   UNL A   1      32.728  15.354  25.303  1.00  0.00     0.004 C 
ENDBRANCH  28  29
ENDBRANCH  27  28
ENDBRANCH  26  27
ENDBRANCH  25  26
ENDBRANCH  22  25
ENDBRANCH  20  21
ENDBRANCH  15  20
ENDBRANCH   8  14
ENDBRANCH   5   7
ENDBRANCH   1   5
BRANCH   3  31
ATOM     31  C   UNL A   1      43.964  21.924  24.968  1.00  0.00     0.116 C 
BRANCH  31  32
ATOM     32  C   UNL A   1      44.706  22.364  26.232  1.00  0.00     0.021 C 
BRANCH  32  33
ATOM     33  C   UNL A   1      43.800  23.001  27.290  1.00  0.00     0.002 C 
BRANCH  33  34
ATOM     34  C   UNL A   1      43.622  24.519  27.159  1.00  0.00     0.002 C 
BRANCH  34  35
ATOM     35  C   UNL A   1      43.441  25.039  25.728  1.00  0.00     0.021 C 
BRANCH  35  36
ATOM     36  C   UNL A   1      44.126  26.374  25.448  1.00  0.00     0.116 C 
BRANCH  36  37
ATOM     37  N   UNL A   1      45.559  26.302  25.689  1.00  0.00    -0.352 N 
ATOM     38  C   UNL A   1      46.336  27.024  26.560  1.00  0.00     0.251 C 
ATOM     39  H   UNL A   1      46.043  25.637  25.147  1.00  0.00     0.163 HD
ATOM     40  O   UNL A   1      47.558  27.009  26.446  1.00  0.00    -0.269 OA
BRANCH  38  41
ATOM     41  C   UNL A   1      45.701  27.821  27.631  1.00  0.00     0.039 A 
ATOM     42  C   UNL A   1      45.104  27.161  28.708  1.00  0.00     0.014 A 
ATOM     43  C   UNL A   1      45.667  29.217  27.556  1.00  0.00     0.014 A 
ATOM     44  C   UNL A   1      44.520  27.904  29.737  1.00  0.00     0.010 A 
ATOM     45  C   UNL A   1      45.147  29.957  28.615  1.00  0.00     0.010 A 
ATOM     46  C   UNL A   1      44.561  29.308  29.713  1.00  0.00    -0.014 A 
BRANCH  46  47
ATOM     47  C   UNL A   1      43.994  30.115  30.822  1.00  0.00     0.031 A 
ATOM     48  C   UNL A   1      44.782  30.323  32.088  1.00  0.00     0.074 A 
ATOM     49  C   UNL A   1      42.744  30.608  30.716  1.00  0.00     0.049 A 
ATOM     50  N   UNL A   1      44.432  30.944  33.185  1.00  0.00    -0.248 NA
ATOM     51  C   UNL A   1      46.131  29.735  32.136  1.00  0.00     0.031 C 
ATOM     52  C   UNL A   1      41.864  30.444  29.555  1.00  0.00     0.029 A 
ATOM     53  N   UNL A   1      41.993  31.343  31.599  1.00  0.00    -0.354 N 
ATOM     54  C   UNL A   1      45.506  30.809  34.056  1.00  0.00     0.074 A 
ATOM     55  C   UNL A   1      46.501  30.006  33.379  1.00  0.00     0.031 C 
ATOM     56  C   UNL A   1      40.705  31.081  29.788  1.00  0.00     0.029 A 
ATOM     57  C   UNL A   1      40.742  31.663  31.126  1.00  0.00     0.049 A 
ATOM     58  H   UNL A   1      42.319  31.616  32.487  1.00  0.00     0.167 HD
ATOM     59  C   UNL A   1      45.660  31.324  35.300  1.00  0.00     0.031 A 
ATOM     60  C   UNL A   1      39.732  32.342  31.706  1.00  0.00     0.031 A 
ATOM     61  C   UNL A   1      44.673  32.131  35.966  1.00  0.00     0.049 A 
ATOM     62  C   UNL A   1      39.923  32.893  33.093  1.00  0.00     0.074 A 
ATOM     63  C   UNL A   1      44.754  32.743  37.204  1.00  0.00     0.029 A 
ATOM     64  N   UNL A   1      43.422  32.438  35.451  1.00  0.00    -0.354 N 
ATOM     65  N   UNL A   1      40.970  32.807  33.877  1.00  0.00    -0.248 NA
ATOM     66  C   UNL A   1      38.797  33.642  33.669  1.00  0.00     0.031 C 
ATOM     67  C   UNL A   1      43.533  33.376  37.460  1.00  0.00     0.029 A 
ATOM     68  C   UNL A   1      42.714  33.210  36.355  1.00  0.00     0.049 A 
ATOM     69  H   UNL A   1      43.088  32.149  34.570  1.00  0.00     0.167 HD
ATOM     70  C   UNL A   1      40.642  33.515  35.027  1.00  0.00     0.074 A 
ATOM     71  C   UNL A   1      39.303  34.035  34.830  1.00  0.00     0.031 C 
ATOM     72  C   UNL A   1      41.382  33.719  36.145  1.00  0.00     0.031 A 
BRANCH  59  73
ATOM     73  C   UNL A   1      46.946  31.021  36.026  1.00  0.00    -0.014 A 
ATOM     74  C   UNL A   1      47.044  29.927  36.907  1.00  0.00     0.010 A 
ATOM     75  C   UNL A   1      48.084  31.815  35.795  1.00  0.00     0.010 A 
ATOM     76  C   UNL A   1      48.241  29.662  37.576  1.00  0.00     0.020 A 
ATOM     77  C   UNL A   1      49.293  31.535  36.440  1.00  0.00     0.020 A 
ATOM     78  C   UNL A   1      49.357  30.469  37.341  1.00  0.00     0.054 A 
BRANCH  78  79
ATOM     79  S   UNL A   1      50.904  30.089  38.209  1.00  0.00     0.124 S 
ATOM     80  O   UNL A   1      51.881  30.150  37.125  1.00  0.00    -0.237 OA
ATOM     81  O   UNL A   1      50.992  31.164  39.194  1.00  0.00    -0.237 OA
ATOM     82  O   UNL A   1      50.672  28.757  38.764  1.00  0.00    -0.744 OA
ENDBRANCH  78  79
ENDBRANCH  59  73
BRANCH  60  83
ATOM     83  C   UNL A   1      38.457  32.551  30.968  1.00  0.00    -0.014 A 
ATOM     84  C   UNL A   1      38.339  33.589  30.027  1.00  0.00     0.010 A 
ATOM     85  C   UNL A   1      37.357  31.704  31.193  1.00  0.00     0.010 A 
ATOM     86  C   UNL A   1      37.138  33.787  29.338  1.00  0.00     0.020 A 
ATOM     87  C   UNL A   1      36.164  31.882  30.486  1.00  0.00     0.020 A 
ATOM     88  C   UNL A   1      36.058  32.931  29.571  1.00  0.00     0.054 A 
BRANCH  88  89
ATOM     89  S   UNL A   1      34.527  33.176  28.630  1.00  0.00     0.124 S 
ATOM     90  O   UNL A   1      34.173  31.808  28.266  1.00  0.00    -0.237 OA
ATOM     91  O   UNL A   1      33.654  33.818  29.608  1.00  0.00    -0.237 OA
ATOM     92  O   UNL A   1      34.942  34.032  27.521  1.00  0.00    -0.744 OA
ENDBRANCH  88  89
ENDBRANCH  60  83
BRANCH  72  93
ATOM     93  C   UNL A   1      40.776  34.568  37.232  1.00  0.00    -0.014 A 
ATOM     94  C   UNL A   1      39.999  33.999  38.255  1.00  0.00     0.010 A 
ATOM     95  C   UNL A   1      41.038  35.950  37.256  1.00  0.00     0.010 A 
ATOM     96  C   UNL A   1      39.467  34.803  39.266  1.00  0.00     0.020 A 
ATOM     97  C   UNL A   1      40.533  36.752  38.283  1.00  0.00     0.020 A 
ATOM     98  C   UNL A   1      39.738  36.175  39.274  1.00  0.00     0.054 A 
BRANCH  98  99
ATOM     99  S   UNL A   1      39.075  37.189  40.624  1.00  0.00     0.124 S 
ATOM    100  O   UNL A   1      38.228  38.136  39.904  1.00  0.00    -0.237 OA
ATOM    101  O   UNL A   1      38.366  36.209  41.443  1.00  0.00    -0.237 OA
ATOM    102  O   UNL A   1      40.266  37.765  41.243  1.00  0.00    -0.744 OA
ENDBRANCH  98  99
ENDBRANCH  72  93
ENDBRANCH  46  47
ENDBRANCH  38  41
ENDBRANCH  36  37
ENDBRANCH  35  36
ENDBRANCH  34  35
ENDBRANCH  33  34
ENDBRANCH  32  33
ENDBRANCH  31  32
ENDBRANCH   3  31
TORSDOF 25
ENDMDL
MODEL 2
REMARK VINA RESULT:      -8.3      4.324      6.935
REMARK SMILES CCCCCCNC(=O)Oc1cccc(-c2ccc([C@@H](C)C(=O)NCCCCCCNC(=O)c3ccc(-c4c5nc(c(-c6ccc(S(=O)(=O)[O-])cc6)c6ccc([nH]6)c(-c6ccc(S(=O)(=O)[O-])cc6)c6nc(c(-c7ccc(S(=O)(=O)[O-])cc7)c7ccc4[nH]7)C=C6)C=C5)cc3)cc2Cl)c1
REMARK SMILES IDX 22 1 23 2 24 3 20 5 21 6 19 7 16 8 17 9 95 10 18 11 94 12
REMARK SMILES IDX 96 13 15 14 11 15 12 16 97 17 13 18 14 19 10 20 8 21 7 22
REMARK SMILES IDX 9 24 6 25 5 26 4 27 3 28 2 29 1 30 25 31 26 32 27 33 28 34
REMARK SMILES IDX 29 35 30 36 31 37 32 38 33 40 34 41 35 42 93 43 36 44 92 45
REMARK SMILES IDX 37 46 38 47 39 48 86 49 40 50 91 51 85 52 87 53 41 54 90 55
REMARK SMILES IDX 84 56 83 57 42 59 72 60 53 61 71 62 54 63 57 64 70 65 88 66
REMARK SMILES IDX 55 67 56 68 69 70 89 71 58 72 43 73 44 74 52 75 45 76 51 77
REMARK SMILES IDX 46 78 47 79 48 80 49 81 50 82 73 83 74 84 82 85 75 86 81 87
REMARK SMILES IDX 76 88 77 89 78 90 79 91 80 92 59 93 60 94 68 95 61 96 67 97
REMARK SMILES IDX 62 98 63 99 64 100 65 101 66 102
REMARK H PARENT 24 4 7 23 31 39 87 58 57 69
REMARK Flexibility Score: inf
ROOT
ATOM      1  C   UNL A   1      42.985  20.204  25.742  1.00  0.00     0.227 C 
ATOM      2  O   UNL A   1      43.028  19.186  25.038  1.00  0.00    -0.274 OA
ATOM      3  N   UNL A   1      43.863  21.193  25.426  1.00  0.00    -0.356 N 
ATOM      4  H   UNL A   1      44.389  21.019  24.613  1.00  0.00     0.163 HD
ENDROOT
BRANCH   1   5
ATOM      5  C   UNL A   1      41.961  20.298  26.884  1.00  0.00     0.105 C 
ATOM      6  C   UNL A   1      41.870  19.042  27.749  1.00  0.00     0.023 C 
BRANCH   5   7
ATOM      7  C   UNL A   1      40.630  20.908  26.472  1.00  0.00    -0.034 A 
ATOM      8  C   UNL A   1      38.198  22.175  25.617  1.00  0.00     0.000 A 
ATOM      9  C   UNL A   1      38.486  20.829  25.328  1.00  0.00     0.010 A 
ATOM     10  C   UNL A   1      39.148  22.862  26.400  1.00  0.00     0.049 A 
ATOM     11  C   UNL A   1      39.647  20.199  25.784  1.00  0.00     0.005 A 
ATOM     12  C   UNL A   1      40.354  22.248  26.785  1.00  0.00     0.025 A 
ATOM     13  Cl  UNL A   1      38.888  24.465  27.013  1.00  0.00    -0.084 Cl
BRANCH   8  14
ATOM     14  C   UNL A   1      36.938  22.756  25.092  1.00  0.00    -0.013 A 
ATOM     15  C   UNL A   1      34.816  23.906  25.399  1.00  0.00     0.133 A 
ATOM     16  C   UNL A   1      34.569  23.896  24.031  1.00  0.00     0.047 A 
ATOM     17  C   UNL A   1      35.989  23.365  25.930  1.00  0.00     0.056 A 
ATOM     18  C   UNL A   1      35.508  23.332  23.178  1.00  0.00     0.004 A 
ATOM     19  C   UNL A   1      36.667  22.754  23.706  1.00  0.00     0.009 A 
BRANCH  15  20
ATOM     20  O   UNL A   1      33.757  24.335  26.219  1.00  0.00    -0.410 OA
BRANCH  20  21
ATOM     21  C   UNL A   1      33.136  25.554  25.997  1.00  0.00     0.412 C 
ATOM     22  N   UNL A   1      31.839  25.415  25.586  1.00  0.00    -0.321 N 
ATOM     23  H   UNL A   1      31.355  26.241  25.355  1.00  0.00     0.167 HD
ATOM     24  O   UNL A   1      33.643  26.660  26.132  1.00  0.00    -0.224 OA
BRANCH  22  25
ATOM     25  C   UNL A   1      31.106  24.171  25.455  1.00  0.00     0.119 C 
BRANCH  25  26
ATOM     26  C   UNL A   1      30.803  23.840  23.993  1.00  0.00     0.021 C 
BRANCH  26  27
ATOM     27  C   UNL A   1      31.475  22.563  23.473  1.00  0.00     0.002 C 
BRANCH  27  28
ATOM     28  C   UNL A   1      31.946  21.582  24.553  1.00  0.00    -0.000 C 
BRANCH  28  29
ATOM     29  C   UNL A   1      32.969  20.541  24.093  1.00  0.00    -0.003 C 
ATOM     30  C   UNL A   1      34.058  20.276  25.122  1.00  0.00     0.004 C 
ENDBRANCH  28  29
ENDBRANCH  27  28
ENDBRANCH  26  27
ENDBRANCH  25  26
ENDBRANCH  22  25
ENDBRANCH  20  21
ENDBRANCH  15  20
ENDBRANCH   8  14
ENDBRANCH   5   7
ENDBRANCH   1   5
BRANCH   3  31
ATOM     31  C   UNL A   1      44.164  22.455  26.067  1.00  0.00     0.116 C 
BRANCH  31  32
ATOM     32  C   UNL A   1      43.581  23.636  25.286  1.00  0.00     0.021 C 
BRANCH  32  33
ATOM     33  C   UNL A   1      42.935  24.704  26.174  1.00  0.00     0.002 C 
BRANCH  33  34
ATOM     34  C   UNL A   1      41.891  25.582  25.472  1.00  0.00     0.002 C 
BRANCH  34  35
ATOM     35  C   UNL A   1      42.405  26.930  24.956  1.00  0.00     0.021 C 
BRANCH  35  36
ATOM     36  C   UNL A   1      43.593  27.494  25.730  1.00  0.00     0.116 C 
BRANCH  36  37
ATOM     37  N   UNL A   1      44.854  27.202  25.065  1.00  0.00    -0.352 N 
ATOM     38  C   UNL A   1      46.130  27.216  25.566  1.00  0.00     0.251 C 
ATOM     39  H   UNL A   1      44.779  26.958  24.114  1.00  0.00     0.163 HD
ATOM     40  O   UNL A   1      47.088  27.194  24.799  1.00  0.00    -0.269 OA
BRANCH  38  41
ATOM     41  C   UNL A   1      46.351  27.263  27.027  1.00  0.00     0.039 A 
ATOM     42  C   UNL A   1      47.343  28.104  27.538  1.00  0.00     0.014 A 
ATOM     43  C   UNL A   1      45.602  26.455  27.889  1.00  0.00     0.014 A 
ATOM     44  C   UNL A   1      47.548  28.173  28.918  1.00  0.00     0.010 A 
ATOM     45  C   UNL A   1      45.760  26.577  29.267  1.00  0.00     0.010 A 
ATOM     46  C   UNL A   1      46.739  27.431  29.796  1.00  0.00    -0.014 A 
BRANCH  46  47
ATOM     47  C   UNL A   1      46.904  27.533  31.268  1.00  0.00     0.031 A 
ATOM     48  C   UNL A   1      47.820  26.585  31.995  1.00  0.00     0.074 A 
ATOM     49  C   UNL A   1      46.183  28.439  31.958  1.00  0.00     0.049 A 
ATOM     50  N   UNL A   1      48.048  26.480  33.279  1.00  0.00    -0.248 NA
ATOM     51  C   UNL A   1      48.557  25.610  31.173  1.00  0.00     0.031 C 
ATOM     52  C   UNL A   1      45.234  29.390  31.373  1.00  0.00     0.029 A 
ATOM     53  N   UNL A   1      46.131  28.705  33.304  1.00  0.00    -0.354 N 
ATOM     54  C   UNL A   1      48.939  25.423  33.421  1.00  0.00     0.074 A 
ATOM     55  C   UNL A   1      49.173  24.887  32.097  1.00  0.00     0.031 C 
ATOM     56  C   UNL A   1      44.714  30.150  32.350  1.00  0.00     0.029 A 
ATOM     57  C   UNL A   1      45.259  29.716  33.633  1.00  0.00     0.049 A 
ATOM     58  H   UNL A   1      46.666  28.217  33.970  1.00  0.00     0.167 HD
ATOM     59  C   UNL A   1      49.526  24.953  34.548  1.00  0.00     0.031 A 
ATOM     60  C   UNL A   1      44.928  30.232  34.833  1.00  0.00     0.031 A 
ATOM     61  C   UNL A   1      49.299  25.495  35.861  1.00  0.00     0.049 A 
ATOM     62  C   UNL A   1      45.584  29.685  36.071  1.00  0.00     0.074 A 
ATOM     63  C   UNL A   1      49.885  25.124  37.058  1.00  0.00     0.029 A 
ATOM     64  N   UNL A   1      48.415  26.524  36.151  1.00  0.00    -0.354 N 
ATOM     65  N   UNL A   1      46.471  28.725  36.178  1.00  0.00    -0.248 NA
ATOM     66  C   UNL A   1      45.201  30.299  37.350  1.00  0.00     0.031 C 
ATOM     67  C   UNL A   1      49.316  25.892  38.079  1.00  0.00     0.029 A 
ATOM     68  C   UNL A   1      48.421  26.784  37.510  1.00  0.00     0.049 A 
ATOM     69  H   UNL A   1      47.864  26.999  35.487  1.00  0.00     0.167 HD
ATOM     70  C   UNL A   1      46.774  28.639  37.531  1.00  0.00     0.074 A 
ATOM     71  C   UNL A   1      45.986  29.654  38.202  1.00  0.00     0.031 C 
ATOM     72  C   UNL A   1      47.630  27.797  38.163  1.00  0.00     0.031 A 
BRANCH  59  73
ATOM     73  C   UNL A   1      50.468  23.785  34.408  1.00  0.00    -0.014 A 
ATOM     74  C   UNL A   1      51.841  23.982  34.167  1.00  0.00     0.010 A 
ATOM     75  C   UNL A   1      49.983  22.473  34.558  1.00  0.00     0.010 A 
ATOM     76  C   UNL A   1      52.701  22.889  34.033  1.00  0.00     0.020 A 
ATOM     77  C   UNL A   1      50.846  21.377  34.455  1.00  0.00     0.020 A 
ATOM     78  C   UNL A   1      52.198  21.593  34.176  1.00  0.00     0.054 A 
BRANCH  78  79
ATOM     79  S   UNL A   1      53.341  20.194  34.019  1.00  0.00     0.124 S 
ATOM     80  O   UNL A   1      52.446  19.052  34.186  1.00  0.00    -0.237 OA
ATOM     81  O   UNL A   1      53.885  20.374  32.675  1.00  0.00    -0.237 OA
ATOM     82  O   UNL A   1      54.296  20.402  35.106  1.00  0.00    -0.744 OA
ENDBRANCH  78  79
ENDBRANCH  59  73
BRANCH  60  83
ATOM     83  C   UNL A   1      43.937  31.340  34.917  1.00  0.00    -0.014 A 
ATOM     84  C   UNL A   1      44.333  32.670  34.693  1.00  0.00     0.010 A 
ATOM     85  C   UNL A   1      42.589  31.068  35.210  1.00  0.00     0.010 A 
ATOM     86  C   UNL A   1      43.402  33.710  34.778  1.00  0.00     0.020 A 
ATOM     87  C   UNL A   1      41.650  32.102  35.268  1.00  0.00     0.020 A 
ATOM     88  C   UNL A   1      42.065  33.419  35.064  1.00  0.00     0.054 A 
BRANCH  88  89
ATOM     89  S   UNL A   1      40.866  34.778  35.120  1.00  0.00     0.124 S 
ATOM     90  O   UNL A   1      40.319  34.645  36.466  1.00  0.00    -0.237 OA
ATOM     91  O   UNL A   1      41.705  35.950  34.890  1.00  0.00    -0.237 OA
ATOM     92  O   UNL A   1      39.941  34.462  34.034  1.00  0.00    -0.744 OA
ENDBRANCH  88  89
ENDBRANCH  60  83
BRANCH  72  93
ATOM     93  C   UNL A   1      47.787  27.957  39.652  1.00  0.00    -0.014 A 
ATOM     94  C   UNL A   1      48.756  28.819  40.196  1.00  0.00     0.010 A 
ATOM     95  C   UNL A   1      46.914  27.274  40.517  1.00  0.00     0.010 A 
ATOM     96  C   UNL A   1      48.868  28.969  41.580  1.00  0.00     0.020 A 
ATOM     97  C   UNL A   1      47.003  27.445  41.901  1.00  0.00     0.020 A 
ATOM     98  C   UNL A   1      47.990  28.282  42.424  1.00  0.00     0.054 A 
BRANCH  98  99
ATOM     99  S   UNL A   1      48.127  28.530  44.216  1.00  0.00     0.124 S 
ATOM    100  O   UNL A   1      47.603  29.884  44.375  1.00  0.00    -0.237 OA
ATOM    101  O   UNL A   1      47.284  27.464  44.753  1.00  0.00    -0.237 OA
ATOM    102  O   UNL A   1      49.556  28.379  44.479  1.00  0.00    -0.744 OA
ENDBRANCH  98  99
ENDBRANCH  72  93
ENDBRANCH  46  47
ENDBRANCH  38  41
ENDBRANCH  36  37
ENDBRANCH  35  36
ENDBRANCH  34  35
ENDBRANCH  33  34
ENDBRANCH  32  33
ENDBRANCH  31  32
ENDBRANCH   3  31
TORSDOF 25
ENDMDL
MODEL 3
REMARK VINA RESULT:      -8.2      5.598      8.331
REMARK SMILES CCCCCCNC(=O)Oc1cccc(-c2ccc([C@@H](C)C(=O)NCCCCCCNC(=O)c3ccc(-c4c5nc(c(-c6ccc(S(=O)(=O)[O-])cc6)c6ccc([nH]6)c(-c6ccc(S(=O)(=O)[O-])cc6)c6nc(c(-c7ccc(S(=O)(=O)[O-])cc7)c7ccc4[nH]7)C=C6)C=C5)cc3)cc2Cl)c1
REMARK SMILES IDX 22 1 23 2 24 3 20 5 21 6 19 7 16 8 17 9 95 10 18 11 94 12
REMARK SMILES IDX 96 13 15 14 11 15 12 16 97 17 13 18 14 19 10 20 8 21 7 22
REMARK SMILES IDX 9 24 6 25 5 26 4 27 3 28 2 29 1 30 25 31 26 32 27 33 28 34
REMARK SMILES IDX 29 35 30 36 31 37 32 38 33 40 34 41 35 42 93 43 36 44 92 45
REMARK SMILES IDX 37 46 38 47 39 48 86 49 40 50 91 51 85 52 87 53 41 54 90 55
REMARK SMILES IDX 84 56 83 57 42 59 72 60 53 61 71 62 54 63 57 64 70 65 88 66
REMARK SMILES IDX 55 67 56 68 69 70 89 71 58 72 43 73 44 74 52 75 45 76 51 77
REMARK SMILES IDX 46 78 47 79 48 80 49 81 50 82 73 83 74 84 82 85 75 86 81 87
REMARK SMILES IDX 76 88 77 89 78 90 79 91 80 92 59 93 60 94 68 95 61 96 67 97
REMARK SMILES IDX 62 98 63 99 64 100 65 101 66 102
REMARK H PARENT 24 4 7 23 31 39 87 58 57 69
REMARK Flexibility Score: inf
ROOT
ATOM      1  C   UNL A   1      42.907  20.836  25.898  1.00  0.00     0.227 C 
ATOM      2  O   UNL A   1      43.138  19.850  25.186  1.00  0.00    -0.274 OA
ATOM      3  N   UNL A   1      43.653  21.947  25.651  1.00  0.00    -0.356 N 
ATOM      4  H   UNL A   1      44.247  21.866  24.870  1.00  0.00     0.163 HD
ENDROOT
BRANCH   1   5
ATOM      5  C   UNL A   1      41.812  20.760  26.973  1.00  0.00     0.105 C 
ATOM      6  C   UNL A   1      41.743  19.420  27.704  1.00  0.00     0.023 C 
BRANCH   5   7
ATOM      7  C   UNL A   1      40.475  21.339  26.537  1.00  0.00    -0.034 A 
ATOM      8  C   UNL A   1      38.030  22.546  25.633  1.00  0.00     0.000 A 
ATOM      9  C   UNL A   1      38.343  21.198  25.378  1.00  0.00     0.010 A 
ATOM     10  C   UNL A   1      38.963  23.267  26.407  1.00  0.00     0.049 A 
ATOM     11  C   UNL A   1      39.510  20.597  25.858  1.00  0.00     0.005 A 
ATOM     12  C   UNL A   1      40.175  22.681  26.816  1.00  0.00     0.025 A 
ATOM     13  Cl  UNL A   1      38.672  24.879  26.979  1.00  0.00    -0.084 Cl
BRANCH   8  14
ATOM     14  C   UNL A   1      36.765  23.094  25.085  1.00  0.00    -0.013 A 
ATOM     15  C   UNL A   1      34.660  24.286  25.333  1.00  0.00     0.133 A 
ATOM     16  C   UNL A   1      34.386  24.165  23.975  1.00  0.00     0.047 A 
ATOM     17  C   UNL A   1      35.838  23.780  25.886  1.00  0.00     0.056 A 
ATOM     18  C   UNL A   1      35.304  23.523  23.156  1.00  0.00     0.004 A 
ATOM     19  C   UNL A   1      36.468  22.979  23.709  1.00  0.00     0.009 A 
BRANCH  15  20
ATOM     20  O   UNL A   1      33.621  24.794  26.134  1.00  0.00    -0.410 OA
BRANCH  20  21
ATOM     21  C   UNL A   1      32.435  25.231  25.566  1.00  0.00     0.412 C 
ATOM     22  N   UNL A   1      31.393  24.378  25.804  1.00  0.00    -0.321 N 
ATOM     23  H   UNL A   1      30.532  24.599  25.381  1.00  0.00     0.167 HD
ATOM     24  O   UNL A   1      32.280  26.253  24.910  1.00  0.00    -0.224 OA
BRANCH  22  25
ATOM     25  C   UNL A   1      31.431  23.179  26.619  1.00  0.00     0.119 C 
BRANCH  25  26
ATOM     26  C   UNL A   1      31.624  21.921  25.770  1.00  0.00     0.021 C 
BRANCH  26  27
ATOM     27  C   UNL A   1      33.049  21.355  25.781  1.00  0.00     0.002 C 
BRANCH  27  28
ATOM     28  C   UNL A   1      33.463  20.591  24.518  1.00  0.00    -0.000 C 
BRANCH  28  29
ATOM     29  C   UNL A   1      32.395  20.505  23.425  1.00  0.00    -0.003 C 
ATOM     30  C   UNL A   1      32.236  21.798  22.639  1.00  0.00     0.004 C 
ENDBRANCH  28  29
ENDBRANCH  27  28
ENDBRANCH  26  27
ENDBRANCH  25  26
ENDBRANCH  22  25
ENDBRANCH  20  21
ENDBRANCH  15  20
ENDBRANCH   8  14
ENDBRANCH   5   7
ENDBRANCH   1   5
BRANCH   3  31
ATOM     31  C   UNL A   1      43.731  23.225  26.324  1.00  0.00     0.116 C 
BRANCH  31  32
ATOM     32  C   UNL A   1      42.976  24.312  25.557  1.00  0.00     0.021 C 
BRANCH  32  33
ATOM     33  C   UNL A   1      42.879  25.644  26.308  1.00  0.00     0.002 C 
BRANCH  33  34
ATOM     34  C   UNL A   1      41.872  26.643  25.724  1.00  0.00     0.002 C 
BRANCH  34  35
ATOM     35  C   UNL A   1      42.440  28.024  25.381  1.00  0.00     0.021 C 
BRANCH  35  36
ATOM     36  C   UNL A   1      43.523  28.520  26.335  1.00  0.00     0.116 C 
BRANCH  36  37
ATOM     37  N   UNL A   1      44.827  28.559  25.691  1.00  0.00    -0.352 N 
ATOM     38  C   UNL A   1      45.807  29.518  25.759  1.00  0.00     0.251 C 
ATOM     39  H   UNL A   1      45.038  27.783  25.124  1.00  0.00     0.163 HD
ATOM     40  O   UNL A   1      46.730  29.506  24.951  1.00  0.00    -0.269 OA
BRANCH  38  41
ATOM     41  C   UNL A   1      45.746  30.566  26.800  1.00  0.00     0.039 A 
ATOM     42  C   UNL A   1      46.401  30.355  28.015  1.00  0.00     0.014 A 
ATOM     43  C   UNL A   1      45.017  31.741  26.588  1.00  0.00     0.014 A 
ATOM     44  C   UNL A   1      46.369  31.347  28.999  1.00  0.00     0.010 A 
ATOM     45  C   UNL A   1      45.044  32.755  27.541  1.00  0.00     0.010 A 
ATOM     46  C   UNL A   1      45.714  32.567  28.759  1.00  0.00    -0.014 A 
BRANCH  46  47
ATOM     47  C   UNL A   1      45.714  33.654  29.770  1.00  0.00     0.031 A 
ATOM     48  C   UNL A   1      44.605  33.747  30.784  1.00  0.00     0.074 A 
ATOM     49  C   UNL A   1      46.681  34.593  29.738  1.00  0.00     0.049 A 
ATOM     50  N   UNL A   1      44.402  34.655  31.704  1.00  0.00    -0.248 NA
ATOM     51  C   UNL A   1      43.575  32.695  30.741  1.00  0.00     0.031 C 
ATOM     52  C   UNL A   1      47.791  34.634  28.782  1.00  0.00     0.029 A 
ATOM     53  N   UNL A   1      46.882  35.698  30.526  1.00  0.00    -0.354 N 
ATOM     54  C   UNL A   1      43.219  34.295  32.338  1.00  0.00     0.074 A 
ATOM     55  C   UNL A   1      42.723  33.114  31.666  1.00  0.00     0.031 C 
ATOM     56  C   UNL A   1      48.569  35.693  29.056  1.00  0.00     0.029 A 
ATOM     57  C   UNL A   1      47.993  36.429  30.178  1.00  0.00     0.049 A 
ATOM     58  H   UNL A   1      46.287  35.945  31.271  1.00  0.00     0.167 HD
ATOM     59  C   UNL A   1      42.610  34.882  33.396  1.00  0.00     0.031 A 
ATOM     60  C   UNL A   1      48.492  37.569  30.697  1.00  0.00     0.031 A 
ATOM     61  C   UNL A   1      43.113  36.051  34.068  1.00  0.00     0.049 A 
ATOM     62  C   UNL A   1      47.791  38.209  31.864  1.00  0.00     0.074 A 
ATOM     63  C   UNL A   1      42.598  36.691  35.182  1.00  0.00     0.029 A 
ATOM     64  N   UNL A   1      44.245  36.757  33.689  1.00  0.00    -0.354 N 
ATOM     65  N   UNL A   1      46.706  37.819  32.489  1.00  0.00    -0.248 NA
ATOM     66  C   UNL A   1      48.389  39.439  32.402  1.00  0.00     0.031 C 
ATOM     67  C   UNL A   1      43.389  37.815  35.444  1.00  0.00     0.029 A 
ATOM     68  C   UNL A   1      44.432  37.839  34.531  1.00  0.00     0.049 A 
ATOM     69  H   UNL A   1      44.830  36.522  32.932  1.00  0.00     0.167 HD
ATOM     70  C   UNL A   1      46.507  38.738  33.512  1.00  0.00     0.074 A 
ATOM     71  C   UNL A   1      47.592  39.696  33.431  1.00  0.00     0.031 C 
ATOM     72  C   UNL A   1      45.516  38.785  34.437  1.00  0.00     0.031 A 
BRANCH  59  73
ATOM     73  C   UNL A   1      41.324  34.270  33.888  1.00  0.00    -0.014 A 
ATOM     74  C   UNL A   1      40.080  34.680  33.374  1.00  0.00     0.010 A 
ATOM     75  C   UNL A   1      41.360  33.244  34.850  1.00  0.00     0.010 A 
ATOM     76  C   UNL A   1      38.896  34.107  33.844  1.00  0.00     0.020 A 
ATOM     77  C   UNL A   1      40.179  32.646  35.301  1.00  0.00     0.020 A 
ATOM     78  C   UNL A   1      38.952  33.095  34.806  1.00  0.00     0.054 A 
BRANCH  78  79
ATOM     79  S   UNL A   1      37.399  32.356  35.383  1.00  0.00     0.124 S 
ATOM     80  O   UNL A   1      37.868  31.126  36.018  1.00  0.00    -0.237 OA
ATOM     81  O   UNL A   1      36.879  33.373  36.293  1.00  0.00    -0.237 OA
ATOM     82  O   UNL A   1      36.627  32.169  34.157  1.00  0.00    -0.744 OA
ENDBRANCH  78  79
ENDBRANCH  59  73
BRANCH  60  83
ATOM     83  C   UNL A   1      49.728  38.168  30.124  1.00  0.00    -0.014 A 
ATOM     84  C   UNL A   1      50.988  37.854  30.662  1.00  0.00     0.010 A 
ATOM     85  C   UNL A   1      49.652  39.046  29.028  1.00  0.00     0.010 A 
ATOM     86  C   UNL A   1      52.148  38.422  30.127  1.00  0.00     0.020 A 
ATOM     87  C   UNL A   1      50.812  39.594  28.472  1.00  0.00     0.020 A 
ATOM     88  C   UNL A   1      52.053  39.288  29.034  1.00  0.00     0.054 A 
BRANCH  88  89
ATOM     89  S   UNL A   1      53.575  39.973  28.324  1.00  0.00     0.124 S 
ATOM     90  O   UNL A   1      53.373  39.746  26.897  1.00  0.00    -0.237 OA
ATOM     91  O   UNL A   1      53.526  41.367  28.757  1.00  0.00    -0.237 OA
ATOM     92  O   UNL A   1      54.630  39.174  28.942  1.00  0.00    -0.744 OA
ENDBRANCH  88  89
ENDBRANCH  60  83
BRANCH  72  93
ATOM     93  C   UNL A   1      45.575  39.887  35.461  1.00  0.00    -0.014 A 
ATOM     94  C   UNL A   1      46.242  39.712  36.686  1.00  0.00     0.010 A 
ATOM     95  C   UNL A   1      44.998  41.136  35.166  1.00  0.00     0.010 A 
ATOM     96  C   UNL A   1      46.304  40.757  37.610  1.00  0.00     0.020 A 
ATOM     97  C   UNL A   1      45.084  42.193  36.076  1.00  0.00     0.020 A 
ATOM     98  C   UNL A   1      45.725  41.992  37.299  1.00  0.00     0.054 A 
BRANCH  98  99
ATOM     99  S   UNL A   1      45.860  43.347  38.498  1.00  0.00     0.124 S 
ATOM    100  O   UNL A   1      46.839  42.819  39.444  1.00  0.00    -0.237 OA
ATOM    101  O   UNL A   1      46.320  44.460  37.672  1.00  0.00    -0.237 OA
ATOM    102  O   UNL A   1      44.502  43.485  39.019  1.00  0.00    -0.744 OA
ENDBRANCH  98  99
ENDBRANCH  72  93
ENDBRANCH  46  47
ENDBRANCH  38  41
ENDBRANCH  36  37
ENDBRANCH  35  36
ENDBRANCH  34  35
ENDBRANCH  33  34
ENDBRANCH  32  33
ENDBRANCH  31  32
ENDBRANCH   3  31
TORSDOF 25
ENDMDL
