MODEL 1
REMARK VINA RESULT:      -9.7      0.000      0.000
REMARK SMILES C#CCN(CC(=O)NCCCCCCNC(=O)c1ccc(-c2c3nc(c(-c4ccc(S(=O)(=O)[O-])cc4)c4ccc([nH]4)c(-c4ccc(S(=O)(=O)[O-])cc4)c4nc(c(-c5ccc(S(=O)(=O)[O-])cc5)c5ccc2[nH]5)C=C4)C=C3)cc1)C(=O)Nc1cccc(C#N)c1
REMARK SMILES IDX 11 1 10 2 9 3 8 4 6 5 7 6 5 8 4 9 3 10 2 11 1 12 78 13 79 14
REMARK SMILES IDX 80 15 81 17 82 18 88 19 83 20 85 21 84 22 86 23 87 24 12 25
REMARK SMILES IDX 13 26 14 27 15 28 16 29 17 31 18 32 19 33 77 34 20 35 76 36
REMARK SMILES IDX 21 37 22 38 23 39 70 40 24 41 75 42 69 43 71 44 25 45 74 46
REMARK SMILES IDX 68 47 67 48 26 50 56 51 37 52 55 53 38 54 41 55 54 56 72 57
REMARK SMILES IDX 39 58 40 59 53 61 73 62 42 63 27 64 28 65 36 66 29 67 35 68
REMARK SMILES IDX 30 69 31 70 32 71 33 72 34 73 57 74 58 75 66 76 59 77 65 78
REMARK SMILES IDX 60 79 61 80 62 81 63 82 64 83 43 84 44 85 52 86 45 87 51 88
REMARK SMILES IDX 46 89 47 90 48 91 49 92 50 93
REMARK H PARENT 8 7 80 16 15 30 71 49 41 60
REMARK Flexibility Score: inf
ROOT
ATOM      1  C   UNL A   1      30.985  27.946  25.586  1.00  0.00     0.002 C 
ENDROOT
BRANCH   1   2
ATOM      2  C   UNL A   1      31.249  29.184  24.720  1.00  0.00     0.021 C 
BRANCH   2   3
ATOM      3  C   UNL A   1      31.250  28.913  23.217  1.00  0.00     0.116 C 
BRANCH   3   4
ATOM      4  N   UNL A   1      32.571  28.807  22.645  1.00  0.00    -0.355 N 
ATOM      5  C   UNL A   1      33.386  27.749  22.410  1.00  0.00     0.239 C 
ATOM      6  O   UNL A   1      34.222  27.910  21.511  1.00  0.00    -0.273 OA
ATOM      7  H   UNL A   1      32.957  29.670  22.373  1.00  0.00     0.163 HD
BRANCH   5   8
ATOM      8  C   UNL A   1      33.284  26.376  23.096  1.00  0.00     0.222 C 
BRANCH   8   9
ATOM      9  N   UNL A   1      32.456  25.352  22.470  1.00  0.00    -0.304 N 
BRANCH   9  10
ATOM     10  C   UNL A   1      31.082  25.312  22.958  1.00  0.00     0.211 C 
BRANCH  10  11
ATOM     11  C   UNL A   1      30.912  24.770  24.368  1.00  0.00    -0.085 C 
ATOM     12  C   UNL A   1      30.765  24.305  25.578  1.00  0.00     0.006 C 
ENDBRANCH  10  11
ENDBRANCH   9  10
BRANCH   9  13
ATOM     13  C   UNL A   1      32.795  24.453  21.490  1.00  0.00     0.323 C 
ATOM     14  O   UNL A   1      32.925  24.815  20.313  1.00  0.00    -0.248 OA
ATOM     15  N   UNL A   1      33.192  23.178  21.728  1.00  0.00    -0.308 N 
ATOM     16  H   UNL A   1      33.768  22.846  21.002  1.00  0.00     0.171 HD
BRANCH  15  17
ATOM     17  C   UNL A   1      33.011  22.203  22.714  1.00  0.00     0.044 A 
ATOM     18  C   UNL A   1      32.293  21.055  22.357  1.00  0.00     0.026 A 
ATOM     19  C   UNL A   1      33.430  22.347  24.032  1.00  0.00     0.045 A 
ATOM     20  C   UNL A   1      32.145  19.998  23.258  1.00  0.00     0.004 A 
ATOM     21  C   UNL A   1      33.324  21.276  24.932  1.00  0.00     0.054 A 
ATOM     22  C   UNL A   1      32.696  20.093  24.534  1.00  0.00     0.019 A 
BRANCH  21  23
ATOM     23  C   UNL A   1      33.863  21.370  26.258  1.00  0.00     0.099 C 
ATOM     24  N   UNL A   1      34.258  21.478  27.348  1.00  0.00    -0.192 NA
ENDBRANCH  21  23
ENDBRANCH  15  17
ENDBRANCH   9  13
ENDBRANCH   8   9
ENDBRANCH   5   8
ENDBRANCH   3   4
ENDBRANCH   2   3
ENDBRANCH   1   2
BRANCH   1  25
ATOM     25  C   UNL A   1      31.895  27.791  26.809  1.00  0.00     0.002 C 
BRANCH  25  26
ATOM     26  C   UNL A   1      33.275  27.199  26.525  1.00  0.00     0.021 C 
BRANCH  26  27
ATOM     27  C   UNL A   1      34.377  28.235  26.406  1.00  0.00     0.116 C 
BRANCH  27  28
ATOM     28  N   UNL A   1      33.927  29.537  26.860  1.00  0.00    -0.352 N 
ATOM     29  C   UNL A   1      34.526  30.370  27.771  1.00  0.00     0.251 C 
ATOM     30  H   UNL A   1      33.087  29.865  26.464  1.00  0.00     0.163 HD
ATOM     31  O   UNL A   1      33.905  31.309  28.257  1.00  0.00    -0.269 OA
BRANCH  29  32
ATOM     32  C   UNL A   1      35.922  30.100  28.175  1.00  0.00     0.039 A 
ATOM     33  C   UNL A   1      36.175  29.572  29.441  1.00  0.00     0.014 A 
ATOM     34  C   UNL A   1      36.975  30.337  27.284  1.00  0.00     0.014 A 
ATOM     35  C   UNL A   1      37.482  29.236  29.795  1.00  0.00     0.010 A 
ATOM     36  C   UNL A   1      38.257  29.908  27.600  1.00  0.00     0.010 A 
ATOM     37  C   UNL A   1      38.528  29.370  28.866  1.00  0.00    -0.014 A 
BRANCH  37  38
ATOM     38  C   UNL A   1      39.916  28.967  29.209  1.00  0.00     0.031 A 
ATOM     39  C   UNL A   1      40.837  29.946  29.889  1.00  0.00     0.074 A 
ATOM     40  C   UNL A   1      40.358  27.740  28.872  1.00  0.00     0.049 A 
ATOM     41  N   UNL A   1      42.087  29.790  30.241  1.00  0.00    -0.248 NA
ATOM     42  C   UNL A   1      40.294  31.282  30.188  1.00  0.00     0.031 C 
ATOM     43  C   UNL A   1      39.572  26.717  28.178  1.00  0.00     0.029 A 
ATOM     44  N   UNL A   1      41.578  27.142  29.069  1.00  0.00    -0.354 N 
ATOM     45  C   UNL A   1      42.479  31.006  30.790  1.00  0.00     0.074 A 
ATOM     46  C   UNL A   1      41.357  31.908  30.669  1.00  0.00     0.031 C 
ATOM     47  C   UNL A   1      40.316  25.608  28.041  1.00  0.00     0.029 A 
ATOM     48  C   UNL A   1      41.647  25.856  28.587  1.00  0.00     0.049 A 
ATOM     49  H   UNL A   1      42.333  27.592  29.512  1.00  0.00     0.167 HD
ATOM     50  C   UNL A   1      43.661  31.335  31.363  1.00  0.00     0.031 A 
ATOM     51  C   UNL A   1      42.668  24.976  28.575  1.00  0.00     0.031 A 
ATOM     52  C   UNL A   1      44.774  30.430  31.481  1.00  0.00     0.049 A 
ATOM     53  C   UNL A   1      43.982  25.378  29.189  1.00  0.00     0.074 A 
ATOM     54  C   UNL A   1      45.997  30.650  32.091  1.00  0.00     0.029 A 
ATOM     55  N   UNL A   1      44.807  29.140  30.972  1.00  0.00    -0.354 N 
ATOM     56  N   UNL A   1      44.310  26.508  29.768  1.00  0.00    -0.248 NA
ATOM     57  C   UNL A   1      45.060  24.380  29.158  1.00  0.00     0.031 C 
ATOM     58  C   UNL A   1      46.796  29.521  31.884  1.00  0.00     0.029 A 
ATOM     59  C   UNL A   1      46.041  28.565  31.222  1.00  0.00     0.049 A 
ATOM     60  H   UNL A   1      44.062  28.699  30.504  1.00  0.00     0.167 HD
ATOM     61  C   UNL A   1      45.622  26.345  30.199  1.00  0.00     0.074 A 
ATOM     62  C   UNL A   1      46.019  25.001  29.829  1.00  0.00     0.031 C 
ATOM     63  C   UNL A   1      46.425  27.227  30.846  1.00  0.00     0.031 A 
BRANCH  50  64
ATOM     64  C   UNL A   1      43.819  32.738  31.892  1.00  0.00    -0.014 A 
ATOM     65  C   UNL A   1      44.298  33.780  31.077  1.00  0.00     0.010 A 
ATOM     66  C   UNL A   1      43.430  33.030  33.213  1.00  0.00     0.010 A 
ATOM     67  C   UNL A   1      44.421  35.077  31.584  1.00  0.00     0.020 A 
ATOM     68  C   UNL A   1      43.518  34.332  33.712  1.00  0.00     0.020 A 
ATOM     69  C   UNL A   1      44.027  35.345  32.898  1.00  0.00     0.054 A 
BRANCH  69  70
ATOM     70  S   UNL A   1      44.163  37.045  33.514  1.00  0.00     0.124 S 
ATOM     71  O   UNL A   1      42.999  37.143  34.391  1.00  0.00    -0.237 OA
ATOM     72  O   UNL A   1      45.458  37.036  34.189  1.00  0.00    -0.237 OA
ATOM     73  O   UNL A   1      44.099  37.859  32.303  1.00  0.00    -0.744 OA
ENDBRANCH  69  70
ENDBRANCH  50  64
BRANCH  51  74
ATOM     74  C   UNL A   1      42.486  23.632  27.958  1.00  0.00    -0.014 A 
ATOM     75  C   UNL A   1      42.787  23.414  26.602  1.00  0.00     0.010 A 
ATOM     76  C   UNL A   1      42.013  22.556  28.733  1.00  0.00     0.010 A 
ATOM     77  C   UNL A   1      42.600  22.152  26.029  1.00  0.00     0.020 A 
ATOM     78  C   UNL A   1      41.859  21.286  28.173  1.00  0.00     0.020 A 
ATOM     79  C   UNL A   1      42.142  21.095  26.820  1.00  0.00     0.054 A 
BRANCH  79  80
ATOM     80  S   UNL A   1      41.954  19.455  26.066  1.00  0.00     0.124 S 
ATOM     81  O   UNL A   1      42.804  19.565  24.884  1.00  0.00    -0.237 OA
ATOM     82  O   UNL A   1      42.443  18.569  27.119  1.00  0.00    -0.237 OA
ATOM     83  O   UNL A   1      40.520  19.365  25.799  1.00  0.00    -0.744 OA
ENDBRANCH  79  80
ENDBRANCH  51  74
BRANCH  63  84
ATOM     84  C   UNL A   1      47.804  26.759  31.235  1.00  0.00    -0.014 A 
ATOM     85  C   UNL A   1      48.046  26.120  32.464  1.00  0.00     0.010 A 
ATOM     86  C   UNL A   1      48.865  26.911  30.323  1.00  0.00     0.010 A 
ATOM     87  C   UNL A   1      49.330  25.674  32.786  1.00  0.00     0.020 A 
ATOM     88  C   UNL A   1      50.142  26.434  30.626  1.00  0.00     0.020 A 
ATOM     89  C   UNL A   1      50.369  25.830  31.863  1.00  0.00     0.054 A 
BRANCH  89  90
ATOM     90  S   UNL A   1      52.015  25.199  32.290  1.00  0.00     0.124 S 
ATOM     91  O   UNL A   1      52.837  25.737  31.210  1.00  0.00    -0.237 OA
ATOM     92  O   UNL A   1      52.248  25.784  33.608  1.00  0.00    -0.237 OA
ATOM     93  O   UNL A   1      51.845  23.748  32.279  1.00  0.00    -0.744 OA
ENDBRANCH  89  90
ENDBRANCH  63  84
ENDBRANCH  37  38
ENDBRANCH  29  32
ENDBRANCH  27  28
ENDBRANCH  26  27
ENDBRANCH  25  26
ENDBRANCH   1  25
TORSDOF 22
ENDMDL
MODEL 2
REMARK VINA RESULT:      -9.6      1.268      3.339
REMARK SMILES C#CCN(CC(=O)NCCCCCCNC(=O)c1ccc(-c2c3nc(c(-c4ccc(S(=O)(=O)[O-])cc4)c4ccc([nH]4)c(-c4ccc(S(=O)(=O)[O-])cc4)c4nc(c(-c5ccc(S(=O)(=O)[O-])cc5)c5ccc2[nH]5)C=C4)C=C3)cc1)C(=O)Nc1cccc(C#N)c1
REMARK SMILES IDX 11 1 10 2 9 3 8 4 6 5 7 6 5 8 4 9 3 10 2 11 1 12 78 13 79 14
REMARK SMILES IDX 80 15 81 17 82 18 88 19 83 20 85 21 84 22 86 23 87 24 12 25
REMARK SMILES IDX 13 26 14 27 15 28 16 29 17 31 18 32 19 33 77 34 20 35 76 36
REMARK SMILES IDX 21 37 22 38 23 39 70 40 24 41 75 42 69 43 71 44 25 45 74 46
REMARK SMILES IDX 68 47 67 48 26 50 56 51 37 52 55 53 38 54 41 55 54 56 72 57
REMARK SMILES IDX 39 58 40 59 53 61 73 62 42 63 27 64 28 65 36 66 29 67 35 68
REMARK SMILES IDX 30 69 31 70 32 71 33 72 34 73 57 74 58 75 66 76 59 77 65 78
REMARK SMILES IDX 60 79 61 80 62 81 63 82 64 83 43 84 44 85 52 86 45 87 51 88
REMARK SMILES IDX 46 89 47 90 48 91 49 92 50 93
REMARK H PARENT 8 7 80 16 15 30 71 49 41 60
REMARK Flexibility Score: inf
ROOT
ATOM      1  C   UNL A   1      30.697  25.887  26.109  1.00  0.00     0.002 C 
ENDROOT
BRANCH   1   2
ATOM      2  C   UNL A   1      30.427  24.402  26.378  1.00  0.00     0.021 C 
BRANCH   2   3
ATOM      3  C   UNL A   1      30.652  23.492  25.172  1.00  0.00     0.116 C 
BRANCH   3   4
ATOM      4  N   UNL A   1      31.594  22.425  25.414  1.00  0.00    -0.355 N 
ATOM      5  C   UNL A   1      32.937  22.412  25.595  1.00  0.00     0.239 C 
ATOM      6  O   UNL A   1      33.380  21.446  26.230  1.00  0.00    -0.273 OA
ATOM      7  H   UNL A   1      31.181  21.533  25.456  1.00  0.00     0.163 HD
BRANCH   5   8
ATOM      8  C   UNL A   1      33.906  23.526  25.161  1.00  0.00     0.222 C 
BRANCH   8   9
ATOM      9  N   UNL A   1      34.290  23.596  23.757  1.00  0.00    -0.304 N 
BRANCH   9  10
ATOM     10  C   UNL A   1      35.721  23.446  23.520  1.00  0.00     0.211 C 
BRANCH  10  11
ATOM     11  C   UNL A   1      36.355  22.212  24.142  1.00  0.00    -0.085 C 
ATOM     12  C   UNL A   1      36.899  21.154  24.675  1.00  0.00     0.006 C 
ENDBRANCH  10  11
ENDBRANCH   9  10
BRANCH   9  13
ATOM     13  C   UNL A   1      33.491  23.767  22.653  1.00  0.00     0.323 C 
ATOM     14  O   UNL A   1      33.324  22.846  21.842  1.00  0.00    -0.248 OA
ATOM     15  N   UNL A   1      32.690  24.842  22.450  1.00  0.00    -0.308 N 
ATOM     16  H   UNL A   1      31.925  24.609  21.875  1.00  0.00     0.171 HD
BRANCH  15  17
ATOM     17  C   UNL A   1      32.645  26.188  22.827  1.00  0.00     0.044 A 
ATOM     18  C   UNL A   1      33.834  26.763  23.296  1.00  0.00     0.026 A 
ATOM     19  C   UNL A   1      31.484  26.951  22.839  1.00  0.00     0.045 A 
ATOM     20  C   UNL A   1      33.892  28.122  23.609  1.00  0.00     0.004 A 
ATOM     21  C   UNL A   1      31.540  28.327  23.110  1.00  0.00     0.054 A 
ATOM     22  C   UNL A   1      32.754  28.913  23.478  1.00  0.00     0.019 A 
BRANCH  21  23
ATOM     23  C   UNL A   1      30.368  29.148  23.005  1.00  0.00     0.099 C 
ATOM     24  N   UNL A   1      29.437  29.845  22.962  1.00  0.00    -0.192 NA
ENDBRANCH  21  23
ENDBRANCH  15  17
ENDBRANCH   9  13
ENDBRANCH   8   9
ENDBRANCH   5   8
ENDBRANCH   3   4
ENDBRANCH   2   3
ENDBRANCH   1   2
BRANCH   1  25
ATOM     25  C   UNL A   1      32.095  26.382  26.492  1.00  0.00     0.002 C 
BRANCH  25  26
ATOM     26  C   UNL A   1      32.137  27.733  27.207  1.00  0.00     0.021 C 
BRANCH  26  27
ATOM     27  C   UNL A   1      33.514  28.369  27.242  1.00  0.00     0.116 C 
BRANCH  27  28
ATOM     28  N   UNL A   1      33.425  29.808  27.405  1.00  0.00    -0.352 N 
ATOM     29  C   UNL A   1      34.337  30.653  27.986  1.00  0.00     0.251 C 
ATOM     30  H   UNL A   1      32.608  30.232  27.054  1.00  0.00     0.163 HD
ATOM     31  O   UNL A   1      34.017  31.796  28.294  1.00  0.00    -0.269 OA
BRANCH  29  32
ATOM     32  C   UNL A   1      35.702  30.153  28.257  1.00  0.00     0.039 A 
ATOM     33  C   UNL A   1      36.655  30.194  27.241  1.00  0.00     0.014 A 
ATOM     34  C   UNL A   1      36.042  29.679  29.528  1.00  0.00     0.014 A 
ATOM     35  C   UNL A   1      37.966  29.802  27.515  1.00  0.00     0.010 A 
ATOM     36  C   UNL A   1      37.368  29.389  29.826  1.00  0.00     0.010 A 
ATOM     37  C   UNL A   1      38.341  29.430  28.818  1.00  0.00    -0.014 A 
BRANCH  37  38
ATOM     38  C   UNL A   1      39.744  29.063  29.137  1.00  0.00     0.031 A 
ATOM     39  C   UNL A   1      40.658  30.072  29.780  1.00  0.00     0.074 A 
ATOM     40  C   UNL A   1      40.205  27.839  28.811  1.00  0.00     0.049 A 
ATOM     41  N   UNL A   1      41.918  29.949  30.107  1.00  0.00    -0.248 NA
ATOM     42  C   UNL A   1      40.093  31.401  30.069  1.00  0.00     0.031 C 
ATOM     43  C   UNL A   1      39.426  26.788  28.152  1.00  0.00     0.029 A 
ATOM     44  N   UNL A   1      41.442  27.271  28.991  1.00  0.00    -0.354 N 
ATOM     45  C   UNL A   1      42.296  31.181  30.627  1.00  0.00     0.074 A 
ATOM     46  C   UNL A   1      41.152  32.058  30.516  1.00  0.00     0.031 C 
ATOM     47  C   UNL A   1      40.191  25.693  28.017  1.00  0.00     0.029 A 
ATOM     48  C   UNL A   1      41.527  25.978  28.529  1.00  0.00     0.049 A 
ATOM     49  H   UNL A   1      42.196  27.744  29.410  1.00  0.00     0.167 HD
ATOM     50  C   UNL A   1      43.483  31.545  31.169  1.00  0.00     0.031 A 
ATOM     51  C   UNL A   1      42.567  25.121  28.509  1.00  0.00     0.031 A 
ATOM     52  C   UNL A   1      44.617  30.667  31.278  1.00  0.00     0.049 A 
ATOM     53  C   UNL A   1      43.885  25.560  29.087  1.00  0.00     0.074 A 
ATOM     54  C   UNL A   1      45.848  30.923  31.857  1.00  0.00     0.029 A 
ATOM     55  N   UNL A   1      44.667  29.369  30.790  1.00  0.00    -0.354 N 
ATOM     56  N   UNL A   1      44.201  26.707  29.641  1.00  0.00    -0.248 NA
ATOM     57  C   UNL A   1      44.984  24.585  29.050  1.00  0.00     0.031 C 
ATOM     58  C   UNL A   1      46.666  29.808  31.651  1.00  0.00     0.029 A 
ATOM     59  C   UNL A   1      45.918  28.825  31.022  1.00  0.00     0.049 A 
ATOM     60  H   UNL A   1      43.922  28.904  30.345  1.00  0.00     0.167 HD
ATOM     61  C   UNL A   1      45.526  26.579  30.046  1.00  0.00     0.074 A 
ATOM     62  C   UNL A   1      45.943  25.238  29.690  1.00  0.00     0.031 C 
ATOM     63  C   UNL A   1      46.323  27.489  30.659  1.00  0.00     0.031 A 
BRANCH  50  64
ATOM     64  C   UNL A   1      43.621  32.960  31.671  1.00  0.00    -0.014 A 
ATOM     65  C   UNL A   1      43.300  33.303  32.997  1.00  0.00     0.010 A 
ATOM     66  C   UNL A   1      44.131  33.955  30.816  1.00  0.00     0.010 A 
ATOM     67  C   UNL A   1      43.451  34.617  33.447  1.00  0.00     0.020 A 
ATOM     68  C   UNL A   1      44.317  35.263  31.271  1.00  0.00     0.020 A 
ATOM     69  C   UNL A   1      43.961  35.589  32.580  1.00  0.00     0.054 A 
BRANCH  69  70
ATOM     70  S   UNL A   1      44.181  37.277  33.205  1.00  0.00     0.124 S 
ATOM     71  O   UNL A   1      43.152  37.352  34.239  1.00  0.00    -0.237 OA
ATOM     72  O   UNL A   1      45.558  37.260  33.689  1.00  0.00    -0.237 OA
ATOM     73  O   UNL A   1      43.945  38.115  32.032  1.00  0.00    -0.744 OA
ENDBRANCH  69  70
ENDBRANCH  50  64
BRANCH  51  74
ATOM     74  C   UNL A   1      42.401  23.763  27.919  1.00  0.00    -0.014 A 
ATOM     75  C   UNL A   1      41.995  22.675  28.713  1.00  0.00     0.010 A 
ATOM     76  C   UNL A   1      42.645  23.552  26.549  1.00  0.00     0.010 A 
ATOM     77  C   UNL A   1      41.856  21.402  28.154  1.00  0.00     0.020 A 
ATOM     78  C   UNL A   1      42.473  22.289  25.979  1.00  0.00     0.020 A 
ATOM     79  C   UNL A   1      42.091  21.218  26.787  1.00  0.00     0.054 A 
BRANCH  79  80
ATOM     80  S   UNL A   1      41.856  19.566  26.074  1.00  0.00     0.124 S 
ATOM     81  O   UNL A   1      40.428  19.564  25.773  1.00  0.00    -0.237 OA
ATOM     82  O   UNL A   1      42.749  19.595  24.919  1.00  0.00    -0.237 OA
ATOM     83  O   UNL A   1      42.270  18.668  27.151  1.00  0.00    -0.744 OA
ENDBRANCH  79  80
ENDBRANCH  51  74
BRANCH  63  84
ATOM     84  C   UNL A   1      47.720  27.057  31.026  1.00  0.00    -0.014 A 
ATOM     85  C   UNL A   1      48.799  27.223  30.139  1.00  0.00     0.010 A 
ATOM     86  C   UNL A   1      47.963  26.531  32.308  1.00  0.00     0.010 A 
ATOM     87  C   UNL A   1      50.087  26.836  30.516  1.00  0.00     0.020 A 
ATOM     88  C   UNL A   1      49.256  26.179  32.702  1.00  0.00     0.020 A 
ATOM     89  C   UNL A   1      50.308  26.321  31.797  1.00  0.00     0.054 A 
BRANCH  89  90
ATOM     90  S   UNL A   1      51.999  25.872  32.275  1.00  0.00     0.124 S 
ATOM     91  O   UNL A   1      51.991  24.422  32.099  1.00  0.00    -0.237 OA
ATOM     92  O   UNL A   1      52.809  26.617  31.316  1.00  0.00    -0.237 OA
ATOM     93  O   UNL A   1      52.102  26.329  33.659  1.00  0.00    -0.744 OA
ENDBRANCH  89  90
ENDBRANCH  63  84
ENDBRANCH  37  38
ENDBRANCH  29  32
ENDBRANCH  27  28
ENDBRANCH  26  27
ENDBRANCH  25  26
ENDBRANCH   1  25
TORSDOF 22
ENDMDL
MODEL 3
REMARK VINA RESULT:      -9.4      3.308      8.912
REMARK SMILES C#CCN(CC(=O)NCCCCCCNC(=O)c1ccc(-c2c3nc(c(-c4ccc(S(=O)(=O)[O-])cc4)c4ccc([nH]4)c(-c4ccc(S(=O)(=O)[O-])cc4)c4nc(c(-c5ccc(S(=O)(=O)[O-])cc5)c5ccc2[nH]5)C=C4)C=C3)cc1)C(=O)Nc1cccc(C#N)c1
REMARK SMILES IDX 11 1 10 2 9 3 8 4 6 5 7 6 5 8 4 9 3 10 2 11 1 12 78 13 79 14
REMARK SMILES IDX 80 15 81 17 82 18 88 19 83 20 85 21 84 22 86 23 87 24 12 25
REMARK SMILES IDX 13 26 14 27 15 28 16 29 17 31 18 32 19 33 77 34 20 35 76 36
REMARK SMILES IDX 21 37 22 38 23 39 70 40 24 41 75 42 69 43 71 44 25 45 74 46
REMARK SMILES IDX 68 47 67 48 26 50 56 51 37 52 55 53 38 54 41 55 54 56 72 57
REMARK SMILES IDX 39 58 40 59 53 61 73 62 42 63 27 64 28 65 36 66 29 67 35 68
REMARK SMILES IDX 30 69 31 70 32 71 33 72 34 73 57 74 58 75 66 76 59 77 65 78
REMARK SMILES IDX 60 79 61 80 62 81 63 82 64 83 43 84 44 85 52 86 45 87 51 88
REMARK SMILES IDX 46 89 47 90 48 91 49 92 50 93
REMARK H PARENT 8 7 80 16 15 30 71 49 41 60
REMARK Flexibility Score: inf
ROOT
ATOM      1  C   UNL A   1      32.516  30.165  27.059  1.00  0.00     0.002 C 
ENDROOT
BRANCH   1   2
ATOM      2  C   UNL A   1      31.964  30.451  25.657  1.00  0.00     0.021 C 
BRANCH   2   3
ATOM      3  C   UNL A   1      31.281  29.258  24.994  1.00  0.00     0.116 C 
BRANCH   3   4
ATOM      4  N   UNL A   1      30.906  29.490  23.619  1.00  0.00    -0.355 N 
ATOM      5  C   UNL A   1      30.585  28.654  22.602  1.00  0.00     0.239 C 
ATOM      6  O   UNL A   1      29.875  29.143  21.714  1.00  0.00    -0.273 OA
ATOM      7  H   UNL A   1      30.879  30.442  23.371  1.00  0.00     0.163 HD
BRANCH   5   8
ATOM      8  C   UNL A   1      30.951  27.161  22.527  1.00  0.00     0.222 C 
BRANCH   8   9
ATOM      9  N   UNL A   1      32.358  26.803  22.393  1.00  0.00    -0.304 N 
BRANCH   9  10
ATOM     10  C   UNL A   1      32.632  25.839  21.333  1.00  0.00     0.211 C 
BRANCH  10  11
ATOM     11  C   UNL A   1      32.967  24.434  21.806  1.00  0.00    -0.085 C 
ATOM     12  C   UNL A   1      33.255  23.229  22.212  1.00  0.00     0.006 C 
ENDBRANCH  10  11
ENDBRANCH   9  10
BRANCH   9  13
ATOM     13  C   UNL A   1      33.434  27.260  23.112  1.00  0.00     0.323 C 
ATOM     14  O   UNL A   1      34.042  28.282  22.765  1.00  0.00    -0.248 OA
ATOM     15  N   UNL A   1      33.804  26.776  24.324  1.00  0.00    -0.308 N 
ATOM     16  H   UNL A   1      34.286  27.458  24.845  1.00  0.00     0.171 HD
BRANCH  15  17
ATOM     17  C   UNL A   1      33.693  25.579  25.040  1.00  0.00     0.044 A 
ATOM     18  C   UNL A   1      34.862  24.828  25.217  1.00  0.00     0.026 A 
ATOM     19  C   UNL A   1      32.490  25.064  25.507  1.00  0.00     0.045 A 
ATOM     20  C   UNL A   1      34.851  23.667  25.994  1.00  0.00     0.004 A 
ATOM     21  C   UNL A   1      32.474  23.923  26.323  1.00  0.00     0.054 A 
ATOM     22  C   UNL A   1      33.664  23.237  26.580  1.00  0.00     0.019 A 
BRANCH  21  23
ATOM     23  C   UNL A   1      31.253  23.453  26.911  1.00  0.00     0.099 C 
ATOM     24  N   UNL A   1      30.251  23.123  27.403  1.00  0.00    -0.192 NA
ENDBRANCH  21  23
ENDBRANCH  15  17
ENDBRANCH   9  13
ENDBRANCH   8   9
ENDBRANCH   5   8
ENDBRANCH   3   4
ENDBRANCH   2   3
ENDBRANCH   1   2
BRANCH   1  25
ATOM     25  C   UNL A   1      33.502  31.205  27.604  1.00  0.00     0.002 C 
BRANCH  25  26
ATOM     26  C   UNL A   1      34.974  30.798  27.553  1.00  0.00     0.021 C 
BRANCH  26  27
ATOM     27  C   UNL A   1      35.863  31.580  28.502  1.00  0.00     0.116 C 
BRANCH  27  28
ATOM     28  N   UNL A   1      35.695  31.131  29.871  1.00  0.00    -0.352 N 
ATOM     29  C   UNL A   1      36.555  30.371  30.624  1.00  0.00     0.251 C 
ATOM     30  H   UNL A   1      34.860  31.405  30.316  1.00  0.00     0.163 HD
ATOM     31  O   UNL A   1      36.171  29.844  31.663  1.00  0.00    -0.269 OA
BRANCH  29  32
ATOM     32  C   UNL A   1      37.942  30.180  30.150  1.00  0.00     0.039 A 
ATOM     33  C   UNL A   1      38.976  30.106  31.081  1.00  0.00     0.014 A 
ATOM     34  C   UNL A   1      38.208  30.037  28.784  1.00  0.00     0.014 A 
ATOM     35  C   UNL A   1      40.274  29.841  30.645  1.00  0.00     0.010 A 
ATOM     36  C   UNL A   1      39.480  29.671  28.362  1.00  0.00     0.010 A 
ATOM     37  C   UNL A   1      40.531  29.588  29.286  1.00  0.00    -0.014 A 
BRANCH  37  38
ATOM     38  C   UNL A   1      41.898  29.252  28.813  1.00  0.00     0.031 A 
ATOM     39  C   UNL A   1      42.207  27.857  28.335  1.00  0.00     0.074 A 
ATOM     40  C   UNL A   1      42.868  30.186  28.854  1.00  0.00     0.049 A 
ATOM     41  N   UNL A   1      43.343  27.365  27.913  1.00  0.00    -0.248 NA
ATOM     42  C   UNL A   1      41.105  26.880  28.358  1.00  0.00     0.031 C 
ATOM     43  C   UNL A   1      42.701  31.561  29.331  1.00  0.00     0.029 A 
ATOM     44  N   UNL A   1      44.189  30.122  28.487  1.00  0.00    -0.354 N 
ATOM     45  C   UNL A   1      43.095  26.026  27.634  1.00  0.00     0.074 A 
ATOM     46  C   UNL A   1      41.719  25.766  27.991  1.00  0.00     0.031 C 
ATOM     47  C   UNL A   1      43.862  32.219  29.193  1.00  0.00     0.029 A 
ATOM     48  C   UNL A   1      44.870  31.303  28.669  1.00  0.00     0.049 A 
ATOM     49  H   UNL A   1      44.610  29.308  28.128  1.00  0.00     0.167 HD
ATOM     50  C   UNL A   1      43.932  25.101  27.107  1.00  0.00     0.031 A 
ATOM     51  C   UNL A   1      46.163  31.613  28.450  1.00  0.00     0.031 A 
ATOM     52  C   UNL A   1      45.300  25.368  26.752  1.00  0.00     0.049 A 
ATOM     53  C   UNL A   1      47.082  30.558  27.895  1.00  0.00     0.074 A 
ATOM     54  C   UNL A   1      46.216  24.514  26.163  1.00  0.00     0.029 A 
ATOM     55  N   UNL A   1      45.955  26.573  26.961  1.00  0.00    -0.354 N 
ATOM     56  N   UNL A   1      46.809  29.317  27.569  1.00  0.00    -0.248 NA
ATOM     57  C   UNL A   1      48.479  30.949  27.665  1.00  0.00     0.031 C 
ATOM     58  C   UNL A   1      47.444  25.177  26.087  1.00  0.00     0.029 A 
ATOM     59  C   UNL A   1      47.272  26.474  26.547  1.00  0.00     0.049 A 
ATOM     60  H   UNL A   1      45.543  27.380  27.346  1.00  0.00     0.167 HD
ATOM     61  C   UNL A   1      47.994  28.789  27.066  1.00  0.00     0.074 A 
ATOM     62  C   UNL A   1      48.978  29.851  27.115  1.00  0.00     0.031 C 
ATOM     63  C   UNL A   1      48.243  27.538  26.603  1.00  0.00     0.031 A 
BRANCH  50  64
ATOM     64  C   UNL A   1      43.395  23.708  26.896  1.00  0.00    -0.014 A 
ATOM     65  C   UNL A   1      43.183  23.191  25.605  1.00  0.00     0.010 A 
ATOM     66  C   UNL A   1      43.149  22.883  28.009  1.00  0.00     0.010 A 
ATOM     67  C   UNL A   1      42.699  21.891  25.433  1.00  0.00     0.020 A 
ATOM     68  C   UNL A   1      42.699  21.570  27.841  1.00  0.00     0.020 A 
ATOM     69  C   UNL A   1      42.464  21.088  26.553  1.00  0.00     0.054 A 
BRANCH  69  70
ATOM     70  S   UNL A   1      41.873  19.393  26.294  1.00  0.00     0.124 S 
ATOM     71  O   UNL A   1      42.256  18.745  27.546  1.00  0.00    -0.237 OA
ATOM     72  O   UNL A   1      40.439  19.582  26.098  1.00  0.00    -0.237 OA
ATOM     73  O   UNL A   1      42.607  18.945  25.113  1.00  0.00    -0.744 OA
ENDBRANCH  69  70
ENDBRANCH  50  64
BRANCH  51  74
ATOM     74  C   UNL A   1      46.664  32.982  28.760  1.00  0.00    -0.014 A 
ATOM     75  C   UNL A   1      47.494  33.213  29.871  1.00  0.00     0.010 A 
ATOM     76  C   UNL A   1      46.314  34.067  27.934  1.00  0.00     0.010 A 
ATOM     77  C   UNL A   1      47.947  34.503  30.162  1.00  0.00     0.020 A 
ATOM     78  C   UNL A   1      46.795  35.351  28.200  1.00  0.00     0.020 A 
ATOM     79  C   UNL A   1      47.599  35.563  29.320  1.00  0.00     0.054 A 
BRANCH  79  80
ATOM     80  S   UNL A   1      48.240  37.220  29.690  1.00  0.00     0.124 S 
ATOM     81  O   UNL A   1      49.394  36.919  30.532  1.00  0.00    -0.237 OA
ATOM     82  O   UNL A   1      48.543  37.742  28.360  1.00  0.00    -0.237 OA
ATOM     83  O   UNL A   1      47.123  37.874  30.370  1.00  0.00    -0.744 OA
ENDBRANCH  79  80
ENDBRANCH  51  74
BRANCH  63  84
ATOM     84  C   UNL A   1      49.624  27.254  26.072  1.00  0.00    -0.014 A 
ATOM     85  C   UNL A   1      50.646  26.756  26.902  1.00  0.00     0.010 A 
ATOM     86  C   UNL A   1      49.885  27.433  24.701  1.00  0.00     0.010 A 
ATOM     87  C   UNL A   1      51.909  26.478  26.376  1.00  0.00     0.020 A 
ATOM     88  C   UNL A   1      51.136  27.121  24.164  1.00  0.00     0.020 A 
ATOM     89  C   UNL A   1      52.145  26.658  25.009  1.00  0.00     0.054 A 
BRANCH  89  90
ATOM     90  S   UNL A   1      53.781  26.245  24.346  1.00  0.00     0.124 S 
ATOM     91  O   UNL A   1      54.669  26.967  25.253  1.00  0.00    -0.237 OA
ATOM     92  O   UNL A   1      53.813  24.789  24.463  1.00  0.00    -0.237 OA
ATOM     93  O   UNL A   1      53.742  26.755  22.978  1.00  0.00    -0.744 OA
ENDBRANCH  89  90
ENDBRANCH  63  84
ENDBRANCH  37  38
ENDBRANCH  29  32
ENDBRANCH  27  28
ENDBRANCH  26  27
ENDBRANCH  25  26
ENDBRANCH   1  25
TORSDOF 22
ENDMDL
