MODEL 1
REMARK VINA RESULT:     -10.2      0.000      0.000
REMARK SMILES C[C@H](NC(=O)N[C@](C)(C(=O)NCCCCCCNC(=O)c1ccc(-c2c3nc(c(-c4ccc(S(=O)(=O)[O-])cc4)c4ccc([nH]4)c(-c4ccc(S(=O)(=O)[O-])cc4)c4nc(c(-c5ccc(S(=O)(=O)[O-])cc5)c5ccc2[nH]5)C=C4)C=C3)cc1)C(F)(F)F)C(N)=O
REMARK SMILES IDX 14 1 13 2 12 3 11 4 9 5 10 6 7 8 8 9 6 10 3 11 4 12 5 14
REMARK SMILES IDX 2 16 1 17 85 18 86 19 87 20 81 23 82 24 83 25 84 26 15 27
REMARK SMILES IDX 16 28 17 29 18 30 19 31 20 33 21 34 22 35 80 36 23 37 79 38
REMARK SMILES IDX 24 39 25 40 26 41 73 42 27 43 78 44 72 45 74 46 28 47 77 48
REMARK SMILES IDX 71 49 70 50 29 52 59 53 40 54 58 55 41 56 44 57 57 58 75 59
REMARK SMILES IDX 42 60 43 61 56 63 76 64 45 65 30 66 31 67 39 68 32 69 38 70
REMARK SMILES IDX 33 71 34 72 35 73 36 74 37 75 60 76 61 77 69 78 62 79 68 80
REMARK SMILES IDX 63 81 64 82 65 83 66 84 67 85 46 86 47 87 55 88 48 89 54 90
REMARK SMILES IDX 49 91 50 92 51 93 52 94 53 95
REMARK H PARENT 11 7 3 13 6 15 86 21 86 22 18 32 74 51 44 62
REMARK Flexibility Score: inf
ROOT
ATOM      1  C   UNL A   1      37.562  23.312  25.853  1.00  0.00     0.002 C 
ENDROOT
BRANCH   1   2
ATOM      2  C   UNL A   1      36.295  23.285  24.987  1.00  0.00     0.021 C 
BRANCH   2   3
ATOM      3  C   UNL A   1      34.999  23.197  25.804  1.00  0.00     0.116 C 
BRANCH   3   4
ATOM      4  N   UNL A   1      34.083  22.271  25.155  1.00  0.00    -0.354 N 
ATOM      5  C   UNL A   1      32.859  22.491  24.579  1.00  0.00     0.255 C 
ATOM      6  O   UNL A   1      32.089  21.526  24.588  1.00  0.00    -0.272 OA
ATOM      7  H   UNL A   1      34.393  21.337  25.123  1.00  0.00     0.163 HD
BRANCH   5   8
ATOM      8  C   UNL A   1      32.432  23.877  24.066  1.00  0.00     0.213 C 
ATOM      9  C   UNL A   1      30.972  23.773  23.543  1.00  0.00     0.056 C 
BRANCH   8  10
ATOM     10  N   UNL A   1      32.439  24.856  25.189  1.00  0.00    -0.316 N 
ATOM     11  N   UNL A   1      31.850  27.110  24.642  1.00  0.00    -0.327 N 
ATOM     12  C   UNL A   1      32.222  26.131  25.438  1.00  0.00     0.316 C 
ATOM     13  H   UNL A   1      31.952  27.953  25.140  1.00  0.00     0.166 HD
ATOM     14  O   UNL A   1      32.436  26.466  26.612  1.00  0.00    -0.249 OA
ATOM     15  H   UNL A   1      32.687  24.396  26.024  1.00  0.00     0.166 HD
BRANCH  11  16
ATOM     16  C   UNL A   1      31.344  27.442  23.305  1.00  0.00     0.169 C 
ATOM     17  C   UNL A   1      29.837  27.522  23.148  1.00  0.00     0.041 C 
BRANCH  16  18
ATOM     18  C   UNL A   1      32.189  28.542  22.620  1.00  0.00     0.239 C 
ATOM     19  N   UNL A   1      31.508  29.513  21.941  1.00  0.00    -0.368 N 
ATOM     20  O   UNL A   1      33.416  28.517  22.556  1.00  0.00    -0.273 OA
ATOM     21  H   UNL A   1      30.525  29.546  21.983  1.00  0.00     0.159 HD
ATOM     22  H   UNL A   1      32.001  30.180  21.411  1.00  0.00     0.159 HD
ENDBRANCH  16  18
ENDBRANCH  11  16
ENDBRANCH   8  10
BRANCH   8  23
ATOM     23  C   UNL A   1      33.255  24.270  22.826  1.00  0.00     0.420 C 
ATOM     24  F   UNL A   1      32.485  24.847  21.869  1.00  0.00    -0.168 F 
ATOM     25  F   UNL A   1      34.193  25.198  23.155  1.00  0.00    -0.168 F 
ATOM     26  F   UNL A   1      33.907  23.253  22.243  1.00  0.00    -0.168 F 
ENDBRANCH   8  23
ENDBRANCH   5   8
ENDBRANCH   3   4
ENDBRANCH   2   3
ENDBRANCH   1   2
BRANCH   1  27
ATOM     27  C   UNL A   1      38.406  22.034  25.800  1.00  0.00     0.002 C 
BRANCH  27  28
ATOM     28  C   UNL A   1      39.674  22.060  26.656  1.00  0.00     0.021 C 
BRANCH  28  29
ATOM     29  C   UNL A   1      40.124  23.455  27.075  1.00  0.00     0.116 C 
BRANCH  29  30
ATOM     30  N   UNL A   1      40.946  24.093  26.056  1.00  0.00    -0.352 N 
ATOM     31  C   UNL A   1      41.477  25.359  26.055  1.00  0.00     0.251 C 
ATOM     32  H   UNL A   1      41.146  23.543  25.264  1.00  0.00     0.163 HD
ATOM     33  O   UNL A   1      41.985  25.819  25.037  1.00  0.00    -0.269 OA
BRANCH  31  34
ATOM     34  C   UNL A   1      41.411  26.168  27.289  1.00  0.00     0.039 A 
ATOM     35  C   UNL A   1      42.399  27.123  27.536  1.00  0.00     0.014 A 
ATOM     36  C   UNL A   1      40.348  26.002  28.181  1.00  0.00     0.014 A 
ATOM     37  C   UNL A   1      42.283  27.962  28.647  1.00  0.00     0.010 A 
ATOM     38  C   UNL A   1      40.197  26.884  29.244  1.00  0.00     0.010 A 
ATOM     39  C   UNL A   1      41.163  27.873  29.489  1.00  0.00    -0.014 A 
BRANCH  39  40
ATOM     40  C   UNL A   1      40.968  28.804  30.629  1.00  0.00     0.031 A 
ATOM     41  C   UNL A   1      41.837  28.688  31.852  1.00  0.00     0.074 A 
ATOM     42  C   UNL A   1      39.960  29.697  30.601  1.00  0.00     0.049 A 
ATOM     43  N   UNL A   1      41.771  29.349  32.979  1.00  0.00    -0.248 NA
ATOM     44  C   UNL A   1      42.903  27.675  31.810  1.00  0.00     0.031 C 
ATOM     45  C   UNL A   1      39.031  29.893  29.486  1.00  0.00     0.029 A 
ATOM     46  N   UNL A   1      39.544  30.605  31.542  1.00  0.00    -0.354 N 
ATOM     47  C   UNL A   1      42.769  28.817  33.787  1.00  0.00     0.074 A 
ATOM     48  C   UNL A   1      43.389  27.745  33.039  1.00  0.00     0.031 C 
ATOM     49  C   UNL A   1      38.180  30.885  29.793  1.00  0.00     0.029 A 
ATOM     50  C   UNL A   1      38.469  31.362  31.141  1.00  0.00     0.049 A 
ATOM     51  H   UNL A   1      39.975  30.704  32.423  1.00  0.00     0.167 HD
ATOM     52  C   UNL A   1      43.148  29.195  35.033  1.00  0.00     0.031 A 
ATOM     53  C   UNL A   1      37.792  32.332  31.786  1.00  0.00     0.031 A 
ATOM     54  C   UNL A   1      42.527  30.262  35.772  1.00  0.00     0.049 A 
ATOM     55  C   UNL A   1      38.205  32.715  33.180  1.00  0.00     0.074 A 
ATOM     56  C   UNL A   1      42.867  30.759  37.018  1.00  0.00     0.029 A 
ATOM     57  N   UNL A   1      41.432  30.994  35.335  1.00  0.00    -0.354 N 
ATOM     58  N   UNL A   1      39.186  32.238  33.909  1.00  0.00    -0.248 NA
ATOM     59  C   UNL A   1      37.423  33.771  33.835  1.00  0.00     0.031 C 
ATOM     60  C   UNL A   1      41.944  31.754  37.358  1.00  0.00     0.029 A 
ATOM     61  C   UNL A   1      41.066  31.919  36.299  1.00  0.00     0.049 A 
ATOM     62  H   UNL A   1      40.982  30.873  34.470  1.00  0.00     0.167 HD
ATOM     63  C   UNL A   1      39.160  32.960  35.097  1.00  0.00     0.074 A 
ATOM     64  C   UNL A   1      38.069  33.907  34.986  1.00  0.00     0.031 C 
ATOM     65  C   UNL A   1      39.973  32.853  36.177  1.00  0.00     0.031 A 
BRANCH  52  66
ATOM     66  C   UNL A   1      44.272  28.422  35.671  1.00  0.00    -0.014 A 
ATOM     67  C   UNL A   1      45.612  28.830  35.532  1.00  0.00     0.010 A 
ATOM     68  C   UNL A   1      43.989  27.257  36.407  1.00  0.00     0.010 A 
ATOM     69  C   UNL A   1      46.649  28.050  36.047  1.00  0.00     0.020 A 
ATOM     70  C   UNL A   1      45.022  26.490  36.954  1.00  0.00     0.020 A 
ATOM     71  C   UNL A   1      46.347  26.876  36.744  1.00  0.00     0.054 A 
BRANCH  71  72
ATOM     72  S   UNL A   1      47.712  25.860  37.372  1.00  0.00     0.124 S 
ATOM     73  O   UNL A   1      48.628  26.875  37.888  1.00  0.00    -0.237 OA
ATOM     74  O   UNL A   1      47.060  25.033  38.383  1.00  0.00    -0.237 OA
ATOM     75  O   UNL A   1      48.182  25.142  36.190  1.00  0.00    -0.744 OA
ENDBRANCH  71  72
ENDBRANCH  52  66
BRANCH  53  76
ATOM     76  C   UNL A   1      36.681  33.040  31.094  1.00  0.00    -0.014 A 
ATOM     77  C   UNL A   1      36.968  33.970  30.078  1.00  0.00     0.010 A 
ATOM     78  C   UNL A   1      35.339  32.765  31.411  1.00  0.00     0.010 A 
ATOM     79  C   UNL A   1      35.933  34.612  29.393  1.00  0.00     0.020 A 
ATOM     80  C   UNL A   1      34.301  33.388  30.711  1.00  0.00     0.020 A 
ATOM     81  C   UNL A   1      34.605  34.311  29.710  1.00  0.00     0.054 A 
BRANCH  81  82
ATOM     82  S   UNL A   1      33.282  35.099  28.750  1.00  0.00     0.124 S 
ATOM     83  O   UNL A   1      32.448  35.676  29.799  1.00  0.00    -0.237 OA
ATOM     84  O   UNL A   1      34.018  36.057  27.927  1.00  0.00    -0.237 OA
ATOM     85  O   UNL A   1      32.684  33.987  28.015  1.00  0.00    -0.744 OA
ENDBRANCH  81  82
ENDBRANCH  53  76
BRANCH  65  86
ATOM     86  C   UNL A   1      39.740  33.811  37.317  1.00  0.00    -0.014 A 
ATOM     87  C   UNL A   1      38.839  33.510  38.353  1.00  0.00     0.010 A 
ATOM     88  C   UNL A   1      40.480  35.006  37.376  1.00  0.00     0.010 A 
ATOM     89  C   UNL A   1      38.662  34.403  39.414  1.00  0.00     0.020 A 
ATOM     90  C   UNL A   1      40.327  35.887  38.449  1.00  0.00     0.020 A 
ATOM     91  C   UNL A   1      39.409  35.585  39.456  1.00  0.00     0.054 A 
BRANCH  91  92
ATOM     92  S   UNL A   1      39.197  36.703  40.869  1.00  0.00     0.124 S 
ATOM     93  O   UNL A   1      38.409  37.784  40.287  1.00  0.00    -0.237 OA
ATOM     94  O   UNL A   1      38.496  35.864  41.839  1.00  0.00    -0.237 OA
ATOM     95  O   UNL A   1      40.566  37.057  41.238  1.00  0.00    -0.744 OA
ENDBRANCH  91  92
ENDBRANCH  65  86
ENDBRANCH  39  40
ENDBRANCH  31  34
ENDBRANCH  29  30
ENDBRANCH  28  29
ENDBRANCH  27  28
ENDBRANCH   1  27
TORSDOF 20
ENDMDL
MODEL 2
REMARK VINA RESULT:     -10.2      2.340      8.347
REMARK SMILES C[C@H](NC(=O)N[C@](C)(C(=O)NCCCCCCNC(=O)c1ccc(-c2c3nc(c(-c4ccc(S(=O)(=O)[O-])cc4)c4ccc([nH]4)c(-c4ccc(S(=O)(=O)[O-])cc4)c4nc(c(-c5ccc(S(=O)(=O)[O-])cc5)c5ccc2[nH]5)C=C4)C=C3)cc1)C(F)(F)F)C(N)=O
REMARK SMILES IDX 14 1 13 2 12 3 11 4 9 5 10 6 7 8 8 9 6 10 3 11 4 12 5 14
REMARK SMILES IDX 2 16 1 17 85 18 86 19 87 20 81 23 82 24 83 25 84 26 15 27
REMARK SMILES IDX 16 28 17 29 18 30 19 31 20 33 21 34 22 35 80 36 23 37 79 38
REMARK SMILES IDX 24 39 25 40 26 41 73 42 27 43 78 44 72 45 74 46 28 47 77 48
REMARK SMILES IDX 71 49 70 50 29 52 59 53 40 54 58 55 41 56 44 57 57 58 75 59
REMARK SMILES IDX 42 60 43 61 56 63 76 64 45 65 30 66 31 67 39 68 32 69 38 70
REMARK SMILES IDX 33 71 34 72 35 73 36 74 37 75 60 76 61 77 69 78 62 79 68 80
REMARK SMILES IDX 63 81 64 82 65 83 66 84 67 85 46 86 47 87 55 88 48 89 54 90
REMARK SMILES IDX 49 91 50 92 51 93 52 94 53 95
REMARK H PARENT 11 7 3 13 6 15 86 21 86 22 18 32 74 51 44 62
REMARK Flexibility Score: inf
ROOT
ATOM      1  C   UNL A   1      32.776  29.616  26.433  1.00  0.00     0.002 C 
ENDROOT
BRANCH   1   2
ATOM      2  C   UNL A   1      33.011  28.567  25.338  1.00  0.00     0.021 C 
BRANCH   2   3
ATOM      3  C   UNL A   1      32.874  27.123  25.836  1.00  0.00     0.116 C 
BRANCH   3   4
ATOM      4  N   UNL A   1      34.068  26.374  25.476  1.00  0.00    -0.354 N 
ATOM      5  C   UNL A   1      34.206  25.207  24.771  1.00  0.00     0.255 C 
ATOM      6  O   UNL A   1      35.201  24.532  25.053  1.00  0.00    -0.272 OA
ATOM      7  H   UNL A   1      34.914  26.770  25.790  1.00  0.00     0.163 HD
BRANCH   5   8
ATOM      8  C   UNL A   1      33.133  24.715  23.783  1.00  0.00     0.213 C 
ATOM      9  C   UNL A   1      33.681  23.454  23.060  1.00  0.00     0.056 C 
BRANCH   8  10
ATOM     10  N   UNL A   1      31.909  24.310  24.529  1.00  0.00    -0.316 N 
ATOM     11  N   UNL A   1      32.123  22.422  25.983  1.00  0.00    -0.327 N 
ATOM     12  C   UNL A   1      31.486  23.408  25.392  1.00  0.00     0.316 C 
ATOM     13  H   UNL A   1      31.450  21.859  26.430  1.00  0.00     0.166 HD
ATOM     14  O   UNL A   1      30.279  23.488  25.663  1.00  0.00    -0.249 OA
ATOM     15  H   UNL A   1      31.170  24.920  24.303  1.00  0.00     0.166 HD
BRANCH  11  16
ATOM     16  C   UNL A   1      33.440  21.827  26.241  1.00  0.00     0.169 C 
ATOM     17  C   UNL A   1      34.005  22.005  27.638  1.00  0.00     0.041 C 
BRANCH  16  18
ATOM     18  C   UNL A   1      33.588  20.434  25.585  1.00  0.00     0.239 C 
ATOM     19  N   UNL A   1      32.921  19.399  26.177  1.00  0.00    -0.368 N 
ATOM     20  O   UNL A   1      34.353  20.198  24.654  1.00  0.00    -0.273 OA
ATOM     21  H   UNL A   1      32.305  19.573  26.925  1.00  0.00     0.159 HD
ATOM     22  H   UNL A   1      33.058  18.478  25.856  1.00  0.00     0.159 HD
ENDBRANCH  16  18
ENDBRANCH  11  16
ENDBRANCH   8  10
BRANCH   8  23
ATOM     23  C   UNL A   1      32.926  25.743  22.657  1.00  0.00     0.420 C 
ATOM     24  F   UNL A   1      32.763  25.145  21.450  1.00  0.00    -0.168 F 
ATOM     25  F   UNL A   1      31.790  26.459  22.872  1.00  0.00    -0.168 F 
ATOM     26  F   UNL A   1      33.921  26.632  22.522  1.00  0.00    -0.168 F 
ENDBRANCH   8  23
ENDBRANCH   5   8
ENDBRANCH   3   4
ENDBRANCH   2   3
ENDBRANCH   1   2
BRANCH   1  27
ATOM     27  C   UNL A   1      31.426  30.338  26.354  1.00  0.00     0.002 C 
BRANCH  27  28
ATOM     28  C   UNL A   1      31.496  31.859  26.508  1.00  0.00     0.021 C 
BRANCH  28  29
ATOM     29  C   UNL A   1      32.735  32.363  27.239  1.00  0.00     0.116 C 
BRANCH  29  30
ATOM     30  N   UNL A   1      32.614  33.764  27.616  1.00  0.00    -0.352 N 
ATOM     31  C   UNL A   1      33.312  34.455  28.576  1.00  0.00     0.251 C 
ATOM     32  H   UNL A   1      31.945  34.284  27.115  1.00  0.00     0.163 HD
ATOM     33  O   UNL A   1      32.960  35.582  28.910  1.00  0.00    -0.269 OA
BRANCH  31  34
ATOM     34  C   UNL A   1      34.478  33.814  29.218  1.00  0.00     0.039 A 
ATOM     35  C   UNL A   1      35.766  34.210  28.852  1.00  0.00     0.014 A 
ATOM     36  C   UNL A   1      34.290  32.848  30.211  1.00  0.00     0.014 A 
ATOM     37  C   UNL A   1      36.867  33.685  29.530  1.00  0.00     0.010 A 
ATOM     38  C   UNL A   1      35.382  32.380  30.933  1.00  0.00     0.010 A 
ATOM     39  C   UNL A   1      36.682  32.793  30.600  1.00  0.00    -0.014 A 
BRANCH  39  40
ATOM     40  C   UNL A   1      37.826  32.281  31.395  1.00  0.00     0.031 A 
ATOM     41  C   UNL A   1      38.611  31.094  30.906  1.00  0.00     0.074 A 
ATOM     42  C   UNL A   1      38.109  32.827  32.594  1.00  0.00     0.049 A 
ATOM     43  N   UNL A   1      39.587  30.449  31.492  1.00  0.00    -0.248 NA
ATOM     44  C   UNL A   1      38.227  30.544  29.596  1.00  0.00     0.031 C 
ATOM     45  C   UNL A   1      37.408  33.965  33.193  1.00  0.00     0.029 A 
ATOM     46  N   UNL A   1      39.058  32.494  33.526  1.00  0.00    -0.354 N 
ATOM     47  C   UNL A   1      39.918  29.405  30.636  1.00  0.00     0.074 A 
ATOM     48  C   UNL A   1      39.003  29.474  29.517  1.00  0.00     0.031 C 
ATOM     49  C   UNL A   1      37.976  34.258  34.374  1.00  0.00     0.029 A 
ATOM     50  C   UNL A   1      39.046  33.302  34.639  1.00  0.00     0.049 A 
ATOM     51  H   UNL A   1      39.688  31.746  33.411  1.00  0.00     0.167 HD
ATOM     52  C   UNL A   1      40.903  28.483  30.759  1.00  0.00     0.031 A 
ATOM     53  C   UNL A   1      39.811  33.277  35.747  1.00  0.00     0.031 A 
ATOM     54  C   UNL A   1      41.809  28.419  31.874  1.00  0.00     0.049 A 
ATOM     55  C   UNL A   1      40.877  32.225  35.882  1.00  0.00     0.074 A 
ATOM     56  C   UNL A   1      42.874  27.557  32.072  1.00  0.00     0.029 A 
ATOM     57  N   UNL A   1      41.754  29.247  32.987  1.00  0.00    -0.354 N 
ATOM     58  N   UNL A   1      41.211  31.279  35.037  1.00  0.00    -0.248 NA
ATOM     59  C   UNL A   1      41.671  32.242  37.116  1.00  0.00     0.031 C 
ATOM     60  C   UNL A   1      43.428  27.828  33.328  1.00  0.00     0.029 A 
ATOM     61  C   UNL A   1      42.747  28.899  33.886  1.00  0.00     0.049 A 
ATOM     62  H   UNL A   1      41.104  29.974  33.117  1.00  0.00     0.167 HD
ATOM     63  C   UNL A   1      42.279  30.608  35.624  1.00  0.00     0.074 A 
ATOM     64  C   UNL A   1      42.535  31.260  36.892  1.00  0.00     0.031 C 
ATOM     65  C   UNL A   1      42.988  29.554  35.149  1.00  0.00     0.031 A 
BRANCH  52  66
ATOM     66  C   UNL A   1      41.021  27.457  29.661  1.00  0.00    -0.014 A 
ATOM     67  C   UNL A   1      39.989  26.534  29.409  1.00  0.00     0.010 A 
ATOM     68  C   UNL A   1      42.190  27.402  28.880  1.00  0.00     0.010 A 
ATOM     69  C   UNL A   1      40.154  25.528  28.454  1.00  0.00     0.020 A 
ATOM     70  C   UNL A   1      42.346  26.418  27.899  1.00  0.00     0.020 A 
ATOM     71  C   UNL A   1      41.339  25.469  27.714  1.00  0.00     0.054 A 
BRANCH  71  72
ATOM     72  S   UNL A   1      41.545  24.133  26.505  1.00  0.00     0.124 S 
ATOM     73  O   UNL A   1      40.170  23.668  26.335  1.00  0.00    -0.237 OA
ATOM     74  O   UNL A   1      42.119  24.824  25.354  1.00  0.00    -0.237 OA
ATOM     75  O   UNL A   1      42.440  23.194  27.176  1.00  0.00    -0.744 OA
ENDBRANCH  71  72
ENDBRANCH  52  66
BRANCH  53  76
ATOM     76  C   UNL A   1      39.623  34.317  36.796  1.00  0.00    -0.014 A 
ATOM     77  C   UNL A   1      38.793  34.056  37.900  1.00  0.00     0.010 A 
ATOM     78  C   UNL A   1      40.298  35.548  36.721  1.00  0.00     0.010 A 
ATOM     79  C   UNL A   1      38.640  35.008  38.912  1.00  0.00     0.020 A 
ATOM     80  C   UNL A   1      40.166  36.494  37.744  1.00  0.00     0.020 A 
ATOM     81  C   UNL A   1      39.334  36.219  38.830  1.00  0.00     0.054 A 
BRANCH  81  82
ATOM     82  S   UNL A   1      39.180  37.404  40.196  1.00  0.00     0.124 S 
ATOM     83  O   UNL A   1      38.786  36.540  41.304  1.00  0.00    -0.237 OA
ATOM     84  O   UNL A   1      40.527  37.965  40.278  1.00  0.00    -0.237 OA
ATOM     85  O   UNL A   1      38.153  38.332  39.729  1.00  0.00    -0.744 OA
ENDBRANCH  81  82
ENDBRANCH  53  76
BRANCH  65  86
ATOM     86  C   UNL A   1      44.137  29.058  35.988  1.00  0.00    -0.014 A 
ATOM     87  C   UNL A   1      43.970  28.015  36.915  1.00  0.00     0.010 A 
ATOM     88  C   UNL A   1      45.417  29.612  35.800  1.00  0.00     0.010 A 
ATOM     89  C   UNL A   1      45.059  27.554  37.661  1.00  0.00     0.020 A 
ATOM     90  C   UNL A   1      46.513  29.134  36.523  1.00  0.00     0.020 A 
ATOM     91  C   UNL A   1      46.324  28.116  37.458  1.00  0.00     0.054 A 
BRANCH  91  92
ATOM     92  S   UNL A   1      47.730  27.465  38.402  1.00  0.00     0.124 S 
ATOM     93  O   UNL A   1      48.068  26.259  37.652  1.00  0.00    -0.237 OA
ATOM     94  O   UNL A   1      48.703  28.552  38.319  1.00  0.00    -0.237 OA
ATOM     95  O   UNL A   1      47.176  27.235  39.735  1.00  0.00    -0.744 OA
ENDBRANCH  91  92
ENDBRANCH  65  86
ENDBRANCH  39  40
ENDBRANCH  31  34
ENDBRANCH  29  30
ENDBRANCH  28  29
ENDBRANCH  27  28
ENDBRANCH   1  27
TORSDOF 20
ENDMDL
MODEL 3
REMARK VINA RESULT:     -10.1      2.714      9.146
REMARK SMILES C[C@H](NC(=O)N[C@](C)(C(=O)NCCCCCCNC(=O)c1ccc(-c2c3nc(c(-c4ccc(S(=O)(=O)[O-])cc4)c4ccc([nH]4)c(-c4ccc(S(=O)(=O)[O-])cc4)c4nc(c(-c5ccc(S(=O)(=O)[O-])cc5)c5ccc2[nH]5)C=C4)C=C3)cc1)C(F)(F)F)C(N)=O
REMARK SMILES IDX 14 1 13 2 12 3 11 4 9 5 10 6 7 8 8 9 6 10 3 11 4 12 5 14
REMARK SMILES IDX 2 16 1 17 85 18 86 19 87 20 81 23 82 24 83 25 84 26 15 27
REMARK SMILES IDX 16 28 17 29 18 30 19 31 20 33 21 34 22 35 80 36 23 37 79 38
REMARK SMILES IDX 24 39 25 40 26 41 73 42 27 43 78 44 72 45 74 46 28 47 77 48
REMARK SMILES IDX 71 49 70 50 29 52 59 53 40 54 58 55 41 56 44 57 57 58 75 59
REMARK SMILES IDX 42 60 43 61 56 63 76 64 45 65 30 66 31 67 39 68 32 69 38 70
REMARK SMILES IDX 33 71 34 72 35 73 36 74 37 75 60 76 61 77 69 78 62 79 68 80
REMARK SMILES IDX 63 81 64 82 65 83 66 84 67 85 46 86 47 87 55 88 48 89 54 90
REMARK SMILES IDX 49 91 50 92 51 93 52 94 53 95
REMARK H PARENT 11 7 3 13 6 15 86 21 86 22 18 32 74 51 44 62
REMARK Flexibility Score: inf
ROOT
ATOM      1  C   UNL A   1      33.490  28.020  26.817  1.00  0.00     0.002 C 
ENDROOT
BRANCH   1   2
ATOM      2  C   UNL A   1      33.839  27.317  25.498  1.00  0.00     0.021 C 
BRANCH   2   3
ATOM      3  C   UNL A   1      33.932  25.791  25.625  1.00  0.00     0.116 C 
BRANCH   3   4
ATOM      4  N   UNL A   1      34.213  25.216  24.319  1.00  0.00    -0.354 N 
ATOM      5  C   UNL A   1      33.573  24.216  23.633  1.00  0.00     0.255 C 
ATOM      6  O   UNL A   1      34.280  23.577  22.847  1.00  0.00    -0.272 OA
ATOM      7  H   UNL A   1      34.986  25.608  23.852  1.00  0.00     0.163 HD
BRANCH   5   8
ATOM      8  C   UNL A   1      32.107  23.840  23.911  1.00  0.00     0.213 C 
ATOM      9  C   UNL A   1      31.780  22.544  23.118  1.00  0.00     0.056 C 
BRANCH   8  10
ATOM     10  N   UNL A   1      31.930  23.537  25.359  1.00  0.00    -0.316 N 
ATOM     11  N   UNL A   1      32.950  21.526  26.160  1.00  0.00    -0.327 N 
ATOM     12  C   UNL A   1      32.245  22.631  26.263  1.00  0.00     0.316 C 
ATOM     13  H   UNL A   1      32.834  21.021  26.997  1.00  0.00     0.166 HD
ATOM     14  O   UNL A   1      31.768  22.844  27.386  1.00  0.00    -0.249 OA
ATOM     15  H   UNL A   1      31.404  24.254  25.782  1.00  0.00     0.166 HD
BRANCH  11  16
ATOM     16  C   UNL A   1      33.841  20.748  25.292  1.00  0.00     0.169 C 
ATOM     17  C   UNL A   1      35.326  21.038  25.406  1.00  0.00     0.041 C 
BRANCH  16  18
ATOM     18  C   UNL A   1      33.412  19.265  25.197  1.00  0.00     0.239 C 
ATOM     19  N   UNL A   1      34.312  18.394  24.653  1.00  0.00    -0.368 N 
ATOM     20  O   UNL A   1      32.282  18.865  25.468  1.00  0.00    -0.273 OA
ATOM     21  H   UNL A   1      35.221  18.700  24.430  1.00  0.00     0.159 HD
ATOM     22  H   UNL A   1      34.053  17.459  24.484  1.00  0.00     0.159 HD
ENDBRANCH  16  18
ENDBRANCH  11  16
ENDBRANCH   8  10
BRANCH   8  23
ATOM     23  C   UNL A   1      31.158  24.899  23.323  1.00  0.00     0.420 C 
ATOM     24  F   UNL A   1      31.631  25.412  22.159  1.00  0.00    -0.168 F 
ATOM     25  F   UNL A   1      29.956  24.342  23.020  1.00  0.00    -0.168 F 
ATOM     26  F   UNL A   1      30.908  25.937  24.135  1.00  0.00    -0.168 F 
ENDBRANCH   8  23
ENDBRANCH   5   8
ENDBRANCH   3   4
ENDBRANCH   2   3
ENDBRANCH   1   2
BRANCH   1  27
ATOM     27  C   UNL A   1      32.139  28.744  26.823  1.00  0.00     0.002 C 
BRANCH  27  28
ATOM     28  C   UNL A   1      32.221  30.267  26.941  1.00  0.00     0.021 C 
BRANCH  28  29
ATOM     29  C   UNL A   1      33.616  30.802  27.247  1.00  0.00     0.116 C 
BRANCH  29  30
ATOM     30  N   UNL A   1      33.585  32.192  27.677  1.00  0.00    -0.352 N 
ATOM     31  C   UNL A   1      34.422  32.834  28.557  1.00  0.00     0.251 C 
ATOM     32  H   UNL A   1      32.870  32.745  27.286  1.00  0.00     0.163 HD
ATOM     33  O   UNL A   1      34.149  33.958  28.968  1.00  0.00    -0.269 OA
BRANCH  31  34
ATOM     34  C   UNL A   1      35.644  32.145  29.019  1.00  0.00     0.039 A 
ATOM     35  C   UNL A   1      36.893  32.608  28.599  1.00  0.00     0.014 A 
ATOM     36  C   UNL A   1      35.549  31.064  29.900  1.00  0.00     0.014 A 
ATOM     37  C   UNL A   1      38.052  32.028  29.117  1.00  0.00     0.010 A 
ATOM     38  C   UNL A   1      36.703  30.536  30.468  1.00  0.00     0.010 A 
ATOM     39  C   UNL A   1      37.966  31.011  30.083  1.00  0.00    -0.014 A 
BRANCH  39  40
ATOM     40  C   UNL A   1      39.178  30.431  30.714  1.00  0.00     0.031 A 
ATOM     41  C   UNL A   1      39.748  31.051  31.961  1.00  0.00     0.074 A 
ATOM     42  C   UNL A   1      39.814  29.400  30.123  1.00  0.00     0.049 A 
ATOM     43  N   UNL A   1      40.840  30.744  32.613  1.00  0.00    -0.248 NA
ATOM     44  C   UNL A   1      39.004  32.184  32.533  1.00  0.00     0.031 C 
ATOM     45  C   UNL A   1      39.380  28.726  28.898  1.00  0.00     0.029 A 
ATOM     46  N   UNL A   1      40.968  28.744  30.471  1.00  0.00    -0.354 N 
ATOM     47  C   UNL A   1      40.926  31.658  33.656  1.00  0.00     0.074 A 
ATOM     48  C   UNL A   1      39.805  32.562  33.517  1.00  0.00     0.031 C 
ATOM     49  C   UNL A   1      40.234  27.728  28.619  1.00  0.00     0.029 A 
ATOM     50  C   UNL A   1      41.301  27.722  29.615  1.00  0.00     0.049 A 
ATOM     51  H   UNL A   1      41.507  28.983  31.260  1.00  0.00     0.167 HD
ATOM     52  C   UNL A   1      41.845  31.731  34.650  1.00  0.00     0.031 A 
ATOM     53  C   UNL A   1      42.348  26.875  29.628  1.00  0.00     0.031 A 
ATOM     54  C   UNL A   1      42.959  30.830  34.783  1.00  0.00     0.049 A 
ATOM     55  C   UNL A   1      43.375  26.992  30.719  1.00  0.00     0.074 A 
ATOM     56  C   UNL A   1      43.917  30.786  35.780  1.00  0.00     0.029 A 
ATOM     57  N   UNL A   1      43.268  29.817  33.886  1.00  0.00    -0.354 N 
ATOM     58  N   UNL A   1      43.412  27.829  31.729  1.00  0.00    -0.248 NA
ATOM     59  C   UNL A   1      44.499  26.048  30.676  1.00  0.00     0.031 C 
ATOM     60  C   UNL A   1      44.837  29.781  35.458  1.00  0.00     0.029 A 
ATOM     61  C   UNL A   1      44.418  29.160  34.291  1.00  0.00     0.049 A 
ATOM     62  H   UNL A   1      42.748  29.600  33.080  1.00  0.00     0.167 HD
ATOM     63  C   UNL A   1      44.545  27.490  32.461  1.00  0.00     0.074 A 
ATOM     64  C   UNL A   1      45.162  26.369  31.779  1.00  0.00     0.031 C 
ATOM     65  C   UNL A   1      45.024  28.049  33.599  1.00  0.00     0.031 A 
BRANCH  52  66
ATOM     66  C   UNL A   1      41.684  32.847  35.650  1.00  0.00    -0.014 A 
ATOM     67  C   UNL A   1      40.867  32.697  36.787  1.00  0.00     0.010 A 
ATOM     68  C   UNL A   1      42.345  34.071  35.443  1.00  0.00     0.010 A 
ATOM     69  C   UNL A   1      40.652  33.772  37.652  1.00  0.00     0.020 A 
ATOM     70  C   UNL A   1      42.160  35.140  36.325  1.00  0.00     0.020 A 
ATOM     71  C   UNL A   1      41.290  34.992  37.408  1.00  0.00     0.054 A 
BRANCH  71  72
ATOM     72  S   UNL A   1      40.966  36.384  38.524  1.00  0.00     0.124 S 
ATOM     73  O   UNL A   1      39.712  36.911  37.990  1.00  0.00    -0.237 OA
ATOM     74  O   UNL A   1      40.868  35.735  39.829  1.00  0.00    -0.237 OA
ATOM     75  O   UNL A   1      42.129  37.248  38.347  1.00  0.00    -0.744 OA
ENDBRANCH  71  72
ENDBRANCH  52  66
BRANCH  53  76
ATOM     76  C   UNL A   1      42.445  25.807  28.595  1.00  0.00    -0.014 A 
ATOM     77  C   UNL A   1      43.283  25.985  27.480  1.00  0.00     0.010 A 
ATOM     78  C   UNL A   1      41.741  24.598  28.736  1.00  0.00     0.010 A 
ATOM     79  C   UNL A   1      43.415  24.975  26.525  1.00  0.00     0.020 A 
ATOM     80  C   UNL A   1      41.888  23.575  27.794  1.00  0.00     0.020 A 
ATOM     81  C   UNL A   1      42.721  23.772  26.692  1.00  0.00     0.054 A 
BRANCH  81  82
ATOM     82  S   UNL A   1      42.973  22.447  25.478  1.00  0.00     0.124 S 
ATOM     83  O   UNL A   1      43.193  23.200  24.247  1.00  0.00    -0.237 OA
ATOM     84  O   UNL A   1      44.141  21.750  26.011  1.00  0.00    -0.237 OA
ATOM     85  O   UNL A   1      41.724  21.690  25.535  1.00  0.00    -0.744 OA
ENDBRANCH  81  82
ENDBRANCH  53  76
BRANCH  65  86
ATOM     86  C   UNL A   1      46.260  27.437  34.205  1.00  0.00    -0.014 A 
ATOM     87  C   UNL A   1      47.544  27.910  33.885  1.00  0.00     0.010 A 
ATOM     88  C   UNL A   1      46.125  26.407  35.155  1.00  0.00     0.010 A 
ATOM     89  C   UNL A   1      48.674  27.343  34.483  1.00  0.00     0.020 A 
ATOM     90  C   UNL A   1      47.249  25.858  35.776  1.00  0.00     0.020 A 
ATOM     91  C   UNL A   1      48.519  26.322  35.426  1.00  0.00     0.054 A 
BRANCH  91  92
ATOM     92  S   UNL A   1      49.997  25.638  36.225  1.00  0.00     0.124 S 
ATOM     93  O   UNL A   1      49.638  25.706  37.638  1.00  0.00    -0.237 OA
ATOM     94  O   UNL A   1      50.075  24.294  35.658  1.00  0.00    -0.237 OA
ATOM     95  O   UNL A   1      51.065  26.545  35.809  1.00  0.00    -0.744 OA
ENDBRANCH  91  92
ENDBRANCH  65  86
ENDBRANCH  39  40
ENDBRANCH  31  34
ENDBRANCH  29  30
ENDBRANCH  28  29
ENDBRANCH  27  28
ENDBRANCH   1  27
TORSDOF 20
ENDMDL
