MODEL 1
REMARK VINA RESULT:     -10.6      0.000      0.000
REMARK SMILES C#CCN(CC(=O)NCCCCCCNC(=O)c1ccc(-c2c3nc(c(-c4ccc(S(=O)(=O)[O-])cc4)c4ccc([nH]4)c(-c4ccc(S(=O)(=O)[O-])cc4)c4nc(c(-c5ccc(S(=O)(=O)[O-])cc5)c5ccc2[nH]5)C=C4)C=C3)cc1)C(=O)Nc1cc(Br)ccc1C
REMARK SMILES IDX 11 1 10 2 9 3 8 4 6 5 7 6 5 8 4 9 3 10 2 11 1 12 78 13 79 14
REMARK SMILES IDX 80 15 81 17 82 18 87 19 83 20 86 21 88 22 84 23 85 24 12 25
REMARK SMILES IDX 13 26 14 27 15 28 16 29 17 31 18 32 19 33 77 34 20 35 76 36
REMARK SMILES IDX 21 37 22 38 23 39 70 40 24 41 75 42 69 43 71 44 25 45 74 46
REMARK SMILES IDX 68 47 67 48 26 50 56 51 37 52 55 53 38 54 41 55 54 56 72 57
REMARK SMILES IDX 39 58 40 59 53 61 73 62 42 63 27 64 28 65 36 66 29 67 35 68
REMARK SMILES IDX 30 69 31 70 32 71 33 72 34 73 57 74 58 75 66 76 59 77 65 78
REMARK SMILES IDX 60 79 61 80 62 81 63 82 64 83 43 84 44 85 52 86 45 87 51 88
REMARK SMILES IDX 46 89 47 90 48 91 49 92 50 93
REMARK H PARENT 8 7 80 16 15 30 71 49 41 60
REMARK Flexibility Score: inf
ROOT
ATOM      1  C   UNL A   1      31.875  30.528  26.275  1.00  0.00     0.002 C 
ENDROOT
BRANCH   1   2
ATOM      2  C   UNL A   1      31.436  29.119  25.858  1.00  0.00     0.021 C 
BRANCH   2   3
ATOM      3  C   UNL A   1      31.011  28.976  24.395  1.00  0.00     0.116 C 
BRANCH   3   4
ATOM      4  N   UNL A   1      30.198  27.815  24.105  1.00  0.00    -0.355 N 
ATOM      5  C   UNL A   1      30.404  26.687  23.373  1.00  0.00     0.239 C 
ATOM      6  O   UNL A   1      29.661  25.735  23.654  1.00  0.00    -0.273 OA
ATOM      7  H   UNL A   1      29.309  27.848  24.524  1.00  0.00     0.163 HD
BRANCH   5   8
ATOM      8  C   UNL A   1      31.563  26.469  22.374  1.00  0.00     0.222 C 
BRANCH   8   9
ATOM      9  N   UNL A   1      32.896  26.109  22.866  1.00  0.00    -0.304 N 
BRANCH   9  10
ATOM     10  C   UNL A   1      33.540  25.011  22.160  1.00  0.00     0.211 C 
BRANCH  10  11
ATOM     11  C   UNL A   1      33.025  23.650  22.600  1.00  0.00    -0.085 C 
ATOM     12  C   UNL A   1      32.584  22.482  22.977  1.00  0.00     0.006 C 
ENDBRANCH  10  11
ENDBRANCH   9  10
BRANCH   9  13
ATOM     13  C   UNL A   1      33.667  26.770  23.808  1.00  0.00     0.323 C 
ATOM     14  O   UNL A   1      34.103  27.909  23.609  1.00  0.00    -0.248 OA
ATOM     15  N   UNL A   1      33.802  26.291  25.075  1.00  0.00    -0.307 N 
ATOM     16  H   UNL A   1      33.689  26.980  25.770  1.00  0.00     0.171 HD
BRANCH  15  17
ATOM     17  C   UNL A   1      34.067  25.016  25.590  1.00  0.00     0.046 A 
ATOM     18  C   UNL A   1      35.326  24.469  25.316  1.00  0.00     0.042 A 
ATOM     19  C   UNL A   1      33.122  24.251  26.284  1.00  0.00    -0.027 A 
ATOM     20  C   UNL A   1      35.700  23.259  25.899  1.00  0.00     0.020 A 
ATOM     21  C   UNL A   1      33.536  23.074  26.923  1.00  0.00     0.007 A 
ATOM     22  C   UNL A   1      31.655  24.553  26.211  1.00  0.00     0.046 C 
ATOM     23  Br  UNL A   1      37.400  22.521  25.529  1.00  0.00    -0.051 Br
ATOM     24  C   UNL A   1      34.831  22.590  26.753  1.00  0.00     0.016 A 
ENDBRANCH  15  17
ENDBRANCH   9  13
ENDBRANCH   8   9
ENDBRANCH   5   8
ENDBRANCH   3   4
ENDBRANCH   2   3
ENDBRANCH   1   2
BRANCH   1  25
ATOM     25  C   UNL A   1      33.163  30.603  27.100  1.00  0.00     0.002 C 
BRANCH  25  26
ATOM     26  C   UNL A   1      34.117  29.423  26.924  1.00  0.00     0.021 C 
BRANCH  26  27
ATOM     27  C   UNL A   1      35.482  29.619  27.566  1.00  0.00     0.116 C 
BRANCH  27  28
ATOM     28  N   UNL A   1      35.371  29.984  28.968  1.00  0.00    -0.352 N 
ATOM     29  C   UNL A   1      36.317  29.880  29.956  1.00  0.00     0.251 C 
ATOM     30  H   UNL A   1      34.502  30.355  29.245  1.00  0.00     0.163 HD
ATOM     31  O   UNL A   1      35.994  30.010  31.136  1.00  0.00    -0.269 OA
BRANCH  29  32
ATOM     32  C   UNL A   1      37.722  29.592  29.594  1.00  0.00     0.039 A 
ATOM     33  C   UNL A   1      38.596  29.118  30.575  1.00  0.00     0.014 A 
ATOM     34  C   UNL A   1      38.172  29.783  28.285  1.00  0.00     0.014 A 
ATOM     35  C   UNL A   1      39.908  28.789  30.229  1.00  0.00     0.010 A 
ATOM     36  C   UNL A   1      39.451  29.371  27.924  1.00  0.00     0.010 A 
ATOM     37  C   UNL A   1      40.340  28.887  28.895  1.00  0.00    -0.014 A 
BRANCH  37  38
ATOM     38  C   UNL A   1      41.724  28.517  28.501  1.00  0.00     0.031 A 
ATOM     39  C   UNL A   1      42.796  29.575  28.443  1.00  0.00     0.074 A 
ATOM     40  C   UNL A   1      42.008  27.248  28.146  1.00  0.00     0.049 A 
ATOM     41  N   UNL A   1      44.046  29.463  28.074  1.00  0.00    -0.248 NA
ATOM     42  C   UNL A   1      42.404  30.943  28.825  1.00  0.00     0.031 C 
ATOM     43  C   UNL A   1      41.050  26.139  28.125  1.00  0.00     0.029 A 
ATOM     44  N   UNL A   1      43.185  26.677  27.732  1.00  0.00    -0.354 N 
ATOM     45  C   UNL A   1      44.582  30.744  28.162  1.00  0.00     0.074 A 
ATOM     46  C   UNL A   1      43.509  31.625  28.564  1.00  0.00     0.031 C 
ATOM     47  C   UNL A   1      41.685  25.017  27.747  1.00  0.00     0.029 A 
ATOM     48  C   UNL A   1      43.082  25.332  27.458  1.00  0.00     0.049 A 
ATOM     49  H   UNL A   1      44.024  27.181  27.638  1.00  0.00     0.167 HD
ATOM     50  C   UNL A   1      45.857  31.148  27.952  1.00  0.00     0.031 A 
ATOM     51  C   UNL A   1      44.003  24.454  27.018  1.00  0.00     0.031 A 
ATOM     52  C   UNL A   1      46.925  30.265  27.565  1.00  0.00     0.049 A 
ATOM     53  C   UNL A   1      45.410  24.928  26.774  1.00  0.00     0.074 A 
ATOM     54  C   UNL A   1      48.263  30.565  27.379  1.00  0.00     0.029 A 
ATOM     55  N   UNL A   1      46.779  28.911  27.305  1.00  0.00    -0.354 N 
ATOM     56  N   UNL A   1      45.912  26.131  26.926  1.00  0.00    -0.248 NA
ATOM     57  C   UNL A   1      46.380  23.925  26.315  1.00  0.00     0.031 C 
ATOM     58  C   UNL A   1      48.914  29.406  26.948  1.00  0.00     0.029 A 
ATOM     59  C   UNL A   1      47.997  28.367  26.934  1.00  0.00     0.049 A 
ATOM     60  H   UNL A   1      45.934  28.410  27.373  1.00  0.00     0.167 HD
ATOM     61  C   UNL A   1      47.263  26.020  26.611  1.00  0.00     0.074 A 
ATOM     62  C   UNL A   1      47.501  24.632  26.275  1.00  0.00     0.031 C 
ATOM     63  C   UNL A   1      48.219  26.982  26.604  1.00  0.00     0.031 A 
BRANCH  50  64
ATOM     64  C   UNL A   1      46.165  32.612  28.130  1.00  0.00    -0.014 A 
ATOM     65  C   UNL A   1      46.579  33.125  29.373  1.00  0.00     0.010 A 
ATOM     66  C   UNL A   1      46.079  33.484  27.027  1.00  0.00     0.010 A 
ATOM     67  C   UNL A   1      46.860  34.485  29.521  1.00  0.00     0.020 A 
ATOM     68  C   UNL A   1      46.390  34.840  27.164  1.00  0.00     0.020 A 
ATOM     69  C   UNL A   1      46.763  35.335  28.415  1.00  0.00     0.054 A 
BRANCH  69  70
ATOM     70  S   UNL A   1      47.159  37.091  28.632  1.00  0.00     0.124 S 
ATOM     71  O   UNL A   1      46.718  37.332  30.004  1.00  0.00    -0.237 OA
ATOM     72  O   UNL A   1      48.604  37.119  28.423  1.00  0.00    -0.237 OA
ATOM     73  O   UNL A   1      46.369  37.755  27.599  1.00  0.00    -0.744 OA
ENDBRANCH  69  70
ENDBRANCH  50  64
BRANCH  51  74
ATOM     74  C   UNL A   1      43.626  23.030  26.789  1.00  0.00    -0.014 A 
ATOM     75  C   UNL A   1      42.863  22.329  27.739  1.00  0.00     0.010 A 
ATOM     76  C   UNL A   1      44.027  22.368  25.613  1.00  0.00     0.010 A 
ATOM     77  C   UNL A   1      42.525  20.989  27.529  1.00  0.00     0.020 A 
ATOM     78  C   UNL A   1      43.665  21.038  25.385  1.00  0.00     0.020 A 
ATOM     79  C   UNL A   1      42.925  20.352  26.351  1.00  0.00     0.054 A 
BRANCH  79  80
ATOM     80  S   UNL A   1      42.437  18.626  26.079  1.00  0.00     0.124 S 
ATOM     81  O   UNL A   1      43.342  18.219  25.009  1.00  0.00    -0.237 OA
ATOM     82  O   UNL A   1      42.684  18.020  27.384  1.00  0.00    -0.237 OA
ATOM     83  O   UNL A   1      41.028  18.726  25.704  1.00  0.00    -0.744 OA
ENDBRANCH  79  80
ENDBRANCH  51  74
BRANCH  63  84
ATOM     84  C   UNL A   1      49.625  26.561  26.262  1.00  0.00    -0.014 A 
ATOM     85  C   UNL A   1      50.210  26.892  25.027  1.00  0.00     0.010 A 
ATOM     86  C   UNL A   1      50.392  25.874  27.222  1.00  0.00     0.010 A 
ATOM     87  C   UNL A   1      51.526  26.514  24.747  1.00  0.00     0.020 A 
ATOM     88  C   UNL A   1      51.717  25.523  26.958  1.00  0.00     0.020 A 
ATOM     89  C   UNL A   1      52.272  25.833  25.714  1.00  0.00     0.054 A 
BRANCH  89  90
ATOM     90  S   UNL A   1      53.992  25.393  25.341  1.00  0.00     0.124 S 
ATOM     91  O   UNL A   1      54.722  26.116  26.379  1.00  0.00    -0.237 OA
ATOM     92  O   UNL A   1      53.985  23.938  25.474  1.00  0.00    -0.237 OA
ATOM     93  O   UNL A   1      54.189  25.888  23.980  1.00  0.00    -0.744 OA
ENDBRANCH  89  90
ENDBRANCH  63  84
ENDBRANCH  37  38
ENDBRANCH  29  32
ENDBRANCH  27  28
ENDBRANCH  26  27
ENDBRANCH  25  26
ENDBRANCH   1  25
TORSDOF 21
ENDMDL
MODEL 2
REMARK VINA RESULT:     -10.6      6.508     11.943
REMARK SMILES C#CCN(CC(=O)NCCCCCCNC(=O)c1ccc(-c2c3nc(c(-c4ccc(S(=O)(=O)[O-])cc4)c4ccc([nH]4)c(-c4ccc(S(=O)(=O)[O-])cc4)c4nc(c(-c5ccc(S(=O)(=O)[O-])cc5)c5ccc2[nH]5)C=C4)C=C3)cc1)C(=O)Nc1cc(Br)ccc1C
REMARK SMILES IDX 11 1 10 2 9 3 8 4 6 5 7 6 5 8 4 9 3 10 2 11 1 12 78 13 79 14
REMARK SMILES IDX 80 15 81 17 82 18 87 19 83 20 86 21 88 22 84 23 85 24 12 25
REMARK SMILES IDX 13 26 14 27 15 28 16 29 17 31 18 32 19 33 77 34 20 35 76 36
REMARK SMILES IDX 21 37 22 38 23 39 70 40 24 41 75 42 69 43 71 44 25 45 74 46
REMARK SMILES IDX 68 47 67 48 26 50 56 51 37 52 55 53 38 54 41 55 54 56 72 57
REMARK SMILES IDX 39 58 40 59 53 61 73 62 42 63 27 64 28 65 36 66 29 67 35 68
REMARK SMILES IDX 30 69 31 70 32 71 33 72 34 73 57 74 58 75 66 76 59 77 65 78
REMARK SMILES IDX 60 79 61 80 62 81 63 82 64 83 43 84 44 85 52 86 45 87 51 88
REMARK SMILES IDX 46 89 47 90 48 91 49 92 50 93
REMARK H PARENT 8 7 80 16 15 30 71 49 41 60
REMARK Flexibility Score: inf
ROOT
ATOM      1  C   UNL A   1      39.039  21.756  26.043  1.00  0.00     0.002 C 
ENDROOT
BRANCH   1   2
ATOM      2  C   UNL A   1      37.727  22.426  25.617  1.00  0.00     0.021 C 
BRANCH   2   3
ATOM      3  C   UNL A   1      36.540  21.477  25.438  1.00  0.00     0.116 C 
BRANCH   3   4
ATOM      4  N   UNL A   1      35.606  21.451  26.544  1.00  0.00    -0.355 N 
ATOM      5  C   UNL A   1      34.547  22.230  26.892  1.00  0.00     0.239 C 
ATOM      6  O   UNL A   1      33.740  21.702  27.671  1.00  0.00    -0.273 OA
ATOM      7  H   UNL A   1      35.773  20.717  27.176  1.00  0.00     0.163 HD
BRANCH   5   8
ATOM      8  C   UNL A   1      34.210  23.608  26.277  1.00  0.00     0.222 C 
BRANCH   8   9
ATOM      9  N   UNL A   1      32.878  23.854  25.718  1.00  0.00    -0.304 N 
BRANCH   9  10
ATOM     10  C   UNL A   1      32.767  23.662  24.279  1.00  0.00     0.211 C 
BRANCH  10  11
ATOM     11  C   UNL A   1      32.571  22.205  23.895  1.00  0.00    -0.085 C 
ATOM     12  C   UNL A   1      32.403  20.954  23.567  1.00  0.00     0.006 C 
ENDBRANCH  10  11
ENDBRANCH   9  10
BRANCH   9  13
ATOM     13  C   UNL A   1      31.697  24.098  26.399  1.00  0.00     0.323 C 
ATOM     14  O   UNL A   1      30.972  23.179  26.795  1.00  0.00    -0.248 OA
ATOM     15  N   UNL A   1      31.385  25.344  26.851  1.00  0.00    -0.307 N 
ATOM     16  H   UNL A   1      31.056  25.354  27.779  1.00  0.00     0.171 HD
BRANCH  15  17
ATOM     17  C   UNL A   1      31.438  26.613  26.263  1.00  0.00     0.046 A 
ATOM     18  C   UNL A   1      32.156  27.601  26.947  1.00  0.00     0.042 A 
ATOM     19  C   UNL A   1      30.756  26.949  25.087  1.00  0.00    -0.027 A 
ATOM     20  C   UNL A   1      32.352  28.851  26.359  1.00  0.00     0.020 A 
ATOM     21  C   UNL A   1      31.022  28.181  24.474  1.00  0.00     0.007 A 
ATOM     22  C   UNL A   1      29.623  26.115  24.567  1.00  0.00     0.046 C 
ATOM     23  Br  UNL A   1      33.321  30.185  27.281  1.00  0.00    -0.051 Br
ATOM     24  C   UNL A   1      31.839  29.123  25.095  1.00  0.00     0.016 A 
ENDBRANCH  15  17
ENDBRANCH   9  13
ENDBRANCH   8   9
ENDBRANCH   5   8
ENDBRANCH   3   4
ENDBRANCH   2   3
ENDBRANCH   1   2
BRANCH   1  25
ATOM     25  C   UNL A   1      39.914  22.564  27.006  1.00  0.00     0.002 C 
BRANCH  25  26
ATOM     26  C   UNL A   1      41.288  21.963  27.296  1.00  0.00     0.021 C 
BRANCH  26  27
ATOM     27  C   UNL A   1      42.403  22.986  27.441  1.00  0.00     0.116 C 
BRANCH  27  28
ATOM     28  N   UNL A   1      42.561  23.786  26.238  1.00  0.00    -0.352 N 
ATOM     29  C   UNL A   1      42.323  25.126  26.066  1.00  0.00     0.251 C 
ATOM     30  H   UNL A   1      42.879  23.302  25.442  1.00  0.00     0.163 HD
ATOM     31  O   UNL A   1      42.278  25.603  24.933  1.00  0.00    -0.269 OA
BRANCH  29  32
ATOM     32  C   UNL A   1      42.104  25.987  27.248  1.00  0.00     0.039 A 
ATOM     33  C   UNL A   1      42.934  27.091  27.451  1.00  0.00     0.014 A 
ATOM     34  C   UNL A   1      41.073  25.707  28.149  1.00  0.00     0.014 A 
ATOM     35  C   UNL A   1      42.697  27.942  28.533  1.00  0.00     0.010 A 
ATOM     36  C   UNL A   1      40.784  26.604  29.173  1.00  0.00     0.010 A 
ATOM     37  C   UNL A   1      41.604  27.722  29.387  1.00  0.00    -0.014 A 
BRANCH  37  38
ATOM     38  C   UNL A   1      41.319  28.630  30.529  1.00  0.00     0.031 A 
ATOM     39  C   UNL A   1      42.134  28.527  31.792  1.00  0.00     0.074 A 
ATOM     40  C   UNL A   1      40.299  29.508  30.453  1.00  0.00     0.049 A 
ATOM     41  N   UNL A   1      42.008  29.190  32.912  1.00  0.00    -0.248 NA
ATOM     42  C   UNL A   1      43.218  27.529  31.807  1.00  0.00     0.031 C 
ATOM     43  C   UNL A   1      39.411  29.680  29.300  1.00  0.00     0.029 A 
ATOM     44  N   UNL A   1      39.834  30.421  31.367  1.00  0.00    -0.354 N 
ATOM     45  C   UNL A   1      42.979  28.679  33.766  1.00  0.00     0.074 A 
ATOM     46  C   UNL A   1      43.649  27.613  33.056  1.00  0.00     0.031 C 
ATOM     47  C   UNL A   1      38.530  30.658  29.566  1.00  0.00     0.029 A 
ATOM     48  C   UNL A   1      38.760  31.154  30.920  1.00  0.00     0.049 A 
ATOM     49  H   UNL A   1      40.232  30.539  32.259  1.00  0.00     0.167 HD
ATOM     50  C   UNL A   1      43.302  29.076  35.020  1.00  0.00     0.031 A 
ATOM     51  C   UNL A   1      38.035  32.111  31.532  1.00  0.00     0.031 A 
ATOM     52  C   UNL A   1      42.642  30.147  35.718  1.00  0.00     0.049 A 
ATOM     53  C   UNL A   1      38.402  32.525  32.931  1.00  0.00     0.074 A 
ATOM     54  C   UNL A   1      42.929  30.661  36.970  1.00  0.00     0.029 A 
ATOM     55  N   UNL A   1      41.564  30.867  35.228  1.00  0.00    -0.354 N 
ATOM     56  N   UNL A   1      39.366  32.073  33.698  1.00  0.00    -0.248 NA
ATOM     57  C   UNL A   1      37.593  33.588  33.544  1.00  0.00     0.031 C 
ATOM     58  C   UNL A   1      41.987  31.652  37.261  1.00  0.00     0.029 A 
ATOM     59  C   UNL A   1      41.156  31.803  36.162  1.00  0.00     0.049 A 
ATOM     60  H   UNL A   1      41.149  30.731  34.345  1.00  0.00     0.167 HD
ATOM     61  C   UNL A   1      39.298  32.819  34.871  1.00  0.00     0.074 A 
ATOM     62  C   UNL A   1      38.210  33.760  34.705  1.00  0.00     0.031 C 
ATOM     63  C   UNL A   1      40.071  32.735  35.982  1.00  0.00     0.031 A 
BRANCH  50  64
ATOM     64  C   UNL A   1      44.417  28.343  35.720  1.00  0.00    -0.014 A 
ATOM     65  C   UNL A   1      45.760  28.731  35.559  1.00  0.00     0.010 A 
ATOM     66  C   UNL A   1      44.116  27.273  36.585  1.00  0.00     0.010 A 
ATOM     67  C   UNL A   1      46.782  28.040  36.214  1.00  0.00     0.020 A 
ATOM     68  C   UNL A   1      45.133  26.599  37.267  1.00  0.00     0.020 A 
ATOM     69  C   UNL A   1      46.462  26.977  37.064  1.00  0.00     0.054 A 
BRANCH  69  70
ATOM     70  S   UNL A   1      47.808  26.116  37.922  1.00  0.00     0.124 S 
ATOM     71  O   UNL A   1      47.652  24.749  37.430  1.00  0.00    -0.237 OA
ATOM     72  O   UNL A   1      48.993  26.823  37.445  1.00  0.00    -0.237 OA
ATOM     73  O   UNL A   1      47.497  26.307  39.336  1.00  0.00    -0.744 OA
ENDBRANCH  69  70
ENDBRANCH  50  64
BRANCH  51  74
ATOM     74  C   UNL A   1      36.896  32.754  30.819  1.00  0.00    -0.014 A 
ATOM     75  C   UNL A   1      35.576  32.320  31.039  1.00  0.00     0.010 A 
ATOM     76  C   UNL A   1      37.124  33.811  29.918  1.00  0.00     0.010 A 
ATOM     77  C   UNL A   1      34.510  32.914  30.357  1.00  0.00     0.020 A 
ATOM     78  C   UNL A   1      36.058  34.428  29.258  1.00  0.00     0.020 A 
ATOM     79  C   UNL A   1      34.758  33.968  29.472  1.00  0.00     0.054 A 
BRANCH  79  80
ATOM     80  S   UNL A   1      33.355  34.754  28.633  1.00  0.00     0.124 S 
ATOM     81  O   UNL A   1      32.919  33.702  27.720  1.00  0.00    -0.237 OA
ATOM     82  O   UNL A   1      32.450  35.048  29.741  1.00  0.00    -0.237 OA
ATOM     83  O   UNL A   1      33.951  35.927  27.998  1.00  0.00    -0.744 OA
ENDBRANCH  79  80
ENDBRANCH  51  74
BRANCH  63  84
ATOM     84  C   UNL A   1      39.797  33.712  37.095  1.00  0.00    -0.014 A 
ATOM     85  C   UNL A   1      38.970  33.375  38.180  1.00  0.00     0.010 A 
ATOM     86  C   UNL A   1      40.431  34.969  37.080  1.00  0.00     0.010 A 
ATOM     87  C   UNL A   1      38.755  34.292  39.214  1.00  0.00     0.020 A 
ATOM     88  C   UNL A   1      40.244  35.875  38.127  1.00  0.00     0.020 A 
ATOM     89  C   UNL A   1      39.394  35.535  39.181  1.00  0.00     0.054 A 
BRANCH  89  90
ATOM     90  S   UNL A   1      39.133  36.687  40.558  1.00  0.00     0.124 S 
ATOM     91  O   UNL A   1      38.079  36.021  41.317  1.00  0.00    -0.237 OA
ATOM     92  O   UNL A   1      40.445  36.720  41.199  1.00  0.00    -0.237 OA
ATOM     93  O   UNL A   1      38.737  37.930  39.900  1.00  0.00    -0.744 OA
ENDBRANCH  89  90
ENDBRANCH  63  84
ENDBRANCH  37  38
ENDBRANCH  29  32
ENDBRANCH  27  28
ENDBRANCH  26  27
ENDBRANCH  25  26
ENDBRANCH   1  25
TORSDOF 21
ENDMDL
MODEL 3
REMARK VINA RESULT:     -10.5      0.529      8.112
REMARK SMILES C#CCN(CC(=O)NCCCCCCNC(=O)c1ccc(-c2c3nc(c(-c4ccc(S(=O)(=O)[O-])cc4)c4ccc([nH]4)c(-c4ccc(S(=O)(=O)[O-])cc4)c4nc(c(-c5ccc(S(=O)(=O)[O-])cc5)c5ccc2[nH]5)C=C4)C=C3)cc1)C(=O)Nc1cc(Br)ccc1C
REMARK SMILES IDX 11 1 10 2 9 3 8 4 6 5 7 6 5 8 4 9 3 10 2 11 1 12 78 13 79 14
REMARK SMILES IDX 80 15 81 17 82 18 87 19 83 20 86 21 88 22 84 23 85 24 12 25
REMARK SMILES IDX 13 26 14 27 15 28 16 29 17 31 18 32 19 33 77 34 20 35 76 36
REMARK SMILES IDX 21 37 22 38 23 39 70 40 24 41 75 42 69 43 71 44 25 45 74 46
REMARK SMILES IDX 68 47 67 48 26 50 56 51 37 52 55 53 38 54 41 55 54 56 72 57
REMARK SMILES IDX 39 58 40 59 53 61 73 62 42 63 27 64 28 65 36 66 29 67 35 68
REMARK SMILES IDX 30 69 31 70 32 71 33 72 34 73 57 74 58 75 66 76 59 77 65 78
REMARK SMILES IDX 60 79 61 80 62 81 63 82 64 83 43 84 44 85 52 86 45 87 51 88
REMARK SMILES IDX 46 89 47 90 48 91 49 92 50 93
REMARK H PARENT 8 7 80 16 15 30 71 49 41 60
REMARK Flexibility Score: inf
ROOT
ATOM      1  C   UNL A   1      32.131  30.454  26.235  1.00  0.00     0.002 C 
ENDROOT
BRANCH   1   2
ATOM      2  C   UNL A   1      31.730  29.070  25.711  1.00  0.00     0.021 C 
BRANCH   2   3
ATOM      3  C   UNL A   1      30.962  29.073  24.387  1.00  0.00     0.116 C 
BRANCH   3   4
ATOM      4  N   UNL A   1      30.134  27.908  24.157  1.00  0.00    -0.355 N 
ATOM      5  C   UNL A   1      30.301  26.769  23.433  1.00  0.00     0.239 C 
ATOM      6  O   UNL A   1      29.574  25.823  23.767  1.00  0.00    -0.273 OA
ATOM      7  H   UNL A   1      29.268  27.950  24.621  1.00  0.00     0.163 HD
BRANCH   5   8
ATOM      8  C   UNL A   1      31.408  26.534  22.380  1.00  0.00     0.222 C 
BRANCH   8   9
ATOM      9  N   UNL A   1      32.737  26.085  22.802  1.00  0.00    -0.304 N 
BRANCH   9  10
ATOM     10  C   UNL A   1      33.225  24.886  22.133  1.00  0.00     0.211 C 
BRANCH  10  11
ATOM     11  C   UNL A   1      32.555  23.620  22.640  1.00  0.00    -0.085 C 
ATOM     12  C   UNL A   1      31.981  22.533  23.075  1.00  0.00     0.006 C 
ENDBRANCH  10  11
ENDBRANCH   9  10
BRANCH   9  13
ATOM     13  C   UNL A   1      33.634  26.732  23.635  1.00  0.00     0.323 C 
ATOM     14  O   UNL A   1      34.128  27.824  23.338  1.00  0.00    -0.248 OA
ATOM     15  N   UNL A   1      33.848  26.306  24.911  1.00  0.00    -0.307 N 
ATOM     16  H   UNL A   1      33.847  27.033  25.574  1.00  0.00     0.171 HD
BRANCH  15  17
ATOM     17  C   UNL A   1      34.070  25.041  25.469  1.00  0.00     0.046 A 
ATOM     18  C   UNL A   1      35.266  24.397  25.130  1.00  0.00     0.042 A 
ATOM     19  C   UNL A   1      33.134  24.375  26.271  1.00  0.00    -0.027 A 
ATOM     20  C   UNL A   1      35.605  23.192  25.746  1.00  0.00     0.020 A 
ATOM     21  C   UNL A   1      33.520  23.204  26.938  1.00  0.00     0.007 A 
ATOM     22  C   UNL A   1      31.689  24.774  26.293  1.00  0.00     0.046 C 
ATOM     23  Br  UNL A   1      37.219  22.323  25.289  1.00  0.00    -0.051 Br
ATOM     24  C   UNL A   1      34.763  22.625  26.696  1.00  0.00     0.016 A 
ENDBRANCH  15  17
ENDBRANCH   9  13
ENDBRANCH   8   9
ENDBRANCH   5   8
ENDBRANCH   3   4
ENDBRANCH   2   3
ENDBRANCH   1   2
BRANCH   1  25
ATOM     25  C   UNL A   1      33.292  30.473  27.233  1.00  0.00     0.002 C 
BRANCH  25  26
ATOM     26  C   UNL A   1      34.235  29.273  27.155  1.00  0.00     0.021 C 
BRANCH  26  27
ATOM     27  C   UNL A   1      35.608  29.513  27.762  1.00  0.00     0.116 C 
BRANCH  27  28
ATOM     28  N   UNL A   1      35.527  29.803  29.183  1.00  0.00    -0.352 N 
ATOM     29  C   UNL A   1      36.510  29.698  30.134  1.00  0.00     0.251 C 
ATOM     30  H   UNL A   1      34.651  30.115  29.506  1.00  0.00     0.163 HD
ATOM     31  O   UNL A   1      36.221  29.754  31.329  1.00  0.00    -0.269 OA
BRANCH  29  32
ATOM     32  C   UNL A   1      37.914  29.500  29.715  1.00  0.00     0.039 A 
ATOM     33  C   UNL A   1      38.853  29.073  30.656  1.00  0.00     0.014 A 
ATOM     34  C   UNL A   1      38.299  29.727  28.391  1.00  0.00     0.014 A 
ATOM     35  C   UNL A   1      40.169  28.828  30.255  1.00  0.00     0.010 A 
ATOM     36  C   UNL A   1      39.586  29.397  27.976  1.00  0.00     0.010 A 
ATOM     37  C   UNL A   1      40.540  28.961  28.907  1.00  0.00    -0.014 A 
BRANCH  37  38
ATOM     38  C   UNL A   1      41.928  28.680  28.455  1.00  0.00     0.031 A 
ATOM     39  C   UNL A   1      42.307  27.288  28.017  1.00  0.00     0.074 A 
ATOM     40  C   UNL A   1      42.858  29.655  28.487  1.00  0.00     0.049 A 
ATOM     41  N   UNL A   1      43.473  26.832  27.640  1.00  0.00    -0.248 NA
ATOM     42  C   UNL A   1      41.241  26.271  28.031  1.00  0.00     0.031 C 
ATOM     43  C   UNL A   1      42.626  31.034  28.925  1.00  0.00     0.029 A 
ATOM     44  N   UNL A   1      44.187  29.635  28.146  1.00  0.00    -0.354 N 
ATOM     45  C   UNL A   1      43.285  25.476  27.389  1.00  0.00     0.074 A 
ATOM     46  C   UNL A   1      41.909  25.173  27.712  1.00  0.00     0.031 C 
ATOM     47  C   UNL A   1      43.766  31.732  28.798  1.00  0.00     0.029 A 
ATOM     48  C   UNL A   1      44.820  30.845  28.312  1.00  0.00     0.049 A 
ATOM     49  H   UNL A   1      44.646  28.830  27.814  1.00  0.00     0.167 HD
ATOM     50  C   UNL A   1      44.170  24.570  26.911  1.00  0.00     0.031 A 
ATOM     51  C   UNL A   1      46.102  31.200  28.104  1.00  0.00     0.031 A 
ATOM     52  C   UNL A   1      45.535  24.879  26.579  1.00  0.00     0.049 A 
ATOM     53  C   UNL A   1      47.072  30.172  27.588  1.00  0.00     0.074 A 
ATOM     54  C   UNL A   1      46.497  24.045  26.037  1.00  0.00     0.029 A 
ATOM     55  N   UNL A   1      46.133  26.117  26.755  1.00  0.00    -0.354 N 
ATOM     56  N   UNL A   1      46.859  28.911  27.296  1.00  0.00    -0.248 NA
ATOM     57  C   UNL A   1      48.454  30.617  27.359  1.00  0.00     0.031 C 
ATOM     58  C   UNL A   1      47.693  24.762  25.943  1.00  0.00     0.029 A 
ATOM     59  C   UNL A   1      47.458  26.063  26.359  1.00  0.00     0.049 A 
ATOM     60  H   UNL A   1      45.681  26.917  27.111  1.00  0.00     0.167 HD
ATOM     61  C   UNL A   1      48.071  28.422  26.819  1.00  0.00     0.074 A 
ATOM     62  C   UNL A   1      49.007  29.526  26.848  1.00  0.00     0.031 C 
ATOM     63  C   UNL A   1      48.379  27.172  26.392  1.00  0.00     0.031 A 
BRANCH  50  64
ATOM     64  C   UNL A   1      43.689  23.154  26.725  1.00  0.00    -0.014 A 
ATOM     65  C   UNL A   1      43.792  22.506  25.480  1.00  0.00     0.010 A 
ATOM     66  C   UNL A   1      43.162  22.445  27.821  1.00  0.00     0.010 A 
ATOM     67  C   UNL A   1      43.340  21.193  25.325  1.00  0.00     0.020 A 
ATOM     68  C   UNL A   1      42.739  21.120  27.678  1.00  0.00     0.020 A 
ATOM     69  C   UNL A   1      42.815  20.508  26.425  1.00  0.00     0.054 A 
BRANCH  69  70
ATOM     70  S   UNL A   1      42.261  18.796  26.198  1.00  0.00     0.124 S 
ATOM     71  O   UNL A   1      40.882  18.982  25.757  1.00  0.00    -0.237 OA
ATOM     72  O   UNL A   1      43.184  18.296  25.182  1.00  0.00    -0.237 OA
ATOM     73  O   UNL A   1      42.416  18.203  27.524  1.00  0.00    -0.744 OA
ENDBRANCH  69  70
ENDBRANCH  50  64
BRANCH  51  74
ATOM     74  C   UNL A   1      46.542  32.598  28.374  1.00  0.00    -0.014 A 
ATOM     75  C   UNL A   1      46.926  32.992  29.669  1.00  0.00     0.010 A 
ATOM     76  C   UNL A   1      46.586  33.544  27.333  1.00  0.00     0.010 A 
ATOM     77  C   UNL A   1      47.323  34.308  29.922  1.00  0.00     0.020 A 
ATOM     78  C   UNL A   1      47.012  34.853  27.576  1.00  0.00     0.020 A 
ATOM     79  C   UNL A   1      47.367  35.230  28.872  1.00  0.00     0.054 A 
BRANCH  79  80
ATOM     80  S   UNL A   1      47.929  36.921  29.215  1.00  0.00     0.124 S 
ATOM     81  O   UNL A   1      46.862  37.427  30.073  1.00  0.00    -0.237 OA
ATOM     82  O   UNL A   1      49.216  36.697  29.868  1.00  0.00    -0.237 OA
ATOM     83  O   UNL A   1      48.009  37.529  27.889  1.00  0.00    -0.744 OA
ENDBRANCH  79  80
ENDBRANCH  51  74
BRANCH  63  84
ATOM     84  C   UNL A   1      49.776  26.936  25.880  1.00  0.00    -0.014 A 
ATOM     85  C   UNL A   1      50.098  27.108  24.523  1.00  0.00     0.010 A 
ATOM     86  C   UNL A   1      50.795  26.595  26.790  1.00  0.00     0.010 A 
ATOM     87  C   UNL A   1      51.409  26.910  24.079  1.00  0.00     0.020 A 
ATOM     88  C   UNL A   1      52.111  26.427  26.355  1.00  0.00     0.020 A 
ATOM     89  C   UNL A   1      52.407  26.572  24.998  1.00  0.00     0.054 A 
BRANCH  89  90
ATOM     90  S   UNL A   1      54.108  26.365  24.402  1.00  0.00     0.124 S 
ATOM     91  O   UNL A   1      53.952  26.557  22.963  1.00  0.00    -0.237 OA
ATOM     92  O   UNL A   1      54.824  27.427  25.105  1.00  0.00    -0.237 OA
ATOM     93  O   UNL A   1      54.457  25.007  24.814  1.00  0.00    -0.744 OA
ENDBRANCH  89  90
ENDBRANCH  63  84
ENDBRANCH  37  38
ENDBRANCH  29  32
ENDBRANCH  27  28
ENDBRANCH  26  27
ENDBRANCH  25  26
ENDBRANCH   1  25
TORSDOF 21
ENDMDL
