MODEL 1
REMARK VINA RESULT:     -13.2      0.000      0.000
REMARK SMILES Cc1c(NC(=O)c2ccc(I)cc2)cccc1C(=O)NCCCCCCNC(=O)c1ccc(-c2c3nc(c(-c4ccc(S(=O)(=O)[O-])cc4)c4ccc([nH]4)c(-c4ccc(S(=O)(=O)[O-])cc4)c4nc(c(-c5ccc(S(=O)(=O)[O-])cc5)c5ccc2[nH]5)C=C4)C=C3)cc1
REMARK SMILES IDX 24 1 23 2 22 3 21 4 20 5 18 6 19 7 17 9 1 10 2 11 3 12 14 13
REMARK SMILES IDX 16 14 15 15 4 16 5 17 6 19 7 20 8 21 13 22 9 23 12 24 10 25
REMARK SMILES IDX 11 26 25 27 26 28 27 29 28 30 29 32 30 33 31 34 89 35 32 36
REMARK SMILES IDX 88 37 33 38 34 39 35 40 82 41 36 42 87 43 81 44 83 45 37 46
REMARK SMILES IDX 86 47 80 48 79 49 38 51 68 52 49 53 67 54 50 55 53 56 66 57
REMARK SMILES IDX 84 58 51 59 52 60 65 62 85 63 54 64 39 65 40 66 48 67 41 68
REMARK SMILES IDX 47 69 42 70 43 71 44 72 45 73 46 74 69 75 70 76 78 77 71 78
REMARK SMILES IDX 77 79 72 80 73 81 74 82 75 83 76 84 55 85 56 86 64 87 57 88
REMARK SMILES IDX 63 89 58 90 59 91 60 92 61 93 62 94
REMARK H PARENT 20 8 4 18 27 31 83 50 53 61
REMARK Flexibility Score: inf
ROOT
ATOM      1  C   UNL A   1      33.084  29.407  25.052  1.00  0.00     0.002 C 
ENDROOT
BRANCH   1   2
ATOM      2  C   UNL A   1      31.721  29.915  25.548  1.00  0.00     0.002 C 
BRANCH   2   3
ATOM      3  C   UNL A   1      30.620  30.065  24.490  1.00  0.00     0.021 C 
BRANCH   3   4
ATOM      4  C   UNL A   1      30.810  29.222  23.218  1.00  0.00     0.116 C 
BRANCH   4   5
ATOM      5  N   UNL A   1      29.931  28.065  23.244  1.00  0.00    -0.352 N 
ATOM      6  C   UNL A   1      30.071  26.778  23.694  1.00  0.00     0.251 C 
ATOM      7  O   UNL A   1      29.094  26.033  23.587  1.00  0.00    -0.269 OA
ATOM      8  H   UNL A   1      29.044  28.244  22.854  1.00  0.00     0.163 HD
BRANCH   6   9
ATOM      9  C   UNL A   1      31.285  26.240  24.382  1.00  0.00     0.044 A 
ATOM     10  C   UNL A   1      32.549  25.483  22.292  1.00  0.00     0.047 C 
ATOM     11  C   UNL A   1      32.437  25.696  23.777  1.00  0.00    -0.015 A 
ATOM     12  C   UNL A   1      33.474  25.192  24.601  1.00  0.00     0.045 A 
ATOM     13  C   UNL A   1      33.312  25.116  25.989  1.00  0.00     0.026 A 
ATOM     14  C   UNL A   1      31.152  26.154  25.785  1.00  0.00     0.014 A 
ATOM     15  C   UNL A   1      32.143  25.579  26.579  1.00  0.00     0.003 A 
BRANCH  12  16
ATOM     16  N   UNL A   1      34.698  24.820  24.008  1.00  0.00    -0.322 N 
ATOM     17  C   UNL A   1      35.427  23.662  24.143  1.00  0.00     0.255 C 
ATOM     18  H   UNL A   1      35.090  25.492  23.405  1.00  0.00     0.170 HD
ATOM     19  O   UNL A   1      36.648  23.681  24.001  1.00  0.00    -0.269 OA
BRANCH  17  20
ATOM     20  C   UNL A   1      34.735  22.352  24.311  1.00  0.00     0.040 A 
ATOM     21  C   UNL A   1      35.443  21.289  24.886  1.00  0.00     0.015 A 
ATOM     22  C   UNL A   1      33.452  22.126  23.795  1.00  0.00     0.015 A 
ATOM     23  C   UNL A   1      34.855  20.024  24.983  1.00  0.00     0.015 A 
ATOM     24  C   UNL A   1      32.859  20.865  23.903  1.00  0.00     0.015 A 
ATOM     25  C   UNL A   1      33.563  19.819  24.499  1.00  0.00     0.013 A 
ATOM     26  I   UNL A   1      32.688  17.940  24.640  1.00  0.00    -0.044 I 
ENDBRANCH  17  20
ENDBRANCH  12  16
ENDBRANCH   6   9
ENDBRANCH   4   5
ENDBRANCH   3   4
ENDBRANCH   2   3
ENDBRANCH   1   2
BRANCH   1  27
ATOM     27  C   UNL A   1      34.009  28.805  26.114  1.00  0.00     0.021 C 
BRANCH  27  28
ATOM     28  C   UNL A   1      34.076  29.600  27.412  1.00  0.00     0.116 C 
BRANCH  28  29
ATOM     29  N   UNL A   1      34.889  30.804  27.324  1.00  0.00    -0.352 N 
ATOM     30  C   UNL A   1      35.932  31.026  28.211  1.00  0.00     0.251 C 
ATOM     31  H   UNL A   1      34.696  31.470  26.627  1.00  0.00     0.163 HD
ATOM     32  O   UNL A   1      36.056  32.023  28.912  1.00  0.00    -0.269 OA
BRANCH  30  33
ATOM     33  C   UNL A   1      36.926  29.936  28.266  1.00  0.00     0.039 A 
ATOM     34  C   UNL A   1      37.145  29.272  29.476  1.00  0.00     0.014 A 
ATOM     35  C   UNL A   1      37.783  29.765  27.179  1.00  0.00     0.014 A 
ATOM     36  C   UNL A   1      38.308  28.520  29.636  1.00  0.00     0.010 A 
ATOM     37  C   UNL A   1      38.971  29.082  27.369  1.00  0.00     0.010 A 
ATOM     38  C   UNL A   1      39.254  28.490  28.607  1.00  0.00    -0.014 A 
BRANCH  38  39
ATOM     39  C   UNL A   1      40.597  27.934  28.758  1.00  0.00     0.031 A 
ATOM     40  C   UNL A   1      40.876  26.524  28.395  1.00  0.00     0.074 A 
ATOM     41  C   UNL A   1      41.616  28.710  29.189  1.00  0.00     0.049 A 
ATOM     42  N   UNL A   1      41.874  25.839  28.848  1.00  0.00    -0.248 NA
ATOM     43  C   UNL A   1      40.002  25.756  27.515  1.00  0.00     0.031 C 
ATOM     44  C   UNL A   1      43.043  28.401  29.120  1.00  0.00     0.029 A 
ATOM     45  N   UNL A   1      41.558  29.838  30.007  1.00  0.00    -0.354 N 
ATOM     46  C   UNL A   1      41.939  24.670  28.125  1.00  0.00     0.074 A 
ATOM     47  C   UNL A   1      40.713  24.635  27.357  1.00  0.00     0.031 C 
ATOM     48  C   UNL A   1      43.672  29.083  30.086  1.00  0.00     0.029 A 
ATOM     49  C   UNL A   1      42.652  29.740  30.885  1.00  0.00     0.049 A 
ATOM     50  H   UNL A   1      40.886  30.558  29.977  1.00  0.00     0.167 HD
ATOM     51  C   UNL A   1      43.068  23.908  28.148  1.00  0.00     0.031 A 
ATOM     52  C   UNL A   1      42.534  29.675  32.244  1.00  0.00     0.031 A 
ATOM     53  C   UNL A   1      44.079  24.418  29.072  1.00  0.00     0.049 A 
ATOM     54  C   UNL A   1      43.166  28.437  32.855  1.00  0.00     0.074 A 
ATOM     55  C   UNL A   1      45.285  25.084  28.928  1.00  0.00     0.029 A 
ATOM     56  N   UNL A   1      43.778  24.464  30.423  1.00  0.00    -0.354 N 
ATOM     57  N   UNL A   1      43.756  27.494  32.173  1.00  0.00    -0.248 NA
ATOM     58  C   UNL A   1      43.079  28.114  34.282  1.00  0.00     0.031 C 
ATOM     59  C   UNL A   1      45.708  25.525  30.215  1.00  0.00     0.029 A 
ATOM     60  C   UNL A   1      44.757  25.126  31.135  1.00  0.00     0.049 A 
ATOM     61  H   UNL A   1      42.968  24.074  30.824  1.00  0.00     0.167 HD
ATOM     62  C   UNL A   1      44.062  26.453  33.009  1.00  0.00     0.074 A 
ATOM     63  C   UNL A   1      43.636  26.892  34.323  1.00  0.00     0.031 C 
ATOM     64  C   UNL A   1      44.592  25.279  32.567  1.00  0.00     0.031 A 
BRANCH  51  65
ATOM     65  C   UNL A   1      43.337  22.811  27.143  1.00  0.00    -0.014 A 
ATOM     66  C   UNL A   1      42.597  21.613  27.198  1.00  0.00     0.010 A 
ATOM     67  C   UNL A   1      44.335  22.881  26.152  1.00  0.00     0.010 A 
ATOM     68  C   UNL A   1      42.912  20.505  26.398  1.00  0.00     0.020 A 
ATOM     69  C   UNL A   1      44.693  21.767  25.376  1.00  0.00     0.020 A 
ATOM     70  C   UNL A   1      43.986  20.578  25.516  1.00  0.00     0.054 A 
BRANCH  70  71
ATOM     71  S   UNL A   1      44.461  19.100  24.582  1.00  0.00     0.124 S 
ATOM     72  O   UNL A   1      45.782  18.794  25.125  1.00  0.00    -0.237 OA
ATOM     73  O   UNL A   1      43.402  18.157  24.928  1.00  0.00    -0.237 OA
ATOM     74  O   UNL A   1      44.461  19.555  23.192  1.00  0.00    -0.744 OA
ENDBRANCH  70  71
ENDBRANCH  51  65
BRANCH  52  75
ATOM     75  C   UNL A   1      41.325  30.362  32.779  1.00  0.00    -0.014 A 
ATOM     76  C   UNL A   1      40.195  29.566  33.066  1.00  0.00     0.010 A 
ATOM     77  C   UNL A   1      41.432  31.633  33.371  1.00  0.00     0.010 A 
ATOM     78  C   UNL A   1      39.291  29.950  34.059  1.00  0.00     0.020 A 
ATOM     79  C   UNL A   1      40.518  32.024  34.357  1.00  0.00     0.020 A 
ATOM     80  C   UNL A   1      39.501  31.145  34.746  1.00  0.00     0.054 A 
BRANCH  80  81
ATOM     81  S   UNL A   1      38.536  31.453  36.258  1.00  0.00     0.124 S 
ATOM     82  O   UNL A   1      38.168  30.105  36.676  1.00  0.00    -0.237 OA
ATOM     83  O   UNL A   1      39.507  32.141  37.113  1.00  0.00    -0.237 OA
ATOM     84  O   UNL A   1      37.438  32.291  35.786  1.00  0.00    -0.744 OA
ENDBRANCH  80  81
ENDBRANCH  52  75
BRANCH  64  85
ATOM     85  C   UNL A   1      44.961  24.147  33.478  1.00  0.00    -0.014 A 
ATOM     86  C   UNL A   1      46.277  23.963  33.935  1.00  0.00     0.010 A 
ATOM     87  C   UNL A   1      44.010  23.157  33.797  1.00  0.00     0.010 A 
ATOM     88  C   UNL A   1      46.615  22.856  34.725  1.00  0.00     0.020 A 
ATOM     89  C   UNL A   1      44.341  22.041  34.569  1.00  0.00     0.020 A 
ATOM     90  C   UNL A   1      45.641  21.906  35.045  1.00  0.00     0.054 A 
BRANCH  90  91
ATOM     91  S   UNL A   1      46.103  20.461  36.034  1.00  0.00     0.124 S 
ATOM     92  O   UNL A   1      45.652  20.827  37.375  1.00  0.00    -0.237 OA
ATOM     93  O   UNL A   1      45.341  19.397  35.386  1.00  0.00    -0.237 OA
ATOM     94  O   UNL A   1      47.552  20.379  35.874  1.00  0.00    -0.744 OA
ENDBRANCH  90  91
ENDBRANCH  64  85
ENDBRANCH  38  39
ENDBRANCH  30  33
ENDBRANCH  28  29
ENDBRANCH  27  28
ENDBRANCH   1  27
TORSDOF 18
ENDMDL
MODEL 2
REMARK VINA RESULT:     -13.2      1.522      2.109
REMARK SMILES Cc1c(NC(=O)c2ccc(I)cc2)cccc1C(=O)NCCCCCCNC(=O)c1ccc(-c2c3nc(c(-c4ccc(S(=O)(=O)[O-])cc4)c4ccc([nH]4)c(-c4ccc(S(=O)(=O)[O-])cc4)c4nc(c(-c5ccc(S(=O)(=O)[O-])cc5)c5ccc2[nH]5)C=C4)C=C3)cc1
REMARK SMILES IDX 24 1 23 2 22 3 21 4 20 5 18 6 19 7 17 9 1 10 2 11 3 12 14 13
REMARK SMILES IDX 16 14 15 15 4 16 5 17 6 19 7 20 8 21 13 22 9 23 12 24 10 25
REMARK SMILES IDX 11 26 25 27 26 28 27 29 28 30 29 32 30 33 31 34 89 35 32 36
REMARK SMILES IDX 88 37 33 38 34 39 35 40 82 41 36 42 87 43 81 44 83 45 37 46
REMARK SMILES IDX 86 47 80 48 79 49 38 51 68 52 49 53 67 54 50 55 53 56 66 57
REMARK SMILES IDX 84 58 51 59 52 60 65 62 85 63 54 64 39 65 40 66 48 67 41 68
REMARK SMILES IDX 47 69 42 70 43 71 44 72 45 73 46 74 69 75 70 76 78 77 71 78
REMARK SMILES IDX 77 79 72 80 73 81 74 82 75 83 76 84 55 85 56 86 64 87 57 88
REMARK SMILES IDX 63 89 58 90 59 91 60 92 61 93 62 94
REMARK H PARENT 20 8 4 18 27 31 83 50 53 61
REMARK Flexibility Score: inf
ROOT
ATOM      1  C   UNL A   1      32.438  29.871  25.729  1.00  0.00     0.002 C 
ENDROOT
BRANCH   1   2
ATOM      2  C   UNL A   1      32.072  28.665  24.849  1.00  0.00     0.002 C 
BRANCH   2   3
ATOM      3  C   UNL A   1      32.313  28.819  23.342  1.00  0.00     0.021 C 
BRANCH   3   4
ATOM      4  C   UNL A   1      33.713  28.411  22.854  1.00  0.00     0.116 C 
BRANCH   4   5
ATOM      5  N   UNL A   1      33.609  27.420  21.795  1.00  0.00    -0.352 N 
ATOM      6  C   UNL A   1      33.148  26.131  21.746  1.00  0.00     0.251 C 
ATOM      7  O   UNL A   1      33.177  25.563  20.652  1.00  0.00    -0.269 OA
ATOM      8  H   UNL A   1      33.943  27.745  20.927  1.00  0.00     0.163 HD
BRANCH   6   9
ATOM      9  C   UNL A   1      32.532  25.398  22.894  1.00  0.00     0.044 A 
ATOM     10  C   UNL A   1      34.692  24.894  24.168  1.00  0.00     0.047 C 
ATOM     11  C   UNL A   1      33.195  24.873  24.023  1.00  0.00    -0.015 A 
ATOM     12  C   UNL A   1      32.442  24.165  24.995  1.00  0.00     0.045 A 
ATOM     13  C   UNL A   1      31.090  23.878  24.783  1.00  0.00     0.026 A 
ATOM     14  C   UNL A   1      31.165  25.097  22.711  1.00  0.00     0.014 A 
ATOM     15  C   UNL A   1      30.456  24.328  23.632  1.00  0.00     0.003 A 
BRANCH  12  16
ATOM     16  N   UNL A   1      33.064  23.800  26.207  1.00  0.00    -0.322 N 
ATOM     17  C   UNL A   1      33.194  22.564  26.794  1.00  0.00     0.255 C 
ATOM     18  H   UNL A   1      33.465  24.546  26.709  1.00  0.00     0.170 HD
ATOM     19  O   UNL A   1      33.281  22.467  28.017  1.00  0.00    -0.269 OA
BRANCH  17  20
ATOM     20  C   UNL A   1      33.385  21.348  25.954  1.00  0.00     0.040 A 
ATOM     21  C   UNL A   1      32.277  20.530  25.698  1.00  0.00     0.015 A 
ATOM     22  C   UNL A   1      34.656  20.940  25.526  1.00  0.00     0.015 A 
ATOM     23  C   UNL A   1      32.434  19.337  24.984  1.00  0.00     0.015 A 
ATOM     24  C   UNL A   1      34.811  19.755  24.802  1.00  0.00     0.015 A 
ATOM     25  C   UNL A   1      33.698  18.959  24.532  1.00  0.00     0.013 A 
ATOM     26  I   UNL A   1      33.933  17.188  23.473  1.00  0.00    -0.044 I 
ENDBRANCH  17  20
ENDBRANCH  12  16
ENDBRANCH   6   9
ENDBRANCH   4   5
ENDBRANCH   3   4
ENDBRANCH   2   3
ENDBRANCH   1   2
BRANCH   1  27
ATOM     27  C   UNL A   1      32.784  29.564  27.189  1.00  0.00     0.021 C 
BRANCH  27  28
ATOM     28  C   UNL A   1      34.269  29.353  27.451  1.00  0.00     0.116 C 
BRANCH  28  29
ATOM     29  N   UNL A   1      35.047  30.583  27.459  1.00  0.00    -0.352 N 
ATOM     30  C   UNL A   1      36.055  30.783  28.389  1.00  0.00     0.251 C 
ATOM     31  H   UNL A   1      34.854  31.283  26.795  1.00  0.00     0.163 HD
ATOM     32  O   UNL A   1      36.127  31.741  29.150  1.00  0.00    -0.269 OA
BRANCH  30  33
ATOM     33  C   UNL A   1      37.081  29.721  28.414  1.00  0.00     0.039 A 
ATOM     34  C   UNL A   1      37.281  28.993  29.589  1.00  0.00     0.014 A 
ATOM     35  C   UNL A   1      37.977  29.640  27.348  1.00  0.00     0.014 A 
ATOM     36  C   UNL A   1      38.461  28.267  29.744  1.00  0.00     0.010 A 
ATOM     37  C   UNL A   1      39.178  28.982  27.537  1.00  0.00     0.010 A 
ATOM     38  C   UNL A   1      39.440  28.326  28.747  1.00  0.00    -0.014 A 
BRANCH  38  39
ATOM     39  C   UNL A   1      40.794  27.801  28.910  1.00  0.00     0.031 A 
ATOM     40  C   UNL A   1      41.135  26.434  28.450  1.00  0.00     0.074 A 
ATOM     41  C   UNL A   1      41.769  28.571  29.442  1.00  0.00     0.049 A 
ATOM     42  N   UNL A   1      42.137  25.745  28.890  1.00  0.00    -0.248 NA
ATOM     43  C   UNL A   1      40.323  25.711  27.477  1.00  0.00     0.031 C 
ATOM     44  C   UNL A   1      43.207  28.312  29.409  1.00  0.00     0.029 A 
ATOM     45  N   UNL A   1      41.640  29.628  30.343  1.00  0.00    -0.354 N 
ATOM     46  C   UNL A   1      42.270  24.641  28.080  1.00  0.00     0.074 A 
ATOM     47  C   UNL A   1      41.077  24.629  27.262  1.00  0.00     0.031 C 
ATOM     48  C   UNL A   1      43.775  28.935  30.451  1.00  0.00     0.029 A 
ATOM     49  C   UNL A   1      42.702  29.495  31.255  1.00  0.00     0.049 A 
ATOM     50  H   UNL A   1      40.946  30.327  30.341  1.00  0.00     0.167 HD
ATOM     51  C   UNL A   1      43.422  23.914  28.091  1.00  0.00     0.031 A 
ATOM     52  C   UNL A   1      42.533  29.318  32.599  1.00  0.00     0.031 A 
ATOM     53  C   UNL A   1      44.378  24.380  29.093  1.00  0.00     0.049 A 
ATOM     54  C   UNL A   1      43.183  28.055  33.137  1.00  0.00     0.074 A 
ATOM     55  C   UNL A   1      45.566  25.091  29.052  1.00  0.00     0.029 A 
ATOM     56  N   UNL A   1      44.023  24.309  30.430  1.00  0.00    -0.354 N 
ATOM     57  N   UNL A   1      43.830  27.188  32.409  1.00  0.00    -0.248 NA
ATOM     58  C   UNL A   1      43.051  27.618  34.530  1.00  0.00     0.031 C 
ATOM     59  C   UNL A   1      45.923  25.442  30.386  1.00  0.00     0.029 A 
ATOM     60  C   UNL A   1      44.951  24.942  31.232  1.00  0.00     0.049 A 
ATOM     61  H   UNL A   1      43.212  23.864  30.765  1.00  0.00     0.167 HD
ATOM     62  C   UNL A   1      44.138  26.094  33.173  1.00  0.00     0.074 A 
ATOM     63  C   UNL A   1      43.646  26.414  34.498  1.00  0.00     0.031 C 
ATOM     64  C   UNL A   1      44.724  24.976  32.663  1.00  0.00     0.031 A 
BRANCH  51  65
ATOM     65  C   UNL A   1      43.767  22.909  27.016  1.00  0.00    -0.014 A 
ATOM     66  C   UNL A   1      42.885  21.845  26.742  1.00  0.00     0.010 A 
ATOM     67  C   UNL A   1      44.964  22.932  26.274  1.00  0.00     0.010 A 
ATOM     68  C   UNL A   1      43.227  20.798  25.873  1.00  0.00     0.020 A 
ATOM     69  C   UNL A   1      45.340  21.871  25.436  1.00  0.00     0.020 A 
ATOM     70  C   UNL A   1      44.473  20.800  25.253  1.00  0.00     0.054 A 
BRANCH  70  71
ATOM     71  S   UNL A   1      44.951  19.381  24.233  1.00  0.00     0.124 S 
ATOM     72  O   UNL A   1      44.282  18.269  24.904  1.00  0.00    -0.237 OA
ATOM     73  O   UNL A   1      44.417  19.741  22.923  1.00  0.00    -0.237 OA
ATOM     74  O   UNL A   1      46.410  19.363  24.327  1.00  0.00    -0.744 OA
ENDBRANCH  70  71
ENDBRANCH  51  65
BRANCH  52  75
ATOM     75  C   UNL A   1      41.281  29.924  33.135  1.00  0.00    -0.014 A 
ATOM     76  C   UNL A   1      41.288  31.311  33.398  1.00  0.00     0.010 A 
ATOM     77  C   UNL A   1      40.050  29.265  32.980  1.00  0.00     0.010 A 
ATOM     78  C   UNL A   1      40.107  32.053  33.323  1.00  0.00     0.020 A 
ATOM     79  C   UNL A   1      38.863  30.008  32.919  1.00  0.00     0.020 A 
ATOM     80  C   UNL A   1      38.913  31.402  33.015  1.00  0.00     0.054 A 
BRANCH  80  81
ATOM     81  S   UNL A   1      37.467  32.415  32.574  1.00  0.00     0.124 S 
ATOM     82  O   UNL A   1      37.311  33.268  33.747  1.00  0.00    -0.237 OA
ATOM     83  O   UNL A   1      37.920  33.091  31.354  1.00  0.00    -0.237 OA
ATOM     84  O   UNL A   1      36.417  31.424  32.367  1.00  0.00    -0.744 OA
ENDBRANCH  80  81
ENDBRANCH  52  75
BRANCH  64  85
ATOM     85  C   UNL A   1      45.096  23.787  33.498  1.00  0.00    -0.014 A 
ATOM     86  C   UNL A   1      44.134  22.870  33.952  1.00  0.00     0.010 A 
ATOM     87  C   UNL A   1      46.420  23.634  33.959  1.00  0.00     0.010 A 
ATOM     88  C   UNL A   1      44.493  21.808  34.793  1.00  0.00     0.020 A 
ATOM     89  C   UNL A   1      46.785  22.589  34.811  1.00  0.00     0.020 A 
ATOM     90  C   UNL A   1      45.820  21.669  35.210  1.00  0.00     0.054 A 
BRANCH  90  91
ATOM     91  S   UNL A   1      46.261  20.315  36.329  1.00  0.00     0.124 S 
ATOM     92  O   UNL A   1      45.616  19.159  35.709  1.00  0.00    -0.237 OA
ATOM     93  O   UNL A   1      47.720  20.330  36.257  1.00  0.00    -0.237 OA
ATOM     94  O   UNL A   1      45.693  20.724  37.610  1.00  0.00    -0.744 OA
ENDBRANCH  90  91
ENDBRANCH  64  85
ENDBRANCH  38  39
ENDBRANCH  30  33
ENDBRANCH  28  29
ENDBRANCH  27  28
ENDBRANCH   1  27
TORSDOF 18
ENDMDL
MODEL 3
REMARK VINA RESULT:     -13.1      4.743     11.253
REMARK SMILES Cc1c(NC(=O)c2ccc(I)cc2)cccc1C(=O)NCCCCCCNC(=O)c1ccc(-c2c3nc(c(-c4ccc(S(=O)(=O)[O-])cc4)c4ccc([nH]4)c(-c4ccc(S(=O)(=O)[O-])cc4)c4nc(c(-c5ccc(S(=O)(=O)[O-])cc5)c5ccc2[nH]5)C=C4)C=C3)cc1
REMARK SMILES IDX 24 1 23 2 22 3 21 4 20 5 18 6 19 7 17 9 1 10 2 11 3 12 14 13
REMARK SMILES IDX 16 14 15 15 4 16 5 17 6 19 7 20 8 21 13 22 9 23 12 24 10 25
REMARK SMILES IDX 11 26 25 27 26 28 27 29 28 30 29 32 30 33 31 34 89 35 32 36
REMARK SMILES IDX 88 37 33 38 34 39 35 40 82 41 36 42 87 43 81 44 83 45 37 46
REMARK SMILES IDX 86 47 80 48 79 49 38 51 68 52 49 53 67 54 50 55 53 56 66 57
REMARK SMILES IDX 84 58 51 59 52 60 65 62 85 63 54 64 39 65 40 66 48 67 41 68
REMARK SMILES IDX 47 69 42 70 43 71 44 72 45 73 46 74 69 75 70 76 78 77 71 78
REMARK SMILES IDX 77 79 72 80 73 81 74 82 75 83 76 84 55 85 56 86 64 87 57 88
REMARK SMILES IDX 63 89 58 90 59 91 60 92 61 93 62 94
REMARK H PARENT 20 8 4 18 27 31 83 50 53 61
REMARK Flexibility Score: inf
ROOT
ATOM      1  C   UNL A   1      35.535  22.350  26.073  1.00  0.00     0.002 C 
ENDROOT
BRANCH   1   2
ATOM      2  C   UNL A   1      35.884  21.397  24.919  1.00  0.00     0.002 C 
BRANCH   2   3
ATOM      3  C   UNL A   1      35.193  20.027  24.930  1.00  0.00     0.021 C 
BRANCH   3   4
ATOM      4  C   UNL A   1      33.672  20.058  25.146  1.00  0.00     0.116 C 
BRANCH   4   5
ATOM      5  N   UNL A   1      32.986  20.282  23.884  1.00  0.00    -0.352 N 
ATOM      6  C   UNL A   1      32.574  21.405  23.216  1.00  0.00     0.251 C 
ATOM      7  O   UNL A   1      32.030  21.243  22.121  1.00  0.00    -0.269 OA
ATOM      8  H   UNL A   1      32.773  19.447  23.406  1.00  0.00     0.163 HD
BRANCH   6   9
ATOM      9  C   UNL A   1      32.813  22.808  23.673  1.00  0.00     0.044 A 
ATOM     10  C   UNL A   1      30.964  22.907  25.438  1.00  0.00     0.047 C 
ATOM     11  C   UNL A   1      32.138  23.495  24.704  1.00  0.00    -0.015 A 
ATOM     12  C   UNL A   1      32.476  24.847  24.965  1.00  0.00     0.045 A 
ATOM     13  C   UNL A   1      33.371  25.534  24.138  1.00  0.00     0.026 A 
ATOM     14  C   UNL A   1      33.714  23.527  22.859  1.00  0.00     0.014 A 
ATOM     15  C   UNL A   1      33.976  24.879  23.073  1.00  0.00     0.003 A 
BRANCH  12  16
ATOM     16  N   UNL A   1      31.940  25.477  26.107  1.00  0.00    -0.322 N 
ATOM     17  C   UNL A   1      31.526  26.776  26.286  1.00  0.00     0.255 C 
ATOM     18  H   UNL A   1      31.847  24.897  26.897  1.00  0.00     0.170 HD
ATOM     19  O   UNL A   1      31.576  27.292  27.401  1.00  0.00    -0.269 OA
BRANCH  17  20
ATOM     20  C   UNL A   1      30.875  27.519  25.169  1.00  0.00     0.040 A 
ATOM     21  C   UNL A   1      31.220  28.861  24.965  1.00  0.00     0.015 A 
ATOM     22  C   UNL A   1      29.843  26.950  24.410  1.00  0.00     0.015 A 
ATOM     23  C   UNL A   1      30.569  29.613  23.982  1.00  0.00     0.015 A 
ATOM     24  C   UNL A   1      29.201  27.697  23.419  1.00  0.00     0.015 A 
ATOM     25  C   UNL A   1      29.569  29.025  23.207  1.00  0.00     0.013 A 
ATOM     26  I   UNL A   1      28.599  30.141  21.747  1.00  0.00    -0.044 I 
ENDBRANCH  17  20
ENDBRANCH  12  16
ENDBRANCH   6   9
ENDBRANCH   4   5
ENDBRANCH   3   4
ENDBRANCH   2   3
ENDBRANCH   1   2
BRANCH   1  27
ATOM     27  C   UNL A   1      36.312  23.669  26.120  1.00  0.00     0.021 C 
BRANCH  27  28
ATOM     28  C   UNL A   1      37.768  23.555  25.689  1.00  0.00     0.116 C 
BRANCH  28  29
ATOM     29  N   UNL A   1      38.658  23.074  26.736  1.00  0.00    -0.352 N 
ATOM     30  C   UNL A   1      39.790  23.789  27.093  1.00  0.00     0.251 C 
ATOM     31  H   UNL A   1      38.453  22.228  27.195  1.00  0.00     0.163 HD
ATOM     32  O   UNL A   1      40.930  23.339  27.103  1.00  0.00    -0.269 OA
BRANCH  30  33
ATOM     33  C   UNL A   1      39.530  25.191  27.473  1.00  0.00     0.039 A 
ATOM     34  C   UNL A   1      40.118  26.220  26.733  1.00  0.00     0.014 A 
ATOM     35  C   UNL A   1      38.906  25.442  28.695  1.00  0.00     0.014 A 
ATOM     36  C   UNL A   1      40.188  27.499  27.284  1.00  0.00     0.010 A 
ATOM     37  C   UNL A   1      39.046  26.693  29.270  1.00  0.00     0.010 A 
ATOM     38  C   UNL A   1      39.718  27.713  28.583  1.00  0.00    -0.014 A 
BRANCH  38  39
ATOM     39  C   UNL A   1      39.954  28.942  29.337  1.00  0.00     0.031 A 
ATOM     40  C   UNL A   1      38.934  30.018  29.366  1.00  0.00     0.074 A 
ATOM     41  C   UNL A   1      41.087  29.099  30.057  1.00  0.00     0.049 A 
ATOM     42  N   UNL A   1      39.187  31.255  29.644  1.00  0.00    -0.248 NA
ATOM     43  C   UNL A   1      37.535  29.778  29.029  1.00  0.00     0.031 C 
ATOM     44  C   UNL A   1      41.344  30.115  31.075  1.00  0.00     0.029 A 
ATOM     45  N   UNL A   1      42.337  28.521  29.838  1.00  0.00    -0.354 N 
ATOM     46  C   UNL A   1      37.982  31.901  29.799  1.00  0.00     0.074 A 
ATOM     47  C   UNL A   1      36.987  30.957  29.338  1.00  0.00     0.031 C 
ATOM     48  C   UNL A   1      42.668  30.311  31.154  1.00  0.00     0.029 A 
ATOM     49  C   UNL A   1      43.284  29.527  30.097  1.00  0.00     0.049 A 
ATOM     50  H   UNL A   1      42.520  27.594  29.559  1.00  0.00     0.167 HD
ATOM     51  C   UNL A   1      37.927  33.117  30.412  1.00  0.00     0.031 A 
ATOM     52  C   UNL A   1      44.173  29.992  29.170  1.00  0.00     0.031 A 
ATOM     53  C   UNL A   1      39.247  33.641  30.753  1.00  0.00     0.049 A 
ATOM     54  C   UNL A   1      44.076  31.488  28.924  1.00  0.00     0.074 A 
ATOM     55  C   UNL A   1      39.968  33.782  31.927  1.00  0.00     0.029 A 
ATOM     56  N   UNL A   1      40.135  33.917  29.726  1.00  0.00    -0.354 N 
ATOM     57  N   UNL A   1      43.220  32.280  29.509  1.00  0.00    -0.248 NA
ATOM     58  C   UNL A   1      44.868  32.185  27.907  1.00  0.00     0.031 C 
ATOM     59  C   UNL A   1      41.302  34.153  31.590  1.00  0.00     0.029 A 
ATOM     60  C   UNL A   1      41.386  34.236  30.214  1.00  0.00     0.049 A 
ATOM     61  H   UNL A   1      39.903  33.888  28.770  1.00  0.00     0.167 HD
ATOM     62  C   UNL A   1      43.290  33.523  28.940  1.00  0.00     0.074 A 
ATOM     63  C   UNL A   1      44.346  33.423  27.952  1.00  0.00     0.031 C 
ATOM     64  C   UNL A   1      42.444  34.538  29.269  1.00  0.00     0.031 A 
BRANCH  51  65
ATOM     65  C   UNL A   1      36.636  33.726  30.910  1.00  0.00    -0.014 A 
ATOM     66  C   UNL A   1      35.553  33.893  30.023  1.00  0.00     0.010 A 
ATOM     67  C   UNL A   1      36.443  34.195  32.223  1.00  0.00     0.010 A 
ATOM     68  C   UNL A   1      34.394  34.595  30.387  1.00  0.00     0.020 A 
ATOM     69  C   UNL A   1      35.310  34.939  32.589  1.00  0.00     0.020 A 
ATOM     70  C   UNL A   1      34.297  35.148  31.660  1.00  0.00     0.054 A 
BRANCH  70  71
ATOM     71  S   UNL A   1      32.852  36.159  32.074  1.00  0.00     0.124 S 
ATOM     72  O   UNL A   1      32.592  36.867  30.822  1.00  0.00    -0.237 OA
ATOM     73  O   UNL A   1      31.862  35.154  32.447  1.00  0.00    -0.237 OA
ATOM     74  O   UNL A   1      33.324  37.005  33.169  1.00  0.00    -0.744 OA
ENDBRANCH  70  71
ENDBRANCH  51  65
BRANCH  52  75
ATOM     75  C   UNL A   1      44.553  28.985  28.140  1.00  0.00    -0.014 A 
ATOM     76  C   UNL A   1      45.501  28.004  28.505  1.00  0.00     0.010 A 
ATOM     77  C   UNL A   1      43.719  28.749  27.034  1.00  0.00     0.010 A 
ATOM     78  C   UNL A   1      45.489  26.746  27.898  1.00  0.00     0.020 A 
ATOM     79  C   UNL A   1      43.716  27.491  26.416  1.00  0.00     0.020 A 
ATOM     80  C   UNL A   1      44.548  26.478  26.905  1.00  0.00     0.054 A 
BRANCH  80  81
ATOM     81  S   UNL A   1      44.311  24.751  26.384  1.00  0.00     0.124 S 
ATOM     82  O   UNL A   1      43.946  24.093  27.633  1.00  0.00    -0.237 OA
ATOM     83  O   UNL A   1      43.238  24.869  25.392  1.00  0.00    -0.237 OA
ATOM     84  O   UNL A   1      45.612  24.388  25.834  1.00  0.00    -0.744 OA
ENDBRANCH  80  81
ENDBRANCH  52  75
BRANCH  64  85
ATOM     85  C   UNL A   1      42.534  35.911  28.676  1.00  0.00    -0.014 A 
ATOM     86  C   UNL A   1      43.095  36.989  29.383  1.00  0.00     0.010 A 
ATOM     87  C   UNL A   1      41.934  36.184  27.429  1.00  0.00     0.010 A 
ATOM     88  C   UNL A   1      43.101  38.280  28.838  1.00  0.00     0.020 A 
ATOM     89  C   UNL A   1      41.919  37.471  26.886  1.00  0.00     0.020 A 
ATOM     90  C   UNL A   1      42.521  38.511  27.587  1.00  0.00     0.054 A 
BRANCH  90  91
ATOM     91  S   UNL A   1      42.502  40.192  26.915  1.00  0.00     0.124 S 
ATOM     92  O   UNL A   1      41.106  40.370  26.522  1.00  0.00    -0.237 OA
ATOM     93  O   UNL A   1      42.933  40.981  28.067  1.00  0.00    -0.237 OA
ATOM     94  O   UNL A   1      43.451  40.134  25.807  1.00  0.00    -0.744 OA
ENDBRANCH  90  91
ENDBRANCH  64  85
ENDBRANCH  38  39
ENDBRANCH  30  33
ENDBRANCH  28  29
ENDBRANCH  27  28
ENDBRANCH   1  27
TORSDOF 18
ENDMDL
