MODEL 1
REMARK VINA RESULT:      -6.8      0.000      0.000
REMARK SMILES C=CCN(CC(=O)NCCCCCCNC(=O)c1ccc(-c2c3nc(c(-c4ccc(S(=O)(=O)[O-])cc4)c4ccc([nH]4)c(-c4ccc(S(=O)(=O)[O-])cc4)c4nc(c(-c5ccc(S(=O)(=O)[O-])cc5)c5ccc2[nH]5)C=C4)C=C3)cc1)C(=O)/C=C/c1ccc(OC)cc1
REMARK SMILES IDX 10 1 9 2 8 3 6 4 7 5 5 7 4 8 3 9 2 10 1 11 78 12 79 13 80 14
REMARK SMILES IDX 81 15 82 16 83 17 89 18 84 19 88 20 85 21 86 22 87 23 11 24
REMARK SMILES IDX 12 25 13 26 14 27 15 28 16 29 17 31 18 32 19 33 77 34 20 35
REMARK SMILES IDX 76 36 21 37 22 38 23 39 70 40 24 41 75 42 69 43 71 44 25 45
REMARK SMILES IDX 74 46 68 47 67 48 26 50 56 51 37 52 55 53 38 54 41 55 54 56
REMARK SMILES IDX 72 57 39 58 40 59 53 61 73 62 42 63 27 64 28 65 36 66 29 67
REMARK SMILES IDX 35 68 30 69 31 70 32 71 33 72 34 73 57 74 58 75 66 76 59 77
REMARK SMILES IDX 65 78 60 79 61 80 62 81 63 82 64 83 43 84 44 85 52 86 45 87
REMARK SMILES IDX 51 88 46 89 47 90 48 91 49 92 50 93
REMARK H PARENT 8 6 15 30 71 49 41 60
REMARK Flexibility Score: inf
ROOT
ATOM      1  C   UNL A   1      46.616  27.143  26.685  1.00  0.00     0.021 C 
ENDROOT
BRANCH   1   2
ATOM      2  C   UNL A   1      47.285  28.492  26.445  1.00  0.00     0.116 C 
BRANCH   2   3
ATOM      3  N   UNL A   1      46.394  29.451  25.838  1.00  0.00    -0.355 N 
ATOM      4  C   UNL A   1      46.017  30.676  26.300  1.00  0.00     0.239 C 
ATOM      5  O   UNL A   1      45.508  31.461  25.494  1.00  0.00    -0.273 OA
ATOM      6  H   UNL A   1      46.006  29.186  24.972  1.00  0.00     0.163 HD
BRANCH   4   7
ATOM      7  C   UNL A   1      46.348  31.121  27.736  1.00  0.00     0.220 C 
BRANCH   7   8
ATOM      8  N   UNL A   1      45.236  31.072  28.696  1.00  0.00    -0.326 N 
BRANCH   8   9
ATOM      9  C   UNL A   1      43.974  31.686  28.277  1.00  0.00     0.147 C 
BRANCH   9  10
ATOM     10  C   UNL A   1      44.081  33.177  28.196  1.00  0.00    -0.014 C 
ATOM     11  C   UNL A   1      43.354  33.996  28.971  1.00  0.00     0.006 C 
ENDBRANCH   9  10
ENDBRANCH   8   9
BRANCH   8  12
ATOM     12  C   UNL A   1      45.284  30.526  29.971  1.00  0.00     0.247 C 
ATOM     13  O   UNL A   1      44.536  30.915  30.873  1.00  0.00    -0.270 OA
BRANCH  12  14
ATOM     14  C   UNL A   1      46.300  29.510  30.383  1.00  0.00     0.072 C 
ATOM     15  C   UNL A   1      46.360  28.198  30.126  1.00  0.00     0.014 C 
BRANCH  15  16
ATOM     16  C   UNL A   1      47.410  27.324  30.650  1.00  0.00    -0.025 A 
ATOM     17  C   UNL A   1      48.194  26.566  29.774  1.00  0.00     0.012 A 
ATOM     18  C   UNL A   1      47.570  27.161  32.027  1.00  0.00     0.012 A 
ATOM     19  C   UNL A   1      49.101  25.631  30.277  1.00  0.00     0.047 A 
ATOM     20  C   UNL A   1      48.475  26.218  32.528  1.00  0.00     0.047 A 
ATOM     21  C   UNL A   1      49.234  25.438  31.655  1.00  0.00     0.118 A 
BRANCH  21  22
ATOM     22  O   UNL A   1      50.120  24.459  32.015  1.00  0.00    -0.497 OA
ATOM     23  C   UNL A   1      51.140  24.831  32.934  1.00  0.00     0.278 C 
ENDBRANCH  21  22
ENDBRANCH  15  16
ENDBRANCH  12  14
ENDBRANCH   8  12
ENDBRANCH   7   8
ENDBRANCH   4   7
ENDBRANCH   2   3
ENDBRANCH   1   2
BRANCH   1  24
ATOM     24  C   UNL A   1      46.638  26.211  25.469  1.00  0.00     0.002 C 
BRANCH  24  25
ATOM     25  C   UNL A   1      46.362  24.734  25.777  1.00  0.00     0.002 C 
BRANCH  25  26
ATOM     26  C   UNL A   1      45.940  24.439  27.218  1.00  0.00     0.021 C 
BRANCH  26  27
ATOM     27  C   UNL A   1      44.488  24.000  27.369  1.00  0.00     0.116 C 
BRANCH  27  28
ATOM     28  N   UNL A   1      43.703  24.328  26.191  1.00  0.00    -0.352 N 
ATOM     29  C   UNL A   1      42.637  25.184  26.075  1.00  0.00     0.251 C 
ATOM     30  H   UNL A   1      43.974  23.875  25.360  1.00  0.00     0.163 HD
ATOM     31  O   UNL A   1      41.948  25.172  25.057  1.00  0.00    -0.269 OA
BRANCH  29  32
ATOM     32  C   UNL A   1      42.313  26.105  27.184  1.00  0.00     0.039 A 
ATOM     33  C   UNL A   1      41.334  25.736  28.110  1.00  0.00     0.014 A 
ATOM     34  C   UNL A   1      42.969  27.332  27.306  1.00  0.00     0.014 A 
ATOM     35  C   UNL A   1      41.049  26.579  29.186  1.00  0.00     0.010 A 
ATOM     36  C   UNL A   1      42.742  28.132  28.422  1.00  0.00     0.010 A 
ATOM     37  C   UNL A   1      41.769  27.772  29.366  1.00  0.00    -0.014 A 
BRANCH  37  38
ATOM     38  C   UNL A   1      41.507  28.664  30.524  1.00  0.00     0.031 A 
ATOM     39  C   UNL A   1      42.343  28.545  31.771  1.00  0.00     0.074 A 
ATOM     40  C   UNL A   1      40.484  29.540  30.476  1.00  0.00     0.049 A 
ATOM     41  N   UNL A   1      42.234  29.193  32.901  1.00  0.00    -0.248 NA
ATOM     42  C   UNL A   1      43.428  27.549  31.754  1.00  0.00     0.031 C 
ATOM     43  C   UNL A   1      39.579  29.726  29.338  1.00  0.00     0.029 A 
ATOM     44  N   UNL A   1      40.030  30.438  31.409  1.00  0.00    -0.354 N 
ATOM     45  C   UNL A   1      43.221  28.676  33.732  1.00  0.00     0.074 A 
ATOM     46  C   UNL A   1      43.882  27.621  32.996  1.00  0.00     0.031 C 
ATOM     47  C   UNL A   1      38.699  30.697  29.630  1.00  0.00     0.029 A 
ATOM     48  C   UNL A   1      38.944  31.172  30.989  1.00  0.00     0.049 A 
ATOM     49  H   UNL A   1      40.442  30.547  32.296  1.00  0.00     0.167 HD
ATOM     50  C   UNL A   1      43.561  29.056  34.986  1.00  0.00     0.031 A 
ATOM     51  C   UNL A   1      38.223  32.115  31.626  1.00  0.00     0.031 A 
ATOM     52  C   UNL A   1      42.905  30.112  35.711  1.00  0.00     0.049 A 
ATOM     53  C   UNL A   1      38.608  32.507  33.027  1.00  0.00     0.074 A 
ATOM     54  C   UNL A   1      43.208  30.610  36.967  1.00  0.00     0.029 A 
ATOM     55  N   UNL A   1      41.814  30.833  35.249  1.00  0.00    -0.354 N 
ATOM     56  N   UNL A   1      39.586  32.049  33.772  1.00  0.00    -0.248 NA
ATOM     57  C   UNL A   1      37.799  33.553  33.669  1.00  0.00     0.031 C 
ATOM     58  C   UNL A   1      42.263  31.588  37.288  1.00  0.00     0.029 A 
ATOM     59  C   UNL A   1      41.415  31.751  36.204  1.00  0.00     0.049 A 
ATOM     60  H   UNL A   1      41.387  30.708  34.370  1.00  0.00     0.167 HD
ATOM     61  C   UNL A   1      39.531  32.774  34.958  1.00  0.00     0.074 A 
ATOM     62  C   UNL A   1      38.432  33.710  34.824  1.00  0.00     0.031 C 
ATOM     63  C   UNL A   1      40.319  32.678  36.057  1.00  0.00     0.031 A 
BRANCH  50  64
ATOM     64  C   UNL A   1      44.691  28.319  35.659  1.00  0.00    -0.014 A 
ATOM     65  C   UNL A   1      46.027  28.728  35.497  1.00  0.00     0.010 A 
ATOM     66  C   UNL A   1      44.409  27.227  36.500  1.00  0.00     0.010 A 
ATOM     67  C   UNL A   1      47.063  28.036  36.129  1.00  0.00     0.020 A 
ATOM     68  C   UNL A   1      45.439  26.551  37.161  1.00  0.00     0.020 A 
ATOM     69  C   UNL A   1      46.762  26.950  36.957  1.00  0.00     0.054 A 
BRANCH  69  70
ATOM     70  S   UNL A   1      48.125  26.088  37.786  1.00  0.00     0.124 S 
ATOM     71  O   UNL A   1      48.455  25.045  36.818  1.00  0.00    -0.237 OA
ATOM     72  O   UNL A   1      49.124  27.142  37.939  1.00  0.00    -0.237 OA
ATOM     73  O   UNL A   1      47.529  25.612  39.033  1.00  0.00    -0.744 OA
ENDBRANCH  69  70
ENDBRANCH  50  64
BRANCH  51  74
ATOM     74  C   UNL A   1      37.070  32.760  30.941  1.00  0.00    -0.014 A 
ATOM     75  C   UNL A   1      37.265  33.870  30.099  1.00  0.00     0.010 A 
ATOM     76  C   UNL A   1      35.765  32.264  31.123  1.00  0.00     0.010 A 
ATOM     77  C   UNL A   1      36.177  34.484  29.470  1.00  0.00     0.020 A 
ATOM     78  C   UNL A   1      34.679  32.857  30.472  1.00  0.00     0.020 A 
ATOM     79  C   UNL A   1      34.892  33.971  29.659  1.00  0.00     0.054 A 
BRANCH  79  80
ATOM     80  S   UNL A   1      33.501  34.758  28.798  1.00  0.00     0.124 S 
ATOM     81  O   UNL A   1      32.566  35.003  29.891  1.00  0.00    -0.237 OA
ATOM     82  O   UNL A   1      34.123  35.944  28.215  1.00  0.00    -0.237 OA
ATOM     83  O   UNL A   1      33.082  33.744  27.831  1.00  0.00    -0.744 OA
ENDBRANCH  79  80
ENDBRANCH  51  74
BRANCH  63  84
ATOM     84  C   UNL A   1      40.057  33.635  37.189  1.00  0.00    -0.014 A 
ATOM     85  C   UNL A   1      40.797  34.822  37.334  1.00  0.00     0.010 A 
ATOM     86  C   UNL A   1      39.008  33.368  38.090  1.00  0.00     0.010 A 
ATOM     87  C   UNL A   1      40.516  35.707  38.379  1.00  0.00     0.020 A 
ATOM     88  C   UNL A   1      38.703  34.265  39.116  1.00  0.00     0.020 A 
ATOM     89  C   UNL A   1      39.469  35.424  39.262  1.00  0.00     0.054 A 
BRANCH  89  90
ATOM     90  S   UNL A   1      39.096  36.610  40.581  1.00  0.00     0.124 S 
ATOM     91  O   UNL A   1      38.207  35.835  41.445  1.00  0.00    -0.237 OA
ATOM     92  O   UNL A   1      40.417  36.898  41.135  1.00  0.00    -0.237 OA
ATOM     93  O   UNL A   1      38.465  37.725  39.879  1.00  0.00    -0.744 OA
ENDBRANCH  89  90
ENDBRANCH  63  84
ENDBRANCH  37  38
ENDBRANCH  29  32
ENDBRANCH  27  28
ENDBRANCH  26  27
ENDBRANCH  25  26
ENDBRANCH  24  25
ENDBRANCH   1  24
TORSDOF 23
ENDMDL
MODEL 2
REMARK VINA RESULT:      -6.5      3.589      9.344
REMARK SMILES C=CCN(CC(=O)NCCCCCCNC(=O)c1ccc(-c2c3nc(c(-c4ccc(S(=O)(=O)[O-])cc4)c4ccc([nH]4)c(-c4ccc(S(=O)(=O)[O-])cc4)c4nc(c(-c5ccc(S(=O)(=O)[O-])cc5)c5ccc2[nH]5)C=C4)C=C3)cc1)C(=O)/C=C/c1ccc(OC)cc1
REMARK SMILES IDX 10 1 9 2 8 3 6 4 7 5 5 7 4 8 3 9 2 10 1 11 78 12 79 13 80 14
REMARK SMILES IDX 81 15 82 16 83 17 89 18 84 19 88 20 85 21 86 22 87 23 11 24
REMARK SMILES IDX 12 25 13 26 14 27 15 28 16 29 17 31 18 32 19 33 77 34 20 35
REMARK SMILES IDX 76 36 21 37 22 38 23 39 70 40 24 41 75 42 69 43 71 44 25 45
REMARK SMILES IDX 74 46 68 47 67 48 26 50 56 51 37 52 55 53 38 54 41 55 54 56
REMARK SMILES IDX 72 57 39 58 40 59 53 61 73 62 42 63 27 64 28 65 36 66 29 67
REMARK SMILES IDX 35 68 30 69 31 70 32 71 33 72 34 73 57 74 58 75 66 76 59 77
REMARK SMILES IDX 65 78 60 79 61 80 62 81 63 82 64 83 43 84 44 85 52 86 45 87
REMARK SMILES IDX 51 88 46 89 47 90 48 91 49 92 50 93
REMARK H PARENT 8 6 15 30 71 49 41 60
REMARK Flexibility Score: inf
ROOT
ATOM      1  C   UNL A   1      44.140  24.133  30.727  1.00  0.00     0.021 C 
ENDROOT
BRANCH   1   2
ATOM      2  C   UNL A   1      44.135  23.334  29.427  1.00  0.00     0.116 C 
BRANCH   2   3
ATOM      3  N   UNL A   1      45.246  23.669  28.568  1.00  0.00    -0.355 N 
ATOM      4  C   UNL A   1      45.461  23.307  27.272  1.00  0.00     0.239 C 
ATOM      5  O   UNL A   1      46.298  23.948  26.629  1.00  0.00    -0.273 OA
ATOM      6  H   UNL A   1      45.942  24.236  28.972  1.00  0.00     0.163 HD
BRANCH   4   7
ATOM      7  C   UNL A   1      44.590  22.237  26.590  1.00  0.00     0.220 C 
BRANCH   7   8
ATOM      8  N   UNL A   1      43.351  22.720  25.964  1.00  0.00    -0.326 N 
BRANCH   8   9
ATOM      9  C   UNL A   1      42.283  21.737  25.766  1.00  0.00     0.147 C 
BRANCH   9  10
ATOM     10  C   UNL A   1      41.169  21.923  26.749  1.00  0.00    -0.014 C 
ATOM     11  C   UNL A   1      41.197  21.392  27.980  1.00  0.00     0.006 C 
ENDBRANCH   9  10
ENDBRANCH   8   9
BRANCH   8  12
ATOM     12  C   UNL A   1      43.116  24.012  25.516  1.00  0.00     0.247 C 
ATOM     13  O   UNL A   1      43.749  24.499  24.574  1.00  0.00    -0.270 OA
BRANCH  12  14
ATOM     14  C   UNL A   1      42.165  24.947  26.191  1.00  0.00     0.072 C 
ATOM     15  C   UNL A   1      41.961  26.256  26.000  1.00  0.00     0.014 C 
BRANCH  15  16
ATOM     16  C   UNL A   1      41.013  27.045  26.787  1.00  0.00    -0.025 A 
ATOM     17  C   UNL A   1      40.060  26.405  27.584  1.00  0.00     0.012 A 
ATOM     18  C   UNL A   1      40.984  28.436  26.668  1.00  0.00     0.012 A 
ATOM     19  C   UNL A   1      39.068  27.151  28.225  1.00  0.00     0.047 A 
ATOM     20  C   UNL A   1      39.985  29.180  27.306  1.00  0.00     0.047 A 
ATOM     21  C   UNL A   1      39.014  28.540  28.076  1.00  0.00     0.118 A 
BRANCH  21  22
ATOM     22  O   UNL A   1      37.967  29.146  28.716  1.00  0.00    -0.497 OA
ATOM     23  C   UNL A   1      38.165  30.494  29.124  1.00  0.00     0.278 C 
ENDBRANCH  21  22
ENDBRANCH  15  16
ENDBRANCH  12  14
ENDBRANCH   8  12
ENDBRANCH   7   8
ENDBRANCH   4   7
ENDBRANCH   2   3
ENDBRANCH   1   2
BRANCH   1  24
ATOM     24  C   UNL A   1      43.837  23.295  31.974  1.00  0.00     0.002 C 
BRANCH  24  25
ATOM     25  C   UNL A   1      44.834  23.463  33.127  1.00  0.00     0.002 C 
BRANCH  25  26
ATOM     26  C   UNL A   1      44.690  22.447  34.263  1.00  0.00     0.021 C 
BRANCH  26  27
ATOM     27  C   UNL A   1      45.814  22.492  35.290  1.00  0.00     0.116 C 
BRANCH  27  28
ATOM     28  N   UNL A   1      45.308  22.742  36.630  1.00  0.00    -0.352 N 
ATOM     29  C   UNL A   1      44.915  23.928  37.196  1.00  0.00     0.251 C 
ATOM     30  H   UNL A   1      45.235  21.951  37.211  1.00  0.00     0.163 HD
ATOM     31  O   UNL A   1      44.726  23.996  38.409  1.00  0.00    -0.269 OA
BRANCH  29  32
ATOM     32  C   UNL A   1      44.736  25.123  36.345  1.00  0.00     0.039 A 
ATOM     33  C   UNL A   1      43.475  25.393  35.810  1.00  0.00     0.014 A 
ATOM     34  C   UNL A   1      45.813  25.971  36.071  1.00  0.00     0.014 A 
ATOM     35  C   UNL A   1      43.283  26.542  35.039  1.00  0.00     0.010 A 
ATOM     36  C   UNL A   1      45.602  27.155  35.371  1.00  0.00     0.010 A 
ATOM     37  C   UNL A   1      44.339  27.446  34.835  1.00  0.00    -0.014 A 
BRANCH  37  38
ATOM     38  C   UNL A   1      44.146  28.692  34.049  1.00  0.00     0.031 A 
ATOM     39  C   UNL A   1      44.583  28.748  32.610  1.00  0.00     0.074 A 
ATOM     40  C   UNL A   1      43.630  29.786  34.644  1.00  0.00     0.049 A 
ATOM     41  N   UNL A   1      44.550  29.756  31.777  1.00  0.00    -0.248 NA
ATOM     42  C   UNL A   1      45.157  27.518  32.038  1.00  0.00     0.031 C 
ATOM     43  C   UNL A   1      43.200  29.868  36.042  1.00  0.00     0.029 A 
ATOM     44  N   UNL A   1      43.383  31.041  34.147  1.00  0.00    -0.354 N 
ATOM     45  C   UNL A   1      45.110  29.289  30.594  1.00  0.00     0.074 A 
ATOM     46  C   UNL A   1      45.527  27.925  30.833  1.00  0.00     0.031 C 
ATOM     47  C   UNL A   1      42.717  31.098  36.282  1.00  0.00     0.029 A 
ATOM     48  C   UNL A   1      42.842  31.905  35.072  1.00  0.00     0.049 A 
ATOM     49  H   UNL A   1      43.574  31.299  33.217  1.00  0.00     0.167 HD
ATOM     50  C   UNL A   1      45.247  29.929  29.408  1.00  0.00     0.031 A 
ATOM     51  C   UNL A   1      42.494  33.202  34.962  1.00  0.00     0.031 A 
ATOM     52  C   UNL A   1      44.824  31.284  29.173  1.00  0.00     0.049 A 
ATOM     53  C   UNL A   1      42.674  33.898  33.640  1.00  0.00     0.074 A 
ATOM     54  C   UNL A   1      44.870  32.007  27.993  1.00  0.00     0.029 A 
ATOM     55  N   UNL A   1      44.277  32.122  30.133  1.00  0.00    -0.354 N 
ATOM     56  N   UNL A   1      43.147  33.418  32.514  1.00  0.00    -0.248 NA
ATOM     57  C   UNL A   1      42.262  35.306  33.570  1.00  0.00     0.031 C 
ATOM     58  C   UNL A   1      44.410  33.300  28.255  1.00  0.00     0.029 A 
ATOM     59  C   UNL A   1      44.008  33.362  29.581  1.00  0.00     0.049 A 
ATOM     60  H   UNL A   1      44.107  31.871  31.070  1.00  0.00     0.167 HD
ATOM     61  C   UNL A   1      43.058  34.457  31.592  1.00  0.00     0.074 A 
ATOM     62  C   UNL A   1      42.473  35.584  32.290  1.00  0.00     0.031 C 
ATOM     63  C   UNL A   1      43.424  34.475  30.287  1.00  0.00     0.031 A 
BRANCH  50  64
ATOM     64  C   UNL A   1      45.890  29.172  28.274  1.00  0.00    -0.014 A 
ATOM     65  C   UNL A   1      47.275  29.248  28.039  1.00  0.00     0.010 A 
ATOM     66  C   UNL A   1      45.105  28.338  27.457  1.00  0.00     0.010 A 
ATOM     67  C   UNL A   1      47.856  28.539  26.986  1.00  0.00     0.020 A 
ATOM     68  C   UNL A   1      45.687  27.600  26.421  1.00  0.00     0.020 A 
ATOM     69  C   UNL A   1      47.058  27.719  26.182  1.00  0.00     0.054 A 
BRANCH  69  70
ATOM     70  S   UNL A   1      47.845  26.789  24.840  1.00  0.00     0.124 S 
ATOM     71  O   UNL A   1      46.707  26.087  24.251  1.00  0.00    -0.237 OA
ATOM     72  O   UNL A   1      48.425  27.846  24.016  1.00  0.00    -0.237 OA
ATOM     73  O   UNL A   1      48.813  25.936  25.528  1.00  0.00    -0.744 OA
ENDBRANCH  69  70
ENDBRANCH  50  64
BRANCH  51  74
ATOM     74  C   UNL A   1      41.930  33.924  36.136  1.00  0.00    -0.014 A 
ATOM     75  C   UNL A   1      40.540  33.983  36.341  1.00  0.00     0.010 A 
ATOM     76  C   UNL A   1      42.783  34.556  37.060  1.00  0.00     0.010 A 
ATOM     77  C   UNL A   1      40.013  34.676  37.436  1.00  0.00     0.020 A 
ATOM     78  C   UNL A   1      42.262  35.224  38.172  1.00  0.00     0.020 A 
ATOM     79  C   UNL A   1      40.878  35.290  38.345  1.00  0.00     0.054 A 
BRANCH  79  80
ATOM     80  S   UNL A   1      40.174  36.147  39.781  1.00  0.00     0.124 S 
ATOM     81  O   UNL A   1      41.360  36.729  40.400  1.00  0.00    -0.237 OA
ATOM     82  O   UNL A   1      39.251  37.093  39.161  1.00  0.00    -0.237 OA
ATOM     83  O   UNL A   1      39.536  35.072  40.540  1.00  0.00    -0.744 OA
ENDBRANCH  79  80
ENDBRANCH  51  74
BRANCH  63  84
ATOM     84  C   UNL A   1      43.164  35.738  29.509  1.00  0.00    -0.014 A 
ATOM     85  C   UNL A   1      44.100  36.787  29.476  1.00  0.00     0.010 A 
ATOM     86  C   UNL A   1      41.984  35.850  28.747  1.00  0.00     0.010 A 
ATOM     87  C   UNL A   1      43.846  37.938  28.726  1.00  0.00     0.020 A 
ATOM     88  C   UNL A   1      41.742  36.984  27.970  1.00  0.00     0.020 A 
ATOM     89  C   UNL A   1      42.669  38.028  27.975  1.00  0.00     0.054 A 
BRANCH  89  90
ATOM     90  S   UNL A   1      42.385  39.512  26.973  1.00  0.00     0.124 S 
ATOM     91  O   UNL A   1      41.280  39.092  26.114  1.00  0.00    -0.237 OA
ATOM     92  O   UNL A   1      42.052  40.518  27.979  1.00  0.00    -0.237 OA
ATOM     93  O   UNL A   1      43.660  39.721  26.290  1.00  0.00    -0.744 OA
ENDBRANCH  89  90
ENDBRANCH  63  84
ENDBRANCH  37  38
ENDBRANCH  29  32
ENDBRANCH  27  28
ENDBRANCH  26  27
ENDBRANCH  25  26
ENDBRANCH  24  25
ENDBRANCH   1  24
TORSDOF 23
ENDMDL
MODEL 3
REMARK VINA RESULT:      -6.5      3.582      9.791
REMARK SMILES C=CCN(CC(=O)NCCCCCCNC(=O)c1ccc(-c2c3nc(c(-c4ccc(S(=O)(=O)[O-])cc4)c4ccc([nH]4)c(-c4ccc(S(=O)(=O)[O-])cc4)c4nc(c(-c5ccc(S(=O)(=O)[O-])cc5)c5ccc2[nH]5)C=C4)C=C3)cc1)C(=O)/C=C/c1ccc(OC)cc1
REMARK SMILES IDX 10 1 9 2 8 3 6 4 7 5 5 7 4 8 3 9 2 10 1 11 78 12 79 13 80 14
REMARK SMILES IDX 81 15 82 16 83 17 89 18 84 19 88 20 85 21 86 22 87 23 11 24
REMARK SMILES IDX 12 25 13 26 14 27 15 28 16 29 17 31 18 32 19 33 77 34 20 35
REMARK SMILES IDX 76 36 21 37 22 38 23 39 70 40 24 41 75 42 69 43 71 44 25 45
REMARK SMILES IDX 74 46 68 47 67 48 26 50 56 51 37 52 55 53 38 54 41 55 54 56
REMARK SMILES IDX 72 57 39 58 40 59 53 61 73 62 42 63 27 64 28 65 36 66 29 67
REMARK SMILES IDX 35 68 30 69 31 70 32 71 33 72 34 73 57 74 58 75 66 76 59 77
REMARK SMILES IDX 65 78 60 79 61 80 62 81 63 82 64 83 43 84 44 85 52 86 45 87
REMARK SMILES IDX 51 88 46 89 47 90 48 91 49 92 50 93
REMARK H PARENT 8 6 15 30 71 49 41 60
REMARK Flexibility Score: inf
ROOT
ATOM      1  C   UNL A   1      43.911  23.934  31.033  1.00  0.00     0.021 C 
ENDROOT
BRANCH   1   2
ATOM      2  C   UNL A   1      43.539  23.392  29.657  1.00  0.00     0.116 C 
BRANCH   2   3
ATOM      3  N   UNL A   1      44.001  24.240  28.584  1.00  0.00    -0.355 N 
ATOM      4  C   UNL A   1      43.457  24.423  27.348  1.00  0.00     0.239 C 
ATOM      5  O   UNL A   1      43.818  25.414  26.705  1.00  0.00    -0.273 OA
ATOM      6  H   UNL A   1      44.819  24.755  28.769  1.00  0.00     0.163 HD
BRANCH   4   7
ATOM      7  C   UNL A   1      42.327  23.515  26.833  1.00  0.00     0.220 C 
BRANCH   7   8
ATOM      8  N   UNL A   1      40.971  24.080  26.891  1.00  0.00    -0.326 N 
BRANCH   8   9
ATOM      9  C   UNL A   1      39.904  23.190  27.353  1.00  0.00     0.147 C 
BRANCH   9  10
ATOM     10  C   UNL A   1      39.649  22.078  26.383  1.00  0.00    -0.014 C 
ATOM     11  C   UNL A   1      38.447  21.866  25.828  1.00  0.00     0.006 C 
ENDBRANCH   9  10
ENDBRANCH   8   9
BRANCH   8  12
ATOM     12  C   UNL A   1      40.610  25.367  26.519  1.00  0.00     0.247 C 
ATOM     13  O   UNL A   1      41.000  25.872  25.462  1.00  0.00    -0.270 OA
BRANCH  12  14
ATOM     14  C   UNL A   1      39.815  26.276  27.400  1.00  0.00     0.072 C 
ATOM     15  C   UNL A   1      40.157  26.885  28.542  1.00  0.00     0.014 C 
BRANCH  15  16
ATOM     16  C   UNL A   1      39.235  27.716  29.317  1.00  0.00    -0.025 A 
ATOM     17  C   UNL A   1      38.997  27.432  30.664  1.00  0.00     0.012 A 
ATOM     18  C   UNL A   1      38.509  28.733  28.692  1.00  0.00     0.012 A 
ATOM     19  C   UNL A   1      38.016  28.138  31.366  1.00  0.00     0.047 A 
ATOM     20  C   UNL A   1      37.522  29.433  29.395  1.00  0.00     0.047 A 
ATOM     21  C   UNL A   1      37.261  29.128  30.732  1.00  0.00     0.118 A 
BRANCH  21  22
ATOM     22  O   UNL A   1      36.301  29.709  31.516  1.00  0.00    -0.497 OA
ATOM     23  C   UNL A   1      36.750  30.656  32.476  1.00  0.00     0.278 C 
ENDBRANCH  21  22
ENDBRANCH  15  16
ENDBRANCH  12  14
ENDBRANCH   8  12
ENDBRANCH   7   8
ENDBRANCH   4   7
ENDBRANCH   2   3
ENDBRANCH   1   2
BRANCH   1  24
ATOM     24  C   UNL A   1      43.956  22.867  32.132  1.00  0.00     0.002 C 
BRANCH  24  25
ATOM     25  C   UNL A   1      44.829  23.219  33.343  1.00  0.00     0.002 C 
BRANCH  25  26
ATOM     26  C   UNL A   1      44.725  22.248  34.522  1.00  0.00     0.021 C 
BRANCH  26  27
ATOM     27  C   UNL A   1      45.887  22.328  35.504  1.00  0.00     0.116 C 
BRANCH  27  28
ATOM     28  N   UNL A   1      45.429  22.598  36.857  1.00  0.00    -0.352 N 
ATOM     29  C   UNL A   1      45.067  23.794  37.423  1.00  0.00     0.251 C 
ATOM     30  H   UNL A   1      45.368  21.814  37.449  1.00  0.00     0.163 HD
ATOM     31  O   UNL A   1      44.921  23.877  38.641  1.00  0.00    -0.269 OA
BRANCH  29  32
ATOM     32  C   UNL A   1      44.871  24.981  36.565  1.00  0.00     0.039 A 
ATOM     33  C   UNL A   1      43.608  25.226  36.022  1.00  0.00     0.014 A 
ATOM     34  C   UNL A   1      45.934  25.846  36.291  1.00  0.00     0.014 A 
ATOM     35  C   UNL A   1      43.400  26.367  35.244  1.00  0.00     0.010 A 
ATOM     36  C   UNL A   1      45.706  27.023  35.585  1.00  0.00     0.010 A 
ATOM     37  C   UNL A   1      44.440  27.289  35.041  1.00  0.00    -0.014 A 
BRANCH  37  38
ATOM     38  C   UNL A   1      44.230  28.527  34.248  1.00  0.00     0.031 A 
ATOM     39  C   UNL A   1      43.563  29.720  34.878  1.00  0.00     0.074 A 
ATOM     40  C   UNL A   1      44.588  28.558  32.948  1.00  0.00     0.049 A 
ATOM     41  N   UNL A   1      43.242  30.867  34.337  1.00  0.00    -0.248 NA
ATOM     42  C   UNL A   1      43.182  29.600  36.296  1.00  0.00     0.031 C 
ATOM     43  C   UNL A   1      45.211  27.455  32.213  1.00  0.00     0.029 A 
ATOM     44  N   UNL A   1      44.475  29.557  32.013  1.00  0.00    -0.354 N 
ATOM     45  C   UNL A   1      42.611  31.596  35.338  1.00  0.00     0.074 A 
ATOM     46  C   UNL A   1      42.543  30.742  36.502  1.00  0.00     0.031 C 
ATOM     47  C   UNL A   1      45.451  27.847  30.952  1.00  0.00     0.029 A 
ATOM     48  C   UNL A   1      44.960  29.210  30.773  1.00  0.00     0.049 A 
ATOM     49  H   UNL A   1      44.084  30.438  32.211  1.00  0.00     0.167 HD
ATOM     50  C   UNL A   1      42.149  32.868  35.300  1.00  0.00     0.031 A 
ATOM     51  C   UNL A   1      44.998  29.907  29.620  1.00  0.00     0.031 A 
ATOM     52  C   UNL A   1      42.227  33.717  34.140  1.00  0.00     0.049 A 
ATOM     53  C   UNL A   1      44.459  31.312  29.597  1.00  0.00     0.074 A 
ATOM     54  C   UNL A   1      41.835  35.038  34.013  1.00  0.00     0.029 A 
ATOM     55  N   UNL A   1      42.728  33.330  32.906  1.00  0.00    -0.354 N 
ATOM     56  N   UNL A   1      43.925  32.006  30.573  1.00  0.00    -0.248 NA
ATOM     57  C   UNL A   1      44.542  32.033  28.319  1.00  0.00     0.031 C 
ATOM     58  C   UNL A   1      42.042  35.430  32.688  1.00  0.00     0.029 A 
ATOM     59  C   UNL A   1      42.631  34.377  32.006  1.00  0.00     0.049 A 
ATOM     60  H   UNL A   1      43.099  32.440  32.701  1.00  0.00     0.167 HD
ATOM     61  C   UNL A   1      43.637  33.257  30.036  1.00  0.00     0.074 A 
ATOM     62  C   UNL A   1      44.071  33.226  28.654  1.00  0.00     0.031 C 
ATOM     63  C   UNL A   1      43.069  34.333  30.633  1.00  0.00     0.031 A 
BRANCH  50  64
ATOM     64  C   UNL A   1      41.508  33.418  36.548  1.00  0.00    -0.014 A 
ATOM     65  C   UNL A   1      42.261  34.125  37.504  1.00  0.00     0.010 A 
ATOM     66  C   UNL A   1      40.125  33.263  36.749  1.00  0.00     0.010 A 
ATOM     67  C   UNL A   1      41.652  34.630  38.655  1.00  0.00     0.020 A 
ATOM     68  C   UNL A   1      39.504  33.795  37.884  1.00  0.00     0.020 A 
ATOM     69  C   UNL A   1      40.276  34.461  38.838  1.00  0.00     0.054 A 
BRANCH  69  70
ATOM     70  S   UNL A   1      39.509  35.152  40.329  1.00  0.00     0.124 S 
ATOM     71  O   UNL A   1      40.512  34.857  41.349  1.00  0.00    -0.237 OA
ATOM     72  O   UNL A   1      39.360  36.564  39.986  1.00  0.00    -0.237 OA
ATOM     73  O   UNL A   1      38.258  34.407  40.453  1.00  0.00    -0.744 OA
ENDBRANCH  69  70
ENDBRANCH  50  64
BRANCH  51  74
ATOM     74  C   UNL A   1      45.576  29.289  28.395  1.00  0.00    -0.014 A 
ATOM     75  C   UNL A   1      46.969  29.177  28.238  1.00  0.00     0.010 A 
ATOM     76  C   UNL A   1      44.734  28.803  27.378  1.00  0.00     0.010 A 
ATOM     77  C   UNL A   1      47.509  28.611  27.078  1.00  0.00     0.020 A 
ATOM     78  C   UNL A   1      45.269  28.209  26.231  1.00  0.00     0.020 A 
ATOM     79  C   UNL A   1      46.655  28.129  26.084  1.00  0.00     0.054 A 
BRANCH  79  80
ATOM     80  S   UNL A   1      47.378  27.359  24.608  1.00  0.00     0.124 S 
ATOM     81  O   UNL A   1      46.656  26.092  24.542  1.00  0.00    -0.237 OA
ATOM     82  O   UNL A   1      47.060  28.326  23.561  1.00  0.00    -0.237 OA
ATOM     83  O   UNL A   1      48.798  27.253  24.939  1.00  0.00    -0.744 OA
ENDBRANCH  79  80
ENDBRANCH  51  74
BRANCH  63  84
ATOM     84  C   UNL A   1      42.920  35.587  29.812  1.00  0.00    -0.014 A 
ATOM     85  C   UNL A   1      43.859  36.632  29.890  1.00  0.00     0.010 A 
ATOM     86  C   UNL A   1      41.852  35.694  28.901  1.00  0.00     0.010 A 
ATOM     87  C   UNL A   1      43.712  37.774  29.100  1.00  0.00     0.020 A 
ATOM     88  C   UNL A   1      41.720  36.820  28.085  1.00  0.00     0.020 A 
ATOM     89  C   UNL A   1      42.645  37.860  28.200  1.00  0.00     0.054 A 
BRANCH  89  90
ATOM     90  S   UNL A   1      42.503  39.332  27.151  1.00  0.00     0.124 S 
ATOM     91  O   UNL A   1      41.378  38.983  26.287  1.00  0.00    -0.237 OA
ATOM     92  O   UNL A   1      42.245  40.392  28.123  1.00  0.00    -0.237 OA
ATOM     93  O   UNL A   1      43.800  39.410  26.483  1.00  0.00    -0.744 OA
ENDBRANCH  89  90
ENDBRANCH  63  84
ENDBRANCH  37  38
ENDBRANCH  29  32
ENDBRANCH  27  28
ENDBRANCH  26  27
ENDBRANCH  25  26
ENDBRANCH  24  25
ENDBRANCH   1  24
TORSDOF 23
ENDMDL
