MODEL 1
REMARK VINA RESULT:     -10.8      0.000      0.000
REMARK SMILES C[C@@H]1[NH2+]CC[C@@H]1C(=O)Nc1ccccc1CC(=O)NCCCCCCNC(=O)c1ccc(-c2c3nc(c(-c4ccc(S(=O)(=O)[O-])cc4)c4ccc([nH]4)c(-c4ccc(S(=O)(=O)[O-])cc4)c4nc(c(-c5ccc(S(=O)(=O)[O-])cc5)c5ccc2[nH]5)C=C4)C=C3)cc1
REMARK SMILES IDX 22 1 21 2 20 3 19 4 17 5 18 6 16 8 15 9 10 10 11 11 12 12
REMARK SMILES IDX 14 13 13 14 9 15 7 16 8 17 6 19 1 20 2 21 3 22 4 23 5 26
REMARK SMILES IDX 23 27 24 28 25 29 26 30 27 31 28 33 29 34 30 35 88 36 31 37
REMARK SMILES IDX 87 38 32 39 33 40 34 41 81 42 35 43 86 44 80 45 82 46 36 47
REMARK SMILES IDX 85 48 79 49 78 50 37 52 67 53 48 54 66 55 49 56 52 57 65 58
REMARK SMILES IDX 83 59 50 60 51 61 64 63 84 64 53 65 38 66 39 67 47 68 40 69
REMARK SMILES IDX 46 70 41 71 42 72 43 73 44 74 45 75 68 76 69 77 77 78 70 79
REMARK SMILES IDX 76 80 71 81 72 82 73 83 74 84 75 85 54 86 55 87 63 88 56 89
REMARK SMILES IDX 62 90 57 91 58 92 59 93 60 94 61 95
REMARK H PARENT 19 7 9 18 3 24 3 25 26 32 82 51 52 62
REMARK Flexibility Score: inf
ROOT
ATOM      1  C   UNL A   1      40.476  20.697  26.497  1.00  0.00     0.002 C 
ENDROOT
BRANCH   1   2
ATOM      2  C   UNL A   1      39.575  21.927  26.345  1.00  0.00     0.021 C 
BRANCH   2   3
ATOM      3  C   UNL A   1      38.273  21.607  25.615  1.00  0.00     0.116 C 
BRANCH   3   4
ATOM      4  N   UNL A   1      37.728  22.818  25.041  1.00  0.00    -0.356 N 
ATOM      5  C   UNL A   1      36.425  23.042  24.713  1.00  0.00     0.224 C 
ATOM      6  O   UNL A   1      36.163  23.892  23.860  1.00  0.00    -0.275 OA
ATOM      7  H   UNL A   1      38.362  23.552  24.869  1.00  0.00     0.163 HD
BRANCH   5   8
ATOM      8  C   UNL A   1      35.333  22.347  25.497  1.00  0.00     0.137 C 
BRANCH   8   9
ATOM      9  C   UNL A   1      34.326  21.516  24.736  1.00  0.00    -0.015 A 
ATOM     10  C   UNL A   1      33.329  22.023  23.876  1.00  0.00     0.044 A 
ATOM     11  C   UNL A   1      32.408  21.128  23.292  1.00  0.00     0.026 A 
ATOM     12  C   UNL A   1      32.506  19.751  23.475  1.00  0.00     0.002 A 
ATOM     13  C   UNL A   1      34.415  20.114  24.896  1.00  0.00     0.006 A 
ATOM     14  C   UNL A   1      33.523  19.242  24.266  1.00  0.00     0.000 A 
BRANCH  10  15
ATOM     15  N   UNL A   1      33.091  23.370  23.515  1.00  0.00    -0.325 N 
ATOM     16  C   UNL A   1      32.064  24.216  23.801  1.00  0.00     0.233 C 
ATOM     17  O   UNL A   1      31.306  24.506  22.867  1.00  0.00    -0.274 OA
ATOM     18  H   UNL A   1      33.798  23.768  22.956  1.00  0.00     0.169 HD
BRANCH  16  19
ATOM     19  C   UNL A   1      32.153  25.120  25.044  1.00  0.00     0.142 C 
ATOM     20  C   UNL A   1      32.041  23.375  27.069  1.00  0.00     0.076 C 
ATOM     21  C   UNL A   1      31.733  24.734  26.469  1.00  0.00     0.192 C 
ATOM     22  N   UNL A   1      30.334  25.167  26.660  1.00  0.00    -0.343 N 
ATOM     23  C   UNL A   1      29.938  25.912  25.463  1.00  0.00     0.261 C 
ATOM     24  H   UNL A   1      30.262  25.764  27.482  1.00  0.00     0.346 HD
ATOM     25  H   UNL A   1      29.724  24.360  26.799  1.00  0.00     0.346 HD
ATOM     26  C   UNL A   1      31.248  26.348  24.834  1.00  0.00     0.081 C 
ENDBRANCH  16  19
ENDBRANCH  10  15
ENDBRANCH   8   9
ENDBRANCH   5   8
ENDBRANCH   3   4
ENDBRANCH   2   3
ENDBRANCH   1   2
BRANCH   1  27
ATOM     27  C   UNL A   1      41.692  20.933  27.397  1.00  0.00     0.002 C 
BRANCH  27  28
ATOM     28  C   UNL A   1      41.695  22.294  28.097  1.00  0.00     0.021 C 
BRANCH  28  29
ATOM     29  C   UNL A   1      42.857  23.194  27.691  1.00  0.00     0.116 C 
BRANCH  29  30
ATOM     30  N   UNL A   1      42.567  23.915  26.461  1.00  0.00    -0.352 N 
ATOM     31  C   UNL A   1      41.960  25.135  26.299  1.00  0.00     0.251 C 
ATOM     32  H   UNL A   1      42.844  23.465  25.630  1.00  0.00     0.163 HD
ATOM     33  O   UNL A   1      41.573  25.494  25.199  1.00  0.00    -0.269 OA
BRANCH  31  34
ATOM     34  C   UNL A   1      41.781  26.002  27.480  1.00  0.00     0.039 A 
ATOM     35  C   UNL A   1      42.737  26.982  27.749  1.00  0.00     0.014 A 
ATOM     36  C   UNL A   1      40.669  25.841  28.313  1.00  0.00     0.014 A 
ATOM     37  C   UNL A   1      42.553  27.835  28.836  1.00  0.00     0.010 A 
ATOM     38  C   UNL A   1      40.454  26.736  29.354  1.00  0.00     0.010 A 
ATOM     39  C   UNL A   1      41.399  27.733  29.632  1.00  0.00    -0.014 A 
BRANCH  39  40
ATOM     40  C   UNL A   1      41.165  28.676  30.750  1.00  0.00     0.031 A 
ATOM     41  C   UNL A   1      41.990  28.589  32.003  1.00  0.00     0.074 A 
ATOM     42  C   UNL A   1      40.163  29.569  30.656  1.00  0.00     0.049 A 
ATOM     43  N   UNL A   1      41.930  29.332  33.079  1.00  0.00    -0.248 NA
ATOM     44  C   UNL A   1      42.989  27.512  32.069  1.00  0.00     0.031 C 
ATOM     45  C   UNL A   1      39.246  29.695  29.520  1.00  0.00     0.029 A 
ATOM     46  N   UNL A   1      39.741  30.534  31.534  1.00  0.00    -0.354 N 
ATOM     47  C   UNL A   1      42.868  28.801  33.956  1.00  0.00     0.074 A 
ATOM     48  C   UNL A   1      43.446  27.644  33.305  1.00  0.00     0.031 C 
ATOM     49  C   UNL A   1      38.385  30.696  29.761  1.00  0.00     0.029 A 
ATOM     50  C   UNL A   1      38.671  31.263  31.075  1.00  0.00     0.049 A 
ATOM     51  H   UNL A   1      40.165  30.690  32.409  1.00  0.00     0.167 HD
ATOM     52  C   UNL A   1      43.227  29.244  35.185  1.00  0.00     0.031 A 
ATOM     53  C   UNL A   1      37.993  32.276  31.647  1.00  0.00     0.031 A 
ATOM     54  C   UNL A   1      42.650  30.398  35.821  1.00  0.00     0.049 A 
ATOM     55  C   UNL A   1      38.432  32.781  32.991  1.00  0.00     0.074 A 
ATOM     56  C   UNL A   1      42.999  30.984  37.024  1.00  0.00     0.029 A 
ATOM     57  N   UNL A   1      41.588  31.133  35.312  1.00  0.00    -0.354 N 
ATOM     58  N   UNL A   1      39.394  32.334  33.763  1.00  0.00    -0.248 NA
ATOM     59  C   UNL A   1      37.707  33.937  33.533  1.00  0.00     0.031 C 
ATOM     60  C   UNL A   1      42.114  32.041  37.268  1.00  0.00     0.029 A 
ATOM     61  C   UNL A   1      41.248  32.148  36.191  1.00  0.00     0.049 A 
ATOM     62  H   UNL A   1      41.143  30.959  34.451  1.00  0.00     0.167 HD
ATOM     63  C   UNL A   1      39.397  33.159  34.880  1.00  0.00     0.074 A 
ATOM     64  C   UNL A   1      38.356  34.148  34.670  1.00  0.00     0.031 C 
ATOM     65  C   UNL A   1      40.190  33.104  35.980  1.00  0.00     0.031 A 
BRANCH  52  66
ATOM     66  C   UNL A   1      44.281  28.456  35.919  1.00  0.00    -0.014 A 
ATOM     67  C   UNL A   1      43.936  27.389  36.771  1.00  0.00     0.010 A 
ATOM     68  C   UNL A   1      45.637  28.794  35.765  1.00  0.00     0.010 A 
ATOM     69  C   UNL A   1      44.920  26.720  37.503  1.00  0.00     0.020 A 
ATOM     70  C   UNL A   1      46.628  28.107  36.473  1.00  0.00     0.020 A 
ATOM     71  C   UNL A   1      46.259  27.093  37.359  1.00  0.00     0.054 A 
BRANCH  71  72
ATOM     72  S   UNL A   1      47.516  26.226  38.338  1.00  0.00     0.124 S 
ATOM     73  O   UNL A   1      48.654  27.135  38.237  1.00  0.00    -0.237 OA
ATOM     74  O   UNL A   1      46.896  26.142  39.658  1.00  0.00    -0.237 OA
ATOM     75  O   UNL A   1      47.674  24.949  37.646  1.00  0.00    -0.744 OA
ENDBRANCH  71  72
ENDBRANCH  52  66
BRANCH  53  76
ATOM     76  C   UNL A   1      36.849  32.884  30.918  1.00  0.00    -0.014 A 
ATOM     77  C   UNL A   1      35.534  32.452  31.164  1.00  0.00     0.010 A 
ATOM     78  C   UNL A   1      37.066  33.959  30.037  1.00  0.00     0.010 A 
ATOM     79  C   UNL A   1      34.455  33.090  30.545  1.00  0.00     0.020 A 
ATOM     80  C   UNL A   1      35.987  34.613  29.435  1.00  0.00     0.020 A 
ATOM     81  C   UNL A   1      34.687  34.173  29.693  1.00  0.00     0.054 A 
BRANCH  81  82
ATOM     82  S   UNL A   1      33.266  35.053  28.987  1.00  0.00     0.124 S 
ATOM     83  O   UNL A   1      32.477  35.359  30.176  1.00  0.00    -0.237 OA
ATOM     84  O   UNL A   1      33.897  36.198  28.334  1.00  0.00    -0.237 OA
ATOM     85  O   UNL A   1      32.677  34.075  28.076  1.00  0.00    -0.744 OA
ENDBRANCH  81  82
ENDBRANCH  53  76
BRANCH  65  86
ATOM     86  C   UNL A   1      39.954  34.143  37.044  1.00  0.00    -0.014 A 
ATOM     87  C   UNL A   1      38.965  33.961  38.028  1.00  0.00     0.010 A 
ATOM     88  C   UNL A   1      40.753  35.299  37.079  1.00  0.00     0.010 A 
ATOM     89  C   UNL A   1      38.753  34.938  39.004  1.00  0.00     0.020 A 
ATOM     90  C   UNL A   1      40.561  36.266  38.071  1.00  0.00     0.020 A 
ATOM     91  C   UNL A   1      39.550  36.087  39.016  1.00  0.00     0.054 A 
BRANCH  91  92
ATOM     92  S   UNL A   1      39.271  37.330  40.307  1.00  0.00     0.124 S 
ATOM     93  O   UNL A   1      39.025  36.497  41.481  1.00  0.00    -0.237 OA
ATOM     94  O   UNL A   1      40.528  38.073  40.317  1.00  0.00    -0.237 OA
ATOM     95  O   UNL A   1      38.114  38.079  39.821  1.00  0.00    -0.744 OA
ENDBRANCH  91  92
ENDBRANCH  65  86
ENDBRANCH  39  40
ENDBRANCH  31  34
ENDBRANCH  29  30
ENDBRANCH  28  29
ENDBRANCH  27  28
ENDBRANCH   1  27
TORSDOF 19
ENDMDL
MODEL 2
REMARK VINA RESULT:     -10.7      1.442      2.870
REMARK SMILES C[C@@H]1[NH2+]CC[C@@H]1C(=O)Nc1ccccc1CC(=O)NCCCCCCNC(=O)c1ccc(-c2c3nc(c(-c4ccc(S(=O)(=O)[O-])cc4)c4ccc([nH]4)c(-c4ccc(S(=O)(=O)[O-])cc4)c4nc(c(-c5ccc(S(=O)(=O)[O-])cc5)c5ccc2[nH]5)C=C4)C=C3)cc1
REMARK SMILES IDX 22 1 21 2 20 3 19 4 17 5 18 6 16 8 15 9 10 10 11 11 12 12
REMARK SMILES IDX 14 13 13 14 9 15 7 16 8 17 6 19 1 20 2 21 3 22 4 23 5 26
REMARK SMILES IDX 23 27 24 28 25 29 26 30 27 31 28 33 29 34 30 35 88 36 31 37
REMARK SMILES IDX 87 38 32 39 33 40 34 41 81 42 35 43 86 44 80 45 82 46 36 47
REMARK SMILES IDX 85 48 79 49 78 50 37 52 67 53 48 54 66 55 49 56 52 57 65 58
REMARK SMILES IDX 83 59 50 60 51 61 64 63 84 64 53 65 38 66 39 67 47 68 40 69
REMARK SMILES IDX 46 70 41 71 42 72 43 73 44 74 45 75 68 76 69 77 77 78 70 79
REMARK SMILES IDX 76 80 71 81 72 82 73 83 74 84 75 85 54 86 55 87 63 88 56 89
REMARK SMILES IDX 62 90 57 91 58 92 59 93 60 94 61 95
REMARK H PARENT 19 7 9 18 3 24 3 25 26 32 82 51 52 62
REMARK Flexibility Score: inf
ROOT
ATOM      1  C   UNL A   1      40.200  21.989  27.208  1.00  0.00     0.002 C 
ENDROOT
BRANCH   1   2
ATOM      2  C   UNL A   1      39.417  23.193  26.676  1.00  0.00     0.021 C 
BRANCH   2   3
ATOM      3  C   UNL A   1      38.346  22.791  25.666  1.00  0.00     0.116 C 
BRANCH   3   4
ATOM      4  N   UNL A   1      37.091  22.570  26.351  1.00  0.00    -0.356 N 
ATOM      5  C   UNL A   1      35.871  23.045  25.974  1.00  0.00     0.224 C 
ATOM      6  O   UNL A   1      34.991  23.169  26.829  1.00  0.00    -0.275 OA
ATOM      7  H   UNL A   1      37.122  22.024  27.170  1.00  0.00     0.163 HD
BRANCH   5   8
ATOM      8  C   UNL A   1      35.584  23.274  24.507  1.00  0.00     0.137 C 
BRANCH   8   9
ATOM      9  C   UNL A   1      34.201  22.949  23.991  1.00  0.00    -0.015 A 
ATOM     10  C   UNL A   1      33.499  21.749  24.229  1.00  0.00     0.044 A 
ATOM     11  C   UNL A   1      32.243  21.556  23.616  1.00  0.00     0.026 A 
ATOM     12  C   UNL A   1      31.641  22.550  22.849  1.00  0.00     0.002 A 
ATOM     13  C   UNL A   1      33.564  23.949  23.219  1.00  0.00     0.006 A 
ATOM     14  C   UNL A   1      32.297  23.756  22.664  1.00  0.00     0.000 A 
BRANCH  10  15
ATOM     15  N   UNL A   1      33.903  20.644  25.015  1.00  0.00    -0.325 N 
ATOM     16  C   UNL A   1      33.444  19.364  25.081  1.00  0.00     0.233 C 
ATOM     17  O   UNL A   1      32.828  19.046  26.105  1.00  0.00    -0.274 OA
ATOM     18  H   UNL A   1      34.653  20.836  25.624  1.00  0.00     0.169 HD
BRANCH  16  19
ATOM     19  C   UNL A   1      34.082  18.285  24.187  1.00  0.00     0.142 C 
ATOM     20  C   UNL A   1      32.342  18.069  22.166  1.00  0.00     0.076 C 
ATOM     21  C   UNL A   1      33.356  17.459  23.116  1.00  0.00     0.192 C 
ATOM     22  N   UNL A   1      32.903  16.203  23.746  1.00  0.00    -0.343 N 
ATOM     23  C   UNL A   1      33.438  16.178  25.109  1.00  0.00     0.261 C 
ATOM     24  H   UNL A   1      33.252  15.402  23.220  1.00  0.00     0.346 HD
ATOM     25  H   UNL A   1      31.884  16.154  23.760  1.00  0.00     0.346 HD
ATOM     26  C   UNL A   1      34.607  17.144  25.078  1.00  0.00     0.081 C 
ENDBRANCH  16  19
ENDBRANCH  10  15
ENDBRANCH   8   9
ENDBRANCH   5   8
ENDBRANCH   3   4
ENDBRANCH   2   3
ENDBRANCH   1   2
BRANCH   1  27
ATOM     27  C   UNL A   1      41.704  22.059  26.927  1.00  0.00     0.002 C 
BRANCH  27  28
ATOM     28  C   UNL A   1      42.538  22.542  28.115  1.00  0.00     0.021 C 
BRANCH  28  29
ATOM     29  C   UNL A   1      43.499  23.677  27.775  1.00  0.00     0.116 C 
BRANCH  29  30
ATOM     30  N   UNL A   1      43.197  24.258  26.476  1.00  0.00    -0.352 N 
ATOM     31  C   UNL A   1      42.468  25.383  26.183  1.00  0.00     0.251 C 
ATOM     32  H   UNL A   1      43.567  23.778  25.700  1.00  0.00     0.163 HD
ATOM     33  O   UNL A   1      42.104  25.605  25.040  1.00  0.00    -0.269 OA
BRANCH  31  34
ATOM     34  C   UNL A   1      42.130  26.315  27.276  1.00  0.00     0.039 A 
ATOM     35  C   UNL A   1      41.061  26.007  28.119  1.00  0.00     0.014 A 
ATOM     36  C   UNL A   1      42.873  27.484  27.464  1.00  0.00     0.014 A 
ATOM     37  C   UNL A   1      40.763  26.858  29.182  1.00  0.00     0.010 A 
ATOM     38  C   UNL A   1      42.617  28.294  28.564  1.00  0.00     0.010 A 
ATOM     39  C   UNL A   1      41.553  27.994  29.426  1.00  0.00    -0.014 A 
BRANCH  39  40
ATOM     40  C   UNL A   1      41.282  28.869  30.590  1.00  0.00     0.031 A 
ATOM     41  C   UNL A   1      42.109  28.751  31.839  1.00  0.00     0.074 A 
ATOM     42  C   UNL A   1      40.248  29.728  30.538  1.00  0.00     0.049 A 
ATOM     43  N   UNL A   1      42.021  29.435  32.951  1.00  0.00    -0.248 NA
ATOM     44  C   UNL A   1      43.148  27.710  31.853  1.00  0.00     0.031 C 
ATOM     45  C   UNL A   1      39.327  29.877  29.408  1.00  0.00     0.029 A 
ATOM     46  N   UNL A   1      39.789  30.631  31.462  1.00  0.00    -0.354 N 
ATOM     47  C   UNL A   1      42.978  28.896  33.802  1.00  0.00     0.074 A 
ATOM     48  C   UNL A   1      43.599  27.796  33.095  1.00  0.00     0.031 C 
ATOM     49  C   UNL A   1      38.429  30.831  29.697  1.00  0.00     0.029 A 
ATOM     50  C   UNL A   1      38.692  31.341  31.038  1.00  0.00     0.049 A 
ATOM     51  H   UNL A   1      40.206  30.758  32.345  1.00  0.00     0.167 HD
ATOM     52  C   UNL A   1      43.319  29.290  35.052  1.00  0.00     0.031 A 
ATOM     53  C   UNL A   1      37.977  32.298  31.659  1.00  0.00     0.031 A 
ATOM     54  C   UNL A   1      42.698  30.388  35.745  1.00  0.00     0.049 A 
ATOM     55  C   UNL A   1      38.395  32.751  33.028  1.00  0.00     0.074 A 
ATOM     56  C   UNL A   1      43.024  30.925  36.977  1.00  0.00     0.029 A 
ATOM     57  N   UNL A   1      41.610  31.108  35.271  1.00  0.00    -0.354 N 
ATOM     58  N   UNL A   1      39.373  32.302  33.779  1.00  0.00    -0.248 NA
ATOM     59  C   UNL A   1      37.627  33.850  33.625  1.00  0.00     0.031 C 
ATOM     60  C   UNL A   1      42.100  31.935  37.271  1.00  0.00     0.029 A 
ATOM     61  C   UNL A   1      41.231  32.063  36.199  1.00  0.00     0.049 A 
ATOM     62  H   UNL A   1      41.172  30.961  34.401  1.00  0.00     0.167 HD
ATOM     63  C   UNL A   1      39.344  33.070  34.936  1.00  0.00     0.074 A 
ATOM     64  C   UNL A   1      38.267  34.027  34.773  1.00  0.00     0.031 C 
ATOM     65  C   UNL A   1      40.138  32.989  36.034  1.00  0.00     0.031 A 
BRANCH  52  66
ATOM     66  C   UNL A   1      44.400  28.507  35.749  1.00  0.00    -0.014 A 
ATOM     67  C   UNL A   1      44.095  27.387  36.547  1.00  0.00     0.010 A 
ATOM     68  C   UNL A   1      45.743  28.900  35.613  1.00  0.00     0.010 A 
ATOM     69  C   UNL A   1      45.103  26.719  37.247  1.00  0.00     0.020 A 
ATOM     70  C   UNL A   1      46.759  28.216  36.288  1.00  0.00     0.020 A 
ATOM     71  C   UNL A   1      46.428  27.147  37.123  1.00  0.00     0.054 A 
BRANCH  71  72
ATOM     72  S   UNL A   1      47.716  26.280  38.061  1.00  0.00     0.124 S 
ATOM     73  O   UNL A   1      48.935  26.809  37.455  1.00  0.00    -0.237 OA
ATOM     74  O   UNL A   1      47.460  26.709  39.433  1.00  0.00    -0.237 OA
ATOM     75  O   UNL A   1      47.449  24.869  37.793  1.00  0.00    -0.744 OA
ENDBRANCH  71  72
ENDBRANCH  52  66
BRANCH  53  76
ATOM     76  C   UNL A   1      36.811  32.899  30.958  1.00  0.00    -0.014 A 
ATOM     77  C   UNL A   1      35.507  32.699  31.441  1.00  0.00     0.010 A 
ATOM     78  C   UNL A   1      37.012  33.745  29.853  1.00  0.00     0.010 A 
ATOM     79  C   UNL A   1      34.423  33.341  30.834  1.00  0.00     0.020 A 
ATOM     80  C   UNL A   1      35.934  34.407  29.259  1.00  0.00     0.020 A 
ATOM     81  C   UNL A   1      34.644  34.199  29.754  1.00  0.00     0.054 A 
BRANCH  81  82
ATOM     82  S   UNL A   1      33.238  35.105  29.052  1.00  0.00     0.124 S 
ATOM     83  O   UNL A   1      32.706  34.145  28.091  1.00  0.00    -0.237 OA
ATOM     84  O   UNL A   1      32.405  35.355  30.227  1.00  0.00    -0.237 OA
ATOM     85  O   UNL A   1      33.854  36.297  28.473  1.00  0.00    -0.744 OA
ENDBRANCH  81  82
ENDBRANCH  53  76
BRANCH  65  86
ATOM     86  C   UNL A   1      39.862  33.963  37.148  1.00  0.00    -0.014 A 
ATOM     87  C   UNL A   1      40.428  35.251  37.141  1.00  0.00     0.010 A 
ATOM     88  C   UNL A   1      39.000  33.597  38.197  1.00  0.00     0.010 A 
ATOM     89  C   UNL A   1      40.169  36.141  38.186  1.00  0.00     0.020 A 
ATOM     90  C   UNL A   1      38.718  34.496  39.230  1.00  0.00     0.020 A 
ATOM     91  C   UNL A   1      39.318  35.755  39.227  1.00  0.00     0.054 A 
BRANCH  91  92
ATOM     92  S   UNL A   1      38.979  36.937  40.560  1.00  0.00     0.124 S 
ATOM     93  O   UNL A   1      38.412  38.065  39.828  1.00  0.00    -0.237 OA
ATOM     94  O   UNL A   1      38.042  36.205  41.409  1.00  0.00    -0.237 OA
ATOM     95  O   UNL A   1      40.293  37.176  41.153  1.00  0.00    -0.744 OA
ENDBRANCH  91  92
ENDBRANCH  65  86
ENDBRANCH  39  40
ENDBRANCH  31  34
ENDBRANCH  29  30
ENDBRANCH  28  29
ENDBRANCH  27  28
ENDBRANCH   1  27
TORSDOF 19
ENDMDL
MODEL 3
REMARK VINA RESULT:     -10.4      2.678      9.169
REMARK SMILES C[C@@H]1[NH2+]CC[C@@H]1C(=O)Nc1ccccc1CC(=O)NCCCCCCNC(=O)c1ccc(-c2c3nc(c(-c4ccc(S(=O)(=O)[O-])cc4)c4ccc([nH]4)c(-c4ccc(S(=O)(=O)[O-])cc4)c4nc(c(-c5ccc(S(=O)(=O)[O-])cc5)c5ccc2[nH]5)C=C4)C=C3)cc1
REMARK SMILES IDX 22 1 21 2 20 3 19 4 17 5 18 6 16 8 15 9 10 10 11 11 12 12
REMARK SMILES IDX 14 13 13 14 9 15 7 16 8 17 6 19 1 20 2 21 3 22 4 23 5 26
REMARK SMILES IDX 23 27 24 28 25 29 26 30 27 31 28 33 29 34 30 35 88 36 31 37
REMARK SMILES IDX 87 38 32 39 33 40 34 41 81 42 35 43 86 44 80 45 82 46 36 47
REMARK SMILES IDX 85 48 79 49 78 50 37 52 67 53 48 54 66 55 49 56 52 57 65 58
REMARK SMILES IDX 83 59 50 60 51 61 64 63 84 64 53 65 38 66 39 67 47 68 40 69
REMARK SMILES IDX 46 70 41 71 42 72 43 73 44 74 45 75 68 76 69 77 77 78 70 79
REMARK SMILES IDX 76 80 71 81 72 82 73 83 74 84 75 85 54 86 55 87 63 88 56 89
REMARK SMILES IDX 62 90 57 91 58 92 59 93 60 94 61 95
REMARK H PARENT 19 7 9 18 3 24 3 25 26 32 82 51 52 62
REMARK Flexibility Score: inf
ROOT
ATOM      1  C   UNL A   1      35.010  31.318  28.800  1.00  0.00     0.002 C 
ENDROOT
BRANCH   1   2
ATOM      2  C   UNL A   1      35.817  30.326  27.958  1.00  0.00     0.021 C 
BRANCH   2   3
ATOM      3  C   UNL A   1      34.928  29.441  27.090  1.00  0.00     0.116 C 
BRANCH   3   4
ATOM      4  N   UNL A   1      33.688  29.169  27.783  1.00  0.00    -0.356 N 
ATOM      5  C   UNL A   1      32.559  28.633  27.240  1.00  0.00     0.224 C 
ATOM      6  O   UNL A   1      31.475  28.853  27.784  1.00  0.00    -0.275 OA
ATOM      7  H   UNL A   1      33.656  29.394  28.741  1.00  0.00     0.163 HD
BRANCH   5   8
ATOM      8  C   UNL A   1      32.678  27.676  26.074  1.00  0.00     0.137 C 
BRANCH   8   9
ATOM      9  C   UNL A   1      31.413  27.265  25.357  1.00  0.00    -0.015 A 
ATOM     10  C   UNL A   1      30.647  26.115  25.643  1.00  0.00     0.044 A 
ATOM     11  C   UNL A   1      29.529  25.818  24.835  1.00  0.00     0.026 A 
ATOM     12  C   UNL A   1      29.113  26.671  23.816  1.00  0.00     0.002 A 
ATOM     13  C   UNL A   1      30.964  28.122  24.326  1.00  0.00     0.006 A 
ATOM     14  C   UNL A   1      29.824  27.835  23.572  1.00  0.00     0.000 A 
BRANCH  10  15
ATOM     15  N   UNL A   1      30.861  25.155  26.660  1.00  0.00    -0.325 N 
ATOM     16  C   UNL A   1      31.409  23.909  26.627  1.00  0.00     0.233 C 
ATOM     17  O   UNL A   1      30.635  22.957  26.784  1.00  0.00    -0.274 OA
ATOM     18  H   UNL A   1      30.560  25.440  27.553  1.00  0.00     0.169 HD
BRANCH  16  19
ATOM     19  C   UNL A   1      32.918  23.740  26.885  1.00  0.00     0.142 C 
ATOM     20  C   UNL A   1      34.018  24.562  24.588  1.00  0.00     0.076 C 
ATOM     21  C   UNL A   1      34.011  23.662  25.809  1.00  0.00     0.192 C 
ATOM     22  N   UNL A   1      34.237  22.236  25.500  1.00  0.00    -0.343 N 
ATOM     23  C   UNL A   1      33.427  21.450  26.433  1.00  0.00     0.261 C 
ATOM     24  H   UNL A   1      35.223  22.005  25.615  1.00  0.00     0.346 HD
ATOM     25  H   UNL A   1      33.974  22.030  24.535  1.00  0.00     0.346 HD
ATOM     26  C   UNL A   1      33.156  22.392  27.590  1.00  0.00     0.081 C 
ENDBRANCH  16  19
ENDBRANCH  10  15
ENDBRANCH   8   9
ENDBRANCH   5   8
ENDBRANCH   3   4
ENDBRANCH   2   3
ENDBRANCH   1   2
BRANCH   1  27
ATOM     27  C   UNL A   1      35.035  32.750  28.257  1.00  0.00     0.002 C 
BRANCH  27  28
ATOM     28  C   UNL A   1      33.713  33.502  28.420  1.00  0.00     0.021 C 
BRANCH  28  29
ATOM     29  C   UNL A   1      33.882  34.987  28.726  1.00  0.00     0.116 C 
BRANCH  29  30
ATOM     30  N   UNL A   1      32.994  35.415  29.796  1.00  0.00    -0.352 N 
ATOM     31  C   UNL A   1      33.046  35.111  31.133  1.00  0.00     0.251 C 
ATOM     32  H   UNL A   1      32.253  36.002  29.523  1.00  0.00     0.163 HD
ATOM     33  O   UNL A   1      32.096  35.349  31.861  1.00  0.00    -0.269 OA
BRANCH  31  34
ATOM     34  C   UNL A   1      34.271  34.489  31.673  1.00  0.00     0.039 A 
ATOM     35  C   UNL A   1      34.152  33.362  32.488  1.00  0.00     0.014 A 
ATOM     36  C   UNL A   1      35.528  35.020  31.367  1.00  0.00     0.014 A 
ATOM     37  C   UNL A   1      35.305  32.741  32.965  1.00  0.00     0.010 A 
ATOM     38  C   UNL A   1      36.675  34.358  31.786  1.00  0.00     0.010 A 
ATOM     39  C   UNL A   1      36.574  33.220  32.598  1.00  0.00    -0.014 A 
BRANCH  39  40
ATOM     40  C   UNL A   1      37.804  32.528  33.049  1.00  0.00     0.031 A 
ATOM     41  C   UNL A   1      38.465  32.915  34.341  1.00  0.00     0.074 A 
ATOM     42  C   UNL A   1      38.358  31.591  32.256  1.00  0.00     0.049 A 
ATOM     43  N   UNL A   1      39.541  32.417  34.896  1.00  0.00    -0.248 NA
ATOM     44  C   UNL A   1      37.859  34.025  35.092  1.00  0.00     0.031 C 
ATOM     45  C   UNL A   1      37.848  31.186  30.944  1.00  0.00     0.029 A 
ATOM     46  N   UNL A   1      39.475  30.818  32.433  1.00  0.00    -0.354 N 
ATOM     47  C   UNL A   1      39.750  33.164  36.049  1.00  0.00     0.074 A 
ATOM     48  C   UNL A   1      38.720  34.180  36.086  1.00  0.00     0.031 C 
ATOM     49  C   UNL A   1      38.638  30.222  30.446  1.00  0.00     0.029 A 
ATOM     50  C   UNL A   1      39.722  29.961  31.388  1.00  0.00     0.049 A 
ATOM     51  H   UNL A   1      40.046  30.871  33.234  1.00  0.00     0.167 HD
ATOM     52  C   UNL A   1      40.705  33.009  36.998  1.00  0.00     0.031 A 
ATOM     53  C   UNL A   1      40.709  29.064  31.207  1.00  0.00     0.031 A 
ATOM     54  C   UNL A   1      41.722  31.993  36.953  1.00  0.00     0.049 A 
ATOM     55  C   UNL A   1      41.734  28.877  32.288  1.00  0.00     0.074 A 
ATOM     56  C   UNL A   1      42.683  31.693  37.903  1.00  0.00     0.029 A 
ATOM     57  N   UNL A   1      41.922  31.119  35.893  1.00  0.00    -0.354 N 
ATOM     58  N   UNL A   1      41.855  29.521  33.424  1.00  0.00    -0.248 NA
ATOM     59  C   UNL A   1      42.742  27.832  32.070  1.00  0.00     0.031 C 
ATOM     60  C   UNL A   1      43.496  30.673  37.393  1.00  0.00     0.029 A 
ATOM     61  C   UNL A   1      43.010  30.301  36.150  1.00  0.00     0.049 A 
ATOM     62  H   UNL A   1      41.370  31.086  35.078  1.00  0.00     0.167 HD
ATOM     63  C   UNL A   1      42.949  28.953  34.065  1.00  0.00     0.074 A 
ATOM     64  C   UNL A   1      43.438  27.897  33.197  1.00  0.00     0.031 C 
ATOM     65  C   UNL A   1      43.500  29.276  35.262  1.00  0.00     0.031 A 
BRANCH  52  66
ATOM     66  C   UNL A   1      40.694  33.981  38.149  1.00  0.00    -0.014 A 
ATOM     67  C   UNL A   1      39.949  33.726  39.316  1.00  0.00     0.010 A 
ATOM     68  C   UNL A   1      41.432  35.174  38.059  1.00  0.00     0.010 A 
ATOM     69  C   UNL A   1      39.889  34.674  40.341  1.00  0.00     0.020 A 
ATOM     70  C   UNL A   1      41.400  36.112  39.095  1.00  0.00     0.020 A 
ATOM     71  C   UNL A   1      40.606  35.867  40.217  1.00  0.00     0.054 A 
BRANCH  71  72
ATOM     72  S   UNL A   1      40.494  37.094  41.549  1.00  0.00     0.124 S 
ATOM     73  O   UNL A   1      40.538  36.248  42.740  1.00  0.00    -0.237 OA
ATOM     74  O   UNL A   1      41.675  37.923  41.325  1.00  0.00    -0.237 OA
ATOM     75  O   UNL A   1      39.215  37.757  41.303  1.00  0.00    -0.744 OA
ENDBRANCH  71  72
ENDBRANCH  52  66
BRANCH  53  76
ATOM     76  C   UNL A   1      40.739  28.265  29.953  1.00  0.00    -0.014 A 
ATOM     77  C   UNL A   1      41.641  28.582  28.924  1.00  0.00     0.010 A 
ATOM     78  C   UNL A   1      39.920  27.128  29.822  1.00  0.00     0.010 A 
ATOM     79  C   UNL A   1      41.730  27.773  27.788  1.00  0.00     0.020 A 
ATOM     80  C   UNL A   1      40.023  26.304  28.698  1.00  0.00     0.020 A 
ATOM     81  C   UNL A   1      40.928  26.632  27.687  1.00  0.00     0.054 A 
BRANCH  81  82
ATOM     82  S   UNL A   1      41.137  25.538  26.255  1.00  0.00     0.124 S 
ATOM     83  O   UNL A   1      42.170  24.619  26.723  1.00  0.00    -0.237 OA
ATOM     84  O   UNL A   1      39.802  24.964  26.099  1.00  0.00    -0.237 OA
ATOM     85  O   UNL A   1      41.543  26.447  25.186  1.00  0.00    -0.744 OA
ENDBRANCH  81  82
ENDBRANCH  53  76
BRANCH  65  86
ATOM     86  C   UNL A   1      44.699  28.479  35.699  1.00  0.00    -0.014 A 
ATOM     87  C   UNL A   1      46.001  28.863  35.327  1.00  0.00     0.010 A 
ATOM     88  C   UNL A   1      44.526  27.350  36.519  1.00  0.00     0.010 A 
ATOM     89  C   UNL A   1      47.103  28.108  35.734  1.00  0.00     0.020 A 
ATOM     90  C   UNL A   1      45.629  26.608  36.950  1.00  0.00     0.020 A 
ATOM     91  C   UNL A   1      46.910  26.982  36.540  1.00  0.00     0.054 A 
BRANCH  91  92
ATOM     92  S   UNL A   1      48.358  26.031  37.075  1.00  0.00     0.124 S 
ATOM     93  O   UNL A   1      47.890  25.444  38.327  1.00  0.00    -0.237 OA
ATOM     94  O   UNL A   1      48.552  25.090  35.974  1.00  0.00    -0.237 OA
ATOM     95  O   UNL A   1      49.404  27.043  37.213  1.00  0.00    -0.744 OA
ENDBRANCH  91  92
ENDBRANCH  65  86
ENDBRANCH  39  40
ENDBRANCH  31  34
ENDBRANCH  29  30
ENDBRANCH  28  29
ENDBRANCH  27  28
ENDBRANCH   1  27
TORSDOF 19
ENDMDL
