MODEL 1
REMARK VINA RESULT:     -11.2      0.000      0.000
REMARK SMILES O=C(COc1ccccc1/C=N/NC(=O)c1cc(-c2ccc(F)cc2)nc2ccccc12)NCCCCCCNC(=O)c1ccc(-c2c3nc(c(-c4ccc(S(=O)(=O)[O-])cc4)c4ccc([nH]4)c(-c4ccc(S(=O)(=O)[O-])cc4)c4nc(c(-c5ccc(S(=O)(=O)[O-])cc5)c5ccc2[nH]5)C=C4)C=C3)cc1
REMARK SMILES IDX 35 1 34 2 33 3 1 4 2 5 3 7 4 8 5 9 6 10 10 11 7 12 9 13 8 14
REMARK SMILES IDX 11 15 12 16 13 17 14 18 15 20 16 21 17 22 32 23 18 24 27 25
REMARK SMILES IDX 31 26 26 27 28 28 30 29 29 30 19 31 20 32 25 33 21 34 24 35
REMARK SMILES IDX 22 36 23 37 36 38 37 39 38 40 39 41 40 42 41 43 42 45 43 46
REMARK SMILES IDX 44 47 102 48 45 49 101 50 46 51 47 52 48 53 95 54 49 55
REMARK SMILES IDX 100 56 94 57 96 58 50 59 99 60 93 61 92 62 51 64 81 65 62 66
REMARK SMILES IDX 80 67 63 68 66 69 79 70 97 71 64 72 65 73 78 75 98 76 67 77
REMARK SMILES IDX 52 78 53 79 61 80 54 81 60 82 55 83 56 84 57 85 58 86 59 87
REMARK SMILES IDX 82 88 83 89 91 90 84 91 90 92 85 93 86 94 87 95 88 96 89 97
REMARK SMILES IDX 68 98 69 99 77 100 70 101 76 102 71 103 72 104 73 105 74 106
REMARK SMILES IDX 75 107
REMARK H PARENT 33 6 13 19 40 44 96 63 66 74
REMARK Flexibility Score: inf
ROOT
ATOM      1  C   UNL A   1      40.267  23.494  27.074  1.00  0.00     0.021 C 
ENDROOT
BRANCH   1   2
ATOM      2  C   UNL A   1      38.878  23.815  26.594  1.00  0.00     0.116 C 
BRANCH   2   3
ATOM      3  N   UNL A   1      38.193  22.655  25.928  1.00  0.00    -0.353 N 
ATOM      4  O   UNL A   1      35.891  23.180  25.724  1.00  0.00    -0.271 OA
ATOM      5  C   UNL A   1      36.887  22.482  25.502  1.00  0.00     0.257 C 
ATOM      6  H   UNL A   1      38.777  21.879  25.766  1.00  0.00     0.163 HD
BRANCH   5   7
ATOM      7  C   UNL A   1      36.500  21.394  24.560  1.00  0.00     0.329 C 
BRANCH   7   8
ATOM      8  O   UNL A   1      36.209  20.122  25.068  1.00  0.00    -0.483 OA
BRANCH   8   9
ATOM      9  C   UNL A   1      34.972  19.548  24.832  1.00  0.00     0.128 A 
ATOM     10  C   UNL A   1      35.079  18.221  24.390  1.00  0.00     0.047 A 
ATOM     11  C   UNL A   1      33.674  20.157  24.798  1.00  0.00     0.037 A 
ATOM     12  C   UNL A   1      33.958  17.593  23.834  1.00  0.00     0.004 A 
ATOM     13  C   UNL A   1      32.562  19.476  24.344  1.00  0.00     0.013 A 
ATOM     14  C   UNL A   1      32.697  18.190  23.879  1.00  0.00     0.001 A 
BRANCH  11  15
ATOM     15  C   UNL A   1      33.221  21.249  25.670  1.00  0.00     0.145 C 
ATOM     16  N   UNL A   1      32.800  21.329  26.891  1.00  0.00    -0.180 NA
BRANCH  16  17
ATOM     17  N   UNL A   1      32.304  22.662  27.365  1.00  0.00    -0.243 N 
ATOM     18  C   UNL A   1      32.108  23.908  26.721  1.00  0.00     0.272 C 
ATOM     19  H   UNL A   1      32.065  22.674  28.321  1.00  0.00     0.194 HD
ATOM     20  O   UNL A   1      30.873  23.965  27.156  1.00  0.00    -0.267 OA
BRANCH  18  21
ATOM     21  C   UNL A   1      31.867  25.248  26.052  1.00  0.00     0.053 A 
ATOM     22  C   UNL A   1      30.851  25.178  24.983  1.00  0.00     0.043 A 
ATOM     23  C   UNL A   1      32.559  26.784  26.454  1.00  0.00     0.013 A 
ATOM     24  C   UNL A   1      30.600  26.390  24.606  1.00  0.00     0.072 A 
ATOM     25  C   UNL A   1      31.571  27.558  25.893  1.00  0.00     0.072 A 
ATOM     26  C   UNL A   1      33.371  28.153  27.033  1.00  0.00     0.011 A 
ATOM     27  N   UNL A   1      30.443  27.079  25.652  1.00  0.00    -0.248 NA
ATOM     28  C   UNL A   1      31.578  28.825  25.450  1.00  0.00     0.029 A 
ATOM     29  C   UNL A   1      33.374  29.520  26.426  1.00  0.00     0.001 A 
ATOM     30  C   UNL A   1      32.599  29.697  25.331  1.00  0.00     0.002 A 
BRANCH  24  31
ATOM     31  C   UNL A   1      30.106  27.023  23.432  1.00  0.00     0.000 A 
ATOM     32  C   UNL A   1      31.155  27.527  22.619  1.00  0.00     0.013 A 
ATOM     33  C   UNL A   1      28.868  27.657  23.556  1.00  0.00     0.013 A 
ATOM     34  C   UNL A   1      31.041  28.814  22.142  1.00  0.00     0.040 A 
ATOM     35  C   UNL A   1      28.696  28.836  22.863  1.00  0.00     0.040 A 
ATOM     36  C   UNL A   1      29.783  29.394  22.171  1.00  0.00     0.123 A 
ATOM     37  F   UNL A   1      29.598  30.493  21.441  1.00  0.00    -0.207 F 
ENDBRANCH  24  31
ENDBRANCH  18  21
ENDBRANCH  16  17
ENDBRANCH  11  15
ENDBRANCH   8   9
ENDBRANCH   7   8
ENDBRANCH   5   7
ENDBRANCH   2   3
ENDBRANCH   1   2
BRANCH   1  38
ATOM     38  C   UNL A   1      40.630  24.617  27.993  1.00  0.00     0.002 C 
BRANCH  38  39
ATOM     39  C   UNL A   1      39.655  25.778  27.768  1.00  0.00     0.002 C 
BRANCH  39  40
ATOM     40  C   UNL A   1      39.604  26.679  28.988  1.00  0.00     0.021 C 
BRANCH  40  41
ATOM     41  C   UNL A   1      39.578  28.114  28.533  1.00  0.00     0.116 C 
BRANCH  41  42
ATOM     42  N   UNL A   1      38.250  28.514  28.105  1.00  0.00    -0.352 N 
ATOM     43  C   UNL A   1      37.617  29.695  28.408  1.00  0.00     0.251 C 
ATOM     44  H   UNL A   1      37.755  27.878  27.541  1.00  0.00     0.163 HD
ATOM     45  O   UNL A   1      36.462  29.901  28.056  1.00  0.00    -0.269 OA
BRANCH  43  46
ATOM     46  C   UNL A   1      38.392  30.736  29.126  1.00  0.00     0.039 A 
ATOM     47  C   UNL A   1      37.874  32.009  29.361  1.00  0.00     0.014 A 
ATOM     48  C   UNL A   1      39.704  30.442  29.514  1.00  0.00     0.014 A 
ATOM     49  C   UNL A   1      38.705  32.983  29.927  1.00  0.00     0.010 A 
ATOM     50  C   UNL A   1      40.450  31.348  30.245  1.00  0.00     0.010 A 
ATOM     51  C   UNL A   1      39.954  32.634  30.462  1.00  0.00    -0.014 A 
BRANCH  51  52
ATOM     52  C   UNL A   1      40.746  33.597  31.261  1.00  0.00     0.031 A 
ATOM     53  C   UNL A   1      40.577  33.635  32.740  1.00  0.00     0.074 A 
ATOM     54  C   UNL A   1      41.584  34.469  30.659  1.00  0.00     0.049 A 
ATOM     55  N   UNL A   1      41.180  34.424  33.582  1.00  0.00    -0.248 NA
ATOM     56  C   UNL A   1      39.641  32.679  33.359  1.00  0.00     0.031 C 
ATOM     57  C   UNL A   1      41.824  34.520  29.220  1.00  0.00     0.029 A 
ATOM     58  N   UNL A   1      42.385  35.475  31.157  1.00  0.00    -0.354 N 
ATOM     59  C   UNL A   1      40.717  34.053  34.828  1.00  0.00     0.074 A 
ATOM     60  C   UNL A   1      39.747  32.999  34.641  1.00  0.00     0.031 C 
ATOM     61  C   UNL A   1      42.717  35.482  28.952  1.00  0.00     0.029 A 
ATOM     62  C   UNL A   1      43.104  36.144  30.188  1.00  0.00     0.049 A 
ATOM     63  H   UNL A   1      42.440  35.694  32.116  1.00  0.00     0.167 HD
ATOM     64  C   UNL A   1      41.092  34.564  36.016  1.00  0.00     0.031 A 
ATOM     65  C   UNL A   1      43.974  37.175  30.250  1.00  0.00     0.031 A 
ATOM     66  C   UNL A   1      42.016  35.644  36.164  1.00  0.00     0.049 A 
ATOM     67  C   UNL A   1      44.276  37.801  31.582  1.00  0.00     0.074 A 
ATOM     68  C   UNL A   1      42.414  36.210  37.356  1.00  0.00     0.029 A 
ATOM     69  N   UNL A   1      42.658  36.326  35.147  1.00  0.00    -0.354 N 
ATOM     70  N   UNL A   1      43.832  37.418  32.750  1.00  0.00    -0.248 NA
ATOM     71  C   UNL A   1      45.166  38.977  31.629  1.00  0.00     0.031 C 
ATOM     72  C   UNL A   1      43.269  37.251  37.076  1.00  0.00     0.029 A 
ATOM     73  C   UNL A   1      43.432  37.325  35.709  1.00  0.00     0.049 A 
ATOM     74  H   UNL A   1      42.577  36.134  34.185  1.00  0.00     0.167 HD
ATOM     75  C   UNL A   1      44.409  38.278  33.668  1.00  0.00     0.074 A 
ATOM     76  C   UNL A   1      45.243  39.203  32.934  1.00  0.00     0.031 C 
ATOM     77  C   UNL A   1      44.252  38.263  35.008  1.00  0.00     0.031 A 
BRANCH  64  78
ATOM     78  C   UNL A   1      40.456  34.033  37.265  1.00  0.00    -0.014 A 
ATOM     79  C   UNL A   1      41.190  33.385  38.264  1.00  0.00     0.010 A 
ATOM     80  C   UNL A   1      39.086  34.271  37.470  1.00  0.00     0.010 A 
ATOM     81  C   UNL A   1      40.528  32.865  39.387  1.00  0.00     0.020 A 
ATOM     82  C   UNL A   1      38.448  33.863  38.642  1.00  0.00     0.020 A 
ATOM     83  C   UNL A   1      39.176  33.167  39.609  1.00  0.00     0.054 A 
BRANCH  83  84
ATOM     84  S   UNL A   1      38.400  32.736  41.212  1.00  0.00     0.124 S 
ATOM     85  O   UNL A   1      38.809  31.347  41.399  1.00  0.00    -0.237 OA
ATOM     86  O   UNL A   1      39.005  33.696  42.134  1.00  0.00    -0.237 OA
ATOM     87  O   UNL A   1      36.971  32.930  40.975  1.00  0.00    -0.744 OA
ENDBRANCH  83  84
ENDBRANCH  64  78
BRANCH  65  88
ATOM     88  C   UNL A   1      44.572  37.756  29.014  1.00  0.00    -0.014 A 
ATOM     89  C   UNL A   1      45.791  37.285  28.506  1.00  0.00     0.010 A 
ATOM     90  C   UNL A   1      43.997  38.897  28.432  1.00  0.00     0.010 A 
ATOM     91  C   UNL A   1      46.501  38.043  27.563  1.00  0.00     0.020 A 
ATOM     92  C   UNL A   1      44.640  39.584  27.398  1.00  0.00     0.020 A 
ATOM     93  C   UNL A   1      45.895  39.154  26.961  1.00  0.00     0.054 A 
BRANCH  93  94
ATOM     94  S   UNL A   1      46.695  39.950  25.520  1.00  0.00     0.124 S 
ATOM     95  O   UNL A   1      47.544  40.963  26.138  1.00  0.00    -0.237 OA
ATOM     96  O   UNL A   1      47.398  38.832  24.894  1.00  0.00    -0.237 OA
ATOM     97  O   UNL A   1      45.569  40.471  24.745  1.00  0.00    -0.744 OA
ENDBRANCH  93  94
ENDBRANCH  65  88
BRANCH  77  98
ATOM     98  C   UNL A   1      45.052  39.226  35.837  1.00  0.00    -0.014 A 
ATOM     99  C   UNL A   1      46.274  38.879  36.421  1.00  0.00     0.010 A 
ATOM    100  C   UNL A   1      44.565  40.536  36.000  1.00  0.00     0.010 A 
ATOM    101  C   UNL A   1      46.908  39.780  37.288  1.00  0.00     0.020 A 
ATOM    102  C   UNL A   1      45.261  41.477  36.759  1.00  0.00     0.020 A 
ATOM    103  C   UNL A   1      46.439  41.098  37.401  1.00  0.00     0.054 A 
BRANCH 103 104
ATOM    104  S   UNL A   1      47.439  42.339  38.303  1.00  0.00     0.124 S 
ATOM    105  O   UNL A   1      48.457  42.707  37.323  1.00  0.00    -0.237 OA
ATOM    106  O   UNL A   1      46.461  43.380  38.612  1.00  0.00    -0.237 OA
ATOM    107  O   UNL A   1      47.940  41.609  39.465  1.00  0.00    -0.744 OA
ENDBRANCH 103 104
ENDBRANCH  77  98
ENDBRANCH  51  52
ENDBRANCH  43  46
ENDBRANCH  41  42
ENDBRANCH  40  41
ENDBRANCH  39  40
ENDBRANCH  38  39
ENDBRANCH   1  38
TORSDOF 22
ENDMDL
MODEL 2
REMARK VINA RESULT:     -11.1      4.957      9.430
REMARK SMILES O=C(COc1ccccc1/C=N/NC(=O)c1cc(-c2ccc(F)cc2)nc2ccccc12)NCCCCCCNC(=O)c1ccc(-c2c3nc(c(-c4ccc(S(=O)(=O)[O-])cc4)c4ccc([nH]4)c(-c4ccc(S(=O)(=O)[O-])cc4)c4nc(c(-c5ccc(S(=O)(=O)[O-])cc5)c5ccc2[nH]5)C=C4)C=C3)cc1
REMARK SMILES IDX 35 1 34 2 33 3 1 4 2 5 3 7 4 8 5 9 6 10 10 11 7 12 9 13 8 14
REMARK SMILES IDX 11 15 12 16 13 17 14 18 15 20 16 21 17 22 32 23 18 24 27 25
REMARK SMILES IDX 31 26 26 27 28 28 30 29 29 30 19 31 20 32 25 33 21 34 24 35
REMARK SMILES IDX 22 36 23 37 36 38 37 39 38 40 39 41 40 42 41 43 42 45 43 46
REMARK SMILES IDX 44 47 102 48 45 49 101 50 46 51 47 52 48 53 95 54 49 55
REMARK SMILES IDX 100 56 94 57 96 58 50 59 99 60 93 61 92 62 51 64 81 65 62 66
REMARK SMILES IDX 80 67 63 68 66 69 79 70 97 71 64 72 65 73 78 75 98 76 67 77
REMARK SMILES IDX 52 78 53 79 61 80 54 81 60 82 55 83 56 84 57 85 58 86 59 87
REMARK SMILES IDX 82 88 83 89 91 90 84 91 90 92 85 93 86 94 87 95 88 96 89 97
REMARK SMILES IDX 68 98 69 99 77 100 70 101 76 102 71 103 72 104 73 105 74 106
REMARK SMILES IDX 75 107
REMARK H PARENT 33 6 13 19 40 44 96 63 66 74
REMARK Flexibility Score: inf
ROOT
ATOM      1  C   UNL A   1      39.694  26.448  28.759  1.00  0.00     0.021 C 
ENDROOT
BRANCH   1   2
ATOM      2  C   UNL A   1      41.026  26.873  28.204  1.00  0.00     0.116 C 
BRANCH   2   3
ATOM      3  N   UNL A   1      41.681  25.825  27.352  1.00  0.00    -0.353 N 
ATOM      4  O   UNL A   1      43.946  25.640  28.023  1.00  0.00    -0.271 OA
ATOM      5  C   UNL A   1      42.952  25.275  27.386  1.00  0.00     0.257 C 
ATOM      6  H   UNL A   1      41.104  25.463  26.640  1.00  0.00     0.163 HD
BRANCH   5   7
ATOM      7  C   UNL A   1      43.286  24.008  26.674  1.00  0.00     0.329 C 
BRANCH   7   8
ATOM      8  O   UNL A   1      42.292  23.361  25.930  1.00  0.00    -0.483 OA
BRANCH   8   9
ATOM      9  C   UNL A   1      42.024  22.021  26.149  1.00  0.00     0.128 A 
ATOM     10  C   UNL A   1      43.165  21.309  26.545  1.00  0.00     0.047 A 
ATOM     11  C   UNL A   1      40.839  21.268  25.854  1.00  0.00     0.037 A 
ATOM     12  C   UNL A   1      43.138  19.909  26.526  1.00  0.00     0.004 A 
ATOM     13  C   UNL A   1      40.810  19.891  25.948  1.00  0.00     0.013 A 
ATOM     14  C   UNL A   1      41.951  19.211  26.301  1.00  0.00     0.001 A 
BRANCH  11  15
ATOM     15  C   UNL A   1      39.462  21.766  25.965  1.00  0.00     0.145 C 
ATOM     16  N   UNL A   1      38.920  22.881  26.337  1.00  0.00    -0.180 NA
BRANCH  16  17
ATOM     17  N   UNL A   1      37.424  22.927  26.423  1.00  0.00    -0.243 N 
ATOM     18  C   UNL A   1      36.392  22.270  25.710  1.00  0.00     0.272 C 
ATOM     19  H   UNL A   1      37.090  23.539  27.119  1.00  0.00     0.194 HD
ATOM     20  O   UNL A   1      35.846  21.863  26.829  1.00  0.00    -0.267 OA
BRANCH  18  21
ATOM     21  C   UNL A   1      35.266  21.565  24.978  1.00  0.00     0.053 A 
ATOM     22  C   UNL A   1      35.123  20.151  25.378  1.00  0.00     0.043 A 
ATOM     23  C   UNL A   1      34.136  22.238  23.849  1.00  0.00     0.013 A 
ATOM     24  C   UNL A   1      34.039  19.701  24.832  1.00  0.00     0.072 A 
ATOM     25  C   UNL A   1      33.156  21.289  24.018  1.00  0.00     0.072 A 
ATOM     26  C   UNL A   1      33.166  23.123  22.779  1.00  0.00     0.011 A 
ATOM     27  N   UNL A   1      33.137  20.561  25.033  1.00  0.00    -0.248 NA
ATOM     28  C   UNL A   1      32.152  20.897  23.217  1.00  0.00     0.029 A 
ATOM     29  C   UNL A   1      32.109  22.583  21.870  1.00  0.00     0.001 A 
ATOM     30  C   UNL A   1      31.861  21.255  21.951  1.00  0.00     0.002 A 
BRANCH  24  31
ATOM     31  C   UNL A   1      33.533  18.430  24.441  1.00  0.00     0.000 A 
ATOM     32  C   UNL A   1      32.485  17.992  25.292  1.00  0.00     0.013 A 
ATOM     33  C   UNL A   1      34.456  17.558  23.860  1.00  0.00     0.013 A 
ATOM     34  C   UNL A   1      32.535  16.700  25.766  1.00  0.00     0.040 A 
ATOM     35  C   UNL A   1      34.331  16.220  24.164  1.00  0.00     0.040 A 
ATOM     36  C   UNL A   1      33.376  15.815  25.111  1.00  0.00     0.123 A 
ATOM     37  F   UNL A   1      33.205  14.515  25.350  1.00  0.00    -0.207 F 
ENDBRANCH  24  31
ENDBRANCH  18  21
ENDBRANCH  16  17
ENDBRANCH  11  15
ENDBRANCH   8   9
ENDBRANCH   7   8
ENDBRANCH   5   7
ENDBRANCH   2   3
ENDBRANCH   1   2
BRANCH   1  38
ATOM     38  C   UNL A   1      39.056  27.710  29.247  1.00  0.00     0.002 C 
BRANCH  38  39
ATOM     39  C   UNL A   1      39.345  27.866  30.744  1.00  0.00     0.002 C 
BRANCH  39  40
ATOM     40  C   UNL A   1      38.138  27.457  31.569  1.00  0.00     0.021 C 
BRANCH  40  41
ATOM     41  C   UNL A   1      38.161  28.208  32.872  1.00  0.00     0.116 C 
BRANCH  41  42
ATOM     42  N   UNL A   1      37.097  29.194  32.939  1.00  0.00    -0.352 N 
ATOM     43  C   UNL A   1      37.213  30.539  32.685  1.00  0.00     0.251 C 
ATOM     44  H   UNL A   1      36.204  28.866  33.191  1.00  0.00     0.163 HD
ATOM     45  O   UNL A   1      36.265  31.296  32.845  1.00  0.00    -0.269 OA
BRANCH  43  46
ATOM     46  C   UNL A   1      38.507  31.037  32.156  1.00  0.00     0.039 A 
ATOM     47  C   UNL A   1      39.659  31.068  32.940  1.00  0.00     0.014 A 
ATOM     48  C   UNL A   1      38.542  31.549  30.854  1.00  0.00     0.014 A 
ATOM     49  C   UNL A   1      40.812  31.670  32.423  1.00  0.00     0.010 A 
ATOM     50  C   UNL A   1      39.732  31.964  30.286  1.00  0.00     0.010 A 
ATOM     51  C   UNL A   1      40.886  32.026  31.067  1.00  0.00    -0.014 A 
BRANCH  51  52
ATOM     52  C   UNL A   1      42.163  32.453  30.452  1.00  0.00     0.031 A 
ATOM     53  C   UNL A   1      42.578  33.882  30.542  1.00  0.00     0.074 A 
ATOM     54  C   UNL A   1      42.931  31.574  29.772  1.00  0.00     0.049 A 
ATOM     55  N   UNL A   1      43.654  34.423  30.047  1.00  0.00    -0.248 NA
ATOM     56  C   UNL A   1      41.705  34.814  31.277  1.00  0.00     0.031 C 
ATOM     57  C   UNL A   1      42.620  30.155  29.621  1.00  0.00     0.029 A 
ATOM     58  N   UNL A   1      44.117  31.722  29.083  1.00  0.00    -0.354 N 
ATOM     59  C   UNL A   1      43.602  35.749  30.422  1.00  0.00     0.074 A 
ATOM     60  C   UNL A   1      42.371  35.953  31.149  1.00  0.00     0.031 C 
ATOM     61  C   UNL A   1      43.588  29.562  28.909  1.00  0.00     0.029 A 
ATOM     62  C   UNL A   1      44.583  30.550  28.522  1.00  0.00     0.049 A 
ATOM     63  H   UNL A   1      44.586  32.583  29.000  1.00  0.00     0.167 HD
ATOM     64  C   UNL A   1      44.525  36.697  30.172  1.00  0.00     0.031 A 
ATOM     65  C   UNL A   1      45.674  30.269  27.777  1.00  0.00     0.031 A 
ATOM     66  C   UNL A   1      45.709  36.475  29.405  1.00  0.00     0.049 A 
ATOM     67  C   UNL A   1      46.620  31.379  27.415  1.00  0.00     0.074 A 
ATOM     68  C   UNL A   1      46.670  37.418  29.109  1.00  0.00     0.029 A 
ATOM     69  N   UNL A   1      46.095  35.289  28.806  1.00  0.00    -0.354 N 
ATOM     70  N   UNL A   1      46.553  32.626  27.797  1.00  0.00    -0.248 NA
ATOM     71  C   UNL A   1      47.765  31.077  26.534  1.00  0.00     0.031 C 
ATOM     72  C   UNL A   1      47.623  36.828  28.310  1.00  0.00     0.029 A 
ATOM     73  C   UNL A   1      47.278  35.506  28.124  1.00  0.00     0.049 A 
ATOM     74  H   UNL A   1      45.608  34.435  28.856  1.00  0.00     0.167 HD
ATOM     75  C   UNL A   1      47.655  33.249  27.237  1.00  0.00     0.074 A 
ATOM     76  C   UNL A   1      48.385  32.249  26.490  1.00  0.00     0.031 C 
ATOM     77  C   UNL A   1      48.012  34.543  27.365  1.00  0.00     0.031 A 
BRANCH  64  78
ATOM     78  C   UNL A   1      44.277  38.094  30.655  1.00  0.00    -0.014 A 
ATOM     79  C   UNL A   1      43.594  39.044  29.888  1.00  0.00     0.010 A 
ATOM     80  C   UNL A   1      44.677  38.430  31.961  1.00  0.00     0.010 A 
ATOM     81  C   UNL A   1      43.438  40.350  30.376  1.00  0.00     0.020 A 
ATOM     82  C   UNL A   1      44.415  39.693  32.495  1.00  0.00     0.020 A 
ATOM     83  C   UNL A   1      43.783  40.652  31.702  1.00  0.00     0.054 A 
BRANCH  83  84
ATOM     84  S   UNL A   1      43.308  42.270  32.418  1.00  0.00     0.124 S 
ATOM     85  O   UNL A   1      41.907  42.392  32.026  1.00  0.00    -0.237 OA
ATOM     86  O   UNL A   1      43.542  42.075  33.848  1.00  0.00    -0.237 OA
ATOM     87  O   UNL A   1      44.213  43.220  31.773  1.00  0.00    -0.744 OA
ENDBRANCH  83  84
ENDBRANCH  64  78
BRANCH  65  88
ATOM     88  C   UNL A   1      45.909  28.900  27.238  1.00  0.00    -0.014 A 
ATOM     89  C   UNL A   1      46.842  28.036  27.830  1.00  0.00     0.010 A 
ATOM     90  C   UNL A   1      45.310  28.515  26.027  1.00  0.00     0.010 A 
ATOM     91  C   UNL A   1      47.296  26.906  27.133  1.00  0.00     0.020 A 
ATOM     92  C   UNL A   1      45.664  27.321  25.392  1.00  0.00     0.020 A 
ATOM     93  C   UNL A   1      46.658  26.513  25.949  1.00  0.00     0.054 A 
BRANCH  93  94
ATOM     94  S   UNL A   1      47.042  24.882  25.213  1.00  0.00     0.124 S 
ATOM     95  O   UNL A   1      45.773  24.489  24.610  1.00  0.00    -0.237 OA
ATOM     96  O   UNL A   1      48.115  25.206  24.275  1.00  0.00    -0.237 OA
ATOM     97  O   UNL A   1      47.461  24.077  26.360  1.00  0.00    -0.744 OA
ENDBRANCH  93  94
ENDBRANCH  65  88
BRANCH  77  98
ATOM     98  C   UNL A   1      49.308  34.995  26.755  1.00  0.00    -0.014 A 
ATOM     99  C   UNL A   1      49.391  35.500  25.454  1.00  0.00     0.010 A 
ATOM    100  C   UNL A   1      50.474  34.937  27.540  1.00  0.00     0.010 A 
ATOM    101  C   UNL A   1      50.646  35.784  24.899  1.00  0.00     0.020 A 
ATOM    102  C   UNL A   1      51.709  35.342  27.032  1.00  0.00     0.020 A 
ATOM    103  C   UNL A   1      51.794  35.771  25.708  1.00  0.00     0.054 A 
BRANCH 103 104
ATOM    104  S   UNL A   1      53.372  36.422  25.048  1.00  0.00     0.124 S 
ATOM    105  O   UNL A   1      53.225  37.863  25.225  1.00  0.00    -0.237 OA
ATOM    106  O   UNL A   1      54.369  35.784  25.905  1.00  0.00    -0.237 OA
ATOM    107  O   UNL A   1      53.384  35.970  23.658  1.00  0.00    -0.744 OA
ENDBRANCH 103 104
ENDBRANCH  77  98
ENDBRANCH  51  52
ENDBRANCH  43  46
ENDBRANCH  41  42
ENDBRANCH  40  41
ENDBRANCH  39  40
ENDBRANCH  38  39
ENDBRANCH   1  38
TORSDOF 22
ENDMDL
MODEL 3
REMARK VINA RESULT:     -11.0      4.314      9.074
REMARK SMILES O=C(COc1ccccc1/C=N/NC(=O)c1cc(-c2ccc(F)cc2)nc2ccccc12)NCCCCCCNC(=O)c1ccc(-c2c3nc(c(-c4ccc(S(=O)(=O)[O-])cc4)c4ccc([nH]4)c(-c4ccc(S(=O)(=O)[O-])cc4)c4nc(c(-c5ccc(S(=O)(=O)[O-])cc5)c5ccc2[nH]5)C=C4)C=C3)cc1
REMARK SMILES IDX 35 1 34 2 33 3 1 4 2 5 3 7 4 8 5 9 6 10 10 11 7 12 9 13 8 14
REMARK SMILES IDX 11 15 12 16 13 17 14 18 15 20 16 21 17 22 32 23 18 24 27 25
REMARK SMILES IDX 31 26 26 27 28 28 30 29 29 30 19 31 20 32 25 33 21 34 24 35
REMARK SMILES IDX 22 36 23 37 36 38 37 39 38 40 39 41 40 42 41 43 42 45 43 46
REMARK SMILES IDX 44 47 102 48 45 49 101 50 46 51 47 52 48 53 95 54 49 55
REMARK SMILES IDX 100 56 94 57 96 58 50 59 99 60 93 61 92 62 51 64 81 65 62 66
REMARK SMILES IDX 80 67 63 68 66 69 79 70 97 71 64 72 65 73 78 75 98 76 67 77
REMARK SMILES IDX 52 78 53 79 61 80 54 81 60 82 55 83 56 84 57 85 58 86 59 87
REMARK SMILES IDX 82 88 83 89 91 90 84 91 90 92 85 93 86 94 87 95 88 96 89 97
REMARK SMILES IDX 68 98 69 99 77 100 70 101 76 102 71 103 72 104 73 105 74 106
REMARK SMILES IDX 75 107
REMARK H PARENT 33 6 13 19 40 44 96 63 66 74
REMARK Flexibility Score: inf
ROOT
ATOM      1  C   UNL A   1      40.784  21.803  27.693  1.00  0.00     0.021 C 
ENDROOT
BRANCH   1   2
ATOM      2  C   UNL A   1      40.076  22.490  26.557  1.00  0.00     0.116 C 
BRANCH   2   3
ATOM      3  N   UNL A   1      38.730  21.900  26.248  1.00  0.00    -0.353 N 
ATOM      4  O   UNL A   1      37.333  23.637  25.442  1.00  0.00    -0.271 OA
ATOM      5  C   UNL A   1      37.594  22.452  25.680  1.00  0.00     0.257 C 
ATOM      6  H   UNL A   1      38.638  20.951  26.493  1.00  0.00     0.163 HD
BRANCH   5   7
ATOM      7  C   UNL A   1      36.486  21.609  25.148  1.00  0.00     0.329 C 
BRANCH   7   8
ATOM      8  O   UNL A   1      35.174  22.097  25.192  1.00  0.00    -0.483 OA
BRANCH   8   9
ATOM      9  C   UNL A   1      34.120  21.289  24.803  1.00  0.00     0.128 A 
ATOM     10  C   UNL A   1      33.915  20.221  25.688  1.00  0.00     0.047 A 
ATOM     11  C   UNL A   1      33.373  21.290  23.578  1.00  0.00     0.037 A 
ATOM     12  C   UNL A   1      33.092  19.157  25.297  1.00  0.00     0.004 A 
ATOM     13  C   UNL A   1      32.485  20.280  23.266  1.00  0.00     0.013 A 
ATOM     14  C   UNL A   1      32.329  19.223  24.130  1.00  0.00     0.001 A 
BRANCH  11  15
ATOM     15  C   UNL A   1      33.003  22.484  22.806  1.00  0.00     0.145 C 
ATOM     16  N   UNL A   1      33.474  23.076  21.757  1.00  0.00    -0.180 NA
BRANCH  16  17
ATOM     17  N   UNL A   1      32.851  24.382  21.363  1.00  0.00    -0.243 N 
ATOM     18  C   UNL A   1      32.431  25.517  22.098  1.00  0.00     0.272 C 
ATOM     19  H   UNL A   1      32.705  24.468  20.392  1.00  0.00     0.194 HD
ATOM     20  O   UNL A   1      33.139  26.306  21.328  1.00  0.00    -0.267 OA
BRANCH  18  21
ATOM     21  C   UNL A   1      31.993  26.755  22.857  1.00  0.00     0.053 A 
ATOM     22  C   UNL A   1      30.714  27.303  22.366  1.00  0.00     0.043 A 
ATOM     23  C   UNL A   1      32.756  27.497  24.224  1.00  0.00     0.013 A 
ATOM     24  C   UNL A   1      30.352  28.238  23.184  1.00  0.00     0.072 A 
ATOM     25  C   UNL A   1      31.639  28.144  24.699  1.00  0.00     0.072 A 
ATOM     26  C   UNL A   1      33.686  28.034  25.534  1.00  0.00     0.011 A 
ATOM     27  N   UNL A   1      30.495  27.783  24.353  1.00  0.00    -0.248 NA
ATOM     28  C   UNL A   1      31.505  29.225  25.484  1.00  0.00     0.029 A 
ATOM     29  C   UNL A   1      33.499  29.298  26.310  1.00  0.00     0.001 A 
ATOM     30  C   UNL A   1      32.440  30.068  25.968  1.00  0.00     0.002 A 
BRANCH  24  31
ATOM     31  C   UNL A   1      29.534  29.400  23.125  1.00  0.00     0.000 A 
ATOM     32  C   UNL A   1      28.173  29.080  22.881  1.00  0.00     0.013 A 
ATOM     33  C   UNL A   1      30.146  30.551  22.624  1.00  0.00     0.013 A 
ATOM     34  C   UNL A   1      27.505  29.792  21.910  1.00  0.00     0.040 A 
ATOM     35  C   UNL A   1      29.372  31.382  21.843  1.00  0.00     0.040 A 
ATOM     36  C   UNL A   1      28.069  30.989  21.498  1.00  0.00     0.123 A 
ATOM     37  F   UNL A   1      27.296  31.824  20.805  1.00  0.00    -0.207 F 
ENDBRANCH  24  31
ENDBRANCH  18  21
ENDBRANCH  16  17
ENDBRANCH  11  15
ENDBRANCH   8   9
ENDBRANCH   7   8
ENDBRANCH   5   7
ENDBRANCH   2   3
ENDBRANCH   1   2
BRANCH   1  38
ATOM     38  C   UNL A   1      42.229  22.144  27.512  1.00  0.00     0.002 C 
BRANCH  38  39
ATOM     39  C   UNL A   1      42.517  22.310  26.017  1.00  0.00     0.002 C 
BRANCH  39  40
ATOM     40  C   UNL A   1      43.271  23.602  25.756  1.00  0.00     0.021 C 
BRANCH  40  41
ATOM     41  C   UNL A   1      44.567  23.573  26.519  1.00  0.00     0.116 C 
BRANCH  41  42
ATOM     42  N   UNL A   1      45.710  23.504  25.628  1.00  0.00    -0.352 N 
ATOM     43  C   UNL A   1      46.485  24.559  25.210  1.00  0.00     0.251 C 
ATOM     44  H   UNL A   1      45.956  22.614  25.289  1.00  0.00     0.163 HD
ATOM     45  O   UNL A   1      47.383  24.400  24.393  1.00  0.00    -0.269 OA
BRANCH  43  46
ATOM     46  C   UNL A   1      46.237  25.888  25.822  1.00  0.00     0.039 A 
ATOM     47  C   UNL A   1      46.684  26.204  27.103  1.00  0.00     0.014 A 
ATOM     48  C   UNL A   1      45.475  26.820  25.107  1.00  0.00     0.014 A 
ATOM     49  C   UNL A   1      46.305  27.426  27.670  1.00  0.00     0.010 A 
ATOM     50  C   UNL A   1      45.270  28.096  25.598  1.00  0.00     0.010 A 
ATOM     51  C   UNL A   1      45.688  28.415  26.890  1.00  0.00    -0.014 A 
BRANCH  51  52
ATOM     52  C   UNL A   1      45.483  29.788  27.406  1.00  0.00     0.031 A 
ATOM     53  C   UNL A   1      46.576  30.792  27.269  1.00  0.00     0.074 A 
ATOM     54  C   UNL A   1      44.338  30.125  28.038  1.00  0.00     0.049 A 
ATOM     55  N   UNL A   1      46.566  32.028  27.677  1.00  0.00    -0.248 NA
ATOM     56  C   UNL A   1      47.817  30.381  26.588  1.00  0.00     0.031 C 
ATOM     57  C   UNL A   1      43.207  29.222  28.228  1.00  0.00     0.029 A 
ATOM     58  N   UNL A   1      43.923  31.296  28.637  1.00  0.00    -0.354 N 
ATOM     59  C   UNL A   1      47.783  32.551  27.291  1.00  0.00     0.074 A 
ATOM     60  C   UNL A   1      48.533  31.494  26.654  1.00  0.00     0.031 C 
ATOM     61  C   UNL A   1      42.227  29.867  28.875  1.00  0.00     0.029 A 
ATOM     62  C   UNL A   1      42.655  31.225  29.176  1.00  0.00     0.049 A 
ATOM     63  H   UNL A   1      44.480  32.107  28.676  1.00  0.00     0.167 HD
ATOM     64  C   UNL A   1      48.210  33.816  27.462  1.00  0.00     0.031 A 
ATOM     65  C   UNL A   1      41.898  32.123  29.843  1.00  0.00     0.031 A 
ATOM     66  C   UNL A   1      47.463  34.825  28.144  1.00  0.00     0.049 A 
ATOM     67  C   UNL A   1      42.457  33.490  30.122  1.00  0.00     0.074 A 
ATOM     68  C   UNL A   1      47.869  36.126  28.358  1.00  0.00     0.029 A 
ATOM     69  N   UNL A   1      46.218  34.678  28.727  1.00  0.00    -0.354 N 
ATOM     70  N   UNL A   1      43.611  33.963  29.731  1.00  0.00    -0.248 NA
ATOM     71  C   UNL A   1      41.655  34.436  30.921  1.00  0.00     0.031 C 
ATOM     72  C   UNL A   1      46.897  36.766  29.092  1.00  0.00     0.029 A 
ATOM     73  C   UNL A   1      45.866  35.878  29.318  1.00  0.00     0.049 A 
ATOM     74  H   UNL A   1      45.674  33.858  28.723  1.00  0.00     0.167 HD
ATOM     75  C   UNL A   1      43.660  35.263  30.202  1.00  0.00     0.074 A 
ATOM     76  C   UNL A   1      42.423  35.518  30.906  1.00  0.00     0.031 C 
ATOM     77  C   UNL A   1      44.660  36.154  30.033  1.00  0.00     0.031 A 
BRANCH  64  78
ATOM     78  C   UNL A   1      49.580  34.188  26.982  1.00  0.00    -0.014 A 
ATOM     79  C   UNL A   1      50.723  34.024  27.772  1.00  0.00     0.010 A 
ATOM     80  C   UNL A   1      49.724  34.642  25.660  1.00  0.00     0.010 A 
ATOM     81  C   UNL A   1      51.972  34.438  27.284  1.00  0.00     0.020 A 
ATOM     82  C   UNL A   1      50.980  34.941  25.130  1.00  0.00     0.020 A 
ATOM     83  C   UNL A   1      52.109  34.827  25.943  1.00  0.00     0.054 A 
BRANCH  83  84
ATOM     84  S   UNL A   1      53.781  35.083  25.238  1.00  0.00     0.124 S 
ATOM     85  O   UNL A   1      54.229  33.718  24.979  1.00  0.00    -0.237 OA
ATOM     86  O   UNL A   1      53.513  35.890  24.049  1.00  0.00    -0.237 OA
ATOM     87  O   UNL A   1      54.507  35.779  26.299  1.00  0.00    -0.744 OA
ENDBRANCH  83  84
ENDBRANCH  64  78
BRANCH  65  88
ATOM     88  C   UNL A   1      40.557  31.756  30.380  1.00  0.00    -0.014 A 
ATOM     89  C   UNL A   1      39.393  31.951  29.622  1.00  0.00     0.010 A 
ATOM     90  C   UNL A   1      40.429  31.356  31.719  1.00  0.00     0.010 A 
ATOM     91  C   UNL A   1      38.136  31.924  30.244  1.00  0.00     0.020 A 
ATOM     92  C   UNL A   1      39.171  31.198  32.310  1.00  0.00     0.020 A 
ATOM     93  C   UNL A   1      38.022  31.480  31.569  1.00  0.00     0.054 A 
BRANCH  93  94
ATOM     94  S   UNL A   1      36.364  31.152  32.273  1.00  0.00     0.124 S 
ATOM     95  O   UNL A   1      36.281  29.695  32.246  1.00  0.00    -0.237 OA
ATOM     96  O   UNL A   1      36.462  31.755  33.600  1.00  0.00    -0.237 OA
ATOM     97  O   UNL A   1      35.458  31.843  31.356  1.00  0.00    -0.744 OA
ENDBRANCH  93  94
ENDBRANCH  65  88
BRANCH  77  98
ATOM     98  C   UNL A   1      44.469  37.553  30.542  1.00  0.00    -0.014 A 
ATOM     99  C   UNL A   1      43.810  38.539  29.801  1.00  0.00     0.010 A 
ATOM    100  C   UNL A   1      44.945  37.870  31.828  1.00  0.00     0.010 A 
ATOM    101  C   UNL A   1      43.779  39.858  30.275  1.00  0.00     0.020 A 
ATOM    102  C   UNL A   1      44.800  39.153  32.357  1.00  0.00     0.020 A 
ATOM    103  C   UNL A   1      44.210  40.148  31.579  1.00  0.00     0.054 A 
BRANCH 103 104
ATOM    104  S   UNL A   1      43.895  41.807  32.287  1.00  0.00     0.124 S 
ATOM    105  O   UNL A   1      42.465  41.990  32.056  1.00  0.00    -0.237 OA
ATOM    106  O   UNL A   1      44.288  41.643  33.685  1.00  0.00    -0.237 OA
ATOM    107  O   UNL A   1      44.762  42.691  31.510  1.00  0.00    -0.744 OA
ENDBRANCH 103 104
ENDBRANCH  77  98
ENDBRANCH  51  52
ENDBRANCH  43  46
ENDBRANCH  41  42
ENDBRANCH  40  41
ENDBRANCH  39  40
ENDBRANCH  38  39
ENDBRANCH   1  38
TORSDOF 22
ENDMDL
