MODEL 1
REMARK VINA RESULT:     -11.9      0.000      0.000
REMARK SMILES O=C(NCCCCCCNC(=O)c1ccc(-c2c3nc(c(-c4ccc(S(=O)(=O)[O-])cc4)c4ccc([nH]4)c(-c4ccc(S(=O)(=O)[O-])cc4)c4nc(c(-c5ccc(S(=O)(=O)[O-])cc5)c5ccc2[nH]5)C=C4)C=C3)cc1)C1=Cc2cc(Cl)cc(-c3ccc(CO)cc3)c2O[C@@H]1C(F)(F)F
REMARK SMILES IDX 6 1 5 2 4 3 3 4 1 5 2 6 73 8 74 9 91 10 75 11 90 12 76 13
REMARK SMILES IDX 89 14 77 15 80 16 78 17 79 18 92 19 93 20 94 21 95 22 81 23
REMARK SMILES IDX 82 24 88 25 83 26 87 27 84 28 85 29 86 30 7 32 8 33 9 34
REMARK SMILES IDX 10 35 11 36 12 38 13 39 14 40 72 41 15 42 71 43 16 44 17 45
REMARK SMILES IDX 18 46 65 47 19 48 70 49 64 50 66 51 20 52 69 53 63 54 62 55
REMARK SMILES IDX 21 57 51 58 32 59 50 60 33 61 36 62 49 63 67 64 34 65 35 66
REMARK SMILES IDX 48 68 68 69 37 70 22 71 23 72 31 73 24 74 30 75 25 76 26 77
REMARK SMILES IDX 27 78 28 79 29 80 52 81 53 82 61 83 54 84 60 85 55 86 56 87
REMARK SMILES IDX 57 88 58 89 59 90 38 91 39 92 47 93 40 94 46 95 41 96 42 97
REMARK SMILES IDX 43 98 44 99 45 100
REMARK H PARENT 3 7 86 31 10 37 66 56 36 67
REMARK Flexibility Score: inf
ROOT
ATOM      1  C   UNL A   1      30.699  27.756  24.968  1.00  0.00     0.002 C 
ENDROOT
BRANCH   1   2
ATOM      2  C   UNL A   1      30.541  26.825  26.172  1.00  0.00     0.021 C 
BRANCH   2   3
ATOM      3  C   UNL A   1      30.376  25.333  25.893  1.00  0.00     0.116 C 
BRANCH   3   4
ATOM      4  N   UNL A   1      31.148  24.426  26.724  1.00  0.00    -0.352 N 
ATOM      5  O   UNL A   1      32.903  23.207  27.398  1.00  0.00    -0.270 OA
ATOM      6  C   UNL A   1      32.375  23.862  26.498  1.00  0.00     0.251 C 
ATOM      7  H   UNL A   1      30.724  24.178  27.577  1.00  0.00     0.163 HD
BRANCH   6   8
ATOM      8  C   UNL A   1      33.152  24.052  25.228  1.00  0.00     0.067 C 
ATOM      9  C   UNL A   1      34.474  24.295  25.193  1.00  0.00     0.025 C 
ATOM     10  C   UNL A   1      32.595  23.206  24.097  1.00  0.00     0.314 C 
ATOM     11  C   UNL A   1      35.233  23.043  24.902  1.00  0.00     0.019 A 
ATOM     12  O   UNL A   1      33.228  21.896  24.111  1.00  0.00    -0.475 OA
ATOM     13  C   UNL A   1      36.573  22.997  25.296  1.00  0.00     0.032 A 
ATOM     14  C   UNL A   1      34.543  21.865  24.528  1.00  0.00     0.135 A 
ATOM     15  C   UNL A   1      37.195  21.763  25.422  1.00  0.00     0.042 A 
ATOM     16  C   UNL A   1      35.154  20.613  24.711  1.00  0.00     0.026 A 
ATOM     17  Cl  UNL A   1      38.779  21.679  26.088  1.00  0.00    -0.084 Cl
ATOM     18  C   UNL A   1      36.495  20.588  25.152  1.00  0.00     0.033 A 
BRANCH  10  19
ATOM     19  C   UNL A   1      32.688  23.902  22.725  1.00  0.00     0.429 C 
ATOM     20  F   UNL A   1      32.902  23.014  21.726  1.00  0.00    -0.167 F 
ATOM     21  F   UNL A   1      31.534  24.552  22.427  1.00  0.00    -0.167 F 
ATOM     22  F   UNL A   1      33.680  24.822  22.660  1.00  0.00    -0.167 F 
ENDBRANCH  10  19
BRANCH  16  23
ATOM     23  C   UNL A   1      34.418  19.335  24.714  1.00  0.00    -0.015 A 
ATOM     24  C   UNL A   1      33.191  19.252  25.390  1.00  0.00     0.009 A 
ATOM     25  C   UNL A   1      34.980  18.148  24.238  1.00  0.00     0.009 A 
ATOM     26  C   UNL A   1      32.605  18.023  25.701  1.00  0.00     0.007 A 
ATOM     27  C   UNL A   1      34.371  16.912  24.501  1.00  0.00     0.007 A 
ATOM     28  C   UNL A   1      33.197  16.835  25.264  1.00  0.00    -0.023 A 
BRANCH  28  29
ATOM     29  C   UNL A   1      32.601  15.511  25.654  1.00  0.00     0.191 C 
BRANCH  29  30
ATOM     30  O   UNL A   1      33.532  14.459  25.442  1.00  0.00    -0.392 OA
ATOM     31  H   UNL A   1      33.531  13.866  26.209  1.00  0.00     0.211 HD
ENDBRANCH  29  30
ENDBRANCH  28  29
ENDBRANCH  16  23
ENDBRANCH   6   8
ENDBRANCH   3   4
ENDBRANCH   2   3
ENDBRANCH   1   2
BRANCH   1  32
ATOM     32  C   UNL A   1      32.072  28.402  24.754  1.00  0.00     0.002 C 
BRANCH  32  33
ATOM     33  C   UNL A   1      33.295  27.622  25.238  1.00  0.00     0.021 C 
BRANCH  33  34
ATOM     34  C   UNL A   1      34.444  28.476  25.756  1.00  0.00     0.116 C 
BRANCH  34  35
ATOM     35  N   UNL A   1      33.990  29.635  26.509  1.00  0.00    -0.352 N 
ATOM     36  C   UNL A   1      34.575  30.312  27.554  1.00  0.00     0.251 C 
ATOM     37  H   UNL A   1      33.119  29.996  26.223  1.00  0.00     0.163 HD
ATOM     38  O   UNL A   1      33.938  31.173  28.146  1.00  0.00    -0.269 OA
BRANCH  36  39
ATOM     39  C   UNL A   1      35.959  29.992  27.977  1.00  0.00     0.039 A 
ATOM     40  C   UNL A   1      36.169  29.434  29.241  1.00  0.00     0.014 A 
ATOM     41  C   UNL A   1      37.049  30.256  27.147  1.00  0.00     0.014 A 
ATOM     42  C   UNL A   1      37.463  29.087  29.643  1.00  0.00     0.010 A 
ATOM     43  C   UNL A   1      38.318  29.812  27.500  1.00  0.00     0.010 A 
ATOM     44  C   UNL A   1      38.545  29.240  28.761  1.00  0.00    -0.014 A 
BRANCH  44  45
ATOM     45  C   UNL A   1      39.924  28.847  29.148  1.00  0.00     0.031 A 
ATOM     46  C   UNL A   1      40.817  29.836  29.853  1.00  0.00     0.074 A 
ATOM     47  C   UNL A   1      40.394  27.627  28.819  1.00  0.00     0.049 A 
ATOM     48  N   UNL A   1      42.070  29.709  30.210  1.00  0.00    -0.248 NA
ATOM     49  C   UNL A   1      40.239  31.154  30.170  1.00  0.00     0.031 C 
ATOM     50  C   UNL A   1      39.645  26.598  28.091  1.00  0.00     0.029 A 
ATOM     51  N   UNL A   1      41.614  27.044  29.049  1.00  0.00    -0.354 N 
ATOM     52  C   UNL A   1      42.428  30.928  30.776  1.00  0.00     0.074 A 
ATOM     53  C   UNL A   1      41.285  31.805  30.651  1.00  0.00     0.031 C 
ATOM     54  C   UNL A   1      40.411  25.503  27.963  1.00  0.00     0.029 A 
ATOM     55  C   UNL A   1      41.718  25.764  28.556  1.00  0.00     0.049 A 
ATOM     56  H   UNL A   1      42.348  27.499  29.522  1.00  0.00     0.167 HD
ATOM     57  C   UNL A   1      43.589  31.278  31.378  1.00  0.00     0.031 A 
ATOM     58  C   UNL A   1      42.753  24.900  28.568  1.00  0.00     0.031 A 
ATOM     59  C   UNL A   1      44.717  30.397  31.515  1.00  0.00     0.049 A 
ATOM     60  C   UNL A   1      44.037  25.314  29.235  1.00  0.00     0.074 A 
ATOM     61  C   UNL A   1      45.924  30.638  32.145  1.00  0.00     0.029 A 
ATOM     62  N   UNL A   1      44.772  29.103  31.020  1.00  0.00    -0.354 N 
ATOM     63  N   UNL A   1      44.334  26.452  29.818  1.00  0.00    -0.248 NA
ATOM     64  C   UNL A   1      45.122  24.324  29.259  1.00  0.00     0.031 C 
ATOM     65  C   UNL A   1      46.732  29.508  31.984  1.00  0.00     0.029 A 
ATOM     66  C   UNL A   1      46.001  28.539  31.313  1.00  0.00     0.049 A 
ATOM     67  H   UNL A   1      44.046  28.653  30.531  1.00  0.00     0.167 HD
ATOM     68  C   UNL A   1      45.629  26.303  30.303  1.00  0.00     0.074 A 
ATOM     69  C   UNL A   1      46.050  24.960  29.961  1.00  0.00     0.031 C 
ATOM     70  C   UNL A   1      46.401  27.198  30.968  1.00  0.00     0.031 A 
BRANCH  57  71
ATOM     71  C   UNL A   1      43.690  32.673  31.942  1.00  0.00    -0.014 A 
ATOM     72  C   UNL A   1      43.306  32.946  33.269  1.00  0.00     0.010 A 
ATOM     73  C   UNL A   1      44.213  33.715  31.156  1.00  0.00     0.010 A 
ATOM     74  C   UNL A   1      43.406  34.241  33.784  1.00  0.00     0.020 A 
ATOM     75  C   UNL A   1      44.345  35.005  31.678  1.00  0.00     0.020 A 
ATOM     76  C   UNL A   1      43.926  35.263  32.985  1.00  0.00     0.054 A 
BRANCH  76  77
ATOM     77  S   UNL A   1      44.074  36.925  33.694  1.00  0.00     0.124 S 
ATOM     78  O   UNL A   1      42.830  37.041  34.452  1.00  0.00    -0.237 OA
ATOM     79  O   UNL A   1      45.290  36.823  34.495  1.00  0.00    -0.237 OA
ATOM     80  O   UNL A   1      44.172  37.795  32.524  1.00  0.00    -0.744 OA
ENDBRANCH  76  77
ENDBRANCH  57  71
BRANCH  58  81
ATOM     81  C   UNL A   1      42.615  23.560  27.932  1.00  0.00    -0.014 A 
ATOM     82  C   UNL A   1      43.143  23.310  26.653  1.00  0.00     0.010 A 
ATOM     83  C   UNL A   1      41.953  22.520  28.611  1.00  0.00     0.010 A 
ATOM     84  C   UNL A   1      42.989  22.055  26.054  1.00  0.00     0.020 A 
ATOM     85  C   UNL A   1      41.825  21.255  28.029  1.00  0.00     0.020 A 
ATOM     86  C   UNL A   1      42.331  21.035  26.748  1.00  0.00     0.054 A 
BRANCH  86  87
ATOM     87  S   UNL A   1      42.176  19.404  25.968  1.00  0.00     0.124 S 
ATOM     88  O   UNL A   1      42.742  18.526  26.986  1.00  0.00    -0.237 OA
ATOM     89  O   UNL A   1      40.735  19.288  25.761  1.00  0.00    -0.237 OA
ATOM     90  O   UNL A   1      42.965  19.534  24.744  1.00  0.00    -0.744 OA
ENDBRANCH  86  87
ENDBRANCH  58  81
BRANCH  70  91
ATOM     91  C   UNL A   1      47.768  26.743  31.407  1.00  0.00    -0.014 A 
ATOM     92  C   UNL A   1      48.910  26.997  30.627  1.00  0.00     0.010 A 
ATOM     93  C   UNL A   1      47.915  26.104  32.653  1.00  0.00     0.010 A 
ATOM     94  C   UNL A   1      50.170  26.588  31.069  1.00  0.00     0.020 A 
ATOM     95  C   UNL A   1      49.178  25.725  33.114  1.00  0.00     0.020 A 
ATOM     96  C   UNL A   1      50.296  25.957  32.311  1.00  0.00     0.054 A 
BRANCH  96  97
ATOM     97  S   UNL A   1      51.950  25.480  32.882  1.00  0.00     0.124 S 
ATOM     98  O   UNL A   1      52.361  26.657  33.641  1.00  0.00    -0.237 OA
ATOM     99  O   UNL A   1      51.680  24.282  33.674  1.00  0.00    -0.237 OA
ATOM    100  O   UNL A   1      52.691  25.248  31.644  1.00  0.00    -0.744 OA
ENDBRANCH  96  97
ENDBRANCH  70  91
ENDBRANCH  44  45
ENDBRANCH  36  39
ENDBRANCH  34  35
ENDBRANCH  33  34
ENDBRANCH  32  33
ENDBRANCH   1  32
TORSDOF 20
ENDMDL
MODEL 2
REMARK VINA RESULT:     -11.6      4.660     10.620
REMARK SMILES O=C(NCCCCCCNC(=O)c1ccc(-c2c3nc(c(-c4ccc(S(=O)(=O)[O-])cc4)c4ccc([nH]4)c(-c4ccc(S(=O)(=O)[O-])cc4)c4nc(c(-c5ccc(S(=O)(=O)[O-])cc5)c5ccc2[nH]5)C=C4)C=C3)cc1)C1=Cc2cc(Cl)cc(-c3ccc(CO)cc3)c2O[C@@H]1C(F)(F)F
REMARK SMILES IDX 6 1 5 2 4 3 3 4 1 5 2 6 73 8 74 9 91 10 75 11 90 12 76 13
REMARK SMILES IDX 89 14 77 15 80 16 78 17 79 18 92 19 93 20 94 21 95 22 81 23
REMARK SMILES IDX 82 24 88 25 83 26 87 27 84 28 85 29 86 30 7 32 8 33 9 34
REMARK SMILES IDX 10 35 11 36 12 38 13 39 14 40 72 41 15 42 71 43 16 44 17 45
REMARK SMILES IDX 18 46 65 47 19 48 70 49 64 50 66 51 20 52 69 53 63 54 62 55
REMARK SMILES IDX 21 57 51 58 32 59 50 60 33 61 36 62 49 63 67 64 34 65 35 66
REMARK SMILES IDX 48 68 68 69 37 70 22 71 23 72 31 73 24 74 30 75 25 76 26 77
REMARK SMILES IDX 27 78 28 79 29 80 52 81 53 82 61 83 54 84 60 85 55 86 56 87
REMARK SMILES IDX 57 88 58 89 59 90 38 91 39 92 47 93 40 94 46 95 41 96 42 97
REMARK SMILES IDX 43 98 44 99 45 100
REMARK H PARENT 3 7 86 31 10 37 66 56 36 67
REMARK Flexibility Score: inf
ROOT
ATOM      1  C   UNL A   1      36.381  23.020  23.722  1.00  0.00     0.002 C 
ENDROOT
BRANCH   1   2
ATOM      2  C   UNL A   1      34.939  22.586  23.999  1.00  0.00     0.021 C 
BRANCH   2   3
ATOM      3  C   UNL A   1      33.848  23.146  23.090  1.00  0.00     0.116 C 
BRANCH   3   4
ATOM      4  N   UNL A   1      33.978  24.539  22.699  1.00  0.00    -0.352 N 
ATOM      5  O   UNL A   1      33.980  26.769  22.919  1.00  0.00    -0.270 OA
ATOM      6  C   UNL A   1      33.679  25.676  23.401  1.00  0.00     0.251 C 
ATOM      7  H   UNL A   1      34.332  24.688  21.793  1.00  0.00     0.163 HD
BRANCH   6   8
ATOM      8  C   UNL A   1      33.058  25.666  24.768  1.00  0.00     0.067 C 
ATOM      9  C   UNL A   1      33.587  26.299  25.831  1.00  0.00     0.025 C 
ATOM     10  C   UNL A   1      31.543  25.626  24.696  1.00  0.00     0.314 C 
ATOM     11  C   UNL A   1      32.905  27.606  26.058  1.00  0.00     0.019 A 
ATOM     12  O   UNL A   1      31.022  26.984  24.635  1.00  0.00    -0.475 OA
ATOM     13  C   UNL A   1      33.606  28.582  26.773  1.00  0.00     0.032 A 
ATOM     14  C   UNL A   1      31.741  27.938  25.323  1.00  0.00     0.135 A 
ATOM     15  C   UNL A   1      33.210  29.908  26.668  1.00  0.00     0.042 A 
ATOM     16  C   UNL A   1      31.375  29.286  25.171  1.00  0.00     0.026 A 
ATOM     17  Cl  UNL A   1      34.176  31.137  27.385  1.00  0.00    -0.084 Cl
ATOM     18  C   UNL A   1      32.124  30.260  25.867  1.00  0.00     0.033 A 
BRANCH  10  19
ATOM     19  C   UNL A   1      30.910  24.792  25.827  1.00  0.00     0.429 C 
ATOM     20  F   UNL A   1      31.818  24.465  26.777  1.00  0.00    -0.167 F 
ATOM     21  F   UNL A   1      29.925  25.485  26.453  1.00  0.00    -0.167 F 
ATOM     22  F   UNL A   1      30.356  23.636  25.391  1.00  0.00    -0.167 F 
ENDBRANCH  10  19
BRANCH  16  23
ATOM     23  C   UNL A   1      30.430  29.767  24.147  1.00  0.00    -0.015 A 
ATOM     24  C   UNL A   1      30.553  29.304  22.827  1.00  0.00     0.009 A 
ATOM     25  C   UNL A   1      29.536  30.814  24.387  1.00  0.00     0.009 A 
ATOM     26  C   UNL A   1      29.914  29.941  21.762  1.00  0.00     0.007 A 
ATOM     27  C   UNL A   1      28.850  31.426  23.327  1.00  0.00     0.007 A 
ATOM     28  C   UNL A   1      29.058  31.018  22.003  1.00  0.00    -0.023 A 
BRANCH  28  29
ATOM     29  C   UNL A   1      28.421  31.744  20.849  1.00  0.00     0.191 C 
BRANCH  29  30
ATOM     30  O   UNL A   1      27.457  30.920  20.208  1.00  0.00    -0.392 OA
ATOM     31  H   UNL A   1      27.610  30.927  19.251  1.00  0.00     0.211 HD
ENDBRANCH  29  30
ENDBRANCH  28  29
ENDBRANCH  16  23
ENDBRANCH   6   8
ENDBRANCH   3   4
ENDBRANCH   2   3
ENDBRANCH   1   2
BRANCH   1  32
ATOM     32  C   UNL A   1      37.413  22.772  24.826  1.00  0.00     0.002 C 
BRANCH  32  33
ATOM     33  C   UNL A   1      37.754  23.948  25.742  1.00  0.00     0.021 C 
BRANCH  33  34
ATOM     34  C   UNL A   1      38.890  23.695  26.724  1.00  0.00     0.116 C 
BRANCH  34  35
ATOM     35  N   UNL A   1      40.203  23.892  26.130  1.00  0.00    -0.352 N 
ATOM     36  C   UNL A   1      41.134  24.886  26.320  1.00  0.00     0.251 C 
ATOM     37  H   UNL A   1      40.470  23.198  25.484  1.00  0.00     0.163 HD
ATOM     38  O   UNL A   1      42.117  24.939  25.592  1.00  0.00    -0.269 OA
BRANCH  36  39
ATOM     39  C   UNL A   1      40.947  25.899  27.386  1.00  0.00     0.039 A 
ATOM     40  C   UNL A   1      39.964  25.686  28.357  1.00  0.00     0.014 A 
ATOM     41  C   UNL A   1      41.717  27.062  27.423  1.00  0.00     0.014 A 
ATOM     42  C   UNL A   1      39.799  26.609  29.394  1.00  0.00     0.010 A 
ATOM     43  C   UNL A   1      41.628  27.922  28.512  1.00  0.00     0.010 A 
ATOM     44  C   UNL A   1      40.655  27.718  29.501  1.00  0.00    -0.014 A 
BRANCH  44  45
ATOM     45  C   UNL A   1      40.525  28.695  30.612  1.00  0.00     0.031 A 
ATOM     46  C   UNL A   1      41.393  28.557  31.838  1.00  0.00     0.074 A 
ATOM     47  C   UNL A   1      39.596  29.669  30.548  1.00  0.00     0.049 A 
ATOM     48  N   UNL A   1      41.383  29.263  32.940  1.00  0.00    -0.248 NA
ATOM     49  C   UNL A   1      42.379  27.461  31.841  1.00  0.00     0.031 C 
ATOM     50  C   UNL A   1      38.661  29.877  29.438  1.00  0.00     0.029 A 
ATOM     51  N   UNL A   1      39.279  30.666  31.435  1.00  0.00    -0.354 N 
ATOM     52  C   UNL A   1      42.345  28.689  33.765  1.00  0.00     0.074 A 
ATOM     53  C   UNL A   1      42.868  27.535  33.068  1.00  0.00     0.031 C 
ATOM     54  C   UNL A   1      37.900  30.952  29.698  1.00  0.00     0.029 A 
ATOM     55  C   UNL A   1      38.257  31.482  31.010  1.00  0.00     0.049 A 
ATOM     56  H   UNL A   1      39.740  30.787  32.297  1.00  0.00     0.167 HD
ATOM     57  C   UNL A   1      42.780  29.102  34.978  1.00  0.00     0.031 A 
ATOM     58  C   UNL A   1      37.665  32.533  31.611  1.00  0.00     0.031 A 
ATOM     59  C   UNL A   1      42.269  30.261  35.661  1.00  0.00     0.049 A 
ATOM     60  C   UNL A   1      38.159  32.970  32.964  1.00  0.00     0.074 A 
ATOM     61  C   UNL A   1      42.670  30.792  36.873  1.00  0.00     0.029 A 
ATOM     62  N   UNL A   1      41.248  31.070  35.185  1.00  0.00    -0.354 N 
ATOM     63  N   UNL A   1      39.112  32.448  33.701  1.00  0.00    -0.248 NA
ATOM     64  C   UNL A   1      37.510  34.144  33.561  1.00  0.00     0.031 C 
ATOM     65  C   UNL A   1      41.856  31.892  37.157  1.00  0.00     0.029 A 
ATOM     66  C   UNL A   1      40.993  32.087  36.089  1.00  0.00     0.049 A 
ATOM     67  H   UNL A   1      40.776  30.942  34.332  1.00  0.00     0.167 HD
ATOM     68  C   UNL A   1      39.195  33.249  34.835  1.00  0.00     0.074 A 
ATOM     69  C   UNL A   1      38.210  34.300  34.677  1.00  0.00     0.031 C 
ATOM     70  C   UNL A   1      40.010  33.125  35.911  1.00  0.00     0.031 A 
BRANCH  57  71
ATOM     71  C   UNL A   1      43.873  28.300  35.639  1.00  0.00    -0.014 A 
ATOM     72  C   UNL A   1      43.564  27.240  36.513  1.00  0.00     0.010 A 
ATOM     73  C   UNL A   1      45.222  28.578  35.353  1.00  0.00     0.010 A 
ATOM     74  C   UNL A   1      44.583  26.501  37.119  1.00  0.00     0.020 A 
ATOM     75  C   UNL A   1      46.243  27.819  35.932  1.00  0.00     0.020 A 
ATOM     76  C   UNL A   1      45.917  26.795  36.823  1.00  0.00     0.054 A 
BRANCH  76  77
ATOM     77  S   UNL A   1      47.215  25.794  37.599  1.00  0.00     0.124 S 
ATOM     78  O   UNL A   1      46.638  24.453  37.541  1.00  0.00    -0.237 OA
ATOM     79  O   UNL A   1      48.361  26.023  36.724  1.00  0.00    -0.237 OA
ATOM     80  O   UNL A   1      47.336  26.361  38.940  1.00  0.00    -0.744 OA
ENDBRANCH  76  77
ENDBRANCH  57  71
BRANCH  58  81
ATOM     81  C   UNL A   1      36.542  33.244  30.937  1.00  0.00    -0.014 A 
ATOM     82  C   UNL A   1      35.214  33.062  31.361  1.00  0.00     0.010 A 
ATOM     83  C   UNL A   1      36.801  34.117  29.864  1.00  0.00     0.010 A 
ATOM     84  C   UNL A   1      34.164  33.716  30.708  1.00  0.00     0.020 A 
ATOM     85  C   UNL A   1      35.757  34.797  29.229  1.00  0.00     0.020 A 
ATOM     86  C   UNL A   1      34.444  34.581  29.646  1.00  0.00     0.054 A 
BRANCH  86  87
ATOM     87  S   UNL A   1      33.070  35.449  28.838  1.00  0.00     0.124 S 
ATOM     88  O   UNL A   1      33.772  36.437  28.026  1.00  0.00    -0.237 OA
ATOM     89  O   UNL A   1      32.409  34.376  28.100  1.00  0.00    -0.237 OA
ATOM     90  O   UNL A   1      32.302  35.990  29.957  1.00  0.00    -0.744 OA
ENDBRANCH  86  87
ENDBRANCH  58  81
BRANCH  70  91
ATOM     91  C   UNL A   1      39.902  34.173  36.988  1.00  0.00    -0.014 A 
ATOM     92  C   UNL A   1      40.468  35.450  36.825  1.00  0.00     0.010 A 
ATOM     93  C   UNL A   1      39.168  33.891  38.155  1.00  0.00     0.010 A 
ATOM     94  C   UNL A   1      40.330  36.414  37.827  1.00  0.00     0.020 A 
ATOM     95  C   UNL A   1      39.000  34.863  39.144  1.00  0.00     0.020 A 
ATOM     96  C   UNL A   1      39.595  36.115  38.979  1.00  0.00     0.054 A 
BRANCH  96  97
ATOM     97  S   UNL A   1      39.394  37.400  40.242  1.00  0.00     0.124 S 
ATOM     98  O   UNL A   1      40.777  37.784  40.510  1.00  0.00    -0.237 OA
ATOM     99  O   UNL A   1      38.585  38.403  39.551  1.00  0.00    -0.237 OA
ATOM    100  O   UNL A   1      38.717  36.709  41.336  1.00  0.00    -0.744 OA
ENDBRANCH  96  97
ENDBRANCH  70  91
ENDBRANCH  44  45
ENDBRANCH  36  39
ENDBRANCH  34  35
ENDBRANCH  33  34
ENDBRANCH  32  33
ENDBRANCH   1  32
TORSDOF 20
ENDMDL
MODEL 3
REMARK VINA RESULT:     -10.9      2.055      2.643
REMARK SMILES O=C(NCCCCCCNC(=O)c1ccc(-c2c3nc(c(-c4ccc(S(=O)(=O)[O-])cc4)c4ccc([nH]4)c(-c4ccc(S(=O)(=O)[O-])cc4)c4nc(c(-c5ccc(S(=O)(=O)[O-])cc5)c5ccc2[nH]5)C=C4)C=C3)cc1)C1=Cc2cc(Cl)cc(-c3ccc(CO)cc3)c2O[C@@H]1C(F)(F)F
REMARK SMILES IDX 6 1 5 2 4 3 3 4 1 5 2 6 73 8 74 9 91 10 75 11 90 12 76 13
REMARK SMILES IDX 89 14 77 15 80 16 78 17 79 18 92 19 93 20 94 21 95 22 81 23
REMARK SMILES IDX 82 24 88 25 83 26 87 27 84 28 85 29 86 30 7 32 8 33 9 34
REMARK SMILES IDX 10 35 11 36 12 38 13 39 14 40 72 41 15 42 71 43 16 44 17 45
REMARK SMILES IDX 18 46 65 47 19 48 70 49 64 50 66 51 20 52 69 53 63 54 62 55
REMARK SMILES IDX 21 57 51 58 32 59 50 60 33 61 36 62 49 63 67 64 34 65 35 66
REMARK SMILES IDX 48 68 68 69 37 70 22 71 23 72 31 73 24 74 30 75 25 76 26 77
REMARK SMILES IDX 27 78 28 79 29 80 52 81 53 82 61 83 54 84 60 85 55 86 56 87
REMARK SMILES IDX 57 88 58 89 59 90 38 91 39 92 47 93 40 94 46 95 41 96 42 97
REMARK SMILES IDX 43 98 44 99 45 100
REMARK H PARENT 3 7 86 31 10 37 66 56 36 67
REMARK Flexibility Score: inf
ROOT
ATOM      1  C   UNL A   1      31.781  27.123  25.198  1.00  0.00     0.002 C 
ENDROOT
BRANCH   1   2
ATOM      2  C   UNL A   1      30.817  26.541  26.235  1.00  0.00     0.021 C 
BRANCH   2   3
ATOM      3  C   UNL A   1      30.471  25.059  26.122  1.00  0.00     0.116 C 
BRANCH   3   4
ATOM      4  N   UNL A   1      31.277  24.140  26.907  1.00  0.00    -0.352 N 
ATOM      5  O   UNL A   1      33.050  22.893  27.475  1.00  0.00    -0.270 OA
ATOM      6  C   UNL A   1      32.478  23.555  26.607  1.00  0.00     0.251 C 
ATOM      7  H   UNL A   1      30.903  23.901  27.785  1.00  0.00     0.163 HD
BRANCH   6   8
ATOM      8  C   UNL A   1      33.179  23.729  25.291  1.00  0.00     0.067 C 
ATOM      9  C   UNL A   1      34.492  23.994  25.176  1.00  0.00     0.025 C 
ATOM     10  C   UNL A   1      32.574  22.849  24.213  1.00  0.00     0.314 C 
ATOM     11  C   UNL A   1      35.256  22.749  24.870  1.00  0.00     0.019 A 
ATOM     12  O   UNL A   1      33.231  21.550  24.219  1.00  0.00    -0.475 OA
ATOM     13  C   UNL A   1      36.617  22.735  25.187  1.00  0.00     0.032 A 
ATOM     14  C   UNL A   1      34.568  21.551  24.562  1.00  0.00     0.135 A 
ATOM     15  C   UNL A   1      37.268  21.515  25.305  1.00  0.00     0.042 A 
ATOM     16  C   UNL A   1      35.211  20.314  24.737  1.00  0.00     0.026 A 
ATOM     17  Cl  UNL A   1      38.888  21.474  25.881  1.00  0.00    -0.084 Cl
ATOM     18  C   UNL A   1      36.575  20.322  25.101  1.00  0.00     0.033 A 
BRANCH  10  19
ATOM     19  C   UNL A   1      32.576  23.514  22.823  1.00  0.00     0.429 C 
ATOM     20  F   UNL A   1      31.630  22.984  22.012  1.00  0.00    -0.167 F 
ATOM     21  F   UNL A   1      32.310  24.842  22.916  1.00  0.00    -0.167 F 
ATOM     22  F   UNL A   1      33.762  23.400  22.179  1.00  0.00    -0.167 F 
ENDBRANCH  10  19
BRANCH  16  23
ATOM     23  C   UNL A   1      34.500  19.025  24.810  1.00  0.00    -0.015 A 
ATOM     24  C   UNL A   1      33.256  18.962  25.456  1.00  0.00     0.009 A 
ATOM     25  C   UNL A   1      35.098  17.819  24.435  1.00  0.00     0.009 A 
ATOM     26  C   UNL A   1      32.685  17.746  25.837  1.00  0.00     0.007 A 
ATOM     27  C   UNL A   1      34.506  16.592  24.768  1.00  0.00     0.007 A 
ATOM     28  C   UNL A   1      33.312  16.544  25.501  1.00  0.00    -0.023 A 
BRANCH  28  29
ATOM     29  C   UNL A   1      32.730  15.237  25.967  1.00  0.00     0.191 C 
BRANCH  29  30
ATOM     30  O   UNL A   1      31.745  14.773  25.055  1.00  0.00    -0.392 OA
ATOM     31  H   UNL A   1      30.862  14.933  25.423  1.00  0.00     0.211 HD
ENDBRANCH  29  30
ENDBRANCH  28  29
ENDBRANCH  16  23
ENDBRANCH   6   8
ENDBRANCH   3   4
ENDBRANCH   2   3
ENDBRANCH   1   2
BRANCH   1  32
ATOM     32  C   UNL A   1      33.188  27.493  25.676  1.00  0.00     0.002 C 
BRANCH  32  33
ATOM     33  C   UNL A   1      33.456  28.965  25.988  1.00  0.00     0.021 C 
BRANCH  33  34
ATOM     34  C   UNL A   1      34.309  29.221  27.224  1.00  0.00     0.116 C 
BRANCH  34  35
ATOM     35  N   UNL A   1      34.095  30.543  27.792  1.00  0.00    -0.352 N 
ATOM     36  C   UNL A   1      34.815  31.242  28.733  1.00  0.00     0.251 C 
ATOM     37  H   UNL A   1      33.304  31.017  27.446  1.00  0.00     0.163 HD
ATOM     38  O   UNL A   1      34.363  32.286  29.184  1.00  0.00    -0.269 OA
BRANCH  36  39
ATOM     39  C   UNL A   1      36.120  30.731  29.215  1.00  0.00     0.039 A 
ATOM     40  C   UNL A   1      37.296  31.297  28.711  1.00  0.00     0.014 A 
ATOM     41  C   UNL A   1      36.194  29.690  30.140  1.00  0.00     0.014 A 
ATOM     42  C   UNL A   1      38.536  30.858  29.183  1.00  0.00     0.010 A 
ATOM     43  C   UNL A   1      37.420  29.331  30.689  1.00  0.00     0.010 A 
ATOM     44  C   UNL A   1      38.609  29.895  30.203  1.00  0.00    -0.014 A 
BRANCH  44  45
ATOM     45  C   UNL A   1      39.912  29.437  30.748  1.00  0.00     0.031 A 
ATOM     46  C   UNL A   1      40.520  30.143  31.934  1.00  0.00     0.074 A 
ATOM     47  C   UNL A   1      40.575  28.428  30.149  1.00  0.00     0.049 A 
ATOM     48  N   UNL A   1      41.677  29.940  32.512  1.00  0.00    -0.248 NA
ATOM     49  C   UNL A   1      39.742  31.244  32.530  1.00  0.00     0.031 C 
ATOM     50  C   UNL A   1      40.116  27.697  28.964  1.00  0.00     0.029 A 
ATOM     51  N   UNL A   1      41.779  27.842  30.451  1.00  0.00    -0.354 N 
ATOM     52  C   UNL A   1      41.767  30.892  33.522  1.00  0.00     0.074 A 
ATOM     53  C   UNL A   1      40.584  31.718  33.434  1.00  0.00     0.031 C 
ATOM     54  C   UNL A   1      41.011  26.744  28.660  1.00  0.00     0.029 A 
ATOM     55  C   UNL A   1      42.128  26.823  29.595  1.00  0.00     0.049 A 
ATOM     56  H   UNL A   1      42.341  28.125  31.208  1.00  0.00     0.167 HD
ATOM     57  C   UNL A   1      42.729  31.046  34.461  1.00  0.00     0.031 A 
ATOM     58  C   UNL A   1      43.229  26.045  29.561  1.00  0.00     0.031 A 
ATOM     59  C   UNL A   1      43.897  30.211  34.556  1.00  0.00     0.049 A 
ATOM     60  C   UNL A   1      44.290  26.240  30.610  1.00  0.00     0.074 A 
ATOM     61  C   UNL A   1      44.911  30.254  35.496  1.00  0.00     0.029 A 
ATOM     62  N   UNL A   1      44.201  29.178  33.683  1.00  0.00    -0.354 N 
ATOM     63  N   UNL A   1      44.327  27.108  31.594  1.00  0.00    -0.248 NA
ATOM     64  C   UNL A   1      45.451  25.342  30.554  1.00  0.00     0.031 C 
ATOM     65  C   UNL A   1      45.857  29.281  35.159  1.00  0.00     0.029 A 
ATOM     66  C   UNL A   1      45.398  28.588  34.050  1.00  0.00     0.049 A 
ATOM     67  H   UNL A   1      43.649  28.905  32.916  1.00  0.00     0.167 HD
ATOM     68  C   UNL A   1      45.501  26.841  32.290  1.00  0.00     0.074 A 
ATOM     69  C   UNL A   1      46.133  25.720  31.627  1.00  0.00     0.031 C 
ATOM     70  C   UNL A   1      46.010  27.469  33.379  1.00  0.00     0.031 A 
BRANCH  57  71
ATOM     71  C   UNL A   1      42.552  32.155  35.468  1.00  0.00    -0.014 A 
ATOM     72  C   UNL A   1      42.978  33.465  35.184  1.00  0.00     0.010 A 
ATOM     73  C   UNL A   1      41.914  31.895  36.695  1.00  0.00     0.010 A 
ATOM     74  C   UNL A   1      42.807  34.486  36.122  1.00  0.00     0.020 A 
ATOM     75  C   UNL A   1      41.711  32.921  37.623  1.00  0.00     0.020 A 
ATOM     76  C   UNL A   1      42.173  34.207  37.337  1.00  0.00     0.054 A 
BRANCH  76  77
ATOM     77  S   UNL A   1      41.936  35.561  38.519  1.00  0.00     0.124 S 
ATOM     78  O   UNL A   1      43.121  35.435  39.364  1.00  0.00    -0.237 OA
ATOM     79  O   UNL A   1      41.903  36.738  37.655  1.00  0.00    -0.237 OA
ATOM     80  O   UNL A   1      40.670  35.235  39.172  1.00  0.00    -0.744 OA
ENDBRANCH  76  77
ENDBRANCH  57  71
BRANCH  58  81
ATOM     81  C   UNL A   1      43.380  25.012  28.498  1.00  0.00    -0.014 A 
ATOM     82  C   UNL A   1      43.112  23.657  28.765  1.00  0.00     0.010 A 
ATOM     83  C   UNL A   1      43.790  25.383  27.204  1.00  0.00     0.010 A 
ATOM     84  C   UNL A   1      43.278  22.691  27.767  1.00  0.00     0.020 A 
ATOM     85  C   UNL A   1      43.926  24.424  26.195  1.00  0.00     0.020 A 
ATOM     86  C   UNL A   1      43.684  23.082  26.487  1.00  0.00     0.054 A 
BRANCH  86  87
ATOM     87  S   UNL A   1      43.855  21.818  25.197  1.00  0.00     0.124 S 
ATOM     88  O   UNL A   1      45.139  21.212  25.534  1.00  0.00    -0.237 OA
ATOM     89  O   UNL A   1      42.681  20.978  25.420  1.00  0.00    -0.237 OA
ATOM     90  O   UNL A   1      43.833  22.590  23.957  1.00  0.00    -0.744 OA
ENDBRANCH  86  87
ENDBRANCH  58  81
BRANCH  70  91
ATOM     91  C   UNL A   1      47.297  26.934  33.949  1.00  0.00    -0.014 A 
ATOM     92  C   UNL A   1      48.544  27.451  33.553  1.00  0.00     0.010 A 
ATOM     93  C   UNL A   1      47.252  25.939  34.942  1.00  0.00     0.010 A 
ATOM     94  C   UNL A   1      49.722  26.957  34.116  1.00  0.00     0.020 A 
ATOM     95  C   UNL A   1      48.426  25.466  35.532  1.00  0.00     0.020 A 
ATOM     96  C   UNL A   1      49.656  25.969  35.104  1.00  0.00     0.054 A 
BRANCH  96  97
ATOM     97  S   UNL A   1      51.199  25.379  35.851  1.00  0.00     0.124 S 
ATOM     98  O   UNL A   1      50.829  24.038  36.294  1.00  0.00    -0.237 OA
ATOM     99  O   UNL A   1      52.137  25.436  34.733  1.00  0.00    -0.237 OA
ATOM    100  O   UNL A   1      51.456  26.339  36.922  1.00  0.00    -0.744 OA
ENDBRANCH  96  97
ENDBRANCH  70  91
ENDBRANCH  44  45
ENDBRANCH  36  39
ENDBRANCH  34  35
ENDBRANCH  33  34
ENDBRANCH  32  33
ENDBRANCH   1  32
TORSDOF 20
ENDMDL
