MODEL 1
REMARK VINA RESULT:     -11.8      0.000      0.000
REMARK SMILES Cc1ncccc1OC1(C(=O)NCCCCCCNC(=O)c2ccc(-c3c4nc(c(-c5ccc(S(=O)(=O)[O-])cc5)c5ccc([nH]5)c(-c5ccc(S(=O)(=O)[O-])cc5)c5nc(c(-c6ccc(S(=O)(=O)[O-])cc6)c6ccc3[nH]6)C=C5)C=C4)cc2)CCN(C(=O)c2ccc(O)nn2)CC1
REMARK SMILES IDX 16 1 15 2 14 3 13 4 12 5 10 6 11 7 9 9 82 10 95 11 83 12
REMARK SMILES IDX 94 13 84 14 85 15 86 16 8 17 7 18 1 19 2 20 3 21 4 22 6 23
REMARK SMILES IDX 5 24 87 25 88 26 93 27 89 28 92 29 90 30 91 31 17 33 18 34
REMARK SMILES IDX 19 35 20 36 21 38 22 39 23 40 81 41 24 42 80 43 25 44 26 45
REMARK SMILES IDX 27 46 74 47 28 48 79 49 73 50 75 51 29 52 78 53 72 54 71 55
REMARK SMILES IDX 30 57 60 58 41 59 59 60 42 61 45 62 58 63 76 64 43 65 44 66
REMARK SMILES IDX 57 68 77 69 46 70 31 71 32 72 40 73 33 74 39 75 34 76 35 77
REMARK SMILES IDX 36 78 37 79 38 80 61 81 62 82 70 83 63 84 69 85 64 86 65 87
REMARK SMILES IDX 66 88 67 89 68 90 47 91 48 92 56 93 49 94 55 95 50 96 51 97
REMARK SMILES IDX 52 98 53 99 54 100
REMARK H PARENT 12 8 91 32 19 37 75 56 45 67
REMARK Flexibility Score: inf
ROOT
ATOM      1  C   UNL A   1      34.917  32.369  28.276  1.00  0.00     0.002 C 
ENDROOT
BRANCH   1   2
ATOM      2  C   UNL A   1      34.783  30.969  27.663  1.00  0.00     0.002 C 
BRANCH   2   3
ATOM      3  C   UNL A   1      33.384  30.594  27.165  1.00  0.00     0.021 C 
BRANCH   3   4
ATOM      4  C   UNL A   1      33.303  29.235  26.472  1.00  0.00     0.116 C 
BRANCH   4   5
ATOM      5  N   UNL A   1      33.884  29.257  25.148  1.00  0.00    -0.353 N 
ATOM      6  C   UNL A   1      33.601  28.560  24.008  1.00  0.00     0.264 C 
ATOM      7  O   UNL A   1      34.280  28.891  23.027  1.00  0.00    -0.270 OA
ATOM      8  H   UNL A   1      34.626  29.898  25.049  1.00  0.00     0.163 HD
BRANCH   6   9
ATOM      9  C   UNL A   1      32.499  27.428  23.929  1.00  0.00     0.190 C 
ATOM     10  C   UNL A   1      32.330  27.018  22.469  1.00  0.00     0.080 C 
ATOM     11  C   UNL A   1      32.823  26.376  24.985  1.00  0.00     0.080 C 
ATOM     12  C   UNL A   1      32.867  25.655  22.070  1.00  0.00     0.124 C 
ATOM     13  C   UNL A   1      33.190  24.981  24.505  1.00  0.00     0.124 C 
ATOM     14  N   UNL A   1      32.951  24.635  23.105  1.00  0.00    -0.337 N 
ATOM     15  C   UNL A   1      33.144  23.312  22.642  1.00  0.00     0.274 C 
ATOM     16  O   UNL A   1      33.284  23.041  21.450  1.00  0.00    -0.267 OA
BRANCH   9  17
ATOM     17  O   UNL A   1      31.333  28.181  24.365  1.00  0.00    -0.475 OA
BRANCH  17  18
ATOM     18  C   UNL A   1      30.162  28.505  23.762  1.00  0.00     0.142 A 
ATOM     19  C   UNL A   1      28.627  26.426  23.881  1.00  0.00     0.071 C 
ATOM     20  C   UNL A   1      28.968  27.824  23.510  1.00  0.00     0.079 A 
ATOM     21  N   UNL A   1      27.920  28.402  22.842  1.00  0.00    -0.258 NA
ATOM     22  C   UNL A   1      28.030  29.674  22.426  1.00  0.00     0.111 A 
ATOM     23  C   UNL A   1      30.216  29.836  23.310  1.00  0.00     0.050 A 
ATOM     24  C   UNL A   1      29.153  30.433  22.639  1.00  0.00     0.024 A 
ENDBRANCH  17  18
ENDBRANCH   9  17
BRANCH  15  25
ATOM     25  C   UNL A   1      33.263  22.214  23.632  1.00  0.00     0.151 A 
ATOM     26  C   UNL A   1      34.494  21.918  24.196  1.00  0.00     0.042 A 
ATOM     27  N   UNL A   1      32.113  21.590  23.994  1.00  0.00    -0.142 NA
ATOM     28  C   UNL A   1      34.526  20.964  25.205  1.00  0.00     0.072 A 
ATOM     29  N   UNL A   1      32.151  20.654  24.979  1.00  0.00    -0.112 NA
ATOM     30  C   UNL A   1      33.334  20.369  25.557  1.00  0.00     0.230 A 
BRANCH  30  31
ATOM     31  O   UNL A   1      33.292  19.451  26.555  1.00  0.00    -0.492 OA
ATOM     32  H   UNL A   1      33.069  18.562  26.364  1.00  0.00     0.295 HD
ENDBRANCH  30  31
ENDBRANCH  15  25
ENDBRANCH   6   9
ENDBRANCH   4   5
ENDBRANCH   3   4
ENDBRANCH   2   3
ENDBRANCH   1   2
BRANCH   1  33
ATOM     33  C   UNL A   1      36.342  32.924  28.382  1.00  0.00     0.021 C 
BRANCH  33  34
ATOM     34  C   UNL A   1      36.881  33.094  29.802  1.00  0.00     0.116 C 
BRANCH  34  35
ATOM     35  N   UNL A   1      36.380  32.078  30.711  1.00  0.00    -0.352 N 
ATOM     36  C   UNL A   1      36.863  30.821  30.984  1.00  0.00     0.251 C 
ATOM     37  H   UNL A   1      35.568  32.328  31.209  1.00  0.00     0.163 HD
ATOM     38  O   UNL A   1      36.194  30.054  31.671  1.00  0.00    -0.269 OA
BRANCH  36  39
ATOM     39  C   UNL A   1      38.168  30.375  30.442  1.00  0.00     0.039 A 
ATOM     40  C   UNL A   1      38.266  30.100  29.074  1.00  0.00     0.014 A 
ATOM     41  C   UNL A   1      39.279  30.187  31.270  1.00  0.00     0.014 A 
ATOM     42  C   UNL A   1      39.488  29.696  28.527  1.00  0.00     0.010 A 
ATOM     43  C   UNL A   1      40.510  29.836  30.715  1.00  0.00     0.010 A 
ATOM     44  C   UNL A   1      40.627  29.588  29.339  1.00  0.00    -0.014 A 
BRANCH  44  45
ATOM     45  C   UNL A   1      41.949  29.226  28.765  1.00  0.00     0.031 A 
ATOM     46  C   UNL A   1      42.220  27.821  28.299  1.00  0.00     0.074 A 
ATOM     47  C   UNL A   1      42.931  30.149  28.717  1.00  0.00     0.049 A 
ATOM     48  N   UNL A   1      43.330  27.306  27.833  1.00  0.00    -0.248 NA
ATOM     49  C   UNL A   1      41.105  26.864  28.391  1.00  0.00     0.031 C 
ATOM     50  C   UNL A   1      42.810  31.538  29.166  1.00  0.00     0.029 A 
ATOM     51  N   UNL A   1      44.228  30.053  28.278  1.00  0.00    -0.354 N 
ATOM     52  C   UNL A   1      43.055  25.965  27.593  1.00  0.00     0.074 A 
ATOM     53  C   UNL A   1      41.684  25.738  28.000  1.00  0.00     0.031 C 
ATOM     54  C   UNL A   1      43.979  32.168  28.963  1.00  0.00     0.029 A 
ATOM     55  C   UNL A   1      44.940  31.223  28.403  1.00  0.00     0.049 A 
ATOM     56  H   UNL A   1      44.612  29.226  27.909  1.00  0.00     0.167 HD
ATOM     57  C   UNL A   1      43.863  25.011  27.071  1.00  0.00     0.031 A 
ATOM     58  C   UNL A   1      46.223  31.505  28.107  1.00  0.00     0.031 A 
ATOM     59  C   UNL A   1      45.221  25.237  26.654  1.00  0.00     0.049 A 
ATOM     60  C   UNL A   1      47.100  30.433  27.524  1.00  0.00     0.074 A 
ATOM     61  C   UNL A   1      46.102  24.346  26.064  1.00  0.00     0.029 A 
ATOM     62  N   UNL A   1      45.899  26.441  26.783  1.00  0.00    -0.354 N 
ATOM     63  N   UNL A   1      46.804  29.184  27.257  1.00  0.00    -0.248 NA
ATOM     64  C   UNL A   1      48.481  30.811  27.195  1.00  0.00     0.031 C 
ATOM     65  C   UNL A   1      47.323  25.001  25.869  1.00  0.00     0.029 A 
ATOM     66  C   UNL A   1      47.190  26.311  26.299  1.00  0.00     0.049 A 
ATOM     67  H   UNL A   1      45.518  27.265  27.162  1.00  0.00     0.167 HD
ATOM     68  C   UNL A   1      47.957  28.632  26.709  1.00  0.00     0.074 A 
ATOM     69  C   UNL A   1      48.950  29.686  26.673  1.00  0.00     0.031 C 
ATOM     70  C   UNL A   1      48.170  27.366  26.273  1.00  0.00     0.031 A 
BRANCH  57  71
ATOM     71  C   UNL A   1      43.294  23.625  26.932  1.00  0.00    -0.014 A 
ATOM     72  C   UNL A   1      43.262  22.742  28.027  1.00  0.00     0.010 A 
ATOM     73  C   UNL A   1      42.762  23.206  25.699  1.00  0.00     0.010 A 
ATOM     74  C   UNL A   1      42.754  21.449  27.879  1.00  0.00     0.020 A 
ATOM     75  C   UNL A   1      42.231  21.921  25.552  1.00  0.00     0.020 A 
ATOM     76  C   UNL A   1      42.250  21.043  26.639  1.00  0.00     0.054 A 
BRANCH  76  77
ATOM     77  S   UNL A   1      41.594  19.361  26.471  1.00  0.00     0.124 S 
ATOM     78  O   UNL A   1      41.730  18.849  27.833  1.00  0.00    -0.237 OA
ATOM     79  O   UNL A   1      40.223  19.592  26.021  1.00  0.00    -0.237 OA
ATOM     80  O   UNL A   1      42.474  18.743  25.482  1.00  0.00    -0.744 OA
ENDBRANCH  76  77
ENDBRANCH  57  71
BRANCH  58  81
ATOM     81  C   UNL A   1      46.750  32.875  28.342  1.00  0.00    -0.014 A 
ATOM     82  C   UNL A   1      46.710  33.836  27.318  1.00  0.00     0.010 A 
ATOM     83  C   UNL A   1      47.266  33.232  29.600  1.00  0.00     0.010 A 
ATOM     84  C   UNL A   1      47.185  35.132  27.545  1.00  0.00     0.020 A 
ATOM     85  C   UNL A   1      47.722  34.532  29.837  1.00  0.00     0.020 A 
ATOM     86  C   UNL A   1      47.685  35.472  28.804  1.00  0.00     0.054 A 
BRANCH  86  87
ATOM     87  S   UNL A   1      48.230  37.177  29.103  1.00  0.00     0.124 S 
ATOM     88  O   UNL A   1      47.376  37.931  28.191  1.00  0.00    -0.237 OA
ATOM     89  O   UNL A   1      47.952  37.355  30.526  1.00  0.00    -0.237 OA
ATOM     90  O   UNL A   1      49.649  37.144  28.754  1.00  0.00    -0.744 OA
ENDBRANCH  86  87
ENDBRANCH  58  81
BRANCH  70  91
ATOM     91  C   UNL A   1      49.524  27.055  25.698  1.00  0.00    -0.014 A 
ATOM     92  C   UNL A   1      49.816  27.319  24.348  1.00  0.00     0.010 A 
ATOM     93  C   UNL A   1      50.531  26.537  26.531  1.00  0.00     0.010 A 
ATOM     94  C   UNL A   1      51.087  27.044  23.834  1.00  0.00     0.020 A 
ATOM     95  C   UNL A   1      51.809  26.281  26.027  1.00  0.00     0.020 A 
ATOM     96  C   UNL A   1      52.074  26.523  24.678  1.00  0.00     0.054 A 
BRANCH  96  97
ATOM     97  S   UNL A   1      53.730  26.216  24.002  1.00  0.00     0.124 S 
ATOM     98  O   UNL A   1      54.069  24.930  24.604  1.00  0.00    -0.237 OA
ATOM     99  O   UNL A   1      53.493  26.191  22.561  1.00  0.00    -0.237 OA
ATOM    100  O   UNL A   1      54.513  27.354  24.478  1.00  0.00    -0.744 OA
ENDBRANCH  96  97
ENDBRANCH  70  91
ENDBRANCH  44  45
ENDBRANCH  36  39
ENDBRANCH  34  35
ENDBRANCH  33  34
ENDBRANCH   1  33
TORSDOF 20
ENDMDL
MODEL 2
REMARK VINA RESULT:     -11.6      1.641      8.140
REMARK SMILES Cc1ncccc1OC1(C(=O)NCCCCCCNC(=O)c2ccc(-c3c4nc(c(-c5ccc(S(=O)(=O)[O-])cc5)c5ccc([nH]5)c(-c5ccc(S(=O)(=O)[O-])cc5)c5nc(c(-c6ccc(S(=O)(=O)[O-])cc6)c6ccc3[nH]6)C=C5)C=C4)cc2)CCN(C(=O)c2ccc(O)nn2)CC1
REMARK SMILES IDX 16 1 15 2 14 3 13 4 12 5 10 6 11 7 9 9 82 10 95 11 83 12
REMARK SMILES IDX 94 13 84 14 85 15 86 16 8 17 7 18 1 19 2 20 3 21 4 22 6 23
REMARK SMILES IDX 5 24 87 25 88 26 93 27 89 28 92 29 90 30 91 31 17 33 18 34
REMARK SMILES IDX 19 35 20 36 21 38 22 39 23 40 81 41 24 42 80 43 25 44 26 45
REMARK SMILES IDX 27 46 74 47 28 48 79 49 73 50 75 51 29 52 78 53 72 54 71 55
REMARK SMILES IDX 30 57 60 58 41 59 59 60 42 61 45 62 58 63 76 64 43 65 44 66
REMARK SMILES IDX 57 68 77 69 46 70 31 71 32 72 40 73 33 74 39 75 34 76 35 77
REMARK SMILES IDX 36 78 37 79 38 80 61 81 62 82 70 83 63 84 69 85 64 86 65 87
REMARK SMILES IDX 66 88 67 89 68 90 47 91 48 92 56 93 49 94 55 95 50 96 51 97
REMARK SMILES IDX 52 98 53 99 54 100
REMARK H PARENT 12 8 91 32 19 37 75 56 45 67
REMARK Flexibility Score: inf
ROOT
ATOM      1  C   UNL A   1      33.448  29.844  26.883  1.00  0.00     0.002 C 
ENDROOT
BRANCH   1   2
ATOM      2  C   UNL A   1      32.375  28.771  27.107  1.00  0.00     0.002 C 
BRANCH   2   3
ATOM      3  C   UNL A   1      32.150  27.804  25.940  1.00  0.00     0.021 C 
BRANCH   3   4
ATOM      4  C   UNL A   1      32.544  26.358  26.233  1.00  0.00     0.116 C 
BRANCH   4   5
ATOM      5  N   UNL A   1      31.448  25.588  26.778  1.00  0.00    -0.353 N 
ATOM      6  C   UNL A   1      30.863  24.418  26.385  1.00  0.00     0.264 C 
ATOM      7  O   UNL A   1      29.969  24.018  27.143  1.00  0.00    -0.270 OA
ATOM      8  H   UNL A   1      31.048  25.982  27.586  1.00  0.00     0.163 HD
BRANCH   6   9
ATOM      9  C   UNL A   1      31.282  23.627  25.081  1.00  0.00     0.190 C 
ATOM     10  C   UNL A   1      32.753  23.911  24.793  1.00  0.00     0.080 C 
ATOM     11  C   UNL A   1      30.796  22.189  25.222  1.00  0.00     0.080 C 
ATOM     12  C   UNL A   1      33.735  22.781  25.041  1.00  0.00     0.124 C 
ATOM     13  C   UNL A   1      31.845  21.090  25.293  1.00  0.00     0.124 C 
ATOM     14  N   UNL A   1      33.229  21.418  24.952  1.00  0.00    -0.337 N 
ATOM     15  C   UNL A   1      34.213  20.407  24.868  1.00  0.00     0.274 C 
ATOM     16  O   UNL A   1      35.419  20.650  24.918  1.00  0.00    -0.267 OA
BRANCH   9  17
ATOM     17  O   UNL A   1      30.450  24.305  24.098  1.00  0.00    -0.475 OA
BRANCH  17  18
ATOM     18  C   UNL A   1      30.532  25.517  23.495  1.00  0.00     0.142 A 
ATOM     19  C   UNL A   1      32.580  25.461  21.916  1.00  0.00     0.071 C 
ATOM     20  C   UNL A   1      31.401  26.092  22.564  1.00  0.00     0.079 A 
ATOM     21  N   UNL A   1      31.260  27.384  22.128  1.00  0.00    -0.258 NA
ATOM     22  C   UNL A   1      30.243  28.125  22.594  1.00  0.00     0.111 A 
ATOM     23  C   UNL A   1      29.481  26.339  23.942  1.00  0.00     0.050 A 
ATOM     24  C   UNL A   1      29.325  27.648  23.497  1.00  0.00     0.024 A 
ENDBRANCH  17  18
ENDBRANCH   9  17
BRANCH  15  25
ATOM     25  C   UNL A   1      33.784  18.989  24.796  1.00  0.00     0.151 A 
ATOM     26  C   UNL A   1      34.641  18.028  24.283  1.00  0.00     0.042 A 
ATOM     27  N   UNL A   1      32.567  18.691  25.320  1.00  0.00    -0.142 NA
ATOM     28  C   UNL A   1      34.235  16.702  24.352  1.00  0.00     0.072 A 
ATOM     29  N   UNL A   1      32.174  17.392  25.382  1.00  0.00    -0.112 NA
ATOM     30  C   UNL A   1      33.003  16.441  24.909  1.00  0.00     0.230 A 
BRANCH  30  31
ATOM     31  O   UNL A   1      32.561  15.164  25.034  1.00  0.00    -0.492 OA
ATOM     32  H   UNL A   1      32.022  14.788  24.366  1.00  0.00     0.295 HD
ENDBRANCH  30  31
ENDBRANCH  15  25
ENDBRANCH   6   9
ENDBRANCH   4   5
ENDBRANCH   3   4
ENDBRANCH   2   3
ENDBRANCH   1   2
BRANCH   1  33
ATOM     33  C   UNL A   1      34.811  29.580  27.532  1.00  0.00     0.021 C 
BRANCH  33  34
ATOM     34  C   UNL A   1      35.489  30.795  28.164  1.00  0.00     0.116 C 
BRANCH  34  35
ATOM     35  N   UNL A   1      35.410  30.783  29.615  1.00  0.00    -0.352 N 
ATOM     36  C   UNL A   1      36.305  30.311  30.544  1.00  0.00     0.251 C 
ATOM     37  H   UNL A   1      34.588  31.173  29.991  1.00  0.00     0.163 HD
ATOM     38  O   UNL A   1      35.973  30.250  31.724  1.00  0.00    -0.269 OA
BRANCH  36  39
ATOM     39  C   UNL A   1      37.654  29.856  30.135  1.00  0.00     0.039 A 
ATOM     40  C   UNL A   1      38.045  30.029  28.803  1.00  0.00     0.014 A 
ATOM     41  C   UNL A   1      38.519  29.228  31.036  1.00  0.00     0.014 A 
ATOM     42  C   UNL A   1      39.319  29.628  28.389  1.00  0.00     0.010 A 
ATOM     43  C   UNL A   1      39.809  28.877  30.636  1.00  0.00     0.010 A 
ATOM     44  C   UNL A   1      40.222  29.075  29.310  1.00  0.00    -0.014 A 
BRANCH  44  45
ATOM     45  C   UNL A   1      41.603  28.705  28.904  1.00  0.00     0.031 A 
ATOM     46  C   UNL A   1      42.692  29.743  28.870  1.00  0.00     0.074 A 
ATOM     47  C   UNL A   1      41.866  27.444  28.507  1.00  0.00     0.049 A 
ATOM     48  N   UNL A   1      43.936  29.620  28.482  1.00  0.00    -0.248 NA
ATOM     49  C   UNL A   1      42.329  31.101  29.308  1.00  0.00     0.031 C 
ATOM     50  C   UNL A   1      40.894  26.350  28.461  1.00  0.00     0.029 A 
ATOM     51  N   UNL A   1      43.030  26.873  28.055  1.00  0.00    -0.354 N 
ATOM     52  C   UNL A   1      44.500  30.884  28.609  1.00  0.00     0.074 A 
ATOM     53  C   UNL A   1      43.452  31.766  29.078  1.00  0.00     0.031 C 
ATOM     54  C   UNL A   1      41.505  25.237  28.023  1.00  0.00     0.029 A 
ATOM     55  C   UNL A   1      42.901  25.544  27.726  1.00  0.00     0.049 A 
ATOM     56  H   UNL A   1      43.877  27.368  27.974  1.00  0.00     0.167 HD
ATOM     57  C   UNL A   1      45.776  31.274  28.373  1.00  0.00     0.031 A 
ATOM     58  C   UNL A   1      43.800  24.671  27.234  1.00  0.00     0.031 A 
ATOM     59  C   UNL A   1      46.822  30.397  27.921  1.00  0.00     0.049 A 
ATOM     60  C   UNL A   1      45.210  25.124  26.983  1.00  0.00     0.074 A 
ATOM     61  C   UNL A   1      48.159  30.689  27.704  1.00  0.00     0.029 A 
ATOM     62  N   UNL A   1      46.653  29.055  27.615  1.00  0.00    -0.354 N 
ATOM     63  N   UNL A   1      45.735  26.312  27.160  1.00  0.00    -0.248 NA
ATOM     64  C   UNL A   1      46.151  24.116  26.473  1.00  0.00     0.031 C 
ATOM     65  C   UNL A   1      48.789  29.532  27.233  1.00  0.00     0.029 A 
ATOM     66  C   UNL A   1      47.855  28.509  27.196  1.00  0.00     0.049 A 
ATOM     67  H   UNL A   1      45.804  28.563  27.685  1.00  0.00     0.167 HD
ATOM     68  C   UNL A   1      47.074  26.190  26.804  1.00  0.00     0.074 A 
ATOM     69  C   UNL A   1      47.279  24.810  26.412  1.00  0.00     0.031 C 
ATOM     70  C   UNL A   1      48.045  27.136  26.804  1.00  0.00     0.031 A 
BRANCH  57  71
ATOM     71  C   UNL A   1      46.105  32.727  28.592  1.00  0.00    -0.014 A 
ATOM     72  C   UNL A   1      46.166  33.626  27.511  1.00  0.00     0.010 A 
ATOM     73  C   UNL A   1      46.333  33.205  29.894  1.00  0.00     0.010 A 
ATOM     74  C   UNL A   1      46.497  34.966  27.724  1.00  0.00     0.020 A 
ATOM     75  C   UNL A   1      46.642  34.551  30.114  1.00  0.00     0.020 A 
ATOM     76  C   UNL A   1      46.743  35.418  29.024  1.00  0.00     0.054 A 
BRANCH  76  77
ATOM     77  S   UNL A   1      47.170  37.163  29.276  1.00  0.00     0.124 S 
ATOM     78  O   UNL A   1      45.976  37.668  29.951  1.00  0.00    -0.237 OA
ATOM     79  O   UNL A   1      48.372  37.086  30.103  1.00  0.00    -0.237 OA
ATOM     80  O   UNL A   1      47.381  37.668  27.922  1.00  0.00    -0.744 OA
ENDBRANCH  76  77
ENDBRANCH  57  71
BRANCH  58  81
ATOM     81  C   UNL A   1      43.392  23.267  26.963  1.00  0.00    -0.014 A 
ATOM     82  C   UNL A   1      43.474  22.743  25.661  1.00  0.00     0.010 A 
ATOM     83  C   UNL A   1      42.947  22.441  28.010  1.00  0.00     0.010 A 
ATOM     84  C   UNL A   1      43.111  21.417  25.409  1.00  0.00     0.020 A 
ATOM     85  C   UNL A   1      42.603  21.108  27.765  1.00  0.00     0.020 A 
ATOM     86  C   UNL A   1      42.680  20.607  26.463  1.00  0.00     0.054 A 
BRANCH  86  87
ATOM     87  S   UNL A   1      42.283  18.868  26.130  1.00  0.00     0.124 S 
ATOM     88  O   UNL A   1      40.887  18.951  25.714  1.00  0.00    -0.237 OA
ATOM     89  O   UNL A   1      43.239  18.519  25.082  1.00  0.00    -0.237 OA
ATOM     90  O   UNL A   1      42.518  18.216  27.417  1.00  0.00    -0.744 OA
ENDBRANCH  86  87
ENDBRANCH  58  81
BRANCH  70  91
ATOM     91  C   UNL A   1      49.425  26.708  26.389  1.00  0.00    -0.014 A 
ATOM     92  C   UNL A   1      50.280  26.047  27.288  1.00  0.00     0.010 A 
ATOM     93  C   UNL A   1      49.852  26.926  25.066  1.00  0.00     0.010 A 
ATOM     94  C   UNL A   1      51.552  25.636  26.879  1.00  0.00     0.020 A 
ATOM     95  C   UNL A   1      51.113  26.496  24.647  1.00  0.00     0.020 A 
ATOM     96  C   UNL A   1      51.961  25.866  25.561  1.00  0.00     0.054 A 
BRANCH  96  97
ATOM     97  S   UNL A   1      53.599  25.284  25.038  1.00  0.00     0.124 S 
ATOM     98  O   UNL A   1      53.537  23.865  25.373  1.00  0.00    -0.237 OA
ATOM     99  O   UNL A   1      53.612  25.593  23.611  1.00  0.00    -0.237 OA
ATOM    100  O   UNL A   1      54.521  26.077  25.848  1.00  0.00    -0.744 OA
ENDBRANCH  96  97
ENDBRANCH  70  91
ENDBRANCH  44  45
ENDBRANCH  36  39
ENDBRANCH  34  35
ENDBRANCH  33  34
ENDBRANCH   1  33
TORSDOF 20
ENDMDL
MODEL 3
REMARK VINA RESULT:     -11.5      6.089     11.207
REMARK SMILES Cc1ncccc1OC1(C(=O)NCCCCCCNC(=O)c2ccc(-c3c4nc(c(-c5ccc(S(=O)(=O)[O-])cc5)c5ccc([nH]5)c(-c5ccc(S(=O)(=O)[O-])cc5)c5nc(c(-c6ccc(S(=O)(=O)[O-])cc6)c6ccc3[nH]6)C=C5)C=C4)cc2)CCN(C(=O)c2ccc(O)nn2)CC1
REMARK SMILES IDX 16 1 15 2 14 3 13 4 12 5 10 6 11 7 9 9 82 10 95 11 83 12
REMARK SMILES IDX 94 13 84 14 85 15 86 16 8 17 7 18 1 19 2 20 3 21 4 22 6 23
REMARK SMILES IDX 5 24 87 25 88 26 93 27 89 28 92 29 90 30 91 31 17 33 18 34
REMARK SMILES IDX 19 35 20 36 21 38 22 39 23 40 81 41 24 42 80 43 25 44 26 45
REMARK SMILES IDX 27 46 74 47 28 48 79 49 73 50 75 51 29 52 78 53 72 54 71 55
REMARK SMILES IDX 30 57 60 58 41 59 59 60 42 61 45 62 58 63 76 64 43 65 44 66
REMARK SMILES IDX 57 68 77 69 46 70 31 71 32 72 40 73 33 74 39 75 34 76 35 77
REMARK SMILES IDX 36 78 37 79 38 80 61 81 62 82 70 83 63 84 69 85 64 86 65 87
REMARK SMILES IDX 66 88 67 89 68 90 47 91 48 92 56 93 49 94 55 95 50 96 51 97
REMARK SMILES IDX 52 98 53 99 54 100
REMARK H PARENT 12 8 91 32 19 37 75 56 45 67
REMARK Flexibility Score: inf
ROOT
ATOM      1  C   UNL A   1      38.936  23.078  26.218  1.00  0.00     0.002 C 
ENDROOT
BRANCH   1   2
ATOM      2  C   UNL A   1      37.612  22.338  25.988  1.00  0.00     0.002 C 
BRANCH   2   3
ATOM      3  C   UNL A   1      37.440  21.700  24.606  1.00  0.00     0.021 C 
BRANCH   3   4
ATOM      4  C   UNL A   1      36.312  22.300  23.769  1.00  0.00     0.116 C 
BRANCH   4   5
ATOM      5  N   UNL A   1      35.892  23.594  24.258  1.00  0.00    -0.353 N 
ATOM      6  C   UNL A   1      34.761  24.012  24.901  1.00  0.00     0.264 C 
ATOM      7  O   UNL A   1      34.773  25.206  25.227  1.00  0.00    -0.270 OA
ATOM      8  H   UNL A   1      36.547  24.312  24.098  1.00  0.00     0.163 HD
BRANCH   6   9
ATOM      9  C   UNL A   1      33.534  23.063  25.213  1.00  0.00     0.190 C 
ATOM     10  C   UNL A   1      32.666  22.968  23.962  1.00  0.00     0.080 C 
ATOM     11  C   UNL A   1      34.070  21.795  25.869  1.00  0.00     0.080 C 
ATOM     12  C   UNL A   1      32.689  21.652  23.206  1.00  0.00     0.124 C 
ATOM     13  C   UNL A   1      33.902  20.484  25.117  1.00  0.00     0.124 C 
ATOM     14  N   UNL A   1      33.011  20.448  23.958  1.00  0.00    -0.337 N 
ATOM     15  C   UNL A   1      32.714  19.227  23.311  1.00  0.00     0.274 C 
ATOM     16  O   UNL A   1      32.261  19.176  22.167  1.00  0.00    -0.267 OA
BRANCH   9  17
ATOM     17  O   UNL A   1      32.854  23.858  26.224  1.00  0.00    -0.475 OA
BRANCH  17  18
ATOM     18  C   UNL A   1      31.560  24.228  26.393  1.00  0.00     0.142 A 
ATOM     19  C   UNL A   1      31.364  26.710  25.690  1.00  0.00     0.071 C 
ATOM     20  C   UNL A   1      30.845  25.412  26.196  1.00  0.00     0.079 A 
ATOM     21  N   UNL A   1      29.507  25.518  26.476  1.00  0.00    -0.258 NA
ATOM     22  C   UNL A   1      28.849  24.444  26.940  1.00  0.00     0.111 A 
ATOM     23  C   UNL A   1      30.815  23.135  26.873  1.00  0.00     0.050 A 
ATOM     24  C   UNL A   1      29.456  23.231  27.151  1.00  0.00     0.024 A 
ENDBRANCH  17  18
ENDBRANCH   9  17
BRANCH  15  25
ATOM     25  C   UNL A   1      33.031  17.952  23.999  1.00  0.00     0.151 A 
ATOM     26  C   UNL A   1      32.369  17.609  25.167  1.00  0.00     0.042 A 
ATOM     27  N   UNL A   1      33.927  17.134  23.389  1.00  0.00    -0.142 NA
ATOM     28  C   UNL A   1      32.617  16.352  25.702  1.00  0.00     0.072 A 
ATOM     29  N   UNL A   1      34.170  15.907  23.918  1.00  0.00    -0.112 NA
ATOM     30  C   UNL A   1      33.517  15.545  25.041  1.00  0.00     0.230 A 
BRANCH  30  31
ATOM     31  O   UNL A   1      33.782  14.294  25.494  1.00  0.00    -0.492 OA
ATOM     32  H   UNL A   1      33.492  14.034  26.347  1.00  0.00     0.295 HD
ENDBRANCH  30  31
ENDBRANCH  15  25
ENDBRANCH   6   9
ENDBRANCH   4   5
ENDBRANCH   3   4
ENDBRANCH   2   3
ENDBRANCH   1   2
BRANCH   1  33
ATOM     33  C   UNL A   1      40.047  22.273  26.901  1.00  0.00     0.021 C 
BRANCH  33  34
ATOM     34  C   UNL A   1      41.339  23.039  27.183  1.00  0.00     0.116 C 
BRANCH  34  35
ATOM     35  N   UNL A   1      41.745  23.874  26.066  1.00  0.00    -0.352 N 
ATOM     36  C   UNL A   1      41.840  25.241  25.974  1.00  0.00     0.251 C 
ATOM     37  H   UNL A   1      41.990  23.385  25.247  1.00  0.00     0.163 HD
ATOM     38  O   UNL A   1      42.050  25.759  24.881  1.00  0.00    -0.269 OA
BRANCH  36  39
ATOM     39  C   UNL A   1      41.669  26.096  27.172  1.00  0.00     0.039 A 
ATOM     40  C   UNL A   1      42.644  27.058  27.453  1.00  0.00     0.014 A 
ATOM     41  C   UNL A   1      40.583  25.934  28.038  1.00  0.00     0.014 A 
ATOM     42  C   UNL A   1      42.503  27.895  28.564  1.00  0.00     0.010 A 
ATOM     43  C   UNL A   1      40.415  26.804  29.116  1.00  0.00     0.010 A 
ATOM     44  C   UNL A   1      41.372  27.793  29.389  1.00  0.00    -0.014 A 
BRANCH  44  45
ATOM     45  C   UNL A   1      41.171  28.718  30.535  1.00  0.00     0.031 A 
ATOM     46  C   UNL A   1      42.017  28.595  31.773  1.00  0.00     0.074 A 
ATOM     47  C   UNL A   1      40.183  29.634  30.487  1.00  0.00     0.049 A 
ATOM     48  N   UNL A   1      41.943  29.268  32.893  1.00  0.00    -0.248 NA
ATOM     49  C   UNL A   1      43.070  27.566  31.758  1.00  0.00     0.031 C 
ATOM     50  C   UNL A   1      39.269  29.836  29.361  1.00  0.00     0.029 A 
ATOM     51  N   UNL A   1      39.775  30.559  31.416  1.00  0.00    -0.354 N 
ATOM     52  C   UNL A   1      42.922  28.734  33.723  1.00  0.00     0.074 A 
ATOM     53  C   UNL A   1      43.553  27.658  32.989  1.00  0.00     0.031 C 
ATOM     54  C   UNL A   1      38.420  30.834  29.657  1.00  0.00     0.029 A 
ATOM     55  C   UNL A   1      38.706  31.319  31.003  1.00  0.00     0.049 A 
ATOM     56  H   UNL A   1      40.207  30.668  32.293  1.00  0.00     0.167 HD
ATOM     57  C   UNL A   1      43.274  29.112  34.975  1.00  0.00     0.031 A 
ATOM     58  C   UNL A   1      38.025  32.293  31.638  1.00  0.00     0.031 A 
ATOM     59  C   UNL A   1      42.657  30.189  35.702  1.00  0.00     0.049 A 
ATOM     60  C   UNL A   1      38.436  32.699  33.025  1.00  0.00     0.074 A 
ATOM     61  C   UNL A   1      42.982  30.681  36.955  1.00  0.00     0.029 A 
ATOM     62  N   UNL A   1      41.588  30.944  35.242  1.00  0.00    -0.354 N 
ATOM     63  N   UNL A   1      39.400  32.216  33.771  1.00  0.00    -0.248 NA
ATOM     64  C   UNL A   1      37.673  33.787  33.652  1.00  0.00     0.031 C 
ATOM     65  C   UNL A   1      42.086  31.710  37.268  1.00  0.00     0.029 A 
ATOM     66  C   UNL A   1      41.230  31.886  36.192  1.00  0.00     0.049 A 
ATOM     67  H   UNL A   1      41.150  30.828  34.369  1.00  0.00     0.167 HD
ATOM     68  C   UNL A   1      39.372  32.955  34.948  1.00  0.00     0.074 A 
ATOM     69  C   UNL A   1      38.305  33.925  34.809  1.00  0.00     0.031 C 
ATOM     70  C   UNL A   1      40.163  32.842  36.044  1.00  0.00     0.031 A 
BRANCH  57  71
ATOM     71  C   UNL A   1      44.379  28.339  35.644  1.00  0.00    -0.014 A 
ATOM     72  C   UNL A   1      45.728  28.588  35.332  1.00  0.00     0.010 A 
ATOM     73  C   UNL A   1      44.068  27.368  36.612  1.00  0.00     0.010 A 
ATOM     74  C   UNL A   1      46.744  27.847  35.941  1.00  0.00     0.020 A 
ATOM     75  C   UNL A   1      45.083  26.640  37.242  1.00  0.00     0.020 A 
ATOM     76  C   UNL A   1      46.414  26.870  36.886  1.00  0.00     0.054 A 
BRANCH  76  77
ATOM     77  S   UNL A   1      47.749  25.921  37.664  1.00  0.00     0.124 S 
ATOM     78  O   UNL A   1      48.214  26.849  38.694  1.00  0.00    -0.237 OA
ATOM     79  O   UNL A   1      47.056  24.733  38.158  1.00  0.00    -0.237 OA
ATOM     80  O   UNL A   1      48.687  25.681  36.571  1.00  0.00    -0.744 OA
ENDBRANCH  76  77
ENDBRANCH  57  71
BRANCH  58  81
ATOM     81  C   UNL A   1      36.890  32.965  30.952  1.00  0.00    -0.014 A 
ATOM     82  C   UNL A   1      37.132  33.913  29.943  1.00  0.00     0.010 A 
ATOM     83  C   UNL A   1      35.564  32.639  31.286  1.00  0.00     0.010 A 
ATOM     84  C   UNL A   1      36.065  34.530  29.282  1.00  0.00     0.020 A 
ATOM     85  C   UNL A   1      34.495  33.238  30.613  1.00  0.00     0.020 A 
ATOM     86  C   UNL A   1      34.753  34.186  29.620  1.00  0.00     0.054 A 
BRANCH  86  87
ATOM     87  S   UNL A   1      33.382  34.943  28.703  1.00  0.00     0.124 S 
ATOM     88  O   UNL A   1      34.071  35.954  27.909  1.00  0.00    -0.237 OA
ATOM     89  O   UNL A   1      32.838  33.811  27.956  1.00  0.00    -0.237 OA
ATOM     90  O   UNL A   1      32.512  35.456  29.759  1.00  0.00    -0.744 OA
ENDBRANCH  86  87
ENDBRANCH  58  81
BRANCH  70  91
ATOM     91  C   UNL A   1      39.919  33.805  37.172  1.00  0.00    -0.014 A 
ATOM     92  C   UNL A   1      40.504  35.083  37.174  1.00  0.00     0.010 A 
ATOM     93  C   UNL A   1      39.053  33.443  38.220  1.00  0.00     0.010 A 
ATOM     94  C   UNL A   1      40.250  35.974  38.220  1.00  0.00     0.020 A 
ATOM     95  C   UNL A   1      38.778  34.339  39.256  1.00  0.00     0.020 A 
ATOM     96  C   UNL A   1      39.390  35.594  39.257  1.00  0.00     0.054 A 
BRANCH  96  97
ATOM     97  S   UNL A   1      39.037  36.783  40.582  1.00  0.00     0.124 S 
ATOM     98  O   UNL A   1      40.357  36.973  41.177  1.00  0.00    -0.237 OA
ATOM     99  O   UNL A   1      38.504  37.931  39.854  1.00  0.00    -0.237 OA
ATOM    100  O   UNL A   1      38.068  36.083  41.423  1.00  0.00    -0.744 OA
ENDBRANCH  96  97
ENDBRANCH  70  91
ENDBRANCH  44  45
ENDBRANCH  36  39
ENDBRANCH  34  35
ENDBRANCH  33  34
ENDBRANCH   1  33
TORSDOF 20
ENDMDL
