MODEL 1
REMARK VINA RESULT:     -10.9      0.000      0.000
REMARK SMILES Cc1c[nH]c(C[N@H+]2C[C@@H]3CN(S(C)(=O)=O)C[C@]3(C(=O)NCCCCCCNC(=O)c3ccc(-c4c5nc(c(-c6ccc(S(=O)(=O)[O-])cc6)c6ccc([nH]6)c(-c6ccc(S(=O)(=O)[O-])cc6)c6nc(c(-c7ccc(S(=O)(=O)[O-])cc7)c7ccc4[nH]7)C=C6)C=C5)cc3)C2)n1
REMARK SMILES IDX 24 1 23 2 22 3 21 4 20 5 18 6 19 7 17 9 7 10 8 11 90 12 9 14
REMARK SMILES IDX 10 15 16 16 11 17 6 18 5 19 1 20 2 21 3 22 91 23 4 24 12 26
REMARK SMILES IDX 13 27 14 28 15 29 25 30 26 31 27 32 28 33 29 35 30 36 31 37
REMARK SMILES IDX 89 38 32 39 88 40 33 41 34 42 35 43 82 44 36 45 87 46 81 47
REMARK SMILES IDX 83 48 37 49 86 50 80 51 79 52 38 54 68 55 49 56 67 57 50 58
REMARK SMILES IDX 53 59 66 60 84 61 51 62 52 63 65 65 85 66 54 67 39 68 40 69
REMARK SMILES IDX 48 70 41 71 47 72 42 73 43 74 44 75 45 76 46 77 69 78 70 79
REMARK SMILES IDX 78 80 71 81 77 82 72 83 73 84 74 85 75 86 76 87 55 88 56 89
REMARK SMILES IDX 64 90 57 91 63 92 58 93 59 94 60 95 61 96 62 97
REMARK H PARENT 20 8 7 13 4 25 27 34 83 53 53 64
REMARK Flexibility Score: inf
ROOT
ATOM      1  C   UNL A   1      35.534  30.993  27.619  1.00  0.00     0.002 C 
ENDROOT
BRANCH   1   2
ATOM      2  C   UNL A   1      34.381  30.007  27.404  1.00  0.00     0.002 C 
BRANCH   2   3
ATOM      3  C   UNL A   1      33.084  30.662  26.938  1.00  0.00     0.021 C 
BRANCH   3   4
ATOM      4  C   UNL A   1      32.166  29.707  26.166  1.00  0.00     0.116 C 
BRANCH   4   5
ATOM      5  N   UNL A   1      32.357  29.895  24.741  1.00  0.00    -0.355 N 
ATOM      6  C   UNL A   1      32.415  28.900  23.788  1.00  0.00     0.233 C 
ATOM      7  O   UNL A   1      33.125  29.091  22.800  1.00  0.00    -0.274 OA
ATOM      8  H   UNL A   1      32.455  30.822  24.424  1.00  0.00     0.163 HD
BRANCH   6   9
ATOM      9  C   UNL A   1      31.521  27.621  24.039  1.00  0.00     0.121 C 
ATOM     10  N   UNL A   1      29.017  27.890  23.757  1.00  0.00    -0.327 N 
ATOM     11  C   UNL A   1      29.321  26.485  23.660  1.00  0.00     0.268 C 
ATOM     12  C   UNL A   1      30.316  28.580  23.587  1.00  0.00     0.281 C 
ATOM     13  H   UNL A   1      28.589  28.104  24.659  1.00  0.00     0.348 HD
ATOM     14  C   UNL A   1      30.766  26.475  23.201  1.00  0.00     0.082 C 
ATOM     15  C   UNL A   1      31.347  25.090  23.484  1.00  0.00     0.113 C 
ATOM     16  C   UNL A   1      32.853  26.826  23.754  1.00  0.00     0.125 C 
ATOM     17  N   UNL A   1      32.595  25.418  24.137  1.00  0.00    -0.200 NA
BRANCH  10  18
ATOM     18  C   UNL A   1      27.989  28.353  22.799  1.00  0.00     0.338 C 
BRANCH  18  19
ATOM     19  C   UNL A   1      28.057  29.813  22.438  1.00  0.00     0.161 A 
ATOM     20  C   UNL A   1      27.979  32.553  20.175  1.00  0.00     0.068 C 
ATOM     21  C   UNL A   1      28.007  31.685  21.371  1.00  0.00     0.056 A 
ATOM     22  C   UNL A   1      27.844  32.006  22.700  1.00  0.00     0.107 A 
ATOM     23  N   UNL A   1      28.177  30.331  21.232  1.00  0.00    -0.233 NA
ATOM     24  N   UNL A   1      27.909  30.815  23.369  1.00  0.00    -0.344 N 
ATOM     25  H   UNL A   1      27.858  30.695  24.346  1.00  0.00     0.167 HD
ENDBRANCH  18  19
ENDBRANCH  10  18
BRANCH  17  26
ATOM     26  S   UNL A   1      32.850  24.871  25.711  1.00  0.00     0.211 S 
ATOM     27  C   UNL A   1      31.220  24.437  26.316  1.00  0.00     0.176 C 
ATOM     28  O   UNL A   1      33.601  23.641  25.620  1.00  0.00    -0.213 OA
ATOM     29  O   UNL A   1      33.330  25.989  26.498  1.00  0.00    -0.213 OA
ENDBRANCH  17  26
ENDBRANCH   6   9
ENDBRANCH   4   5
ENDBRANCH   3   4
ENDBRANCH   2   3
ENDBRANCH   1   2
BRANCH   1  30
ATOM     30  C   UNL A   1      35.196  32.193  28.511  1.00  0.00     0.021 C 
BRANCH  30  31
ATOM     31  C   UNL A   1      36.309  32.584  29.479  1.00  0.00     0.116 C 
BRANCH  31  32
ATOM     32  N   UNL A   1      36.123  31.945  30.772  1.00  0.00    -0.352 N 
ATOM     33  C   UNL A   1      36.780  30.874  31.313  1.00  0.00     0.251 C 
ATOM     34  H   UNL A   1      35.424  32.341  31.341  1.00  0.00     0.163 HD
ATOM     35  O   UNL A   1      36.285  30.269  32.259  1.00  0.00    -0.269 OA
BRANCH  33  36
ATOM     36  C   UNL A   1      38.084  30.456  30.762  1.00  0.00     0.039 A 
ATOM     37  C   UNL A   1      39.183  30.361  31.618  1.00  0.00     0.014 A 
ATOM     38  C   UNL A   1      38.236  30.209  29.392  1.00  0.00     0.014 A 
ATOM     39  C   UNL A   1      40.426  29.996  31.104  1.00  0.00     0.010 A 
ATOM     40  C   UNL A   1      39.456  29.763  28.898  1.00  0.00     0.010 A 
ATOM     41  C   UNL A   1      40.570  29.677  29.743  1.00  0.00    -0.014 A 
BRANCH  41  42
ATOM     42  C   UNL A   1      41.888  29.281  29.191  1.00  0.00     0.031 A 
ATOM     43  C   UNL A   1      43.002  30.289  29.091  1.00  0.00     0.074 A 
ATOM     44  C   UNL A   1      42.071  28.020  28.752  1.00  0.00     0.049 A 
ATOM     45  N   UNL A   1      44.220  30.129  28.642  1.00  0.00    -0.248 NA
ATOM     46  C   UNL A   1      42.703  31.662  29.533  1.00  0.00     0.031 C 
ATOM     47  C   UNL A   1      41.053  26.966  28.758  1.00  0.00     0.029 A 
ATOM     48  N   UNL A   1      43.178  27.409  28.221  1.00  0.00    -0.354 N 
ATOM     49  C   UNL A   1      44.826  31.378  28.736  1.00  0.00     0.074 A 
ATOM     50  C   UNL A   1      43.826  32.297  29.229  1.00  0.00     0.031 C 
ATOM     51  C   UNL A   1      41.595  25.830  28.291  1.00  0.00     0.029 A 
ATOM     52  C   UNL A   1      42.980  26.084  27.912  1.00  0.00     0.049 A 
ATOM     53  H   UNL A   1      44.033  27.875  28.073  1.00  0.00     0.167 HD
ATOM     54  C   UNL A   1      46.105  31.722  28.457  1.00  0.00     0.031 A 
ATOM     55  C   UNL A   1      43.821  25.175  27.380  1.00  0.00     0.031 A 
ATOM     56  C   UNL A   1      47.096  30.800  27.968  1.00  0.00     0.049 A 
ATOM     57  C   UNL A   1      45.233  25.586  27.066  1.00  0.00     0.074 A 
ATOM     58  C   UNL A   1      48.433  31.035  27.704  1.00  0.00     0.029 A 
ATOM     59  N   UNL A   1      46.855  29.468  27.664  1.00  0.00    -0.354 N 
ATOM     60  N   UNL A   1      45.808  26.753  27.230  1.00  0.00    -0.248 NA
ATOM     61  C   UNL A   1      46.114  24.551  26.508  1.00  0.00     0.031 C 
ATOM     62  C   UNL A   1      48.986  29.862  27.178  1.00  0.00     0.029 A 
ATOM     63  C   UNL A   1      48.013  28.876  27.186  1.00  0.00     0.049 A 
ATOM     64  H   UNL A   1      45.990  29.012  27.771  1.00  0.00     0.167 HD
ATOM     65  C   UNL A   1      47.128  26.585  26.825  1.00  0.00     0.074 A 
ATOM     66  C   UNL A   1      47.268  25.199  26.428  1.00  0.00     0.031 C 
ATOM     67  C   UNL A   1      48.135  27.494  26.789  1.00  0.00     0.031 A 
BRANCH  54  68
ATOM     68  C   UNL A   1      46.504  33.162  28.667  1.00  0.00    -0.014 A 
ATOM     69  C   UNL A   1      46.499  34.083  27.604  1.00  0.00     0.010 A 
ATOM     70  C   UNL A   1      46.848  33.612  29.955  1.00  0.00     0.010 A 
ATOM     71  C   UNL A   1      46.873  35.413  27.815  1.00  0.00     0.020 A 
ATOM     72  C   UNL A   1      47.191  34.949  30.177  1.00  0.00     0.020 A 
ATOM     73  C   UNL A   1      47.218  35.838  29.102  1.00  0.00     0.054 A 
BRANCH  73  74
ATOM     74  S   UNL A   1      47.670  37.577  29.350  1.00  0.00     0.124 S 
ATOM     75  O   UNL A   1      46.384  38.249  29.181  1.00  0.00    -0.237 OA
ATOM     76  O   UNL A   1      48.204  37.577  30.710  1.00  0.00    -0.237 OA
ATOM     77  O   UNL A   1      48.650  37.835  28.298  1.00  0.00    -0.744 OA
ENDBRANCH  73  74
ENDBRANCH  54  68
BRANCH  55  78
ATOM     78  C   UNL A   1      43.350  23.784  27.130  1.00  0.00    -0.014 A 
ATOM     79  C   UNL A   1      43.255  22.857  28.182  1.00  0.00     0.010 A 
ATOM     80  C   UNL A   1      42.977  23.384  25.833  1.00  0.00     0.010 A 
ATOM     81  C   UNL A   1      42.822  21.550  27.940  1.00  0.00     0.020 A 
ATOM     82  C   UNL A   1      42.512  22.088  25.592  1.00  0.00     0.020 A 
ATOM     83  C   UNL A   1      42.449  21.175  26.646  1.00  0.00     0.054 A 
BRANCH  83  84
ATOM     84  S   UNL A   1      41.844  19.488  26.364  1.00  0.00     0.124 S 
ATOM     85  O   UNL A   1      42.323  18.790  27.552  1.00  0.00    -0.237 OA
ATOM     86  O   UNL A   1      40.398  19.683  26.282  1.00  0.00    -0.237 OA
ATOM     87  O   UNL A   1      42.483  19.100  25.108  1.00  0.00    -0.744 OA
ENDBRANCH  83  84
ENDBRANCH  55  78
BRANCH  67  88
ATOM     88  C   UNL A   1      49.490  27.010  26.341  1.00  0.00    -0.014 A 
ATOM     89  C   UNL A   1      50.493  26.671  27.267  1.00  0.00     0.010 A 
ATOM     90  C   UNL A   1      49.745  26.852  24.966  1.00  0.00     0.010 A 
ATOM     91  C   UNL A   1      51.741  26.227  26.823  1.00  0.00     0.020 A 
ATOM     92  C   UNL A   1      50.979  26.373  24.521  1.00  0.00     0.020 A 
ATOM     93  C   UNL A   1      51.977  26.081  25.452  1.00  0.00     0.054 A 
BRANCH  93  94
ATOM     94  S   UNL A   1      53.595  25.474  24.904  1.00  0.00     0.124 S 
ATOM     95  O   UNL A   1      53.741  26.127  23.606  1.00  0.00    -0.237 OA
ATOM     96  O   UNL A   1      54.489  25.957  25.954  1.00  0.00    -0.237 OA
ATOM     97  O   UNL A   1      53.424  24.024  24.857  1.00  0.00    -0.744 OA
ENDBRANCH  93  94
ENDBRANCH  67  88
ENDBRANCH  41  42
ENDBRANCH  33  36
ENDBRANCH  31  32
ENDBRANCH  30  31
ENDBRANCH   1  30
TORSDOF 19
ENDMDL
MODEL 2
REMARK VINA RESULT:     -10.8      3.147      9.729
REMARK SMILES Cc1c[nH]c(C[N@H+]2C[C@@H]3CN(S(C)(=O)=O)C[C@]3(C(=O)NCCCCCCNC(=O)c3ccc(-c4c5nc(c(-c6ccc(S(=O)(=O)[O-])cc6)c6ccc([nH]6)c(-c6ccc(S(=O)(=O)[O-])cc6)c6nc(c(-c7ccc(S(=O)(=O)[O-])cc7)c7ccc4[nH]7)C=C6)C=C5)cc3)C2)n1
REMARK SMILES IDX 24 1 23 2 22 3 21 4 20 5 18 6 19 7 17 9 7 10 8 11 90 12 9 14
REMARK SMILES IDX 10 15 16 16 11 17 6 18 5 19 1 20 2 21 3 22 91 23 4 24 12 26
REMARK SMILES IDX 13 27 14 28 15 29 25 30 26 31 27 32 28 33 29 35 30 36 31 37
REMARK SMILES IDX 89 38 32 39 88 40 33 41 34 42 35 43 82 44 36 45 87 46 81 47
REMARK SMILES IDX 83 48 37 49 86 50 80 51 79 52 38 54 68 55 49 56 67 57 50 58
REMARK SMILES IDX 53 59 66 60 84 61 51 62 52 63 65 65 85 66 54 67 39 68 40 69
REMARK SMILES IDX 48 70 41 71 47 72 42 73 43 74 44 75 45 76 46 77 69 78 70 79
REMARK SMILES IDX 78 80 71 81 77 82 72 83 73 84 74 85 75 86 76 87 55 88 56 89
REMARK SMILES IDX 64 90 57 91 63 92 58 93 59 94 60 95 61 96 62 97
REMARK H PARENT 20 8 7 13 4 25 27 34 83 53 53 64
REMARK Flexibility Score: inf
ROOT
ATOM      1  C   UNL A   1      38.424  21.520  25.528  1.00  0.00     0.002 C 
ENDROOT
BRANCH   1   2
ATOM      2  C   UNL A   1      37.748  22.887  25.674  1.00  0.00     0.002 C 
BRANCH   2   3
ATOM      3  C   UNL A   1      36.287  22.814  26.109  1.00  0.00     0.021 C 
BRANCH   3   4
ATOM      4  C   UNL A   1      35.673  21.420  25.936  1.00  0.00     0.116 C 
BRANCH   4   5
ATOM      5  N   UNL A   1      34.425  21.345  26.671  1.00  0.00    -0.355 N 
ATOM      6  C   UNL A   1      33.253  22.000  26.358  1.00  0.00     0.233 C 
ATOM      7  O   UNL A   1      32.514  22.332  27.285  1.00  0.00    -0.274 OA
ATOM      8  H   UNL A   1      34.414  20.772  27.472  1.00  0.00     0.163 HD
BRANCH   6   9
ATOM      9  C   UNL A   1      32.951  22.223  24.822  1.00  0.00     0.121 C 
ATOM     10  N   UNL A   1      32.792  20.154  23.367  1.00  0.00    -0.327 N 
ATOM     11  C   UNL A   1      32.128  21.230  22.675  1.00  0.00     0.268 C 
ATOM     12  C   UNL A   1      32.927  20.619  24.766  1.00  0.00     0.281 C 
ATOM     13  H   UNL A   1      33.699  19.960  22.942  1.00  0.00     0.348 HD
ATOM     14  C   UNL A   1      31.712  22.160  23.799  1.00  0.00     0.082 C 
ATOM     15  C   UNL A   1      31.405  23.529  23.196  1.00  0.00     0.113 C 
ATOM     16  C   UNL A   1      32.372  23.610  25.297  1.00  0.00     0.125 C 
ATOM     17  N   UNL A   1      32.142  24.413  24.073  1.00  0.00    -0.200 NA
BRANCH  10  18
ATOM     18  C   UNL A   1      32.103  18.849  23.257  1.00  0.00     0.338 C 
BRANCH  18  19
ATOM     19  C   UNL A   1      32.727  17.725  24.040  1.00  0.00     0.161 A 
ATOM     20  C   UNL A   1      35.467  15.853  25.314  1.00  0.00     0.068 C 
ATOM     21  C   UNL A   1      34.132  16.413  25.014  1.00  0.00     0.056 A 
ATOM     22  C   UNL A   1      32.921  16.190  25.630  1.00  0.00     0.107 A 
ATOM     23  N   UNL A   1      33.985  17.334  24.008  1.00  0.00    -0.233 NA
ATOM     24  N   UNL A   1      32.032  17.005  24.984  1.00  0.00    -0.344 N 
ATOM     25  H   UNL A   1      31.065  17.064  25.162  1.00  0.00     0.167 HD
ENDBRANCH  18  19
ENDBRANCH  10  18
BRANCH  17  26
ATOM     26  S   UNL A   1      33.353  25.380  23.410  1.00  0.00     0.211 S 
ATOM     27  C   UNL A   1      32.497  26.824  22.783  1.00  0.00     0.176 C 
ATOM     28  O   UNL A   1      34.186  25.830  24.501  1.00  0.00    -0.213 OA
ATOM     29  O   UNL A   1      33.915  24.673  22.276  1.00  0.00    -0.213 OA
ENDBRANCH  17  26
ENDBRANCH   6   9
ENDBRANCH   4   5
ENDBRANCH   3   4
ENDBRANCH   2   3
ENDBRANCH   1   2
BRANCH   1  30
ATOM     30  C   UNL A   1      39.848  21.443  26.088  1.00  0.00     0.021 C 
BRANCH  30  31
ATOM     31  C   UNL A   1      40.150  20.159  26.856  1.00  0.00     0.116 C 
BRANCH  31  32
ATOM     32  N   UNL A   1      41.262  19.442  26.253  1.00  0.00    -0.352 N 
ATOM     33  C   UNL A   1      42.430  19.930  25.734  1.00  0.00     0.251 C 
ATOM     34  H   UNL A   1      41.160  18.463  26.213  1.00  0.00     0.163 HD
ATOM     35  O   UNL A   1      43.102  19.231  24.981  1.00  0.00    -0.269 OA
BRANCH  33  36
ATOM     36  C   UNL A   1      42.881  21.290  26.089  1.00  0.00     0.039 A 
ATOM     37  C   UNL A   1      43.033  22.239  25.077  1.00  0.00     0.014 A 
ATOM     38  C   UNL A   1      43.203  21.614  27.412  1.00  0.00     0.014 A 
ATOM     39  C   UNL A   1      43.486  23.519  25.396  1.00  0.00     0.010 A 
ATOM     40  C   UNL A   1      43.572  22.914  27.739  1.00  0.00     0.010 A 
ATOM     41  C   UNL A   1      43.743  23.872  26.731  1.00  0.00    -0.014 A 
BRANCH  41  42
ATOM     42  C   UNL A   1      44.218  25.233  27.079  1.00  0.00     0.031 A 
ATOM     43  C   UNL A   1      45.654  25.619  26.840  1.00  0.00     0.074 A 
ATOM     44  C   UNL A   1      43.362  26.112  27.637  1.00  0.00     0.049 A 
ATOM     45  N   UNL A   1      46.250  26.759  27.075  1.00  0.00    -0.248 NA
ATOM     46  C   UNL A   1      46.541  24.582  26.285  1.00  0.00     0.031 C 
ATOM     47  C   UNL A   1      41.958  25.839  27.956  1.00  0.00     0.029 A 
ATOM     48  N   UNL A   1      43.545  27.413  28.031  1.00  0.00    -0.354 N 
ATOM     49  C   UNL A   1      47.580  26.574  26.708  1.00  0.00     0.074 A 
ATOM     50  C   UNL A   1      47.716  25.197  26.292  1.00  0.00     0.031 C 
ATOM     51  C   UNL A   1      41.399  26.950  28.460  1.00  0.00     0.029 A 
ATOM     52  C   UNL A   1      42.410  27.998  28.542  1.00  0.00     0.049 A 
ATOM     53  H   UNL A   1      44.407  27.883  27.957  1.00  0.00     0.167 HD
ATOM     54  C   UNL A   1      48.590  27.475  26.700  1.00  0.00     0.031 A 
ATOM     55  C   UNL A   1      42.208  29.240  29.024  1.00  0.00     0.031 A 
ATOM     56  C   UNL A   1      48.446  28.846  27.115  1.00  0.00     0.049 A 
ATOM     57  C   UNL A   1      43.350  30.218  29.017  1.00  0.00     0.074 A 
ATOM     58  C   UNL A   1      49.393  29.854  27.096  1.00  0.00     0.029 A 
ATOM     59  N   UNL A   1      47.282  29.398  27.629  1.00  0.00    -0.354 N 
ATOM     60  N   UNL A   1      44.581  30.046  28.599  1.00  0.00    -0.248 NA
ATOM     61  C   UNL A   1      43.070  31.565  29.533  1.00  0.00     0.031 C 
ATOM     62  C   UNL A   1      48.821  31.000  27.659  1.00  0.00     0.029 A 
ATOM     63  C   UNL A   1      47.496  30.727  27.959  1.00  0.00     0.049 A 
ATOM     64  H   UNL A   1      46.431  28.918  27.744  1.00  0.00     0.167 HD
ATOM     65  C   UNL A   1      45.215  31.271  28.772  1.00  0.00     0.074 A 
ATOM     66  C   UNL A   1      44.224  32.179  29.315  1.00  0.00     0.031 C 
ATOM     67  C   UNL A   1      46.500  31.617  28.503  1.00  0.00     0.031 A 
BRANCH  54  68
ATOM     68  C   UNL A   1      49.945  27.003  26.234  1.00  0.00    -0.014 A 
ATOM     69  C   UNL A   1      50.757  26.194  27.051  1.00  0.00     0.010 A 
ATOM     70  C   UNL A   1      50.397  27.337  24.944  1.00  0.00     0.010 A 
ATOM     71  C   UNL A   1      52.010  25.767  26.605  1.00  0.00     0.020 A 
ATOM     72  C   UNL A   1      51.636  26.884  24.482  1.00  0.00     0.020 A 
ATOM     73  C   UNL A   1      52.443  26.115  25.322  1.00  0.00     0.054 A 
BRANCH  73  74
ATOM     74  S   UNL A   1      54.062  25.521  24.760  1.00  0.00     0.124 S 
ATOM     75  O   UNL A   1      54.156  26.118  23.430  1.00  0.00    -0.237 OA
ATOM     76  O   UNL A   1      54.970  26.074  25.761  1.00  0.00    -0.237 OA
ATOM     77  O   UNL A   1      53.926  24.068  24.781  1.00  0.00    -0.744 OA
ENDBRANCH  73  74
ENDBRANCH  54  68
BRANCH  55  78
ATOM     78  C   UNL A   1      40.864  29.628  29.536  1.00  0.00    -0.014 A 
ATOM     79  C   UNL A   1      39.853  30.051  28.654  1.00  0.00     0.010 A 
ATOM     80  C   UNL A   1      40.583  29.562  30.913  1.00  0.00     0.010 A 
ATOM     81  C   UNL A   1      38.597  30.423  29.141  1.00  0.00     0.020 A 
ATOM     82  C   UNL A   1      39.319  29.903  31.401  1.00  0.00     0.020 A 
ATOM     83  C   UNL A   1      38.337  30.343  30.512  1.00  0.00     0.054 A 
BRANCH  83  84
ATOM     84  S   UNL A   1      36.684  30.786  31.117  1.00  0.00     0.124 S 
ATOM     85  O   UNL A   1      35.951  30.994  29.872  1.00  0.00    -0.237 OA
ATOM     86  O   UNL A   1      36.304  29.603  31.886  1.00  0.00    -0.237 OA
ATOM     87  O   UNL A   1      36.921  31.987  31.913  1.00  0.00    -0.744 OA
ENDBRANCH  83  84
ENDBRANCH  55  78
BRANCH  67  88
ATOM     88  C   UNL A   1      46.899  33.048  28.755  1.00  0.00    -0.014 A 
ATOM     89  C   UNL A   1      46.775  34.032  27.757  1.00  0.00     0.010 A 
ATOM     90  C   UNL A   1      47.368  33.419  30.028  1.00  0.00     0.010 A 
ATOM     91  C   UNL A   1      47.155  35.351  28.016  1.00  0.00     0.020 A 
ATOM     92  C   UNL A   1      47.714  34.745  30.302  1.00  0.00     0.020 A 
ATOM     93  C   UNL A   1      47.623  35.699  29.288  1.00  0.00     0.054 A 
BRANCH  93  94
ATOM     94  S   UNL A   1      48.081  37.424  29.607  1.00  0.00     0.124 S 
ATOM     95  O   UNL A   1      48.396  37.397  31.033  1.00  0.00    -0.237 OA
ATOM     96  O   UNL A   1      49.222  37.621  28.715  1.00  0.00    -0.237 OA
ATOM     97  O   UNL A   1      46.880  38.175  29.248  1.00  0.00    -0.744 OA
ENDBRANCH  93  94
ENDBRANCH  67  88
ENDBRANCH  41  42
ENDBRANCH  33  36
ENDBRANCH  31  32
ENDBRANCH  30  31
ENDBRANCH   1  30
TORSDOF 19
ENDMDL
MODEL 3
REMARK VINA RESULT:     -10.3      6.713     12.612
REMARK SMILES Cc1c[nH]c(C[N@H+]2C[C@@H]3CN(S(C)(=O)=O)C[C@]3(C(=O)NCCCCCCNC(=O)c3ccc(-c4c5nc(c(-c6ccc(S(=O)(=O)[O-])cc6)c6ccc([nH]6)c(-c6ccc(S(=O)(=O)[O-])cc6)c6nc(c(-c7ccc(S(=O)(=O)[O-])cc7)c7ccc4[nH]7)C=C6)C=C5)cc3)C2)n1
REMARK SMILES IDX 24 1 23 2 22 3 21 4 20 5 18 6 19 7 17 9 7 10 8 11 90 12 9 14
REMARK SMILES IDX 10 15 16 16 11 17 6 18 5 19 1 20 2 21 3 22 91 23 4 24 12 26
REMARK SMILES IDX 13 27 14 28 15 29 25 30 26 31 27 32 28 33 29 35 30 36 31 37
REMARK SMILES IDX 89 38 32 39 88 40 33 41 34 42 35 43 82 44 36 45 87 46 81 47
REMARK SMILES IDX 83 48 37 49 86 50 80 51 79 52 38 54 68 55 49 56 67 57 50 58
REMARK SMILES IDX 53 59 66 60 84 61 51 62 52 63 65 65 85 66 54 67 39 68 40 69
REMARK SMILES IDX 48 70 41 71 47 72 42 73 43 74 44 75 45 76 46 77 69 78 70 79
REMARK SMILES IDX 78 80 71 81 77 82 72 83 73 84 74 85 75 86 76 87 55 88 56 89
REMARK SMILES IDX 64 90 57 91 63 92 58 93 59 94 60 95 61 96 62 97
REMARK H PARENT 20 8 7 13 4 25 27 34 83 53 53 64
REMARK Flexibility Score: inf
ROOT
ATOM      1  C   UNL A   1      39.099  23.644  26.643  1.00  0.00     0.002 C 
ENDROOT
BRANCH   1   2
ATOM      2  C   UNL A   1      38.533  22.470  25.840  1.00  0.00     0.002 C 
BRANCH   2   3
ATOM      3  C   UNL A   1      37.073  22.645  25.430  1.00  0.00     0.021 C 
BRANCH   3   4
ATOM      4  C   UNL A   1      36.363  21.318  25.135  1.00  0.00     0.116 C 
BRANCH   4   5
ATOM      5  N   UNL A   1      35.275  21.131  26.075  1.00  0.00    -0.355 N 
ATOM      6  C   UNL A   1      34.015  21.682  25.984  1.00  0.00     0.233 C 
ATOM      7  O   UNL A   1      33.425  21.942  27.033  1.00  0.00    -0.274 OA
ATOM      8  H   UNL A   1      35.454  20.554  26.853  1.00  0.00     0.163 HD
BRANCH   6   9
ATOM      9  C   UNL A   1      33.430  21.885  24.530  1.00  0.00     0.121 C 
ATOM     10  N   UNL A   1      32.915  19.795  23.192  1.00  0.00    -0.327 N 
ATOM     11  C   UNL A   1      32.170  20.883  22.610  1.00  0.00     0.268 C 
ATOM     12  C   UNL A   1      33.336  20.283  24.524  1.00  0.00     0.281 C 
ATOM     13  H   UNL A   1      33.716  19.554  22.606  1.00  0.00     0.348 HD
ATOM     14  C   UNL A   1      32.015  21.852  23.767  1.00  0.00     0.082 C 
ATOM     15  C   UNL A   1      31.647  23.221  23.196  1.00  0.00     0.113 C 
ATOM     16  C   UNL A   1      33.005  23.305  25.067  1.00  0.00     0.125 C 
ATOM     17  N   UNL A   1      32.571  24.091  23.889  1.00  0.00    -0.200 NA
BRANCH  10  18
ATOM     18  C   UNL A   1      32.171  18.518  23.254  1.00  0.00     0.338 C 
BRANCH  18  19
ATOM     19  C   UNL A   1      32.817  17.436  24.077  1.00  0.00     0.161 A 
ATOM     20  C   UNL A   1      35.594  15.648  25.392  1.00  0.00     0.068 C 
ATOM     21  C   UNL A   1      34.250  16.182  25.087  1.00  0.00     0.056 A 
ATOM     22  C   UNL A   1      33.051  15.977  25.731  1.00  0.00     0.107 A 
ATOM     23  N   UNL A   1      34.079  17.056  24.044  1.00  0.00    -0.233 NA
ATOM     24  N   UNL A   1      32.144  16.753  25.063  1.00  0.00    -0.344 N 
ATOM     25  H   UNL A   1      31.180  16.812  25.253  1.00  0.00     0.167 HD
ENDBRANCH  18  19
ENDBRANCH  10  18
BRANCH  17  26
ATOM     26  S   UNL A   1      33.666  24.993  22.977  1.00  0.00     0.211 S 
ATOM     27  C   UNL A   1      33.778  26.569  23.821  1.00  0.00     0.176 C 
ATOM     28  O   UNL A   1      34.957  24.358  23.109  1.00  0.00    -0.213 OA
ATOM     29  O   UNL A   1      33.073  25.229  21.676  1.00  0.00    -0.213 OA
ENDBRANCH  17  26
ENDBRANCH   6   9
ENDBRANCH   4   5
ENDBRANCH   3   4
ENDBRANCH   2   3
ENDBRANCH   1   2
BRANCH   1  30
ATOM     30  C   UNL A   1      40.093  23.252  27.742  1.00  0.00     0.021 C 
BRANCH  30  31
ATOM     31  C   UNL A   1      41.409  24.025  27.698  1.00  0.00     0.116 C 
BRANCH  31  32
ATOM     32  N   UNL A   1      41.426  24.962  26.586  1.00  0.00    -0.352 N 
ATOM     33  C   UNL A   1      41.075  26.284  26.560  1.00  0.00     0.251 C 
ATOM     34  H   UNL A   1      41.735  24.591  25.728  1.00  0.00     0.163 HD
ATOM     35  O   UNL A   1      40.839  26.831  25.487  1.00  0.00    -0.269 OA
BRANCH  33  36
ATOM     36  C   UNL A   1      40.990  27.047  27.821  1.00  0.00     0.039 A 
ATOM     37  C   UNL A   1      41.681  28.256  27.930  1.00  0.00     0.014 A 
ATOM     38  C   UNL A   1      40.273  26.546  28.913  1.00  0.00     0.014 A 
ATOM     39  C   UNL A   1      41.632  28.971  29.125  1.00  0.00     0.010 A 
ATOM     40  C   UNL A   1      40.156  27.302  30.074  1.00  0.00     0.010 A 
ATOM     41  C   UNL A   1      40.855  28.510  30.201  1.00  0.00    -0.014 A 
BRANCH  41  42
ATOM     42  C   UNL A   1      40.793  29.269  31.474  1.00  0.00     0.031 A 
ATOM     43  C   UNL A   1      41.825  29.037  32.546  1.00  0.00     0.074 A 
ATOM     44  C   UNL A   1      39.789  30.145  31.674  1.00  0.00     0.049 A 
ATOM     45  N   UNL A   1      41.936  29.607  33.718  1.00  0.00    -0.248 NA
ATOM     46  C   UNL A   1      42.853  28.018  32.276  1.00  0.00     0.031 C 
ATOM     47  C   UNL A   1      38.707  30.424  30.726  1.00  0.00     0.029 A 
ATOM     48  N   UNL A   1      39.517  30.967  32.738  1.00  0.00    -0.354 N 
ATOM     49  C   UNL A   1      43.035  29.009  34.327  1.00  0.00     0.074 A 
ATOM     50  C   UNL A   1      43.520  27.993  33.421  1.00  0.00     0.031 C 
ATOM     51  C   UNL A   1      37.912  31.378  31.235  1.00  0.00     0.029 A 
ATOM     52  C   UNL A   1      38.400  31.748  32.559  1.00  0.00     0.049 A 
ATOM     53  H   UNL A   1      40.069  30.996  33.553  1.00  0.00     0.167 HD
ATOM     54  C   UNL A   1      43.602  29.296  35.523  1.00  0.00     0.031 A 
ATOM     55  C   UNL A   1      37.830  32.659  33.372  1.00  0.00     0.031 A 
ATOM     56  C   UNL A   1      43.114  30.311  36.419  1.00  0.00     0.049 A 
ATOM     57  C   UNL A   1      38.470  32.949  34.702  1.00  0.00     0.074 A 
ATOM     58  C   UNL A   1      43.645  30.716  37.630  1.00  0.00     0.029 A 
ATOM     59  N   UNL A   1      41.977  31.077  36.203  1.00  0.00    -0.354 N 
ATOM     60  N   UNL A   1      39.551  32.425  35.229  1.00  0.00    -0.248 NA
ATOM     61  C   UNL A   1      37.821  33.966  35.540  1.00  0.00     0.031 C 
ATOM     62  C   UNL A   1      42.794  31.681  38.179  1.00  0.00     0.029 A 
ATOM     63  C   UNL A   1      41.774  31.932  37.274  1.00  0.00     0.049 A 
ATOM     64  H   UNL A   1      41.400  31.020  35.408  1.00  0.00     0.167 HD
ATOM     65  C   UNL A   1      39.729  33.071  36.447  1.00  0.00     0.074 A 
ATOM     66  C   UNL A   1      38.656  34.037  36.568  1.00  0.00     0.031 C 
ATOM     67  C   UNL A   1      40.696  32.885  37.381  1.00  0.00     0.031 A 
BRANCH  54  68
ATOM     68  C   UNL A   1      44.810  28.492  35.935  1.00  0.00    -0.014 A 
ATOM     69  C   UNL A   1      44.685  27.355  36.755  1.00  0.00     0.010 A 
ATOM     70  C   UNL A   1      46.085  28.854  35.463  1.00  0.00     0.010 A 
ATOM     71  C   UNL A   1      45.815  26.622  37.129  1.00  0.00     0.020 A 
ATOM     72  C   UNL A   1      47.214  28.105  35.808  1.00  0.00     0.020 A 
ATOM     73  C   UNL A   1      47.074  27.003  36.653  1.00  0.00     0.054 A 
BRANCH  73  74
ATOM     74  S   UNL A   1      48.517  26.015  37.133  1.00  0.00     0.124 S 
ATOM     75  O   UNL A   1      48.252  25.761  38.547  1.00  0.00    -0.237 OA
ATOM     76  O   UNL A   1      48.415  24.852  36.256  1.00  0.00    -0.237 OA
ATOM     77  O   UNL A   1      49.649  26.899  36.862  1.00  0.00    -0.744 OA
ENDBRANCH  73  74
ENDBRANCH  54  68
BRANCH  55  78
ATOM     78  C   UNL A   1      36.596  33.372  32.940  1.00  0.00    -0.014 A 
ATOM     79  C   UNL A   1      36.635  34.304  31.887  1.00  0.00     0.010 A 
ATOM     80  C   UNL A   1      35.366  33.110  33.572  1.00  0.00     0.010 A 
ATOM     81  C   UNL A   1      35.476  34.977  31.492  1.00  0.00     0.020 A 
ATOM     82  C   UNL A   1      34.199  33.756  33.158  1.00  0.00     0.020 A 
ATOM     83  C   UNL A   1      34.263  34.696  32.128  1.00  0.00     0.054 A 
BRANCH  83  84
ATOM     84  S   UNL A   1      32.762  35.547  31.566  1.00  0.00     0.124 S 
ATOM     85  O   UNL A   1      32.605  35.024  30.213  1.00  0.00    -0.237 OA
ATOM     86  O   UNL A   1      31.767  35.101  32.538  1.00  0.00    -0.237 OA
ATOM     87  O   UNL A   1      33.117  36.961  31.655  1.00  0.00    -0.744 OA
ENDBRANCH  83  84
ENDBRANCH  55  78
BRANCH  67  88
ATOM     88  C   UNL A   1      40.662  33.772  38.599  1.00  0.00    -0.014 A 
ATOM     89  C   UNL A   1      41.360  34.993  38.640  1.00  0.00     0.010 A 
ATOM     90  C   UNL A   1      39.881  33.392  39.707  1.00  0.00     0.010 A 
ATOM     91  C   UNL A   1      41.312  35.795  39.783  1.00  0.00     0.020 A 
ATOM     92  C   UNL A   1      39.803  34.209  40.837  1.00  0.00     0.020 A 
ATOM     93  C   UNL A   1      40.534  35.397  40.875  1.00  0.00     0.054 A 
BRANCH  93  94
ATOM     94  S   UNL A   1      40.466  36.470  42.335  1.00  0.00     0.124 S 
ATOM     95  O   UNL A   1      40.960  35.585  43.387  1.00  0.00    -0.237 OA
ATOM     96  O   UNL A   1      41.358  37.567  41.967  1.00  0.00    -0.237 OA
ATOM     97  O   UNL A   1      39.054  36.830  42.437  1.00  0.00    -0.744 OA
ENDBRANCH  93  94
ENDBRANCH  67  88
ENDBRANCH  41  42
ENDBRANCH  33  36
ENDBRANCH  31  32
ENDBRANCH  30  31
ENDBRANCH   1  30
TORSDOF 19
ENDMDL
