MODEL 1
REMARK VINA RESULT:     -11.1      0.000      0.000
REMARK SMILES COC(=O)[C@@H]1C[C@@H](C(=O)NCCCCCCNC(=O)c2ccc(-c3c4nc(c(-c5ccc(S(=O)(=O)[O-])cc5)c5ccc([nH]5)c(-c5ccc(S(=O)(=O)[O-])cc5)c5nc(c(-c6ccc(S(=O)(=O)[O-])cc6)c6ccc3[nH]6)C=C5)C=C4)cc2)[C@@H](c2cccc(F)c2F)[N@H+]1C
REMARK SMILES IDX 14 1 13 2 12 3 11 4 10 5 8 6 9 7 7 9 5 10 6 11 89 12 80 13
REMARK SMILES IDX 90 14 3 16 4 17 2 18 1 19 81 20 82 21 87 22 83 23 85 24
REMARK SMILES IDX 88 25 84 26 86 27 15 28 16 29 17 30 18 31 19 33 20 34 21 35
REMARK SMILES IDX 79 36 22 37 78 38 23 39 24 40 25 41 72 42 26 43 77 44 71 45
REMARK SMILES IDX 73 46 27 47 76 48 70 49 69 50 28 52 58 53 39 54 57 55 40 56
REMARK SMILES IDX 43 57 56 58 74 59 41 60 42 61 55 63 75 64 44 65 29 66 30 67
REMARK SMILES IDX 38 68 31 69 37 70 32 71 33 72 34 73 35 74 36 75 59 76 60 77
REMARK SMILES IDX 68 78 61 79 67 80 62 81 63 82 64 83 65 84 66 85 45 86 46 87
REMARK SMILES IDX 54 88 47 89 53 90 48 91 49 92 50 93 51 94 52 95
REMARK H PARENT 10 8 89 15 17 32 73 51 43 62
REMARK Flexibility Score: inf
ROOT
ATOM      1  C   UNL A   1      34.506  32.555  28.441  1.00  0.00     0.002 C 
ENDROOT
BRANCH   1   2
ATOM      2  C   UNL A   1      34.149  31.248  27.727  1.00  0.00     0.002 C 
BRANCH   2   3
ATOM      3  C   UNL A   1      35.264  30.198  27.762  1.00  0.00     0.021 C 
BRANCH   3   4
ATOM      4  C   UNL A   1      34.802  28.803  27.360  1.00  0.00     0.116 C 
BRANCH   4   5
ATOM      5  N   UNL A   1      33.390  28.586  27.631  1.00  0.00    -0.356 N 
ATOM      6  C   UNL A   1      32.306  28.348  26.855  1.00  0.00     0.229 C 
ATOM      7  O   UNL A   1      31.232  28.229  27.460  1.00  0.00    -0.275 OA
ATOM      8  H   UNL A   1      33.175  28.620  28.591  1.00  0.00     0.163 HD
BRANCH   6   9
ATOM      9  C   UNL A   1      32.313  28.217  25.334  1.00  0.00     0.148 C 
ATOM     10  C   UNL A   1      30.460  27.689  23.900  1.00  0.00     0.296 C 
ATOM     11  C   UNL A   1      31.054  28.819  24.710  1.00  0.00     0.097 C 
ATOM     12  N   UNL A   1      31.678  27.017  23.429  1.00  0.00    -0.319 N 
ATOM     13  C   UNL A   1      32.635  26.879  24.562  1.00  0.00     0.231 C 
ATOM     14  C   UNL A   1      31.450  25.965  22.469  1.00  0.00     0.333 C 
ATOM     15  H   UNL A   1      32.219  27.586  22.776  1.00  0.00     0.349 HD
BRANCH  10  16
ATOM     16  C   UNL A   1      29.534  28.279  22.839  1.00  0.00     0.364 C 
ATOM     17  O   UNL A   1      29.963  28.801  21.814  1.00  0.00    -0.245 OA
BRANCH  16  18
ATOM     18  O   UNL A   1      28.214  28.091  23.106  1.00  0.00    -0.465 OA
ATOM     19  C   UNL A   1      27.441  29.292  23.078  1.00  0.00     0.282 C 
ENDBRANCH  16  18
ENDBRANCH  10  16
BRANCH  13  20
ATOM     20  C   UNL A   1      32.825  25.585  25.374  1.00  0.00     0.049 A 
ATOM     21  C   UNL A   1      34.080  24.925  25.331  1.00  0.00     0.013 A 
ATOM     22  C   UNL A   1      31.834  24.858  26.055  1.00  0.00     0.167 A 
ATOM     23  C   UNL A   1      34.379  23.779  26.091  1.00  0.00     0.004 A 
ATOM     24  C   UNL A   1      32.120  23.708  26.803  1.00  0.00     0.159 A 
ATOM     25  F   UNL A   1      30.538  25.158  25.972  1.00  0.00    -0.203 F 
ATOM     26  C   UNL A   1      33.396  23.184  26.862  1.00  0.00     0.042 A 
ATOM     27  F   UNL A   1      31.130  23.080  27.457  1.00  0.00    -0.204 F 
ENDBRANCH  13  20
ENDBRANCH   6   9
ENDBRANCH   4   5
ENDBRANCH   3   4
ENDBRANCH   2   3
ENDBRANCH   1   2
BRANCH   1  28
ATOM     28  C   UNL A   1      36.007  32.845  28.542  1.00  0.00     0.021 C 
BRANCH  28  29
ATOM     29  C   UNL A   1      36.517  33.064  29.964  1.00  0.00     0.116 C 
BRANCH  29  30
ATOM     30  N   UNL A   1      36.061  32.016  30.863  1.00  0.00    -0.352 N 
ATOM     31  C   UNL A   1      36.622  30.782  31.081  1.00  0.00     0.251 C 
ATOM     32  H   UNL A   1      35.249  32.217  31.382  1.00  0.00     0.163 HD
ATOM     33  O   UNL A   1      35.996  29.909  31.682  1.00  0.00    -0.269 OA
BRANCH  31  34
ATOM     34  C   UNL A   1      37.981  30.510  30.572  1.00  0.00     0.039 A 
ATOM     35  C   UNL A   1      39.015  30.267  31.477  1.00  0.00     0.014 A 
ATOM     36  C   UNL A   1      38.218  30.471  29.194  1.00  0.00     0.014 A 
ATOM     37  C   UNL A   1      40.283  29.934  30.997  1.00  0.00     0.010 A 
ATOM     38  C   UNL A   1      39.466  30.078  28.719  1.00  0.00     0.010 A 
ATOM     39  C   UNL A   1      40.512  29.809  29.615  1.00  0.00    -0.014 A 
BRANCH  39  40
ATOM     40  C   UNL A   1      41.840  29.396  29.094  1.00  0.00     0.031 A 
ATOM     41  C   UNL A   1      42.959  30.395  28.989  1.00  0.00     0.074 A 
ATOM     42  C   UNL A   1      42.021  28.131  28.667  1.00  0.00     0.049 A 
ATOM     43  N   UNL A   1      44.179  30.221  28.548  1.00  0.00    -0.248 NA
ATOM     44  C   UNL A   1      42.664  31.773  29.413  1.00  0.00     0.031 C 
ATOM     45  C   UNL A   1      40.999  27.080  28.667  1.00  0.00     0.029 A 
ATOM     46  N   UNL A   1      43.130  27.512  28.146  1.00  0.00    -0.354 N 
ATOM     47  C   UNL A   1      44.791  31.467  28.629  1.00  0.00     0.074 A 
ATOM     48  C   UNL A   1      43.794  32.396  29.115  1.00  0.00     0.031 C 
ATOM     49  C   UNL A   1      41.537  25.943  28.197  1.00  0.00     0.029 A 
ATOM     50  C   UNL A   1      42.929  26.188  27.833  1.00  0.00     0.049 A 
ATOM     51  H   UNL A   1      43.989  27.973  28.008  1.00  0.00     0.167 HD
ATOM     52  C   UNL A   1      46.072  31.804  28.345  1.00  0.00     0.031 A 
ATOM     53  C   UNL A   1      43.769  25.272  27.314  1.00  0.00     0.031 A 
ATOM     54  C   UNL A   1      47.063  30.875  27.871  1.00  0.00     0.049 A 
ATOM     55  C   UNL A   1      45.189  25.667  27.013  1.00  0.00     0.074 A 
ATOM     56  C   UNL A   1      48.403  31.105  27.612  1.00  0.00     0.029 A 
ATOM     57  N   UNL A   1      46.823  29.541  27.581  1.00  0.00    -0.354 N 
ATOM     58  N   UNL A   1      45.770  26.832  27.169  1.00  0.00    -0.248 NA
ATOM     59  C   UNL A   1      46.070  24.619  26.479  1.00  0.00     0.031 C 
ATOM     60  C   UNL A   1      48.963  29.921  27.122  1.00  0.00     0.029 A 
ATOM     61  C   UNL A   1      47.985  28.939  27.125  1.00  0.00     0.049 A 
ATOM     62  H   UNL A   1      45.955  29.087  27.684  1.00  0.00     0.167 HD
ATOM     63  C   UNL A   1      47.092  26.652  26.775  1.00  0.00     0.074 A 
ATOM     64  C   UNL A   1      47.227  25.262  26.389  1.00  0.00     0.031 C 
ATOM     65  C   UNL A   1      48.101  27.555  26.738  1.00  0.00     0.031 A 
BRANCH  52  66
ATOM     66  C   UNL A   1      46.470  33.243  28.536  1.00  0.00    -0.014 A 
ATOM     67  C   UNL A   1      46.324  34.179  27.496  1.00  0.00     0.010 A 
ATOM     68  C   UNL A   1      46.966  33.675  29.779  1.00  0.00     0.010 A 
ATOM     69  C   UNL A   1      46.709  35.510  27.682  1.00  0.00     0.020 A 
ATOM     70  C   UNL A   1      47.326  35.011  29.978  1.00  0.00     0.020 A 
ATOM     71  C   UNL A   1      47.213  35.916  28.921  1.00  0.00     0.054 A 
BRANCH  71  72
ATOM     72  S   UNL A   1      47.689  37.653  29.140  1.00  0.00     0.124 S 
ATOM     73  O   UNL A   1      46.389  38.307  29.264  1.00  0.00    -0.237 OA
ATOM     74  O   UNL A   1      48.492  37.614  30.360  1.00  0.00    -0.237 OA
ATOM     75  O   UNL A   1      48.432  37.966  27.921  1.00  0.00    -0.744 OA
ENDBRANCH  71  72
ENDBRANCH  52  66
BRANCH  53  76
ATOM     76  C   UNL A   1      43.293  23.884  27.072  1.00  0.00    -0.014 A 
ATOM     77  C   UNL A   1      43.073  23.008  28.149  1.00  0.00     0.010 A 
ATOM     78  C   UNL A   1      43.035  23.438  25.763  1.00  0.00     0.010 A 
ATOM     79  C   UNL A   1      42.615  21.707  27.922  1.00  0.00     0.020 A 
ATOM     80  C   UNL A   1      42.552  22.146  25.534  1.00  0.00     0.020 A 
ATOM     81  C   UNL A   1      42.356  21.285  26.615  1.00  0.00     0.054 A 
BRANCH  81  82
ATOM     82  S   UNL A   1      41.702  19.612  26.349  1.00  0.00     0.124 S 
ATOM     83  O   UNL A   1      42.019  18.958  27.613  1.00  0.00    -0.237 OA
ATOM     84  O   UNL A   1      40.284  19.863  26.101  1.00  0.00    -0.237 OA
ATOM     85  O   UNL A   1      42.453  19.135  25.189  1.00  0.00    -0.744 OA
ENDBRANCH  81  82
ENDBRANCH  53  76
BRANCH  65  86
ATOM     86  C   UNL A   1      49.451  27.066  26.287  1.00  0.00    -0.014 A 
ATOM     87  C   UNL A   1      50.322  26.413  27.178  1.00  0.00     0.010 A 
ATOM     88  C   UNL A   1      49.831  27.218  24.941  1.00  0.00     0.010 A 
ATOM     89  C   UNL A   1      51.563  25.948  26.736  1.00  0.00     0.020 A 
ATOM     90  C   UNL A   1      51.061  26.731  24.491  1.00  0.00     0.020 A 
ATOM     91  C   UNL A   1      51.927  26.112  25.395  1.00  0.00     0.054 A 
BRANCH  91  92
ATOM     92  S   UNL A   1      53.525  25.464  24.836  1.00  0.00     0.124 S 
ATOM     93  O   UNL A   1      53.484  25.749  23.404  1.00  0.00    -0.237 OA
ATOM     94  O   UNL A   1      54.481  26.254  25.607  1.00  0.00    -0.237 OA
ATOM     95  O   UNL A   1      53.467  24.048  25.190  1.00  0.00    -0.744 OA
ENDBRANCH  91  92
ENDBRANCH  65  86
ENDBRANCH  39  40
ENDBRANCH  31  34
ENDBRANCH  29  30
ENDBRANCH  28  29
ENDBRANCH   1  28
TORSDOF 19
ENDMDL
MODEL 2
REMARK VINA RESULT:     -10.9      2.796      9.055
REMARK SMILES COC(=O)[C@@H]1C[C@@H](C(=O)NCCCCCCNC(=O)c2ccc(-c3c4nc(c(-c5ccc(S(=O)(=O)[O-])cc5)c5ccc([nH]5)c(-c5ccc(S(=O)(=O)[O-])cc5)c5nc(c(-c6ccc(S(=O)(=O)[O-])cc6)c6ccc3[nH]6)C=C5)C=C4)cc2)[C@@H](c2cccc(F)c2F)[N@H+]1C
REMARK SMILES IDX 14 1 13 2 12 3 11 4 10 5 8 6 9 7 7 9 5 10 6 11 89 12 80 13
REMARK SMILES IDX 90 14 3 16 4 17 2 18 1 19 81 20 82 21 87 22 83 23 85 24
REMARK SMILES IDX 88 25 84 26 86 27 15 28 16 29 17 30 18 31 19 33 20 34 21 35
REMARK SMILES IDX 79 36 22 37 78 38 23 39 24 40 25 41 72 42 26 43 77 44 71 45
REMARK SMILES IDX 73 46 27 47 76 48 70 49 69 50 28 52 58 53 39 54 57 55 40 56
REMARK SMILES IDX 43 57 56 58 74 59 41 60 42 61 55 63 75 64 44 65 29 66 30 67
REMARK SMILES IDX 38 68 31 69 37 70 32 71 33 72 34 73 35 74 36 75 59 76 60 77
REMARK SMILES IDX 68 78 61 79 67 80 62 81 63 82 64 83 65 84 66 85 45 86 46 87
REMARK SMILES IDX 54 88 47 89 53 90 48 91 49 92 50 93 51 94 52 95
REMARK H PARENT 10 8 89 15 17 32 73 51 43 62
REMARK Flexibility Score: inf
ROOT
ATOM      1  C   UNL A   1      36.900  21.629  24.740  1.00  0.00     0.002 C 
ENDROOT
BRANCH   1   2
ATOM      2  C   UNL A   1      37.246  22.970  25.394  1.00  0.00     0.002 C 
BRANCH   2   3
ATOM      3  C   UNL A   1      36.039  23.693  26.000  1.00  0.00     0.021 C 
BRANCH   3   4
ATOM      4  C   UNL A   1      35.004  22.752  26.606  1.00  0.00     0.116 C 
BRANCH   4   5
ATOM      5  N   UNL A   1      33.779  23.441  26.977  1.00  0.00    -0.356 N 
ATOM      6  C   UNL A   1      32.469  23.267  26.677  1.00  0.00     0.229 C 
ATOM      7  O   UNL A   1      31.691  24.086  27.185  1.00  0.00    -0.275 OA
ATOM      8  H   UNL A   1      33.936  24.202  27.581  1.00  0.00     0.163 HD
BRANCH   6   9
ATOM      9  C   UNL A   1      31.902  22.165  25.787  1.00  0.00     0.148 C 
ATOM     10  C   UNL A   1      33.115  20.449  24.624  1.00  0.00     0.296 C 
ATOM     11  C   UNL A   1      32.627  20.836  26.001  1.00  0.00     0.097 C 
ATOM     12  N   UNL A   1      32.015  20.951  23.789  1.00  0.00    -0.319 N 
ATOM     13  C   UNL A   1      31.643  22.321  24.238  1.00  0.00     0.231 C 
ATOM     14  C   UNL A   1      32.102  20.582  22.398  1.00  0.00     0.333 C 
ATOM     15  H   UNL A   1      31.142  20.445  23.938  1.00  0.00     0.349 HD
BRANCH  10  16
ATOM     16  C   UNL A   1      33.379  18.945  24.600  1.00  0.00     0.364 C 
ATOM     17  O   UNL A   1      34.500  18.481  24.413  1.00  0.00    -0.245 OA
BRANCH  16  18
ATOM     18  O   UNL A   1      32.279  18.197  24.885  1.00  0.00    -0.465 OA
ATOM     19  C   UNL A   1      32.572  16.968  25.550  1.00  0.00     0.282 C 
ENDBRANCH  16  18
ENDBRANCH  10  16
BRANCH  13  20
ATOM     20  C   UNL A   1      32.108  23.611  23.538  1.00  0.00     0.049 A 
ATOM     21  C   UNL A   1      33.498  23.839  23.370  1.00  0.00     0.013 A 
ATOM     22  C   UNL A   1      31.313  24.710  23.170  1.00  0.00     0.167 A 
ATOM     23  C   UNL A   1      34.024  24.947  22.682  1.00  0.00     0.004 A 
ATOM     24  C   UNL A   1      31.831  25.825  22.497  1.00  0.00     0.159 A 
ATOM     25  F   UNL A   1      30.027  24.812  23.506  1.00  0.00    -0.203 F 
ATOM     26  C   UNL A   1      33.177  25.935  22.210  1.00  0.00     0.042 A 
ATOM     27  F   UNL A   1      31.009  26.826  22.144  1.00  0.00    -0.204 F 
ENDBRANCH  13  20
ENDBRANCH   6   9
ENDBRANCH   4   5
ENDBRANCH   3   4
ENDBRANCH   2   3
ENDBRANCH   1   2
BRANCH   1  28
ATOM     28  C   UNL A   1      37.902  20.502  25.011  1.00  0.00     0.021 C 
BRANCH  28  29
ATOM     29  C   UNL A   1      39.146  20.930  25.785  1.00  0.00     0.116 C 
BRANCH  29  30
ATOM     30  N   UNL A   1      40.060  19.816  25.984  1.00  0.00    -0.352 N 
ATOM     31  C   UNL A   1      41.421  19.856  26.156  1.00  0.00     0.251 C 
ATOM     32  H   UNL A   1      39.651  18.920  25.999  1.00  0.00     0.163 HD
ATOM     33  O   UNL A   1      42.092  18.827  26.068  1.00  0.00    -0.269 OA
BRANCH  31  34
ATOM     34  C   UNL A   1      42.074  21.151  26.431  1.00  0.00     0.039 A 
ATOM     35  C   UNL A   1      42.320  22.031  25.377  1.00  0.00     0.014 A 
ATOM     36  C   UNL A   1      42.415  21.498  27.743  1.00  0.00     0.014 A 
ATOM     37  C   UNL A   1      42.866  23.288  25.646  1.00  0.00     0.010 A 
ATOM     38  C   UNL A   1      42.902  22.774  28.015  1.00  0.00     0.010 A 
ATOM     39  C   UNL A   1      43.136  23.680  26.969  1.00  0.00    -0.014 A 
BRANCH  39  40
ATOM     40  C   UNL A   1      43.660  25.036  27.273  1.00  0.00     0.031 A 
ATOM     41  C   UNL A   1      45.116  25.351  27.067  1.00  0.00     0.074 A 
ATOM     42  C   UNL A   1      42.832  25.968  27.785  1.00  0.00     0.049 A 
ATOM     43  N   UNL A   1      45.755  26.471  27.289  1.00  0.00    -0.248 NA
ATOM     44  C   UNL A   1      45.970  24.261  26.569  1.00  0.00     0.031 C 
ATOM     45  C   UNL A   1      41.411  25.770  28.080  1.00  0.00     0.029 A 
ATOM     46  N   UNL A   1      43.068  27.270  28.150  1.00  0.00    -0.354 N 
ATOM     47  C   UNL A   1      47.084  26.218  26.970  1.00  0.00     0.074 A 
ATOM     48  C   UNL A   1      47.168  24.825  26.587  1.00  0.00     0.031 C 
ATOM     49  C   UNL A   1      40.896  26.917  28.554  1.00  0.00     0.029 A 
ATOM     50  C   UNL A   1      41.954  27.920  28.627  1.00  0.00     0.049 A 
ATOM     51  H   UNL A   1      43.952  27.698  28.079  1.00  0.00     0.167 HD
ATOM     52  C   UNL A   1      48.137  27.071  26.977  1.00  0.00     0.031 A 
ATOM     53  C   UNL A   1      41.798  29.183  29.071  1.00  0.00     0.031 A 
ATOM     54  C   UNL A   1      48.048  28.457  27.349  1.00  0.00     0.049 A 
ATOM     55  C   UNL A   1      42.979  30.114  29.062  1.00  0.00     0.074 A 
ATOM     56  C   UNL A   1      49.044  29.418  27.330  1.00  0.00     0.029 A 
ATOM     57  N   UNL A   1      46.899  29.081  27.812  1.00  0.00    -0.354 N 
ATOM     58  N   UNL A   1      44.212  29.876  28.683  1.00  0.00    -0.248 NA
ATOM     59  C   UNL A   1      42.743  31.489  29.525  1.00  0.00     0.031 C 
ATOM     60  C   UNL A   1      48.508  30.612  27.825  1.00  0.00     0.029 A 
ATOM     61  C   UNL A   1      47.166  30.409  28.103  1.00  0.00     0.049 A 
ATOM     62  H   UNL A   1      46.023  28.644  27.919  1.00  0.00     0.167 HD
ATOM     63  C   UNL A   1      44.894  31.078  28.841  1.00  0.00     0.074 A 
ATOM     64  C   UNL A   1      43.933  32.043  29.334  1.00  0.00     0.031 C 
ATOM     65  C   UNL A   1      46.199  31.356  28.599  1.00  0.00     0.031 A 
BRANCH  52  66
ATOM     66  C   UNL A   1      49.479  26.521  26.571  1.00  0.00    -0.014 A 
ATOM     67  C   UNL A   1      50.368  26.002  27.529  1.00  0.00     0.010 A 
ATOM     68  C   UNL A   1      49.843  26.493  25.213  1.00  0.00     0.010 A 
ATOM     69  C   UNL A   1      51.616  25.505  27.141  1.00  0.00     0.020 A 
ATOM     70  C   UNL A   1      51.079  25.971  24.817  1.00  0.00     0.020 A 
ATOM     71  C   UNL A   1      51.965  25.499  25.788  1.00  0.00     0.054 A 
BRANCH  71  72
ATOM     72  S   UNL A   1      53.585  24.834  25.310  1.00  0.00     0.124 S 
ATOM     73  O   UNL A   1      53.273  23.426  25.076  1.00  0.00    -0.237 OA
ATOM     74  O   UNL A   1      53.911  25.611  24.116  1.00  0.00    -0.237 OA
ATOM     75  O   UNL A   1      54.427  25.102  26.473  1.00  0.00    -0.744 OA
ENDBRANCH  71  72
ENDBRANCH  52  66
BRANCH  53  76
ATOM     76  C   UNL A   1      40.463  29.644  29.536  1.00  0.00    -0.014 A 
ATOM     77  C   UNL A   1      40.150  29.658  30.906  1.00  0.00     0.010 A 
ATOM     78  C   UNL A   1      39.504  30.095  28.610  1.00  0.00     0.010 A 
ATOM     79  C   UNL A   1      38.899  30.102  31.342  1.00  0.00     0.020 A 
ATOM     80  C   UNL A   1      38.261  30.564  29.045  1.00  0.00     0.020 A 
ATOM     81  C   UNL A   1      37.963  30.554  30.409  1.00  0.00     0.054 A 
BRANCH  81  82
ATOM     82  S   UNL A   1      36.367  31.185  31.003  1.00  0.00     0.124 S 
ATOM     83  O   UNL A   1      36.011  30.202  32.019  1.00  0.00    -0.237 OA
ATOM     84  O   UNL A   1      36.718  32.514  31.500  1.00  0.00    -0.237 OA
ATOM     85  O   UNL A   1      35.531  31.180  29.803  1.00  0.00    -0.744 OA
ENDBRANCH  81  82
ENDBRANCH  53  76
BRANCH  65  86
ATOM     86  C   UNL A   1      46.661  32.768  28.838  1.00  0.00    -0.014 A 
ATOM     87  C   UNL A   1      47.168  33.164  30.088  1.00  0.00     0.010 A 
ATOM     88  C   UNL A   1      46.633  33.696  27.781  1.00  0.00     0.010 A 
ATOM     89  C   UNL A   1      47.609  34.475  30.286  1.00  0.00     0.020 A 
ATOM     90  C   UNL A   1      47.098  35.000  27.969  1.00  0.00     0.020 A 
ATOM     91  C   UNL A   1      47.570  35.386  29.225  1.00  0.00     0.054 A 
BRANCH  91  92
ATOM     92  S   UNL A   1      48.188  37.070  29.495  1.00  0.00     0.124 S 
ATOM     93  O   UNL A   1      48.632  37.011  30.885  1.00  0.00    -0.237 OA
ATOM     94  O   UNL A   1      49.250  37.187  28.500  1.00  0.00    -0.237 OA
ATOM     95  O   UNL A   1      47.019  37.910  29.250  1.00  0.00    -0.744 OA
ENDBRANCH  91  92
ENDBRANCH  65  86
ENDBRANCH  39  40
ENDBRANCH  31  34
ENDBRANCH  29  30
ENDBRANCH  28  29
ENDBRANCH   1  28
TORSDOF 19
ENDMDL
MODEL 3
REMARK VINA RESULT:     -10.8      5.939     10.440
REMARK SMILES COC(=O)[C@@H]1C[C@@H](C(=O)NCCCCCCNC(=O)c2ccc(-c3c4nc(c(-c5ccc(S(=O)(=O)[O-])cc5)c5ccc([nH]5)c(-c5ccc(S(=O)(=O)[O-])cc5)c5nc(c(-c6ccc(S(=O)(=O)[O-])cc6)c6ccc3[nH]6)C=C5)C=C4)cc2)[C@@H](c2cccc(F)c2F)[N@H+]1C
REMARK SMILES IDX 14 1 13 2 12 3 11 4 10 5 8 6 9 7 7 9 5 10 6 11 89 12 80 13
REMARK SMILES IDX 90 14 3 16 4 17 2 18 1 19 81 20 82 21 87 22 83 23 85 24
REMARK SMILES IDX 88 25 84 26 86 27 15 28 16 29 17 30 18 31 19 33 20 34 21 35
REMARK SMILES IDX 79 36 22 37 78 38 23 39 24 40 25 41 72 42 26 43 77 44 71 45
REMARK SMILES IDX 73 46 27 47 76 48 70 49 69 50 28 52 58 53 39 54 57 55 40 56
REMARK SMILES IDX 43 57 56 58 74 59 41 60 42 61 55 63 75 64 44 65 29 66 30 67
REMARK SMILES IDX 38 68 31 69 37 70 32 71 33 72 34 73 35 74 36 75 59 76 60 77
REMARK SMILES IDX 68 78 61 79 67 80 62 81 63 82 64 83 65 84 66 85 45 86 46 87
REMARK SMILES IDX 54 88 47 89 53 90 48 91 49 92 50 93 51 94 52 95
REMARK H PARENT 10 8 89 15 17 32 73 51 43 62
REMARK Flexibility Score: inf
ROOT
ATOM      1  C   UNL A   1      31.997  30.079  26.708  1.00  0.00     0.002 C 
ENDROOT
BRANCH   1   2
ATOM      2  C   UNL A   1      33.414  29.580  27.006  1.00  0.00     0.002 C 
BRANCH   2   3
ATOM      3  C   UNL A   1      33.966  28.614  25.952  1.00  0.00     0.021 C 
BRANCH   3   4
ATOM      4  C   UNL A   1      33.401  28.845  24.557  1.00  0.00     0.116 C 
BRANCH   4   5
ATOM      5  N   UNL A   1      33.841  27.836  23.607  1.00  0.00    -0.356 N 
ATOM      6  C   UNL A   1      33.224  27.117  22.639  1.00  0.00     0.229 C 
ATOM      7  O   UNL A   1      33.945  26.318  22.025  1.00  0.00    -0.275 OA
ATOM      8  H   UNL A   1      34.801  27.631  23.684  1.00  0.00     0.163 HD
BRANCH   6   9
ATOM      9  C   UNL A   1      31.750  27.221  22.258  1.00  0.00     0.148 C 
ATOM     10  C   UNL A   1      30.135  28.803  23.072  1.00  0.00     0.296 C 
ATOM     11  C   UNL A   1      31.304  28.677  22.121  1.00  0.00     0.097 C 
ATOM     12  N   UNL A   1      29.524  27.473  22.935  1.00  0.00    -0.319 N 
ATOM     13  C   UNL A   1      30.590  26.434  22.983  1.00  0.00     0.231 C 
ATOM     14  C   UNL A   1      28.258  27.324  23.609  1.00  0.00     0.333 C 
ATOM     15  H   UNL A   1      29.127  27.313  22.009  1.00  0.00     0.349 HD
BRANCH  10  16
ATOM     16  C   UNL A   1      29.290  30.005  22.656  1.00  0.00     0.364 C 
ATOM     17  O   UNL A   1      28.942  30.188  21.493  1.00  0.00    -0.245 OA
BRANCH  16  18
ATOM     18  O   UNL A   1      28.904  30.784  23.702  1.00  0.00    -0.465 OA
ATOM     19  C   UNL A   1      27.731  31.557  23.445  1.00  0.00     0.282 C 
ENDBRANCH  16  18
ENDBRANCH  10  16
BRANCH  13  20
ATOM     20  C   UNL A   1      30.930  25.609  24.237  1.00  0.00     0.049 A 
ATOM     21  C   UNL A   1      31.286  26.287  25.431  1.00  0.00     0.013 A 
ATOM     22  C   UNL A   1      31.093  24.216  24.316  1.00  0.00     0.167 A 
ATOM     23  C   UNL A   1      31.543  25.630  26.649  1.00  0.00     0.004 A 
ATOM     24  C   UNL A   1      31.363  23.553  25.522  1.00  0.00     0.159 A 
ATOM     25  F   UNL A   1      31.086  23.429  23.240  1.00  0.00    -0.203 F 
ATOM     26  C   UNL A   1      31.548  24.247  26.701  1.00  0.00     0.042 A 
ATOM     27  F   UNL A   1      31.474  22.216  25.532  1.00  0.00    -0.204 F 
ENDBRANCH  13  20
ENDBRANCH   6   9
ENDBRANCH   4   5
ENDBRANCH   3   4
ENDBRANCH   2   3
ENDBRANCH   1   2
BRANCH   1  28
ATOM     28  C   UNL A   1      31.826  31.601  26.756  1.00  0.00     0.021 C 
BRANCH  28  29
ATOM     29  C   UNL A   1      33.012  32.356  27.350  1.00  0.00     0.116 C 
BRANCH  29  30
ATOM     30  N   UNL A   1      32.684  33.750  27.602  1.00  0.00    -0.352 N 
ATOM     31  C   UNL A   1      33.151  34.563  28.605  1.00  0.00     0.251 C 
ATOM     32  H   UNL A   1      32.049  34.164  26.973  1.00  0.00     0.163 HD
ATOM     33  O   UNL A   1      32.604  35.641  28.840  1.00  0.00    -0.269 OA
BRANCH  31  34
ATOM     34  C   UNL A   1      34.307  34.122  29.409  1.00  0.00     0.039 A 
ATOM     35  C   UNL A   1      34.089  33.489  30.633  1.00  0.00     0.014 A 
ATOM     36  C   UNL A   1      35.608  34.315  28.931  1.00  0.00     0.014 A 
ATOM     37  C   UNL A   1      35.178  33.002  31.358  1.00  0.00     0.010 A 
ATOM     38  C   UNL A   1      36.686  33.775  29.625  1.00  0.00     0.010 A 
ATOM     39  C   UNL A   1      36.483  33.116  30.847  1.00  0.00    -0.014 A 
BRANCH  39  40
ATOM     40  C   UNL A   1      37.643  32.549  31.580  1.00  0.00     0.031 A 
ATOM     41  C   UNL A   1      38.375  31.353  31.035  1.00  0.00     0.074 A 
ATOM     42  C   UNL A   1      38.005  33.079  32.765  1.00  0.00     0.049 A 
ATOM     43  N   UNL A   1      39.399  30.713  31.540  1.00  0.00    -0.248 NA
ATOM     44  C   UNL A   1      37.879  30.788  29.769  1.00  0.00     0.031 C 
ATOM     45  C   UNL A   1      37.342  34.207  33.426  1.00  0.00     0.029 A 
ATOM     46  N   UNL A   1      39.018  32.739  33.626  1.00  0.00    -0.354 N 
ATOM     47  C   UNL A   1      39.660  29.666  30.664  1.00  0.00     0.074 A 
ATOM     48  C   UNL A   1      38.658  29.727  29.622  1.00  0.00     0.031 C 
ATOM     49  C   UNL A   1      37.983  34.482  34.574  1.00  0.00     0.029 A 
ATOM     50  C   UNL A   1      39.080  33.534  34.747  1.00  0.00     0.049 A 
ATOM     51  H   UNL A   1      39.641  31.996  33.458  1.00  0.00     0.167 HD
ATOM     52  C   UNL A   1      40.656  28.749  30.711  1.00  0.00     0.031 A 
ATOM     53  C   UNL A   1      39.925  33.505  35.796  1.00  0.00     0.031 A 
ATOM     54  C   UNL A   1      41.656  28.696  31.743  1.00  0.00     0.049 A 
ATOM     55  C   UNL A   1      41.027  32.483  35.822  1.00  0.00     0.074 A 
ATOM     56  C   UNL A   1      42.741  27.844  31.847  1.00  0.00     0.029 A 
ATOM     57  N   UNL A   1      41.693  29.528  32.852  1.00  0.00    -0.354 N 
ATOM     58  N   UNL A   1      41.305  31.549  34.944  1.00  0.00    -0.248 NA
ATOM     59  C   UNL A   1      41.939  32.520  36.974  1.00  0.00     0.031 C 
ATOM     60  C   UNL A   1      43.409  28.129  33.043  1.00  0.00     0.029 A 
ATOM     61  C   UNL A   1      42.770  29.194  33.658  1.00  0.00     0.049 A 
ATOM     62  H   UNL A   1      41.049  30.248  33.040  1.00  0.00     0.167 HD
ATOM     63  C   UNL A   1      42.438  30.902  35.426  1.00  0.00     0.074 A 
ATOM     64  C   UNL A   1      42.802  31.562  36.663  1.00  0.00     0.031 C 
ATOM     65  C   UNL A   1      43.115  29.857  34.890  1.00  0.00     0.031 A 
BRANCH  52  66
ATOM     66  C   UNL A   1      40.706  27.722  29.610  1.00  0.00    -0.014 A 
ATOM     67  C   UNL A   1      41.707  27.768  28.623  1.00  0.00     0.010 A 
ATOM     68  C   UNL A   1      39.762  26.681  29.579  1.00  0.00     0.010 A 
ATOM     69  C   UNL A   1      41.736  26.816  27.599  1.00  0.00     0.020 A 
ATOM     70  C   UNL A   1      39.804  25.710  28.572  1.00  0.00     0.020 A 
ATOM     71  C   UNL A   1      40.780  25.797  27.578  1.00  0.00     0.054 A 
BRANCH  71  72
ATOM     72  S   UNL A   1      40.851  24.565  26.247  1.00  0.00     0.124 S 
ATOM     73  O   UNL A   1      41.469  25.328  25.165  1.00  0.00    -0.237 OA
ATOM     74  O   UNL A   1      41.682  23.513  26.828  1.00  0.00    -0.237 OA
ATOM     75  O   UNL A   1      39.451  24.203  26.035  1.00  0.00    -0.744 OA
ENDBRANCH  71  72
ENDBRANCH  52  66
BRANCH  53  76
ATOM     76  C   UNL A   1      39.775  34.498  36.894  1.00  0.00    -0.014 A 
ATOM     77  C   UNL A   1      40.387  35.759  36.804  1.00  0.00     0.010 A 
ATOM     78  C   UNL A   1      38.998  34.193  38.028  1.00  0.00     0.010 A 
ATOM     79  C   UNL A   1      40.236  36.695  37.831  1.00  0.00     0.020 A 
ATOM     80  C   UNL A   1      38.824  35.136  39.045  1.00  0.00     0.020 A 
ATOM     81  C   UNL A   1      39.454  36.378  38.944  1.00  0.00     0.054 A 
BRANCH  81  82
ATOM     82  S   UNL A   1      39.221  37.631  40.237  1.00  0.00     0.124 S 
ATOM     83  O   UNL A   1      38.212  38.500  39.639  1.00  0.00    -0.237 OA
ATOM     84  O   UNL A   1      38.775  36.832  41.376  1.00  0.00    -0.237 OA
ATOM     85  O   UNL A   1      40.550  38.220  40.383  1.00  0.00    -0.744 OA
ENDBRANCH  81  82
ENDBRANCH  53  76
BRANCH  65  86
ATOM     86  C   UNL A   1      44.337  29.375  35.626  1.00  0.00    -0.014 A 
ATOM     87  C   UNL A   1      44.240  28.398  36.632  1.00  0.00     0.010 A 
ATOM     88  C   UNL A   1      45.603  29.872  35.269  1.00  0.00     0.010 A 
ATOM     89  C   UNL A   1      45.388  27.949  37.291  1.00  0.00     0.020 A 
ATOM     90  C   UNL A   1      46.755  29.407  35.908  1.00  0.00     0.020 A 
ATOM     91  C   UNL A   1      46.639  28.458  36.926  1.00  0.00     0.054 A 
BRANCH  91  92
ATOM     92  S   UNL A   1      48.118  27.830  37.767  1.00  0.00     0.124 S 
ATOM     93  O   UNL A   1      48.961  29.021  37.828  1.00  0.00    -0.237 OA
ATOM     94  O   UNL A   1      47.589  27.368  39.048  1.00  0.00    -0.237 OA
ATOM     95  O   UNL A   1      48.597  26.772  36.880  1.00  0.00    -0.744 OA
ENDBRANCH  91  92
ENDBRANCH  65  86
ENDBRANCH  39  40
ENDBRANCH  31  34
ENDBRANCH  29  30
ENDBRANCH  28  29
ENDBRANCH   1  28
TORSDOF 19
ENDMDL
