MODEL 1
REMARK VINA RESULT:      -8.9      0.000      0.000
REMARK SMILES CCOc1oc(C[C@H]2CCCCO2)nc1C(=O)NCCCCCCNC(=O)c1ccc(-c2c3nc(c(-c4ccc(S(=O)(=O)[O-])cc4)c4ccc([nH]4)c(-c4ccc(S(=O)(=O)[O-])cc4)c4nc(c(-c5ccc(S(=O)(=O)[O-])cc5)c5ccc2[nH]5)C=C4)C=C3)cc1
REMARK SMILES IDX 22 1 21 2 20 3 19 4 18 5 16 6 17 7 15 9 4 10 5 11 6 12 14 13
REMARK SMILES IDX 3 14 2 15 1 16 7 17 8 18 9 19 13 20 10 21 12 22 11 23 23 24
REMARK SMILES IDX 24 25 25 26 26 27 27 29 28 30 29 31 87 32 30 33 86 34 31 35
REMARK SMILES IDX 32 36 33 37 80 38 34 39 85 40 79 41 81 42 35 43 84 44 78 45
REMARK SMILES IDX 77 46 36 48 66 49 47 50 65 51 48 52 51 53 64 54 82 55 49 56
REMARK SMILES IDX 50 57 63 59 83 60 52 61 37 62 38 63 46 64 39 65 45 66 40 67
REMARK SMILES IDX 41 68 42 69 43 70 44 71 67 72 68 73 76 74 69 75 75 76 70 77
REMARK SMILES IDX 71 78 72 79 73 80 74 81 53 82 54 83 62 84 55 85 61 86 56 87
REMARK SMILES IDX 57 88 58 89 59 90 60 91
REMARK H PARENT 18 8 25 28 81 47 51 58
REMARK Flexibility Score: inf
ROOT
ATOM      1  C   UNL A   1      42.674  22.846  27.829  1.00  0.00     0.002 C 
ENDROOT
BRANCH   1   2
ATOM      2  C   UNL A   1      44.169  22.769  27.506  1.00  0.00     0.002 C 
BRANCH   2   3
ATOM      3  C   UNL A   1      45.025  23.938  28.001  1.00  0.00     0.021 C 
BRANCH   3   4
ATOM      4  C   UNL A   1      45.400  24.974  26.942  1.00  0.00     0.116 C 
BRANCH   4   5
ATOM      5  N   UNL A   1      44.294  25.282  26.055  1.00  0.00    -0.350 N 
ATOM      6  C   UNL A   1      44.018  26.408  25.321  1.00  0.00     0.277 C 
ATOM      7  O   UNL A   1      42.978  26.408  24.661  1.00  0.00    -0.267 OA
ATOM      8  H   UNL A   1      43.629  24.561  25.965  1.00  0.00     0.163 HD
BRANCH   6   9
ATOM      9  C   UNL A   1      44.923  27.546  25.350  1.00  0.00     0.212 A 
ATOM     10  C   UNL A   1      46.129  27.645  24.686  1.00  0.00     0.318 A 
ATOM     11  O   UNL A   1      46.710  28.837  25.009  1.00  0.00    -0.409 OA
ATOM     12  C   UNL A   1      45.838  29.398  25.899  1.00  0.00     0.202 A 
ATOM     13  N   UNL A   1      44.755  28.688  26.119  1.00  0.00    -0.204 NA
BRANCH  10  14
ATOM     14  O   UNL A   1      46.869  26.858  23.915  1.00  0.00    -0.464 OA
BRANCH  14  15
ATOM     15  C   UNL A   1      48.238  26.765  24.303  1.00  0.00     0.230 C 
ATOM     16  C   UNL A   1      49.160  27.109  23.146  1.00  0.00     0.049 C 
ENDBRANCH  14  15
ENDBRANCH  10  14
BRANCH  12  17
ATOM     17  C   UNL A   1      46.255  30.653  26.570  1.00  0.00     0.129 C 
BRANCH  17  18
ATOM     18  C   UNL A   1      45.103  31.665  26.606  1.00  0.00     0.127 C 
ATOM     19  C   UNL A   1      45.243  32.654  27.769  1.00  0.00     0.033 C 
ATOM     20  O   UNL A   1      45.104  32.395  25.368  1.00  0.00    -0.378 OA
ATOM     21  C   UNL A   1      44.130  33.697  27.731  1.00  0.00     0.005 C 
ATOM     22  C   UNL A   1      43.982  33.276  25.264  1.00  0.00     0.160 C 
ATOM     23  C   UNL A   1      44.041  34.338  26.352  1.00  0.00     0.029 C 
ENDBRANCH  17  18
ENDBRANCH  12  17
ENDBRANCH   6   9
ENDBRANCH   4   5
ENDBRANCH   3   4
ENDBRANCH   2   3
ENDBRANCH   1   2
BRANCH   1  24
ATOM     24  C   UNL A   1      41.728  22.275  26.772  1.00  0.00     0.021 C 
BRANCH  24  25
ATOM     25  C   UNL A   1      40.471  21.609  27.317  1.00  0.00     0.116 C 
BRANCH  25  26
ATOM     26  N   UNL A   1      39.297  21.912  26.520  1.00  0.00    -0.352 N 
ATOM     27  C   UNL A   1      38.612  23.096  26.403  1.00  0.00     0.251 C 
ATOM     28  H   UNL A   1      38.940  21.162  25.990  1.00  0.00     0.163 HD
ATOM     29  O   UNL A   1      37.534  23.126  25.819  1.00  0.00    -0.269 OA
BRANCH  27  30
ATOM     30  C   UNL A   1      39.168  24.331  27.001  1.00  0.00     0.039 A 
ATOM     31  C   UNL A   1      39.896  25.207  26.191  1.00  0.00     0.014 A 
ATOM     32  C   UNL A   1      38.976  24.624  28.355  1.00  0.00     0.014 A 
ATOM     33  C   UNL A   1      40.385  26.401  26.726  1.00  0.00     0.010 A 
ATOM     34  C   UNL A   1      39.402  25.846  28.868  1.00  0.00     0.010 A 
ATOM     35  C   UNL A   1      40.119  26.743  28.062  1.00  0.00    -0.014 A 
BRANCH  35  36
ATOM     36  C   UNL A   1      40.591  28.027  28.637  1.00  0.00     0.031 A 
ATOM     37  C   UNL A   1      42.025  28.180  29.065  1.00  0.00     0.074 A 
ATOM     38  C   UNL A   1      39.720  29.036  28.830  1.00  0.00     0.049 A 
ATOM     39  N   UNL A   1      42.616  29.208  29.622  1.00  0.00    -0.248 NA
ATOM     40  C   UNL A   1      42.905  27.018  28.863  1.00  0.00     0.031 C 
ATOM     41  C   UNL A   1      38.297  29.002  28.487  1.00  0.00     0.029 A 
ATOM     42  N   UNL A   1      39.905  30.286  29.363  1.00  0.00    -0.354 N 
ATOM     43  C   UNL A   1      43.927  28.808  29.857  1.00  0.00     0.074 A 
ATOM     44  C   UNL A   1      44.031  27.431  29.427  1.00  0.00     0.031 C 
ATOM     45  C   UNL A   1      37.746  30.190  28.783  1.00  0.00     0.029 A 
ATOM     46  C   UNL A   1      38.765  31.055  29.372  1.00  0.00     0.049 A 
ATOM     47  H   UNL A   1      40.770  30.603  29.707  1.00  0.00     0.167 HD
ATOM     48  C   UNL A   1      44.956  29.526  30.370  1.00  0.00     0.031 A 
ATOM     49  C   UNL A   1      38.563  32.315  29.801  1.00  0.00     0.031 A 
ATOM     50  C   UNL A   1      44.852  30.897  30.791  1.00  0.00     0.049 A 
ATOM     51  C   UNL A   1      39.713  33.090  30.378  1.00  0.00     0.074 A 
ATOM     52  C   UNL A   1      45.848  31.731  31.266  1.00  0.00     0.029 A 
ATOM     53  N   UNL A   1      43.677  31.635  30.793  1.00  0.00    -0.354 N 
ATOM     54  N   UNL A   1      40.961  32.717  30.537  1.00  0.00    -0.248 NA
ATOM     55  C   UNL A   1      39.430  34.460  30.828  1.00  0.00     0.031 C 
ATOM     56  C   UNL A   1      45.267  32.960  31.601  1.00  0.00     0.029 A 
ATOM     57  C   UNL A   1      43.919  32.907  31.286  1.00  0.00     0.049 A 
ATOM     58  H   UNL A   1      42.801  31.304  30.489  1.00  0.00     0.167 HD
ATOM     59  C   UNL A   1      41.618  33.815  31.080  1.00  0.00     0.074 A 
ATOM     60  C   UNL A   1      40.631  34.867  31.218  1.00  0.00     0.031 C 
ATOM     61  C   UNL A   1      42.923  33.940  31.427  1.00  0.00     0.031 A 
BRANCH  48  62
ATOM     62  C   UNL A   1      46.276  28.815  30.520  1.00  0.00    -0.014 A 
ATOM     63  C   UNL A   1      46.561  28.043  31.662  1.00  0.00     0.010 A 
ATOM     64  C   UNL A   1      47.252  28.936  29.516  1.00  0.00     0.010 A 
ATOM     65  C   UNL A   1      47.824  27.468  31.831  1.00  0.00     0.020 A 
ATOM     66  C   UNL A   1      48.507  28.337  29.666  1.00  0.00     0.020 A 
ATOM     67  C   UNL A   1      48.794  27.632  30.838  1.00  0.00     0.054 A 
BRANCH  67  68
ATOM     68  S   UNL A   1      50.437  26.908  31.093  1.00  0.00     0.124 S 
ATOM     69  O   UNL A   1      50.622  27.086  32.531  1.00  0.00    -0.237 OA
ATOM     70  O   UNL A   1      50.256  25.528  30.650  1.00  0.00    -0.237 OA
ATOM     71  O   UNL A   1      51.308  27.721  30.247  1.00  0.00    -0.744 OA
ENDBRANCH  67  68
ENDBRANCH  48  62
BRANCH  49  72
ATOM     72  C   UNL A   1      37.218  32.934  29.650  1.00  0.00    -0.014 A 
ATOM     73  C   UNL A   1      36.352  33.012  30.755  1.00  0.00     0.010 A 
ATOM     74  C   UNL A   1      36.818  33.494  28.423  1.00  0.00     0.010 A 
ATOM     75  C   UNL A   1      35.111  33.641  30.637  1.00  0.00     0.020 A 
ATOM     76  C   UNL A   1      35.586  34.145  28.308  1.00  0.00     0.020 A 
ATOM     77  C   UNL A   1      34.738  34.211  29.416  1.00  0.00     0.054 A 
BRANCH  77  78
ATOM     78  S   UNL A   1      33.160  35.101  29.314  1.00  0.00     0.124 S 
ATOM     79  O   UNL A   1      32.446  34.338  28.295  1.00  0.00    -0.237 OA
ATOM     80  O   UNL A   1      32.642  34.981  30.675  1.00  0.00    -0.237 OA
ATOM     81  O   UNL A   1      33.556  36.453  28.924  1.00  0.00    -0.744 OA
ENDBRANCH  77  78
ENDBRANCH  49  72
BRANCH  61  82
ATOM     82  C   UNL A   1      43.367  35.273  31.968  1.00  0.00    -0.014 A 
ATOM     83  C   UNL A   1      43.861  36.277  31.116  1.00  0.00     0.010 A 
ATOM     84  C   UNL A   1      43.239  35.541  33.343  1.00  0.00     0.010 A 
ATOM     85  C   UNL A   1      44.244  37.516  31.635  1.00  0.00     0.020 A 
ATOM     86  C   UNL A   1      43.598  36.787  33.862  1.00  0.00     0.020 A 
ATOM     87  C   UNL A   1      44.111  37.763  33.005  1.00  0.00     0.054 A 
BRANCH  87  88
ATOM     88  S   UNL A   1      44.571  39.396  33.649  1.00  0.00     0.124 S 
ATOM     89  O   UNL A   1      45.814  39.104  34.358  1.00  0.00    -0.237 OA
ATOM     90  O   UNL A   1      44.714  40.193  32.433  1.00  0.00    -0.237 OA
ATOM     91  O   UNL A   1      43.440  39.764  34.498  1.00  0.00    -0.744 OA
ENDBRANCH  87  88
ENDBRANCH  61  82
ENDBRANCH  35  36
ENDBRANCH  27  30
ENDBRANCH  25  26
ENDBRANCH  24  25
ENDBRANCH   1  24
TORSDOF 20
ENDMDL
MODEL 2
REMARK VINA RESULT:      -8.4      5.122     11.355
REMARK SMILES CCOc1oc(C[C@H]2CCCCO2)nc1C(=O)NCCCCCCNC(=O)c1ccc(-c2c3nc(c(-c4ccc(S(=O)(=O)[O-])cc4)c4ccc([nH]4)c(-c4ccc(S(=O)(=O)[O-])cc4)c4nc(c(-c5ccc(S(=O)(=O)[O-])cc5)c5ccc2[nH]5)C=C4)C=C3)cc1
REMARK SMILES IDX 22 1 21 2 20 3 19 4 18 5 16 6 17 7 15 9 4 10 5 11 6 12 14 13
REMARK SMILES IDX 3 14 2 15 1 16 7 17 8 18 9 19 13 20 10 21 12 22 11 23 23 24
REMARK SMILES IDX 24 25 25 26 26 27 27 29 28 30 29 31 87 32 30 33 86 34 31 35
REMARK SMILES IDX 32 36 33 37 80 38 34 39 85 40 79 41 81 42 35 43 84 44 78 45
REMARK SMILES IDX 77 46 36 48 66 49 47 50 65 51 48 52 51 53 64 54 82 55 49 56
REMARK SMILES IDX 50 57 63 59 83 60 52 61 37 62 38 63 46 64 39 65 45 66 40 67
REMARK SMILES IDX 41 68 42 69 43 70 44 71 67 72 68 73 76 74 69 75 75 76 70 77
REMARK SMILES IDX 71 78 72 79 73 80 74 81 53 82 54 83 62 84 55 85 61 86 56 87
REMARK SMILES IDX 57 88 58 89 59 90 60 91
REMARK H PARENT 18 8 25 28 81 47 51 58
REMARK Flexibility Score: inf
ROOT
ATOM      1  C   UNL A   1      38.092  23.801  26.329  1.00  0.00     0.002 C 
ENDROOT
BRANCH   1   2
ATOM      2  C   UNL A   1      37.110  23.323  25.256  1.00  0.00     0.002 C 
BRANCH   2   3
ATOM      3  C   UNL A   1      36.240  22.118  25.628  1.00  0.00     0.021 C 
BRANCH   3   4
ATOM      4  C   UNL A   1      34.773  22.431  25.920  1.00  0.00     0.116 C 
BRANCH   4   5
ATOM      5  N   UNL A   1      33.911  21.285  25.702  1.00  0.00    -0.350 N 
ATOM      6  C   UNL A   1      32.588  21.211  25.342  1.00  0.00     0.277 C 
ATOM      7  O   UNL A   1      32.092  20.088  25.251  1.00  0.00    -0.267 OA
ATOM      8  H   UNL A   1      34.348  20.413  25.836  1.00  0.00     0.163 HD
BRANCH   6   9
ATOM      9  C   UNL A   1      31.823  22.425  25.100  1.00  0.00     0.212 A 
ATOM     10  C   UNL A   1      31.607  23.020  23.873  1.00  0.00     0.318 A 
ATOM     11  O   UNL A   1      30.894  24.167  24.063  1.00  0.00    -0.409 OA
ATOM     12  C   UNL A   1      30.742  24.240  25.419  1.00  0.00     0.202 A 
ATOM     13  N   UNL A   1      31.252  23.224  26.078  1.00  0.00    -0.204 NA
BRANCH  10  14
ATOM     14  O   UNL A   1      31.985  22.803  22.620  1.00  0.00    -0.464 OA
BRANCH  14  15
ATOM     15  C   UNL A   1      33.229  23.402  22.263  1.00  0.00     0.230 C 
ATOM     16  C   UNL A   1      33.047  24.863  21.890  1.00  0.00     0.049 C 
ENDBRANCH  14  15
ENDBRANCH  10  14
BRANCH  12  17
ATOM     17  C   UNL A   1      30.131  25.471  25.976  1.00  0.00     0.129 C 
BRANCH  17  18
ATOM     18  C   UNL A   1      31.167  26.597  26.084  1.00  0.00     0.127 C 
ATOM     19  C   UNL A   1      31.012  27.630  24.961  1.00  0.00     0.033 C 
ATOM     20  O   UNL A   1      30.991  27.253  27.351  1.00  0.00    -0.378 OA
ATOM     21  C   UNL A   1      31.999  28.779  25.141  1.00  0.00     0.005 C 
ATOM     22  C   UNL A   1      32.000  28.238  27.589  1.00  0.00     0.160 C 
ATOM     23  C   UNL A   1      31.912  29.348  26.552  1.00  0.00     0.029 C 
ENDBRANCH  17  18
ENDBRANCH  12  17
ENDBRANCH   6   9
ENDBRANCH   4   5
ENDBRANCH   3   4
ENDBRANCH   2   3
ENDBRANCH   1   2
BRANCH   1  24
ATOM     24  C   UNL A   1      39.241  22.848  26.661  1.00  0.00     0.021 C 
BRANCH  24  25
ATOM     25  C   UNL A   1      40.549  23.520  27.055  1.00  0.00     0.116 C 
BRANCH  25  26
ATOM     26  N   UNL A   1      41.085  24.349  25.991  1.00  0.00    -0.352 N 
ATOM     27  C   UNL A   1      41.327  25.701  25.987  1.00  0.00     0.251 C 
ATOM     28  H   UNL A   1      41.306  23.877  25.156  1.00  0.00     0.163 HD
ATOM     29  O   UNL A   1      41.618  26.269  24.938  1.00  0.00    -0.269 OA
BRANCH  27  30
ATOM     30  C   UNL A   1      41.213  26.475  27.244  1.00  0.00     0.039 A 
ATOM     31  C   UNL A   1      42.113  27.518  27.480  1.00  0.00     0.014 A 
ATOM     32  C   UNL A   1      40.225  26.173  28.187  1.00  0.00     0.014 A 
ATOM     33  C   UNL A   1      41.990  28.291  28.637  1.00  0.00     0.010 A 
ATOM     34  C   UNL A   1      40.060  26.989  29.303  1.00  0.00     0.010 A 
ATOM     35  C   UNL A   1      40.946  28.050  29.545  1.00  0.00    -0.014 A 
BRANCH  35  36
ATOM     36  C   UNL A   1      40.771  28.888  30.757  1.00  0.00     0.031 A 
ATOM     37  C   UNL A   1      39.682  29.924  30.807  1.00  0.00     0.074 A 
ATOM     38  C   UNL A   1      41.626  28.760  31.790  1.00  0.00     0.049 A 
ATOM     39  N   UNL A   1      39.396  30.776  31.759  1.00  0.00    -0.248 NA
ATOM     40  C   UNL A   1      38.817  30.034  29.621  1.00  0.00     0.031 C 
ATOM     41  C   UNL A   1      42.743  27.815  31.852  1.00  0.00     0.029 A 
ATOM     42  N   UNL A   1      41.690  29.429  32.986  1.00  0.00    -0.354 N 
ATOM     43  C   UNL A   1      38.335  31.536  31.280  1.00  0.00     0.074 A 
ATOM     44  C   UNL A   1      38.061  31.076  29.935  1.00  0.00     0.031 C 
ATOM     45  C   UNL A   1      43.357  27.939  33.040  1.00  0.00     0.029 A 
ATOM     46  C   UNL A   1      42.703  28.996  33.806  1.00  0.00     0.049 A 
ATOM     47  H   UNL A   1      41.068  30.151  33.232  1.00  0.00     0.167 HD
ATOM     48  C   UNL A   1      37.639  32.517  31.905  1.00  0.00     0.031 A 
ATOM     49  C   UNL A   1      43.065  29.400  35.039  1.00  0.00     0.031 A 
ATOM     50  C   UNL A   1      37.909  32.968  33.243  1.00  0.00     0.049 A 
ATOM     51  C   UNL A   1      42.290  30.498  35.711  1.00  0.00     0.074 A 
ATOM     52  C   UNL A   1      37.224  33.912  33.989  1.00  0.00     0.029 A 
ATOM     53  N   UNL A   1      38.951  32.511  34.036  1.00  0.00    -0.354 N 
ATOM     54  N   UNL A   1      41.251  31.164  35.266  1.00  0.00    -0.248 NA
ATOM     55  C   UNL A   1      42.732  30.894  37.055  1.00  0.00     0.031 C 
ATOM     56  C   UNL A   1      37.882  34.059  35.217  1.00  0.00     0.029 A 
ATOM     57  C   UNL A   1      38.945  33.171  35.254  1.00  0.00     0.049 A 
ATOM     58  H   UNL A   1      39.600  31.819  33.772  1.00  0.00     0.167 HD
ATOM     59  C   UNL A   1      40.898  32.040  36.286  1.00  0.00     0.074 A 
ATOM     60  C   UNL A   1      41.831  31.815  37.372  1.00  0.00     0.031 C 
ATOM     61  C   UNL A   1      39.888  32.944  36.321  1.00  0.00     0.031 A 
BRANCH  48  62
ATOM     62  C   UNL A   1      36.535  33.178  31.121  1.00  0.00    -0.014 A 
ATOM     63  C   UNL A   1      36.807  33.883  29.933  1.00  0.00     0.010 A 
ATOM     64  C   UNL A   1      35.211  33.111  31.588  1.00  0.00     0.010 A 
ATOM     65  C   UNL A   1      35.787  34.570  29.268  1.00  0.00     0.020 A 
ATOM     66  C   UNL A   1      34.182  33.772  30.909  1.00  0.00     0.020 A 
ATOM     67  C   UNL A   1      34.484  34.522  29.770  1.00  0.00     0.054 A 
BRANCH  67  68
ATOM     68  S   UNL A   1      33.183  35.450  28.913  1.00  0.00     0.124 S 
ATOM     69  O   UNL A   1      32.402  35.973  30.032  1.00  0.00    -0.237 OA
ATOM     70  O   UNL A   1      33.939  36.446  28.157  1.00  0.00    -0.237 OA
ATOM     71  O   UNL A   1      32.511  34.437  28.104  1.00  0.00    -0.744 OA
ENDBRANCH  67  68
ENDBRANCH  48  62
BRANCH  49  72
ATOM     72  C   UNL A   1      44.192  28.719  35.732  1.00  0.00    -0.014 A 
ATOM     73  C   UNL A   1      43.947  27.580  36.519  1.00  0.00     0.010 A 
ATOM     74  C   UNL A   1      45.514  29.169  35.569  1.00  0.00     0.010 A 
ATOM     75  C   UNL A   1      45.005  26.900  37.128  1.00  0.00     0.020 A 
ATOM     76  C   UNL A   1      46.577  28.478  36.158  1.00  0.00     0.020 A 
ATOM     77  C   UNL A   1      46.315  27.350  36.938  1.00  0.00     0.054 A 
BRANCH  77  78
ATOM     78  S   UNL A   1      47.678  26.398  37.665  1.00  0.00     0.124 S 
ATOM     79  O   UNL A   1      47.173  26.120  39.006  1.00  0.00    -0.237 OA
ATOM     80  O   UNL A   1      47.771  25.246  36.771  1.00  0.00    -0.237 OA
ATOM     81  O   UNL A   1      48.810  27.319  37.599  1.00  0.00    -0.744 OA
ENDBRANCH  77  78
ENDBRANCH  49  72
BRANCH  61  82
ATOM     82  C   UNL A   1      39.721  33.743  37.585  1.00  0.00    -0.014 A 
ATOM     83  C   UNL A   1      40.167  35.074  37.670  1.00  0.00     0.010 A 
ATOM     84  C   UNL A   1      39.063  33.168  38.688  1.00  0.00     0.010 A 
ATOM     85  C   UNL A   1      39.979  35.807  38.845  1.00  0.00     0.020 A 
ATOM     86  C   UNL A   1      38.851  33.906  39.855  1.00  0.00     0.020 A 
ATOM     87  C   UNL A   1      39.324  35.218  39.930  1.00  0.00     0.054 A 
BRANCH  87  88
ATOM     88  S   UNL A   1      39.050  36.204  41.429  1.00  0.00     0.124 S 
ATOM     89  O   UNL A   1      37.808  35.637  41.944  1.00  0.00    -0.237 OA
ATOM     90  O   UNL A   1      40.245  35.924  42.221  1.00  0.00    -0.237 OA
ATOM     91  O   UNL A   1      38.951  37.573  40.927  1.00  0.00    -0.744 OA
ENDBRANCH  87  88
ENDBRANCH  61  82
ENDBRANCH  35  36
ENDBRANCH  27  30
ENDBRANCH  25  26
ENDBRANCH  24  25
ENDBRANCH   1  24
TORSDOF 20
ENDMDL
MODEL 3
REMARK VINA RESULT:      -8.3      4.850      8.728
REMARK SMILES CCOc1oc(C[C@H]2CCCCO2)nc1C(=O)NCCCCCCNC(=O)c1ccc(-c2c3nc(c(-c4ccc(S(=O)(=O)[O-])cc4)c4ccc([nH]4)c(-c4ccc(S(=O)(=O)[O-])cc4)c4nc(c(-c5ccc(S(=O)(=O)[O-])cc5)c5ccc2[nH]5)C=C4)C=C3)cc1
REMARK SMILES IDX 22 1 21 2 20 3 19 4 18 5 16 6 17 7 15 9 4 10 5 11 6 12 14 13
REMARK SMILES IDX 3 14 2 15 1 16 7 17 8 18 9 19 13 20 10 21 12 22 11 23 23 24
REMARK SMILES IDX 24 25 25 26 26 27 27 29 28 30 29 31 87 32 30 33 86 34 31 35
REMARK SMILES IDX 32 36 33 37 80 38 34 39 85 40 79 41 81 42 35 43 84 44 78 45
REMARK SMILES IDX 77 46 36 48 66 49 47 50 65 51 48 52 51 53 64 54 82 55 49 56
REMARK SMILES IDX 50 57 63 59 83 60 52 61 37 62 38 63 46 64 39 65 45 66 40 67
REMARK SMILES IDX 41 68 42 69 43 70 44 71 67 72 68 73 76 74 69 75 75 76 70 77
REMARK SMILES IDX 71 78 72 79 73 80 74 81 53 82 54 83 62 84 55 85 61 86 56 87
REMARK SMILES IDX 57 88 58 89 59 90 60 91
REMARK H PARENT 18 8 25 28 81 47 51 58
REMARK Flexibility Score: inf
ROOT
ATOM      1  C   UNL A   1      39.391  22.783  26.440  1.00  0.00     0.002 C 
ENDROOT
BRANCH   1   2
ATOM      2  C   UNL A   1      39.110  21.476  25.692  1.00  0.00     0.002 C 
BRANCH   2   3
ATOM      3  C   UNL A   1      37.636  21.168  25.407  1.00  0.00     0.021 C 
BRANCH   3   4
ATOM      4  C   UNL A   1      36.676  22.347  25.562  1.00  0.00     0.116 C 
BRANCH   4   5
ATOM      5  N   UNL A   1      35.769  22.177  26.680  1.00  0.00    -0.350 N 
ATOM      6  C   UNL A   1      34.454  21.783  26.719  1.00  0.00     0.277 C 
ATOM      7  O   UNL A   1      33.910  21.748  27.823  1.00  0.00    -0.267 OA
ATOM      8  H   UNL A   1      36.162  22.378  27.560  1.00  0.00     0.163 HD
BRANCH   6   9
ATOM      9  C   UNL A   1      33.752  21.442  25.491  1.00  0.00     0.212 A 
ATOM     10  C   UNL A   1      33.035  22.313  24.694  1.00  0.00     0.318 A 
ATOM     11  O   UNL A   1      32.478  21.607  23.668  1.00  0.00    -0.409 OA
ATOM     12  C   UNL A   1      32.851  20.316  23.914  1.00  0.00     0.202 A 
ATOM     13  N   UNL A   1      33.624  20.166  24.965  1.00  0.00    -0.204 NA
BRANCH  10  14
ATOM     14  O   UNL A   1      32.699  23.596  24.734  1.00  0.00    -0.464 OA
BRANCH  14  15
ATOM     15  C   UNL A   1      33.724  24.491  24.308  1.00  0.00     0.230 C 
ATOM     16  C   UNL A   1      34.148  25.414  25.437  1.00  0.00     0.049 C 
ENDBRANCH  14  15
ENDBRANCH  10  14
BRANCH  12  17
ATOM     17  C   UNL A   1      32.272  19.258  23.051  1.00  0.00     0.129 C 
BRANCH  17  18
ATOM     18  C   UNL A   1      32.541  17.866  23.636  1.00  0.00     0.127 C 
ATOM     19  C   UNL A   1      34.003  17.441  23.458  1.00  0.00     0.033 C 
ATOM     20  O   UNL A   1      32.230  17.897  25.038  1.00  0.00    -0.378 OA
ATOM     21  C   UNL A   1      34.260  16.091  24.120  1.00  0.00     0.005 C 
ATOM     22  C   UNL A   1      32.332  16.603  25.639  1.00  0.00     0.160 C 
ATOM     23  C   UNL A   1      33.765  16.096  25.561  1.00  0.00     0.029 C 
ENDBRANCH  17  18
ENDBRANCH  12  17
ENDBRANCH   6   9
ENDBRANCH   4   5
ENDBRANCH   3   4
ENDBRANCH   2   3
ENDBRANCH   1   2
BRANCH   1  24
ATOM     24  C   UNL A   1      40.374  22.691  27.607  1.00  0.00     0.021 C 
BRANCH  24  25
ATOM     25  C   UNL A   1      41.811  23.073  27.279  1.00  0.00     0.116 C 
BRANCH  25  26
ATOM     26  N   UNL A   1      41.901  23.919  26.103  1.00  0.00    -0.352 N 
ATOM     27  C   UNL A   1      41.700  25.273  25.993  1.00  0.00     0.251 C 
ATOM     28  H   UNL A   1      42.139  23.457  25.266  1.00  0.00     0.163 HD
ATOM     29  O   UNL A   1      41.645  25.797  24.885  1.00  0.00    -0.269 OA
BRANCH  27  30
ATOM     30  C   UNL A   1      41.527  26.094  27.213  1.00  0.00     0.039 A 
ATOM     31  C   UNL A   1      42.601  26.864  27.668  1.00  0.00     0.014 A 
ATOM     32  C   UNL A   1      40.313  26.102  27.908  1.00  0.00     0.014 A 
ATOM     33  C   UNL A   1      42.440  27.683  28.788  1.00  0.00     0.010 A 
ATOM     34  C   UNL A   1      40.134  26.972  28.980  1.00  0.00     0.010 A 
ATOM     35  C   UNL A   1      41.198  27.764  29.437  1.00  0.00    -0.014 A 
BRANCH  35  36
ATOM     36  C   UNL A   1      40.994  28.661  30.602  1.00  0.00     0.031 A 
ATOM     37  C   UNL A   1      41.862  28.522  31.823  1.00  0.00     0.074 A 
ATOM     38  C   UNL A   1      39.993  29.562  30.587  1.00  0.00     0.049 A 
ATOM     39  N   UNL A   1      41.813  29.186  32.951  1.00  0.00    -0.248 NA
ATOM     40  C   UNL A   1      42.905  27.485  31.780  1.00  0.00     0.031 C 
ATOM     41  C   UNL A   1      39.062  29.774  29.477  1.00  0.00     0.029 A 
ATOM     42  N   UNL A   1      39.590  30.467  31.537  1.00  0.00    -0.354 N 
ATOM     43  C   UNL A   1      42.801  28.632  33.758  1.00  0.00     0.074 A 
ATOM     44  C   UNL A   1      43.399  27.549  33.008  1.00  0.00     0.031 C 
ATOM     45  C   UNL A   1      38.221  30.772  29.794  1.00  0.00     0.029 A 
ATOM     46  C   UNL A   1      38.528  31.243  31.142  1.00  0.00     0.049 A 
ATOM     47  H   UNL A   1      40.022  30.551  32.417  1.00  0.00     0.167 HD
ATOM     48  C   UNL A   1      43.188  29.000  35.003  1.00  0.00     0.031 A 
ATOM     49  C   UNL A   1      37.875  32.228  31.789  1.00  0.00     0.031 A 
ATOM     50  C   UNL A   1      42.596  30.081  35.744  1.00  0.00     0.049 A 
ATOM     51  C   UNL A   1      38.310  32.613  33.174  1.00  0.00     0.074 A 
ATOM     52  C   UNL A   1      42.955  30.573  36.987  1.00  0.00     0.029 A 
ATOM     53  N   UNL A   1      41.515  30.836  35.313  1.00  0.00    -0.354 N 
ATOM     54  N   UNL A   1      39.286  32.120  33.898  1.00  0.00    -0.248 NA
ATOM     55  C   UNL A   1      37.559  33.694  33.828  1.00  0.00     0.031 C 
ATOM     56  C   UNL A   1      42.061  31.595  37.328  1.00  0.00     0.029 A 
ATOM     57  C   UNL A   1      41.177  31.773  36.276  1.00  0.00     0.049 A 
ATOM     58  H   UNL A   1      41.055  30.723  34.449  1.00  0.00     0.167 HD
ATOM     59  C   UNL A   1      39.284  32.847  35.083  1.00  0.00     0.074 A 
ATOM     60  C   UNL A   1      38.213  33.818  34.975  1.00  0.00     0.031 C 
ATOM     61  C   UNL A   1      40.101  32.726  36.158  1.00  0.00     0.031 A 
BRANCH  48  62
ATOM     62  C   UNL A   1      44.292  28.198  35.641  1.00  0.00    -0.014 A 
ATOM     63  C   UNL A   1      45.645  28.519  35.422  1.00  0.00     0.010 A 
ATOM     64  C   UNL A   1      43.974  27.094  36.452  1.00  0.00     0.010 A 
ATOM     65  C   UNL A   1      46.658  27.709  35.943  1.00  0.00     0.020 A 
ATOM     66  C   UNL A   1      44.985  26.298  36.999  1.00  0.00     0.020 A 
ATOM     67  C   UNL A   1      46.320  26.594  36.715  1.00  0.00     0.054 A 
BRANCH  67  68
ATOM     68  S   UNL A   1      47.649  25.536  37.351  1.00  0.00     0.124 S 
ATOM     69  O   UNL A   1      47.941  26.163  38.637  1.00  0.00    -0.237 OA
ATOM     70  O   UNL A   1      47.012  24.223  37.423  1.00  0.00    -0.237 OA
ATOM     71  O   UNL A   1      48.701  25.660  36.344  1.00  0.00    -0.744 OA
ENDBRANCH  67  68
ENDBRANCH  48  62
BRANCH  49  72
ATOM     72  C   UNL A   1      36.769  32.949  31.102  1.00  0.00    -0.014 A 
ATOM     73  C   UNL A   1      37.061  33.968  30.178  1.00  0.00     0.010 A 
ATOM     74  C   UNL A   1      35.428  32.587  31.324  1.00  0.00     0.010 A 
ATOM     75  C   UNL A   1      36.033  34.611  29.487  1.00  0.00     0.020 A 
ATOM     76  C   UNL A   1      34.397  33.214  30.617  1.00  0.00     0.020 A 
ATOM     77  C   UNL A   1      34.707  34.225  29.704  1.00  0.00     0.054 A 
BRANCH  77  78
ATOM     78  S   UNL A   1      33.397  35.015  28.728  1.00  0.00     0.124 S 
ATOM     79  O   UNL A   1      32.780  33.870  28.064  1.00  0.00    -0.237 OA
ATOM     80  O   UNL A   1      32.586  35.665  29.755  1.00  0.00    -0.237 OA
ATOM     81  O   UNL A   1      34.128  35.929  27.853  1.00  0.00    -0.744 OA
ENDBRANCH  77  78
ENDBRANCH  49  72
BRANCH  61  82
ATOM     82  C   UNL A   1      39.885  33.683  37.299  1.00  0.00    -0.014 A 
ATOM     83  C   UNL A   1      40.514  34.940  37.324  1.00  0.00     0.010 A 
ATOM     84  C   UNL A   1      38.999  33.339  38.336  1.00  0.00     0.010 A 
ATOM     85  C   UNL A   1      40.281  35.825  38.380  1.00  0.00     0.020 A 
ATOM     86  C   UNL A   1      38.744  34.231  39.381  1.00  0.00     0.020 A 
ATOM     87  C   UNL A   1      39.397  35.464  39.402  1.00  0.00     0.054 A 
BRANCH  87  88
ATOM     88  S   UNL A   1      39.074  36.649  40.738  1.00  0.00     0.124 S 
ATOM     89  O   UNL A   1      40.425  36.996  41.170  1.00  0.00    -0.237 OA
ATOM     90  O   UNL A   1      38.339  37.711  40.056  1.00  0.00    -0.237 OA
ATOM     91  O   UNL A   1      38.290  35.877  41.701  1.00  0.00    -0.744 OA
ENDBRANCH  87  88
ENDBRANCH  61  82
ENDBRANCH  35  36
ENDBRANCH  27  30
ENDBRANCH  25  26
ENDBRANCH  24  25
ENDBRANCH   1  24
TORSDOF 20
ENDMDL
