MODEL 1
REMARK VINA RESULT:     -11.4      0.000      0.000
REMARK SMILES COc1ccc(/C=C/C(=O)NCCCCCCNC(=O)c2ccc(-c3c4nc(c(-c5ccc(S(=O)(=O)[O-])cc5)c5ccc([nH]5)c(-c5ccc(S(=O)(=O)[O-])cc5)c5nc(c(-c6ccc(S(=O)(=O)[O-])cc6)c6ccc3[nH]6)C=C5)C=C4)cc2)cc1S(=O)(=O)Nc1ccc(F)cc1F
REMARK SMILES IDX 14 1 13 2 12 3 11 4 9 5 10 6 8 8 7 9 6 10 3 11 4 12 82 13
REMARK SMILES IDX 5 14 81 15 2 16 1 17 83 18 84 19 85 20 86 21 87 23 88 24
REMARK SMILES IDX 93 25 89 26 92 27 94 28 90 29 91 30 15 31 16 32 17 33 18 34
REMARK SMILES IDX 19 35 20 37 21 38 22 39 80 40 23 41 79 42 24 43 25 44 26 45
REMARK SMILES IDX 73 46 27 47 78 48 72 49 74 50 28 51 77 52 71 53 70 54 29 56
REMARK SMILES IDX 59 57 40 58 58 59 41 60 44 61 57 62 75 63 42 64 43 65 56 67
REMARK SMILES IDX 76 68 45 69 30 70 31 71 39 72 32 73 38 74 33 75 34 76 35 77
REMARK SMILES IDX 36 78 37 79 60 80 61 81 69 82 62 83 68 84 63 85 64 86 65 87
REMARK SMILES IDX 66 88 67 89 46 90 47 91 55 92 48 93 54 94 49 95 50 96 51 97
REMARK SMILES IDX 52 98 53 99
REMARK H PARENT 11 7 86 22 18 36 74 55 44 66
REMARK Flexibility Score: inf
ROOT
ATOM      1  C   UNL A   1      37.116  23.265  24.834  1.00  0.00     0.002 C 
ENDROOT
BRANCH   1   2
ATOM      2  C   UNL A   1      36.853  21.762  24.672  1.00  0.00     0.021 C 
BRANCH   2   3
ATOM      3  C   UNL A   1      35.893  21.194  25.716  1.00  0.00     0.116 C 
BRANCH   3   4
ATOM      4  N   UNL A   1      35.107  20.120  25.133  1.00  0.00    -0.353 N 
ATOM      5  C   UNL A   1      33.883  20.136  24.550  1.00  0.00     0.243 C 
ATOM      6  O   UNL A   1      33.399  19.099  24.104  1.00  0.00    -0.270 OA
ATOM      7  H   UNL A   1      35.535  19.233  25.167  1.00  0.00     0.163 HD
BRANCH   5   8
ATOM      8  C   UNL A   1      33.195  21.418  24.311  1.00  0.00     0.072 C 
ATOM      9  C   UNL A   1      32.326  22.024  25.137  1.00  0.00     0.014 C 
BRANCH   9  10
ATOM     10  C   UNL A   1      31.773  23.348  24.805  1.00  0.00    -0.024 A 
ATOM     11  C   UNL A   1      30.474  25.679  23.923  1.00  0.00     0.139 A 
ATOM     12  C   UNL A   1      30.100  25.070  25.123  1.00  0.00     0.048 A 
ATOM     13  C   UNL A   1      31.618  25.241  23.261  1.00  0.00     0.130 A 
ATOM     14  C   UNL A   1      30.754  23.926  25.570  1.00  0.00     0.012 A 
ATOM     15  C   UNL A   1      32.243  24.049  23.689  1.00  0.00     0.034 A 
BRANCH  11  16
ATOM     16  O   UNL A   1      29.677  26.714  23.536  1.00  0.00    -0.495 OA
ATOM     17  C   UNL A   1      28.317  26.491  23.907  1.00  0.00     0.278 C 
ENDBRANCH  11  16
BRANCH  13  18
ATOM     18  S   UNL A   1      32.451  26.104  21.950  1.00  0.00     0.265 S 
ATOM     19  O   UNL A   1      33.729  25.452  21.754  1.00  0.00    -0.201 OA
ATOM     20  O   UNL A   1      31.491  26.162  20.864  1.00  0.00    -0.201 OA
BRANCH  18  21
ATOM     21  N   UNL A   1      32.745  27.707  22.331  1.00  0.00    -0.277 N 
ATOM     22  H   UNL A   1      32.901  28.327  21.582  1.00  0.00     0.180 HD
BRANCH  21  23
ATOM     23  C   UNL A   1      32.787  28.253  23.647  1.00  0.00     0.085 A 
ATOM     24  C   UNL A   1      31.902  29.313  23.895  1.00  0.00     0.033 A 
ATOM     25  C   UNL A   1      33.551  27.748  24.707  1.00  0.00     0.150 A 
ATOM     26  C   UNL A   1      31.682  29.757  25.199  1.00  0.00     0.041 A 
ATOM     27  C   UNL A   1      33.336  28.190  26.010  1.00  0.00     0.080 A 
ATOM     28  F   UNL A   1      34.435  26.762  24.517  1.00  0.00    -0.205 F 
ATOM     29  C   UNL A   1      32.382  29.170  26.246  1.00  0.00     0.126 A 
ATOM     30  F   UNL A   1      32.119  29.547  27.504  1.00  0.00    -0.207 F 
ENDBRANCH  21  23
ENDBRANCH  18  21
ENDBRANCH  13  18
ENDBRANCH   9  10
ENDBRANCH   5   8
ENDBRANCH   3   4
ENDBRANCH   2   3
ENDBRANCH   1   2
BRANCH   1  31
ATOM     31  C   UNL A   1      37.874  23.659  26.108  1.00  0.00     0.002 C 
BRANCH  31  32
ATOM     32  C   UNL A   1      39.069  22.767  26.458  1.00  0.00     0.021 C 
BRANCH  32  33
ATOM     33  C   UNL A   1      40.282  23.514  27.008  1.00  0.00     0.116 C 
BRANCH  33  34
ATOM     34  N   UNL A   1      40.885  24.383  26.007  1.00  0.00    -0.352 N 
ATOM     35  C   UNL A   1      41.157  25.727  26.075  1.00  0.00     0.251 C 
ATOM     36  H   UNL A   1      41.131  23.944  25.161  1.00  0.00     0.163 HD
ATOM     37  O   UNL A   1      41.474  26.341  25.061  1.00  0.00    -0.269 OA
BRANCH  35  38
ATOM     38  C   UNL A   1      41.048  26.436  27.368  1.00  0.00     0.039 A 
ATOM     39  C   UNL A   1      42.039  27.353  27.723  1.00  0.00     0.014 A 
ATOM     40  C   UNL A   1      39.970  26.196  28.226  1.00  0.00     0.014 A 
ATOM     41  C   UNL A   1      41.913  28.085  28.907  1.00  0.00     0.010 A 
ATOM     42  C   UNL A   1      39.819  26.964  29.378  1.00  0.00     0.010 A 
ATOM     43  C   UNL A   1      40.782  27.924  29.724  1.00  0.00    -0.014 A 
BRANCH  43  44
ATOM     44  C   UNL A   1      40.565  28.786  30.914  1.00  0.00     0.031 A 
ATOM     45  C   UNL A   1      39.501  29.849  30.906  1.00  0.00     0.074 A 
ATOM     46  C   UNL A   1      41.390  28.662  31.974  1.00  0.00     0.049 A 
ATOM     47  N   UNL A   1      39.220  30.737  31.825  1.00  0.00    -0.248 NA
ATOM     48  C   UNL A   1      38.658  29.941  29.703  1.00  0.00     0.031 C 
ATOM     49  C   UNL A   1      42.494  27.704  32.080  1.00  0.00     0.029 A 
ATOM     50  N   UNL A   1      41.442  29.357  33.157  1.00  0.00    -0.354 N 
ATOM     51  C   UNL A   1      38.185  31.505  31.306  1.00  0.00     0.074 A 
ATOM     52  C   UNL A   1      37.906  30.998  29.981  1.00  0.00     0.031 C 
ATOM     53  C   UNL A   1      43.109  27.870  33.262  1.00  0.00     0.029 A 
ATOM     54  C   UNL A   1      42.469  28.966  33.983  1.00  0.00     0.049 A 
ATOM     55  H   UNL A   1      40.803  30.070  33.391  1.00  0.00     0.167 HD
ATOM     56  C   UNL A   1      37.520  32.533  31.889  1.00  0.00     0.031 A 
ATOM     57  C   UNL A   1      42.867  29.446  35.177  1.00  0.00     0.031 A 
ATOM     58  C   UNL A   1      37.790  33.021  33.215  1.00  0.00     0.049 A 
ATOM     59  C   UNL A   1      42.111  30.586  35.799  1.00  0.00     0.074 A 
ATOM     60  C   UNL A   1      37.108  33.996  33.924  1.00  0.00     0.029 A 
ATOM     61  N   UNL A   1      38.824  32.585  34.028  1.00  0.00    -0.354 N 
ATOM     62  N   UNL A   1      41.070  31.234  35.333  1.00  0.00    -0.248 NA
ATOM     63  C   UNL A   1      42.581  31.059  37.109  1.00  0.00     0.031 C 
ATOM     64  C   UNL A   1      37.764  34.187  35.145  1.00  0.00     0.029 A 
ATOM     65  C   UNL A   1      38.823  33.297  35.216  1.00  0.00     0.049 A 
ATOM     66  H   UNL A   1      39.464  31.875  33.794  1.00  0.00     0.167 HD
ATOM     67  C   UNL A   1      40.754  32.183  36.298  1.00  0.00     0.074 A 
ATOM     68  C   UNL A   1      41.697  32.010  37.383  1.00  0.00     0.031 C 
ATOM     69  C   UNL A   1      39.775  33.120  36.283  1.00  0.00     0.031 A 
BRANCH  56  70
ATOM     70  C   UNL A   1      36.434  33.207  31.095  1.00  0.00    -0.014 A 
ATOM     71  C   UNL A   1      35.087  33.116  31.488  1.00  0.00     0.010 A 
ATOM     72  C   UNL A   1      36.775  34.009  29.991  1.00  0.00     0.010 A 
ATOM     73  C   UNL A   1      34.095  33.796  30.774  1.00  0.00     0.020 A 
ATOM     74  C   UNL A   1      35.788  34.709  29.289  1.00  0.00     0.020 A 
ATOM     75  C   UNL A   1      34.453  34.588  29.679  1.00  0.00     0.054 A 
BRANCH  75  76
ATOM     76  S   UNL A   1      33.152  35.500  28.802  1.00  0.00     0.124 S 
ATOM     77  O   UNL A   1      33.932  36.416  27.975  1.00  0.00    -0.237 OA
ATOM     78  O   UNL A   1      32.452  34.442  28.076  1.00  0.00    -0.237 OA
ATOM     79  O   UNL A   1      32.384  36.128  29.874  1.00  0.00    -0.744 OA
ENDBRANCH  75  76
ENDBRANCH  56  70
BRANCH  57  80
ATOM     80  C   UNL A   1      44.053  28.859  35.857  1.00  0.00    -0.014 A 
ATOM     81  C   UNL A   1      45.343  29.363  35.613  1.00  0.00     0.010 A 
ATOM     82  C   UNL A   1      43.896  27.788  36.755  1.00  0.00     0.010 A 
ATOM     83  C   UNL A   1      46.456  28.792  36.236  1.00  0.00     0.020 A 
ATOM     84  C   UNL A   1      45.003  27.231  37.401  1.00  0.00     0.020 A 
ATOM     85  C   UNL A   1      46.278  27.728  37.126  1.00  0.00     0.054 A 
BRANCH  85  86
ATOM     86  S   UNL A   1      47.731  27.026  37.959  1.00  0.00     0.124 S 
ATOM     87  O   UNL A   1      47.381  27.192  39.367  1.00  0.00    -0.237 OA
ATOM     88  O   UNL A   1      47.744  25.650  37.469  1.00  0.00    -0.237 OA
ATOM     89  O   UNL A   1      48.832  27.859  37.483  1.00  0.00    -0.744 OA
ENDBRANCH  85  86
ENDBRANCH  57  80
BRANCH  69  90
ATOM     90  C   UNL A   1      39.669  34.027  37.477  1.00  0.00    -0.014 A 
ATOM     91  C   UNL A   1      38.907  33.656  38.599  1.00  0.00     0.010 A 
ATOM     92  C   UNL A   1      40.383  35.239  37.501  1.00  0.00     0.010 A 
ATOM     93  C   UNL A   1      38.840  34.494  39.715  1.00  0.00     0.020 A 
ATOM     94  C   UNL A   1      40.338  36.068  38.625  1.00  0.00     0.020 A 
ATOM     95  C   UNL A   1      39.556  35.695  39.721  1.00  0.00     0.054 A 
BRANCH  95  96
ATOM     96  S   UNL A   1      39.491  36.742  41.201  1.00  0.00     0.124 S 
ATOM     97  O   UNL A   1      38.646  35.954  42.094  1.00  0.00    -0.237 OA
ATOM     98  O   UNL A   1      40.896  36.841  41.588  1.00  0.00    -0.237 OA
ATOM     99  O   UNL A   1      38.895  37.987  40.718  1.00  0.00    -0.744 OA
ENDBRANCH  95  96
ENDBRANCH  69  90
ENDBRANCH  43  44
ENDBRANCH  35  38
ENDBRANCH  33  34
ENDBRANCH  32  33
ENDBRANCH  31  32
ENDBRANCH   1  31
TORSDOF 21
ENDMDL
MODEL 2
REMARK VINA RESULT:     -10.8      1.688      8.125
REMARK SMILES COc1ccc(/C=C/C(=O)NCCCCCCNC(=O)c2ccc(-c3c4nc(c(-c5ccc(S(=O)(=O)[O-])cc5)c5ccc([nH]5)c(-c5ccc(S(=O)(=O)[O-])cc5)c5nc(c(-c6ccc(S(=O)(=O)[O-])cc6)c6ccc3[nH]6)C=C5)C=C4)cc2)cc1S(=O)(=O)Nc1ccc(F)cc1F
REMARK SMILES IDX 14 1 13 2 12 3 11 4 9 5 10 6 8 8 7 9 6 10 3 11 4 12 82 13
REMARK SMILES IDX 5 14 81 15 2 16 1 17 83 18 84 19 85 20 86 21 87 23 88 24
REMARK SMILES IDX 93 25 89 26 92 27 94 28 90 29 91 30 15 31 16 32 17 33 18 34
REMARK SMILES IDX 19 35 20 37 21 38 22 39 80 40 23 41 79 42 24 43 25 44 26 45
REMARK SMILES IDX 73 46 27 47 78 48 72 49 74 50 28 51 77 52 71 53 70 54 29 56
REMARK SMILES IDX 59 57 40 58 58 59 41 60 44 61 57 62 75 63 42 64 43 65 56 67
REMARK SMILES IDX 76 68 45 69 30 70 31 71 39 72 32 73 38 74 33 75 34 76 35 77
REMARK SMILES IDX 36 78 37 79 60 80 61 81 69 82 62 83 68 84 63 85 64 86 65 87
REMARK SMILES IDX 66 88 67 89 46 90 47 91 55 92 48 93 54 94 49 95 50 96 51 97
REMARK SMILES IDX 52 98 53 99
REMARK H PARENT 11 7 86 22 18 36 74 55 44 66
REMARK Flexibility Score: inf
ROOT
ATOM      1  C   UNL A   1      35.624  22.399  25.863  1.00  0.00     0.002 C 
ENDROOT
BRANCH   1   2
ATOM      2  C   UNL A   1      35.327  20.952  25.446  1.00  0.00     0.021 C 
BRANCH   2   3
ATOM      3  C   UNL A   1      33.858  20.561  25.604  1.00  0.00     0.116 C 
BRANCH   3   4
ATOM      4  N   UNL A   1      33.228  20.469  24.298  1.00  0.00    -0.353 N 
ATOM      5  C   UNL A   1      32.607  21.412  23.547  1.00  0.00     0.243 C 
ATOM      6  O   UNL A   1      32.147  21.121  22.446  1.00  0.00    -0.270 OA
ATOM      7  H   UNL A   1      33.258  19.573  23.890  1.00  0.00     0.163 HD
BRANCH   5   8
ATOM      8  C   UNL A   1      32.615  22.823  23.978  1.00  0.00     0.072 C 
ATOM      9  C   UNL A   1      31.539  23.597  24.199  1.00  0.00     0.014 C 
BRANCH   9  10
ATOM     10  C   UNL A   1      31.693  24.970  24.706  1.00  0.00    -0.024 A 
ATOM     11  C   UNL A   1      31.612  27.650  25.550  1.00  0.00     0.139 A 
ATOM     12  C   UNL A   1      31.394  26.613  26.460  1.00  0.00     0.048 A 
ATOM     13  C   UNL A   1      32.059  27.351  24.266  1.00  0.00     0.130 A 
ATOM     14  C   UNL A   1      31.451  25.285  26.047  1.00  0.00     0.012 A 
ATOM     15  C   UNL A   1      32.063  26.005  23.838  1.00  0.00     0.034 A 
BRANCH  11  16
ATOM     16  O   UNL A   1      31.404  28.900  26.050  1.00  0.00    -0.495 OA
ATOM     17  C   UNL A   1      31.862  29.005  27.398  1.00  0.00     0.278 C 
ENDBRANCH  11  16
BRANCH  13  18
ATOM     18  S   UNL A   1      32.735  28.515  23.106  1.00  0.00     0.265 S 
ATOM     19  O   UNL A   1      33.405  29.543  23.873  1.00  0.00    -0.201 OA
ATOM     20  O   UNL A   1      33.483  27.712  22.156  1.00  0.00    -0.201 OA
BRANCH  18  21
ATOM     21  N   UNL A   1      31.550  29.252  22.182  1.00  0.00    -0.277 N 
ATOM     22  H   UNL A   1      31.848  29.843  21.454  1.00  0.00     0.180 HD
BRANCH  21  23
ATOM     23  C   UNL A   1      30.144  29.096  22.360  1.00  0.00     0.085 A 
ATOM     24  C   UNL A   1      29.721  27.826  22.781  1.00  0.00     0.033 A 
ATOM     25  C   UNL A   1      29.197  30.122  22.249  1.00  0.00     0.150 A 
ATOM     26  C   UNL A   1      28.411  27.630  23.220  1.00  0.00     0.041 A 
ATOM     27  C   UNL A   1      27.888  29.929  22.683  1.00  0.00     0.080 A 
ATOM     28  F   UNL A   1      29.540  31.341  21.817  1.00  0.00    -0.205 F 
ATOM     29  C   UNL A   1      27.516  28.693  23.192  1.00  0.00     0.126 A 
ATOM     30  F   UNL A   1      26.280  28.522  23.680  1.00  0.00    -0.207 F 
ENDBRANCH  21  23
ENDBRANCH  18  21
ENDBRANCH  13  18
ENDBRANCH   9  10
ENDBRANCH   5   8
ENDBRANCH   3   4
ENDBRANCH   2   3
ENDBRANCH   1   2
BRANCH   1  31
ATOM     31  C   UNL A   1      36.900  23.000  25.260  1.00  0.00     0.002 C 
BRANCH  31  32
ATOM     32  C   UNL A   1      38.203  22.594  25.952  1.00  0.00     0.021 C 
BRANCH  32  33
ATOM     33  C   UNL A   1      39.003  23.757  26.537  1.00  0.00     0.116 C 
BRANCH  33  34
ATOM     34  N   UNL A   1      40.404  23.703  26.146  1.00  0.00    -0.352 N 
ATOM     35  C   UNL A   1      41.413  24.599  26.402  1.00  0.00     0.251 C 
ATOM     36  H   UNL A   1      40.665  22.912  25.621  1.00  0.00     0.163 HD
ATOM     37  O   UNL A   1      42.487  24.499  25.817  1.00  0.00    -0.269 OA
BRANCH  35  38
ATOM     38  C   UNL A   1      41.194  25.696  27.369  1.00  0.00     0.039 A 
ATOM     39  C   UNL A   1      40.209  25.548  28.349  1.00  0.00     0.014 A 
ATOM     40  C   UNL A   1      41.958  26.866  27.309  1.00  0.00     0.014 A 
ATOM     41  C   UNL A   1      40.040  26.543  29.315  1.00  0.00     0.010 A 
ATOM     42  C   UNL A   1      41.824  27.831  28.305  1.00  0.00     0.010 A 
ATOM     43  C   UNL A   1      40.872  27.675  29.324  1.00  0.00    -0.014 A 
BRANCH  43  44
ATOM     44  C   UNL A   1      40.796  28.676  30.417  1.00  0.00     0.031 A 
ATOM     45  C   UNL A   1      41.670  28.548  31.635  1.00  0.00     0.074 A 
ATOM     46  C   UNL A   1      39.874  29.657  30.347  1.00  0.00     0.049 A 
ATOM     47  N   UNL A   1      41.687  29.286  32.715  1.00  0.00    -0.248 NA
ATOM     48  C   UNL A   1      42.635  27.437  31.651  1.00  0.00     0.031 C 
ATOM     49  C   UNL A   1      38.930  29.855  29.242  1.00  0.00     0.029 A 
ATOM     50  N   UNL A   1      39.561  30.661  31.230  1.00  0.00    -0.354 N 
ATOM     51  C   UNL A   1      42.645  28.720  33.547  1.00  0.00     0.074 A 
ATOM     52  C   UNL A   1      43.168  27.559  32.860  1.00  0.00     0.031 C 
ATOM     53  C   UNL A   1      38.152  30.915  29.513  1.00  0.00     0.029 A 
ATOM     54  C   UNL A   1      38.513  31.450  30.821  1.00  0.00     0.049 A 
ATOM     55  H   UNL A   1      40.044  30.802  32.077  1.00  0.00     0.167 HD
ATOM     56  C   UNL A   1      43.058  29.137  34.768  1.00  0.00     0.031 A 
ATOM     57  C   UNL A   1      37.895  32.478  31.436  1.00  0.00     0.031 A 
ATOM     58  C   UNL A   1      42.548  30.303  35.440  1.00  0.00     0.049 A 
ATOM     59  C   UNL A   1      38.375  32.919  32.790  1.00  0.00     0.074 A 
ATOM     60  C   UNL A   1      42.971  30.857  36.636  1.00  0.00     0.029 A 
ATOM     61  N   UNL A   1      41.502  31.088  34.984  1.00  0.00    -0.354 N 
ATOM     62  N   UNL A   1      39.350  32.429  33.517  1.00  0.00    -0.248 NA
ATOM     63  C   UNL A   1      37.673  34.054  33.406  1.00  0.00     0.031 C 
ATOM     64  C   UNL A   1      42.143  31.945  36.931  1.00  0.00     0.029 A 
ATOM     65  C   UNL A   1      41.238  32.099  35.893  1.00  0.00     0.049 A 
ATOM     66  H   UNL A   1      41.017  30.947  34.139  1.00  0.00     0.167 HD
ATOM     67  C   UNL A   1      39.387  33.202  34.671  1.00  0.00     0.074 A 
ATOM     68  C   UNL A   1      38.352  34.207  34.536  1.00  0.00     0.031 C 
ATOM     69  C   UNL A   1      40.199  33.085  35.749  1.00  0.00     0.031 A 
BRANCH  56  70
ATOM     70  C   UNL A   1      44.116  28.326  35.468  1.00  0.00    -0.014 A 
ATOM     71  C   UNL A   1      43.775  27.204  36.243  1.00  0.00     0.010 A 
ATOM     72  C   UNL A   1      45.474  28.644  35.280  1.00  0.00     0.010 A 
ATOM     73  C   UNL A   1      44.773  26.428  36.840  1.00  0.00     0.020 A 
ATOM     74  C   UNL A   1      46.475  27.857  35.857  1.00  0.00     0.020 A 
ATOM     75  C   UNL A   1      46.117  26.760  36.642  1.00  0.00     0.054 A 
BRANCH  75  76
ATOM     76  S   UNL A   1      47.392  25.705  37.386  1.00  0.00     0.124 S 
ATOM     77  O   UNL A   1      48.393  25.648  36.324  1.00  0.00    -0.237 OA
ATOM     78  O   UNL A   1      47.782  26.462  38.575  1.00  0.00    -0.237 OA
ATOM     79  O   UNL A   1      46.695  24.449  37.652  1.00  0.00    -0.744 OA
ENDBRANCH  75  76
ENDBRANCH  56  70
BRANCH  57  80
ATOM     80  C   UNL A   1      36.740  33.150  30.782  1.00  0.00    -0.014 A 
ATOM     81  C   UNL A   1      36.938  34.029  29.703  1.00  0.00     0.010 A 
ATOM     82  C   UNL A   1      35.431  32.911  31.240  1.00  0.00     0.010 A 
ATOM     83  C   UNL A   1      35.850  34.675  29.108  1.00  0.00     0.020 A 
ATOM     84  C   UNL A   1      34.339  33.535  30.630  1.00  0.00     0.020 A 
ATOM     85  C   UNL A   1      34.557  34.424  29.577  1.00  0.00     0.054 A 
BRANCH  85  86
ATOM     86  S   UNL A   1      33.153  35.240  28.766  1.00  0.00     0.124 S 
ATOM     87  O   UNL A   1      33.817  36.282  27.987  1.00  0.00    -0.237 OA
ATOM     88  O   UNL A   1      32.557  34.154  27.992  1.00  0.00    -0.237 OA
ATOM     89  O   UNL A   1      32.342  35.715  29.885  1.00  0.00    -0.744 OA
ENDBRANCH  85  86
ENDBRANCH  57  80
BRANCH  69  90
ATOM     90  C   UNL A   1      40.006  34.072  36.869  1.00  0.00    -0.014 A 
ATOM     91  C   UNL A   1      40.550  35.366  36.790  1.00  0.00     0.010 A 
ATOM     92  C   UNL A   1      39.226  33.720  37.985  1.00  0.00     0.010 A 
ATOM     93  C   UNL A   1      40.340  36.283  37.822  1.00  0.00     0.020 A 
ATOM     94  C   UNL A   1      38.994  34.643  39.008  1.00  0.00     0.020 A 
ATOM     95  C   UNL A   1      39.563  35.916  38.925  1.00  0.00     0.054 A 
BRANCH  95  96
ATOM     96  S   UNL A   1      39.265  37.141  40.229  1.00  0.00     0.124 S 
ATOM     97  O   UNL A   1      40.624  37.499  40.627  1.00  0.00    -0.237 OA
ATOM     98  O   UNL A   1      38.520  38.184  39.527  1.00  0.00    -0.237 OA
ATOM     99  O   UNL A   1      38.497  36.402  41.229  1.00  0.00    -0.744 OA
ENDBRANCH  95  96
ENDBRANCH  69  90
ENDBRANCH  43  44
ENDBRANCH  35  38
ENDBRANCH  33  34
ENDBRANCH  32  33
ENDBRANCH  31  32
ENDBRANCH   1  31
TORSDOF 21
ENDMDL
MODEL 3
REMARK VINA RESULT:     -10.8      4.935      9.098
REMARK SMILES COc1ccc(/C=C/C(=O)NCCCCCCNC(=O)c2ccc(-c3c4nc(c(-c5ccc(S(=O)(=O)[O-])cc5)c5ccc([nH]5)c(-c5ccc(S(=O)(=O)[O-])cc5)c5nc(c(-c6ccc(S(=O)(=O)[O-])cc6)c6ccc3[nH]6)C=C5)C=C4)cc2)cc1S(=O)(=O)Nc1ccc(F)cc1F
REMARK SMILES IDX 14 1 13 2 12 3 11 4 9 5 10 6 8 8 7 9 6 10 3 11 4 12 82 13
REMARK SMILES IDX 5 14 81 15 2 16 1 17 83 18 84 19 85 20 86 21 87 23 88 24
REMARK SMILES IDX 93 25 89 26 92 27 94 28 90 29 91 30 15 31 16 32 17 33 18 34
REMARK SMILES IDX 19 35 20 37 21 38 22 39 80 40 23 41 79 42 24 43 25 44 26 45
REMARK SMILES IDX 73 46 27 47 78 48 72 49 74 50 28 51 77 52 71 53 70 54 29 56
REMARK SMILES IDX 59 57 40 58 58 59 41 60 44 61 57 62 75 63 42 64 43 65 56 67
REMARK SMILES IDX 76 68 45 69 30 70 31 71 39 72 32 73 38 74 33 75 34 76 35 77
REMARK SMILES IDX 36 78 37 79 60 80 61 81 69 82 62 83 68 84 63 85 64 86 65 87
REMARK SMILES IDX 66 88 67 89 46 90 47 91 55 92 48 93 54 94 49 95 50 96 51 97
REMARK SMILES IDX 52 98 53 99
REMARK H PARENT 11 7 86 22 18 36 74 55 44 66
REMARK Flexibility Score: inf
ROOT
ATOM      1  C   UNL A   1      34.440  22.909  27.141  1.00  0.00     0.002 C 
ENDROOT
BRANCH   1   2
ATOM      2  C   UNL A   1      34.521  21.460  26.644  1.00  0.00     0.021 C 
BRANCH   2   3
ATOM      3  C   UNL A   1      33.216  20.682  26.813  1.00  0.00     0.116 C 
BRANCH   3   4
ATOM      4  N   UNL A   1      32.933  19.924  25.607  1.00  0.00    -0.353 N 
ATOM      5  C   UNL A   1      32.469  20.325  24.398  1.00  0.00     0.243 C 
ATOM      6  O   UNL A   1      32.309  19.507  23.495  1.00  0.00    -0.270 OA
ATOM      7  H   UNL A   1      33.107  18.957  25.680  1.00  0.00     0.163 HD
BRANCH   5   8
ATOM      8  C   UNL A   1      32.299  21.762  24.111  1.00  0.00     0.072 C 
ATOM      9  C   UNL A   1      33.053  22.507  23.286  1.00  0.00     0.014 C 
BRANCH   9  10
ATOM     10  C   UNL A   1      32.720  23.917  23.031  1.00  0.00    -0.024 A 
ATOM     11  C   UNL A   1      32.422  26.697  22.735  1.00  0.00     0.139 A 
ATOM     12  C   UNL A   1      32.941  25.925  21.693  1.00  0.00     0.048 A 
ATOM     13  C   UNL A   1      31.874  26.064  23.848  1.00  0.00     0.130 A 
ATOM     14  C   UNL A   1      33.073  24.546  21.832  1.00  0.00     0.012 A 
ATOM     15  C   UNL A   1      32.059  24.674  24.006  1.00  0.00     0.034 A 
BRANCH  11  16
ATOM     16  O   UNL A   1      32.463  28.042  22.523  1.00  0.00    -0.495 OA
ATOM     17  C   UNL A   1      33.793  28.546  22.632  1.00  0.00     0.278 C 
ENDBRANCH  11  16
BRANCH  13  18
ATOM     18  S   UNL A   1      30.853  26.836  25.081  1.00  0.00     0.265 S 
ATOM     19  O   UNL A   1      29.489  26.787  24.599  1.00  0.00    -0.201 OA
ATOM     20  O   UNL A   1      31.208  26.185  26.328  1.00  0.00    -0.201 OA
BRANCH  18  21
ATOM     21  N   UNL A   1      31.256  28.443  25.324  1.00  0.00    -0.277 N 
ATOM     22  H   UNL A   1      30.719  29.119  24.851  1.00  0.00     0.180 HD
BRANCH  21  23
ATOM     23  C   UNL A   1      32.309  28.916  26.159  1.00  0.00     0.085 A 
ATOM     24  C   UNL A   1      33.447  28.097  26.228  1.00  0.00     0.033 A 
ATOM     25  C   UNL A   1      32.329  30.156  26.811  1.00  0.00     0.150 A 
ATOM     26  C   UNL A   1      34.622  28.572  26.809  1.00  0.00     0.041 A 
ATOM     27  C   UNL A   1      33.500  30.632  27.395  1.00  0.00     0.080 A 
ATOM     28  F   UNL A   1      31.259  30.959  26.808  1.00  0.00    -0.205 F 
ATOM     29  C   UNL A   1      34.643  29.847  27.362  1.00  0.00     0.126 A 
ATOM     30  F   UNL A   1      35.791  30.328  27.857  1.00  0.00    -0.207 F 
ENDBRANCH  21  23
ENDBRANCH  18  21
ENDBRANCH  13  18
ENDBRANCH   9  10
ENDBRANCH   5   8
ENDBRANCH   3   4
ENDBRANCH   2   3
ENDBRANCH   1   2
BRANCH   1  31
ATOM     31  C   UNL A   1      34.787  23.976  26.095  1.00  0.00     0.002 C 
BRANCH  31  32
ATOM     32  C   UNL A   1      36.085  23.731  25.320  1.00  0.00     0.021 C 
BRANCH  32  33
ATOM     33  C   UNL A   1      37.359  24.088  26.083  1.00  0.00     0.116 C 
BRANCH  33  34
ATOM     34  N   UNL A   1      38.219  22.929  26.276  1.00  0.00    -0.352 N 
ATOM     35  C   UNL A   1      39.563  22.881  26.555  1.00  0.00     0.251 C 
ATOM     36  H   UNL A   1      37.772  22.055  26.195  1.00  0.00     0.163 HD
ATOM     37  O   UNL A   1      40.168  21.816  26.478  1.00  0.00    -0.269 OA
BRANCH  35  38
ATOM     38  C   UNL A   1      40.281  24.119  26.927  1.00  0.00     0.039 A 
ATOM     39  C   UNL A   1      40.436  25.125  25.971  1.00  0.00     0.014 A 
ATOM     40  C   UNL A   1      40.801  24.285  28.215  1.00  0.00     0.014 A 
ATOM     41  C   UNL A   1      41.047  26.330  26.328  1.00  0.00     0.010 A 
ATOM     42  C   UNL A   1      41.361  25.506  28.583  1.00  0.00     0.010 A 
ATOM     43  C   UNL A   1      41.480  26.545  27.646  1.00  0.00    -0.014 A 
BRANCH  43  44
ATOM     44  C   UNL A   1      42.010  27.863  28.077  1.00  0.00     0.031 A 
ATOM     45  C   UNL A   1      43.491  28.122  28.101  1.00  0.00     0.074 A 
ATOM     46  C   UNL A   1      41.152  28.800  28.529  1.00  0.00     0.049 A 
ATOM     47  N   UNL A   1      44.133  29.185  28.514  1.00  0.00    -0.248 NA
ATOM     48  C   UNL A   1      44.366  27.042  27.617  1.00  0.00     0.031 C 
ATOM     49  C   UNL A   1      39.696  28.649  28.606  1.00  0.00     0.029 A 
ATOM     50  N   UNL A   1      41.379  30.059  29.027  1.00  0.00    -0.354 N 
ATOM     51  C   UNL A   1      45.483  28.896  28.362  1.00  0.00     0.074 A 
ATOM     52  C   UNL A   1      45.572  27.548  27.845  1.00  0.00     0.031 C 
ATOM     53  C   UNL A   1      39.163  29.770  29.116  1.00  0.00     0.029 A 
ATOM     54  C   UNL A   1      40.236  30.706  29.435  1.00  0.00     0.049 A 
ATOM     55  H   UNL A   1      42.276  30.461  29.087  1.00  0.00     0.167 HD
ATOM     56  C   UNL A   1      46.552  29.689  28.619  1.00  0.00     0.031 A 
ATOM     57  C   UNL A   1      40.068  31.909  30.019  1.00  0.00     0.031 A 
ATOM     58  C   UNL A   1      46.459  31.036  29.116  1.00  0.00     0.049 A 
ATOM     59  C   UNL A   1      41.272  32.767  30.292  1.00  0.00     0.074 A 
ATOM     60  C   UNL A   1      47.481  31.948  29.319  1.00  0.00     0.029 A 
ATOM     61  N   UNL A   1      45.283  31.662  29.497  1.00  0.00    -0.354 N 
ATOM     62  N   UNL A   1      42.535  32.513  30.048  1.00  0.00    -0.248 NA
ATOM     63  C   UNL A   1      41.028  34.074  30.917  1.00  0.00     0.031 C 
ATOM     64  C   UNL A   1      46.929  33.107  29.874  1.00  0.00     0.029 A 
ATOM     65  C   UNL A   1      45.557  32.935  29.970  1.00  0.00     0.049 A 
ATOM     66  H   UNL A   1      44.386  31.262  29.440  1.00  0.00     0.167 HD
ATOM     67  C   UNL A   1      43.235  33.633  30.480  1.00  0.00     0.074 A 
ATOM     68  C   UNL A   1      42.255  34.575  30.977  1.00  0.00     0.031 C 
ATOM     69  C   UNL A   1      44.571  33.857  30.471  1.00  0.00     0.031 A 
BRANCH  56  70
ATOM     70  C   UNL A   1      47.925  29.122  28.372  1.00  0.00    -0.014 A 
ATOM     71  C   UNL A   1      48.601  28.400  29.372  1.00  0.00     0.010 A 
ATOM     72  C   UNL A   1      48.509  29.243  27.098  1.00  0.00     0.010 A 
ATOM     73  C   UNL A   1      49.851  27.831  29.109  1.00  0.00     0.020 A 
ATOM     74  C   UNL A   1      49.748  28.655  26.825  1.00  0.00     0.020 A 
ATOM     75  C   UNL A   1      50.416  27.962  27.836  1.00  0.00     0.054 A 
BRANCH  75  76
ATOM     76  S   UNL A   1      52.014  27.169  27.508  1.00  0.00     0.124 S 
ATOM     77  O   UNL A   1      51.795  25.822  28.029  1.00  0.00    -0.237 OA
ATOM     78  O   UNL A   1      52.129  27.268  26.055  1.00  0.00    -0.237 OA
ATOM     79  O   UNL A   1      52.967  27.980  28.262  1.00  0.00    -0.744 OA
ENDBRANCH  75  76
ENDBRANCH  56  70
BRANCH  57  80
ATOM     80  C   UNL A   1      38.706  32.366  30.401  1.00  0.00    -0.014 A 
ATOM     81  C   UNL A   1      38.177  32.067  31.669  1.00  0.00     0.010 A 
ATOM     82  C   UNL A   1      37.927  33.106  29.493  1.00  0.00     0.010 A 
ATOM     83  C   UNL A   1      36.887  32.479  32.014  1.00  0.00     0.020 A 
ATOM     84  C   UNL A   1      36.646  33.544  29.843  1.00  0.00     0.020 A 
ATOM     85  C   UNL A   1      36.129  33.215  31.097  1.00  0.00     0.054 A 
BRANCH  85  86
ATOM     86  S   UNL A   1      34.471  33.778  31.577  1.00  0.00     0.124 S 
ATOM     87  O   UNL A   1      33.998  32.662  32.392  1.00  0.00    -0.237 OA
ATOM     88  O   UNL A   1      34.753  35.015  32.301  1.00  0.00    -0.237 OA
ATOM     89  O   UNL A   1      33.788  33.955  30.298  1.00  0.00    -0.744 OA
ENDBRANCH  85  86
ENDBRANCH  57  80
BRANCH  69  90
ATOM     90  C   UNL A   1      45.053  35.176  31.012  1.00  0.00    -0.014 A 
ATOM     91  C   UNL A   1      45.139  36.307  30.182  1.00  0.00     0.010 A 
ATOM     92  C   UNL A   1      45.370  35.299  32.377  1.00  0.00     0.010 A 
ATOM     93  C   UNL A   1      45.559  37.534  30.702  1.00  0.00     0.020 A 
ATOM     94  C   UNL A   1      45.768  36.530  32.906  1.00  0.00     0.020 A 
ATOM     95  C   UNL A   1      45.871  37.637  32.061  1.00  0.00     0.054 A 
BRANCH  95  96
ATOM     96  S   UNL A   1      46.368  39.252  32.722  1.00  0.00     0.124 S 
ATOM     97  O   UNL A   1      47.694  39.426  32.133  1.00  0.00    -0.237 OA
ATOM     98  O   UNL A   1      45.330  40.143  32.210  1.00  0.00    -0.237 OA
ATOM     99  O   UNL A   1      46.352  39.053  34.170  1.00  0.00    -0.744 OA
ENDBRANCH  95  96
ENDBRANCH  69  90
ENDBRANCH  43  44
ENDBRANCH  35  38
ENDBRANCH  33  34
ENDBRANCH  32  33
ENDBRANCH  31  32
ENDBRANCH   1  31
TORSDOF 21
ENDMDL
