MODEL 1
REMARK VINA RESULT:      -8.8      0.000      0.000
REMARK SMILES O=C(CN1C(=O)/C(=C2/SC(Nc3ccc(Cl)cc3)=[NH+]C2=O)c2ccccc21)NCCCCCCNC(=O)c1ccc(-c2c3nc(c(-c4ccc(S(=O)(=O)[O-])cc4)c4ccc([nH]4)c(-c4ccc(S(=O)(=O)[O-])cc4)c4nc(c(-c5ccc(S(=O)(=O)[O-])cc5)c5ccc2[nH]5)C=C4)C=C3)cc1
REMARK SMILES IDX 32 1 31 2 30 3 29 4 28 5 1 6 2 7 3 9 4 10 5 11 27 12 6 13
REMARK SMILES IDX 7 14 22 15 26 16 8 17 23 18 25 19 9 20 20 21 24 22 10 23
REMARK SMILES IDX 19 24 21 25 11 26 12 29 13 30 18 31 14 32 17 33 15 34 16 35
REMARK SMILES IDX 33 36 34 37 35 38 36 39 37 41 38 42 39 43 97 44 40 45 96 46
REMARK SMILES IDX 41 47 42 48 43 49 90 50 44 51 95 52 89 53 91 54 45 55 94 56
REMARK SMILES IDX 88 57 87 58 46 60 76 61 57 62 75 63 58 64 61 65 74 66 92 67
REMARK SMILES IDX 59 68 60 69 73 71 93 72 62 73 47 74 48 75 56 76 49 77 55 78
REMARK SMILES IDX 50 79 51 80 52 81 53 82 54 83 77 84 78 85 86 86 79 87 85 88
REMARK SMILES IDX 80 89 81 90 82 91 83 92 84 93 63 94 64 95 72 96 65 97 71 98
REMARK SMILES IDX 66 99 67 100 68 101 69 102 70 103
REMARK H PARENT 28 8 19 27 11 28 35 40 91 59 61 70
REMARK Flexibility Score: inf
ROOT
ATOM      1  C   UNL A   1      38.524  34.508  37.014  1.00  0.00     0.002 C 
ENDROOT
BRANCH   1   2
ATOM      2  C   UNL A   1      37.817  33.498  36.105  1.00  0.00     0.002 C 
BRANCH   2   3
ATOM      3  C   UNL A   1      38.072  33.659  34.597  1.00  0.00     0.021 C 
BRANCH   3   4
ATOM      4  C   UNL A   1      37.084  34.572  33.864  1.00  0.00     0.116 C 
BRANCH   4   5
ATOM      5  N   UNL A   1      36.396  33.851  32.819  1.00  0.00    -0.355 N 
ATOM      6  O   UNL A   1      34.491  33.286  33.967  1.00  0.00    -0.273 OA
ATOM      7  C   UNL A   1      35.187  33.219  32.956  1.00  0.00     0.240 C 
ATOM      8  H   UNL A   1      36.831  33.809  31.938  1.00  0.00     0.163 HD
BRANCH   7   9
ATOM      9  C   UNL A   1      34.850  32.259  31.805  1.00  0.00     0.225 C 
BRANCH   9  10
ATOM     10  N   UNL A   1      35.933  31.450  31.263  1.00  0.00    -0.298 N 
ATOM     11  C   UNL A   1      36.790  30.671  32.040  1.00  0.00     0.260 C 
ATOM     12  C   UNL A   1      35.988  31.040  29.915  1.00  0.00     0.053 A 
ATOM     13  O   UNL A   1      36.803  30.611  33.253  1.00  0.00    -0.269 OA
ATOM     14  C   UNL A   1      37.589  29.842  31.074  1.00  0.00     0.071 C 
ATOM     15  C   UNL A   1      36.964  30.050  29.746  1.00  0.00     0.012 A 
ATOM     16  C   UNL A   1      35.188  31.459  28.860  1.00  0.00     0.027 A 
ATOM     17  C   UNL A   1      38.694  29.146  31.389  1.00  0.00     0.122 C 
ATOM     18  C   UNL A   1      37.149  29.476  28.492  1.00  0.00     0.011 A 
ATOM     19  C   UNL A   1      35.379  30.878  27.605  1.00  0.00     0.002 A 
ATOM     20  S   UNL A   1      39.577  28.182  30.268  1.00  0.00     0.007 SA
ATOM     21  C   UNL A   1      39.479  29.109  32.673  1.00  0.00     0.347 C 
ATOM     22  C   UNL A   1      36.356  29.896  27.422  1.00  0.00     0.001 A 
ATOM     23  C   UNL A   1      41.011  28.300  31.255  1.00  0.00     0.322 C 
ATOM     24  N   UNL A   1      40.800  28.749  32.447  1.00  0.00    -0.199 N 
ATOM     25  O   UNL A   1      39.031  29.344  33.780  1.00  0.00    -0.240 OA
ATOM     26  N   UNL A   1      42.225  27.895  30.768  1.00  0.00    -0.235 N 
ATOM     27  H   UNL A   1      41.506  28.828  33.128  1.00  0.00     0.316 HD
ATOM     28  H   UNL A   1      42.962  27.842  31.419  1.00  0.00     0.313 HD
BRANCH  26  29
ATOM     29  C   UNL A   1      42.537  27.545  29.442  1.00  0.00     0.125 A 
ATOM     30  C   UNL A   1      42.543  28.495  28.407  1.00  0.00     0.053 A 
ATOM     31  C   UNL A   1      42.715  26.198  29.108  1.00  0.00     0.053 A 
ATOM     32  C   UNL A   1      42.645  28.107  27.069  1.00  0.00     0.025 A 
ATOM     33  C   UNL A   1      42.824  25.806  27.768  1.00  0.00     0.025 A 
ATOM     34  C   UNL A   1      42.768  26.759  26.755  1.00  0.00     0.041 A 
ATOM     35  Cl  UNL A   1      42.828  26.270  25.108  1.00  0.00    -0.084 Cl
ENDBRANCH  26  29
ENDBRANCH   9  10
ENDBRANCH   7   9
ENDBRANCH   4   5
ENDBRANCH   3   4
ENDBRANCH   2   3
ENDBRANCH   1   2
BRANCH   1  36
ATOM     36  C   UNL A   1      39.741  35.195  36.402  1.00  0.00     0.021 C 
BRANCH  36  37
ATOM     37  C   UNL A   1      41.022  35.076  37.216  1.00  0.00     0.116 C 
BRANCH  37  38
ATOM     38  N   UNL A   1      40.870  34.258  38.412  1.00  0.00    -0.352 N 
ATOM     39  C   UNL A   1      41.153  32.921  38.587  1.00  0.00     0.251 C 
ATOM     40  H   UNL A   1      40.519  34.725  39.205  1.00  0.00     0.163 HD
ATOM     41  O   UNL A   1      40.853  32.350  39.629  1.00  0.00    -0.269 OA
BRANCH  39  42
ATOM     42  C   UNL A   1      41.781  32.169  37.478  1.00  0.00     0.039 A 
ATOM     43  C   UNL A   1      43.171  32.097  37.374  1.00  0.00     0.014 A 
ATOM     44  C   UNL A   1      40.973  31.597  36.493  1.00  0.00     0.014 A 
ATOM     45  C   UNL A   1      43.747  31.640  36.195  1.00  0.00     0.010 A 
ATOM     46  C   UNL A   1      41.562  31.042  35.352  1.00  0.00     0.010 A 
ATOM     47  C   UNL A   1      42.951  31.114  35.164  1.00  0.00    -0.014 A 
BRANCH  47  48
ATOM     48  C   UNL A   1      43.592  30.659  33.901  1.00  0.00     0.031 A 
ATOM     49  C   UNL A   1      44.090  29.243  33.752  1.00  0.00     0.074 A 
ATOM     50  C   UNL A   1      43.673  31.511  32.859  1.00  0.00     0.049 A 
ATOM     51  N   UNL A   1      44.660  28.679  32.717  1.00  0.00    -0.248 NA
ATOM     52  C   UNL A   1      43.934  28.344  34.908  1.00  0.00     0.031 C 
ATOM     53  C   UNL A   1      43.197  32.897  32.873  1.00  0.00     0.029 A 
ATOM     54  N   UNL A   1      44.152  31.340  31.585  1.00  0.00    -0.354 N 
ATOM     55  C   UNL A   1      44.939  27.370  33.098  1.00  0.00     0.074 A 
ATOM     56  C   UNL A   1      44.514  27.232  34.472  1.00  0.00     0.031 C 
ATOM     57  C   UNL A   1      43.351  33.426  31.652  1.00  0.00     0.029 A 
ATOM     58  C   UNL A   1      44.012  32.453  30.789  1.00  0.00     0.049 A 
ATOM     59  H   UNL A   1      44.557  30.499  31.269  1.00  0.00     0.167 HD
ATOM     60  C   UNL A   1      45.480  26.372  32.361  1.00  0.00     0.031 A 
ATOM     61  C   UNL A   1      44.385  32.683  29.513  1.00  0.00     0.031 A 
ATOM     62  C   UNL A   1      45.883  26.516  30.983  1.00  0.00     0.049 A 
ATOM     63  C   UNL A   1      45.042  31.578  28.737  1.00  0.00     0.074 A 
ATOM     64  C   UNL A   1      46.424  25.554  30.148  1.00  0.00     0.029 A 
ATOM     65  N   UNL A   1      45.783  27.681  30.237  1.00  0.00    -0.354 N 
ATOM     66  N   UNL A   1      45.284  30.345  29.111  1.00  0.00    -0.248 NA
ATOM     67  C   UNL A   1      45.473  31.888  27.366  1.00  0.00     0.031 C 
ATOM     68  C   UNL A   1      46.727  26.157  28.927  1.00  0.00     0.029 A 
ATOM     69  C   UNL A   1      46.288  27.470  28.964  1.00  0.00     0.049 A 
ATOM     70  H   UNL A   1      45.409  28.531  30.564  1.00  0.00     0.167 HD
ATOM     71  C   UNL A   1      45.881  29.726  28.019  1.00  0.00     0.074 A 
ATOM     72  C   UNL A   1      45.941  30.714  26.961  1.00  0.00     0.031 C 
ATOM     73  C   UNL A   1      46.342  28.456  27.910  1.00  0.00     0.031 A 
BRANCH  60  74
ATOM     74  C   UNL A   1      45.673  25.017  33.002  1.00  0.00    -0.014 A 
ATOM     75  C   UNL A   1      44.674  24.032  32.869  1.00  0.00     0.010 A 
ATOM     76  C   UNL A   1      46.764  24.767  33.853  1.00  0.00     0.010 A 
ATOM     77  C   UNL A   1      44.737  22.848  33.609  1.00  0.00     0.020 A 
ATOM     78  C   UNL A   1      46.848  23.568  34.569  1.00  0.00     0.020 A 
ATOM     79  C   UNL A   1      45.819  22.629  34.464  1.00  0.00     0.054 A 
BRANCH  79  80
ATOM     80  S   UNL A   1      45.854  21.111  35.458  1.00  0.00     0.124 S 
ATOM     81  O   UNL A   1      47.086  20.472  35.006  1.00  0.00    -0.237 OA
ATOM     82  O   UNL A   1      45.874  21.626  36.825  1.00  0.00    -0.237 OA
ATOM     83  O   UNL A   1      44.620  20.425  35.080  1.00  0.00    -0.744 OA
ENDBRANCH  79  80
ENDBRANCH  60  74
BRANCH  61  84
ATOM     84  C   UNL A   1      44.115  34.020  28.911  1.00  0.00    -0.014 A 
ATOM     85  C   UNL A   1      45.093  35.032  28.959  1.00  0.00     0.010 A 
ATOM     86  C   UNL A   1      42.849  34.323  28.381  1.00  0.00     0.010 A 
ATOM     87  C   UNL A   1      44.788  36.337  28.563  1.00  0.00     0.020 A 
ATOM     88  C   UNL A   1      42.552  35.619  27.946  1.00  0.00     0.020 A 
ATOM     89  C   UNL A   1      43.513  36.625  28.074  1.00  0.00     0.054 A 
BRANCH  89  90
ATOM     90  S   UNL A   1      43.118  38.340  27.638  1.00  0.00     0.124 S 
ATOM     91  O   UNL A   1      41.944  38.169  26.785  1.00  0.00    -0.237 OA
ATOM     92  O   UNL A   1      42.865  38.950  28.942  1.00  0.00    -0.237 OA
ATOM     93  O   UNL A   1      44.322  38.808  26.958  1.00  0.00    -0.744 OA
ENDBRANCH  89  90
ENDBRANCH  61  84
BRANCH  73  94
ATOM     94  C   UNL A   1      46.961  28.027  26.603  1.00  0.00    -0.014 A 
ATOM     95  C   UNL A   1      48.362  28.039  26.457  1.00  0.00     0.010 A 
ATOM     96  C   UNL A   1      46.160  27.762  25.478  1.00  0.00     0.010 A 
ATOM     97  C   UNL A   1      48.947  27.849  25.203  1.00  0.00     0.020 A 
ATOM     98  C   UNL A   1      46.744  27.533  24.229  1.00  0.00     0.020 A 
ATOM     99  C   UNL A   1      48.132  27.611  24.094  1.00  0.00     0.054 A 
BRANCH  99 100
ATOM    100  S   UNL A   1      48.909  27.429  22.465  1.00  0.00     0.124 S 
ATOM    101  O   UNL A   1      50.327  27.562  22.783  1.00  0.00    -0.237 OA
ATOM    102  O   UNL A   1      48.478  26.095  22.053  1.00  0.00    -0.237 OA
ATOM    103  O   UNL A   1      48.338  28.527  21.687  1.00  0.00    -0.744 OA
ENDBRANCH  99 100
ENDBRANCH  73  94
ENDBRANCH  47  48
ENDBRANCH  39  42
ENDBRANCH  37  38
ENDBRANCH  36  37
ENDBRANCH   1  36
TORSDOF 18
ENDMDL
MODEL 2
REMARK VINA RESULT:      -8.7      4.357     11.004
REMARK SMILES O=C(CN1C(=O)/C(=C2/SC(Nc3ccc(Cl)cc3)=[NH+]C2=O)c2ccccc21)NCCCCCCNC(=O)c1ccc(-c2c3nc(c(-c4ccc(S(=O)(=O)[O-])cc4)c4ccc([nH]4)c(-c4ccc(S(=O)(=O)[O-])cc4)c4nc(c(-c5ccc(S(=O)(=O)[O-])cc5)c5ccc2[nH]5)C=C4)C=C3)cc1
REMARK SMILES IDX 32 1 31 2 30 3 29 4 28 5 1 6 2 7 3 9 4 10 5 11 27 12 6 13
REMARK SMILES IDX 7 14 22 15 26 16 8 17 23 18 25 19 9 20 20 21 24 22 10 23
REMARK SMILES IDX 19 24 21 25 11 26 12 29 13 30 18 31 14 32 17 33 15 34 16 35
REMARK SMILES IDX 33 36 34 37 35 38 36 39 37 41 38 42 39 43 97 44 40 45 96 46
REMARK SMILES IDX 41 47 42 48 43 49 90 50 44 51 95 52 89 53 91 54 45 55 94 56
REMARK SMILES IDX 88 57 87 58 46 60 76 61 57 62 75 63 58 64 61 65 74 66 92 67
REMARK SMILES IDX 59 68 60 69 73 71 93 72 62 73 47 74 48 75 56 76 49 77 55 78
REMARK SMILES IDX 50 79 51 80 52 81 53 82 54 83 77 84 78 85 86 86 79 87 85 88
REMARK SMILES IDX 80 89 81 90 82 91 83 92 84 93 63 94 64 95 72 96 65 97 71 98
REMARK SMILES IDX 66 99 67 100 68 101 69 102 70 103
REMARK H PARENT 28 8 19 27 11 28 35 40 91 59 61 70
REMARK Flexibility Score: inf
ROOT
ATOM      1  C   UNL A   1      42.404  22.342  25.780  1.00  0.00     0.002 C 
ENDROOT
BRANCH   1   2
ATOM      2  C   UNL A   1      43.859  21.896  25.610  1.00  0.00     0.002 C 
BRANCH   2   3
ATOM      3  C   UNL A   1      44.519  22.253  24.268  1.00  0.00     0.021 C 
BRANCH   3   4
ATOM      4  C   UNL A   1      45.815  23.061  24.375  1.00  0.00     0.116 C 
BRANCH   4   5
ATOM      5  N   UNL A   1      45.735  24.021  25.451  1.00  0.00    -0.355 N 
ATOM      6  O   UNL A   1      46.566  25.859  24.357  1.00  0.00    -0.273 OA
ATOM      7  C   UNL A   1      46.161  25.322  25.386  1.00  0.00     0.240 C 
ATOM      8  H   UNL A   1      45.344  23.715  26.301  1.00  0.00     0.163 HD
BRANCH   7   9
ATOM      9  C   UNL A   1      46.269  26.014  26.754  1.00  0.00     0.225 C 
BRANCH   9  10
ATOM     10  N   UNL A   1      46.575  27.437  26.768  1.00  0.00    -0.298 N 
ATOM     11  C   UNL A   1      45.612  28.443  26.835  1.00  0.00     0.260 C 
ATOM     12  C   UNL A   1      47.840  27.949  27.121  1.00  0.00     0.053 A 
ATOM     13  O   UNL A   1      44.407  28.284  26.820  1.00  0.00    -0.269 OA
ATOM     14  C   UNL A   1      46.364  29.725  27.055  1.00  0.00     0.071 C 
ATOM     15  C   UNL A   1      47.767  29.333  27.327  1.00  0.00     0.012 A 
ATOM     16  C   UNL A   1      49.023  27.248  27.318  1.00  0.00     0.027 A 
ATOM     17  C   UNL A   1      45.839  30.956  26.927  1.00  0.00     0.122 C 
ATOM     18  C   UNL A   1      48.903  30.028  27.728  1.00  0.00     0.011 A 
ATOM     19  C   UNL A   1      50.158  27.952  27.722  1.00  0.00     0.002 A 
ATOM     20  S   UNL A   1      46.716  32.410  27.210  1.00  0.00     0.007 SA
ATOM     21  C   UNL A   1      44.486  31.381  26.424  1.00  0.00     0.347 C 
ATOM     22  C   UNL A   1      50.099  29.334  27.921  1.00  0.00     0.001 A 
ATOM     23  C   UNL A   1      45.607  33.307  26.206  1.00  0.00     0.322 C 
ATOM     24  N   UNL A   1      44.517  32.675  25.922  1.00  0.00    -0.199 N 
ATOM     25  O   UNL A   1      43.476  30.703  26.458  1.00  0.00    -0.240 OA
ATOM     26  N   UNL A   1      45.901  34.586  25.817  1.00  0.00    -0.235 N 
ATOM     27  H   UNL A   1      43.781  33.072  25.402  1.00  0.00     0.316 HD
ATOM     28  H   UNL A   1      45.173  35.090  25.384  1.00  0.00     0.313 HD
BRANCH  26  29
ATOM     29  C   UNL A   1      47.125  35.262  25.966  1.00  0.00     0.125 A 
ATOM     30  C   UNL A   1      48.227  34.990  25.140  1.00  0.00     0.053 A 
ATOM     31  C   UNL A   1      47.304  36.132  27.046  1.00  0.00     0.053 A 
ATOM     32  C   UNL A   1      49.493  35.506  25.426  1.00  0.00     0.025 A 
ATOM     33  C   UNL A   1      48.570  36.658  27.334  1.00  0.00     0.025 A 
ATOM     34  C   UNL A   1      49.662  36.326  26.535  1.00  0.00     0.041 A 
ATOM     35  Cl  UNL A   1      51.229  36.913  26.931  1.00  0.00    -0.084 Cl
ENDBRANCH  26  29
ENDBRANCH   9  10
ENDBRANCH   7   9
ENDBRANCH   4   5
ENDBRANCH   3   4
ENDBRANCH   2   3
ENDBRANCH   1   2
BRANCH   1  36
ATOM     36  C   UNL A   1      41.402  21.218  26.026  1.00  0.00     0.021 C 
BRANCH  36  37
ATOM     37  C   UNL A   1      40.164  21.622  26.816  1.00  0.00     0.116 C 
BRANCH  37  38
ATOM     38  N   UNL A   1      39.115  22.201  25.985  1.00  0.00    -0.352 N 
ATOM     39  C   UNL A   1      38.638  23.493  25.972  1.00  0.00     0.251 C 
ATOM     40  H   UNL A   1      38.691  21.585  25.345  1.00  0.00     0.163 HD
ATOM     41  O   UNL A   1      37.663  23.793  25.292  1.00  0.00    -0.269 OA
BRANCH  39  42
ATOM     42  C   UNL A   1      39.291  24.509  26.828  1.00  0.00     0.039 A 
ATOM     43  C   UNL A   1      38.992  24.580  28.190  1.00  0.00     0.014 A 
ATOM     44  C   UNL A   1      40.148  25.447  26.247  1.00  0.00     0.014 A 
ATOM     45  C   UNL A   1      39.381  25.697  28.919  1.00  0.00     0.010 A 
ATOM     46  C   UNL A   1      40.625  26.515  27.013  1.00  0.00     0.010 A 
ATOM     47  C   UNL A   1      40.196  26.684  28.340  1.00  0.00    -0.014 A 
BRANCH  47  48
ATOM     48  C   UNL A   1      40.574  27.884  29.135  1.00  0.00     0.031 A 
ATOM     49  C   UNL A   1      41.944  28.002  29.753  1.00  0.00     0.074 A 
ATOM     50  C   UNL A   1      39.695  28.900  29.252  1.00  0.00     0.049 A 
ATOM     51  N   UNL A   1      42.441  28.983  30.463  1.00  0.00    -0.248 NA
ATOM     52  C   UNL A   1      42.878  26.880  29.554  1.00  0.00     0.031 C 
ATOM     53  C   UNL A   1      38.350  28.914  28.671  1.00  0.00     0.029 A 
ATOM     54  N   UNL A   1      39.803  30.123  29.865  1.00  0.00    -0.354 N 
ATOM     55  C   UNL A   1      43.734  28.595  30.804  1.00  0.00     0.074 A 
ATOM     56  C   UNL A   1      43.933  27.272  30.258  1.00  0.00     0.031 C 
ATOM     57  C   UNL A   1      37.784  30.106  28.903  1.00  0.00     0.029 A 
ATOM     58  C   UNL A   1      38.686  30.913  29.718  1.00  0.00     0.049 A 
ATOM     59  H   UNL A   1      40.603  30.408  30.362  1.00  0.00     0.167 HD
ATOM     60  C   UNL A   1      44.672  29.289  31.490  1.00  0.00     0.031 A 
ATOM     61  C   UNL A   1      38.401  32.142  30.196  1.00  0.00     0.031 A 
ATOM     62  C   UNL A   1      44.468  30.617  32.014  1.00  0.00     0.049 A 
ATOM     63  C   UNL A   1      39.436  32.865  31.009  1.00  0.00     0.074 A 
ATOM     64  C   UNL A   1      45.368  31.408  32.707  1.00  0.00     0.029 A 
ATOM     65  N   UNL A   1      43.298  31.353  31.898  1.00  0.00    -0.354 N 
ATOM     66  N   UNL A   1      40.655  32.486  31.308  1.00  0.00    -0.248 NA
ATOM     67  C   UNL A   1      39.064  34.181  31.547  1.00  0.00     0.031 C 
ATOM     68  C   UNL A   1      44.717  32.584  33.081  1.00  0.00     0.029 A 
ATOM     69  C   UNL A   1      43.442  32.572  32.540  1.00  0.00     0.049 A 
ATOM     70  H   UNL A   1      42.485  31.053  31.430  1.00  0.00     0.167 HD
ATOM     71  C   UNL A   1      41.204  33.522  32.055  1.00  0.00     0.074 A 
ATOM     72  C   UNL A   1      40.191  34.555  32.142  1.00  0.00     0.031 C 
ATOM     73  C   UNL A   1      42.432  33.602  32.621  1.00  0.00     0.031 A 
BRANCH  60  74
ATOM     74  C   UNL A   1      46.022  28.651  31.723  1.00  0.00    -0.014 A 
ATOM     75  C   UNL A   1      47.095  28.952  30.862  1.00  0.00     0.010 A 
ATOM     76  C   UNL A   1      46.192  27.649  32.695  1.00  0.00     0.010 A 
ATOM     77  C   UNL A   1      48.291  28.233  30.935  1.00  0.00     0.020 A 
ATOM     78  C   UNL A   1      47.400  26.951  32.795  1.00  0.00     0.020 A 
ATOM     79  C   UNL A   1      48.431  27.227  31.894  1.00  0.00     0.054 A 
BRANCH  79  80
ATOM     80  S   UNL A   1      49.971  26.268  31.936  1.00  0.00     0.124 S 
ATOM     81  O   UNL A   1      50.982  27.310  32.087  1.00  0.00    -0.237 OA
ATOM     82  O   UNL A   1      49.776  25.404  33.098  1.00  0.00    -0.237 OA
ATOM     83  O   UNL A   1      49.977  25.572  30.650  1.00  0.00    -0.744 OA
ENDBRANCH  79  80
ENDBRANCH  60  74
BRANCH  61  84
ATOM     84  C   UNL A   1      37.075  32.749  29.883  1.00  0.00    -0.014 A 
ATOM     85  C   UNL A   1      36.930  33.608  28.778  1.00  0.00     0.010 A 
ATOM     86  C   UNL A   1      35.980  32.557  30.743  1.00  0.00     0.010 A 
ATOM     87  C   UNL A   1      35.746  34.323  28.581  1.00  0.00     0.020 A 
ATOM     88  C   UNL A   1      34.778  33.239  30.527  1.00  0.00     0.020 A 
ATOM     89  C   UNL A   1      34.682  34.146  29.468  1.00  0.00     0.054 A 
BRANCH  89  90
ATOM     90  S   UNL A   1      33.184  35.140  29.235  1.00  0.00     0.124 S 
ATOM     91  O   UNL A   1      32.674  35.236  30.601  1.00  0.00    -0.237 OA
ATOM     92  O   UNL A   1      33.710  36.381  28.672  1.00  0.00    -0.237 OA
ATOM     93  O   UNL A   1      32.376  34.336  28.322  1.00  0.00    -0.744 OA
ENDBRANCH  89  90
ENDBRANCH  61  84
BRANCH  73  94
ATOM     94  C   UNL A   1      42.785  34.846  33.397  1.00  0.00    -0.014 A 
ATOM     95  C   UNL A   1      43.397  35.930  32.738  1.00  0.00     0.010 A 
ATOM     96  C   UNL A   1      42.654  34.886  34.797  1.00  0.00     0.010 A 
ATOM     97  C   UNL A   1      43.920  37.001  33.465  1.00  0.00     0.020 A 
ATOM     98  C   UNL A   1      43.142  35.974  35.524  1.00  0.00     0.020 A 
ATOM     99  C   UNL A   1      43.801  37.009  34.856  1.00  0.00     0.054 A 
BRANCH  99 100
ATOM    100  S   UNL A   1      44.541  38.379  35.787  1.00  0.00     0.124 S 
ATOM    101  O   UNL A   1      44.180  39.535  34.973  1.00  0.00    -0.237 OA
ATOM    102  O   UNL A   1      43.869  38.286  37.081  1.00  0.00    -0.237 OA
ATOM    103  O   UNL A   1      45.965  38.051  35.809  1.00  0.00    -0.744 OA
ENDBRANCH  99 100
ENDBRANCH  73  94
ENDBRANCH  47  48
ENDBRANCH  39  42
ENDBRANCH  37  38
ENDBRANCH  36  37
ENDBRANCH   1  36
TORSDOF 18
ENDMDL
MODEL 3
REMARK VINA RESULT:      -8.5      4.567     12.622
REMARK SMILES O=C(CN1C(=O)/C(=C2/SC(Nc3ccc(Cl)cc3)=[NH+]C2=O)c2ccccc21)NCCCCCCNC(=O)c1ccc(-c2c3nc(c(-c4ccc(S(=O)(=O)[O-])cc4)c4ccc([nH]4)c(-c4ccc(S(=O)(=O)[O-])cc4)c4nc(c(-c5ccc(S(=O)(=O)[O-])cc5)c5ccc2[nH]5)C=C4)C=C3)cc1
REMARK SMILES IDX 32 1 31 2 30 3 29 4 28 5 1 6 2 7 3 9 4 10 5 11 27 12 6 13
REMARK SMILES IDX 7 14 22 15 26 16 8 17 23 18 25 19 9 20 20 21 24 22 10 23
REMARK SMILES IDX 19 24 21 25 11 26 12 29 13 30 18 31 14 32 17 33 15 34 16 35
REMARK SMILES IDX 33 36 34 37 35 38 36 39 37 41 38 42 39 43 97 44 40 45 96 46
REMARK SMILES IDX 41 47 42 48 43 49 90 50 44 51 95 52 89 53 91 54 45 55 94 56
REMARK SMILES IDX 88 57 87 58 46 60 76 61 57 62 75 63 58 64 61 65 74 66 92 67
REMARK SMILES IDX 59 68 60 69 73 71 93 72 62 73 47 74 48 75 56 76 49 77 55 78
REMARK SMILES IDX 50 79 51 80 52 81 53 82 54 83 77 84 78 85 86 86 79 87 85 88
REMARK SMILES IDX 80 89 81 90 82 91 83 92 84 93 63 94 64 95 72 96 65 97 71 98
REMARK SMILES IDX 66 99 67 100 68 101 69 102 70 103
REMARK H PARENT 28 8 19 27 11 28 35 40 91 59 61 70
REMARK Flexibility Score: inf
ROOT
ATOM      1  C   UNL A   1      42.313  21.593  25.652  1.00  0.00     0.002 C 
ENDROOT
BRANCH   1   2
ATOM      2  C   UNL A   1      43.655  20.854  25.665  1.00  0.00     0.002 C 
BRANCH   2   3
ATOM      3  C   UNL A   1      44.677  21.300  24.606  1.00  0.00     0.021 C 
BRANCH   3   4
ATOM      4  C   UNL A   1      45.886  22.066  25.152  1.00  0.00     0.116 C 
BRANCH   4   5
ATOM      5  N   UNL A   1      45.472  23.074  26.098  1.00  0.00    -0.355 N 
ATOM      6  O   UNL A   1      44.919  24.744  24.624  1.00  0.00    -0.273 OA
ATOM      7  C   UNL A   1      45.073  24.347  25.777  1.00  0.00     0.240 C 
ATOM      8  H   UNL A   1      45.476  22.829  27.051  1.00  0.00     0.163 HD
BRANCH   7   9
ATOM      9  C   UNL A   1      45.013  25.304  26.977  1.00  0.00     0.225 C 
BRANCH   9  10
ATOM     10  N   UNL A   1      46.193  26.108  27.258  1.00  0.00    -0.298 N 
ATOM     11  C   UNL A   1      47.492  25.603  27.295  1.00  0.00     0.260 C 
ATOM     12  C   UNL A   1      46.219  27.511  27.123  1.00  0.00     0.053 A 
ATOM     13  O   UNL A   1      47.812  24.437  27.171  1.00  0.00    -0.269 OA
ATOM     14  C   UNL A   1      48.401  26.796  27.389  1.00  0.00     0.071 C 
ATOM     15  C   UNL A   1      47.538  27.982  27.175  1.00  0.00     0.012 A 
ATOM     16  C   UNL A   1      45.150  28.370  26.906  1.00  0.00     0.027 A 
ATOM     17  C   UNL A   1      49.708  26.745  27.697  1.00  0.00     0.122 C 
ATOM     18  C   UNL A   1      47.788  29.341  27.017  1.00  0.00     0.011 A 
ATOM     19  C   UNL A   1      45.409  29.733  26.746  1.00  0.00     0.002 A 
ATOM     20  S   UNL A   1      50.734  28.126  27.773  1.00  0.00     0.007 SA
ATOM     21  C   UNL A   1      50.549  25.581  28.147  1.00  0.00     0.347 C 
ATOM     22  C   UNL A   1      46.719  30.215  26.805  1.00  0.00     0.001 A 
ATOM     23  C   UNL A   1      51.840  27.281  28.823  1.00  0.00     0.322 C 
ATOM     24  N   UNL A   1      51.647  26.006  28.884  1.00  0.00    -0.199 N 
ATOM     25  O   UNL A   1      50.326  24.411  27.895  1.00  0.00    -0.240 OA
ATOM     26  N   UNL A   1      52.838  27.958  29.471  1.00  0.00    -0.235 N 
ATOM     27  H   UNL A   1      52.220  25.395  29.400  1.00  0.00     0.316 HD
ATOM     28  H   UNL A   1      53.518  27.408  29.923  1.00  0.00     0.313 HD
BRANCH  26  29
ATOM     29  C   UNL A   1      53.001  29.352  29.563  1.00  0.00     0.125 A 
ATOM     30  C   UNL A   1      52.343  30.113  30.543  1.00  0.00     0.053 A 
ATOM     31  C   UNL A   1      53.727  30.027  28.575  1.00  0.00     0.053 A 
ATOM     32  C   UNL A   1      52.341  31.508  30.498  1.00  0.00     0.025 A 
ATOM     33  C   UNL A   1      53.733  31.427  28.529  1.00  0.00     0.025 A 
ATOM     34  C   UNL A   1      53.024  32.160  29.478  1.00  0.00     0.041 A 
ATOM     35  Cl  UNL A   1      52.972  33.876  29.378  1.00  0.00    -0.084 Cl
ENDBRANCH  26  29
ENDBRANCH   9  10
ENDBRANCH   7   9
ENDBRANCH   4   5
ENDBRANCH   3   4
ENDBRANCH   2   3
ENDBRANCH   1   2
BRANCH   1  36
ATOM     36  C   UNL A   1      41.117  20.779  26.137  1.00  0.00     0.021 C 
BRANCH  36  37
ATOM     37  C   UNL A   1      40.072  21.572  26.911  1.00  0.00     0.116 C 
BRANCH  37  38
ATOM     38  N   UNL A   1      39.031  22.135  26.060  1.00  0.00    -0.352 N 
ATOM     39  C   UNL A   1      38.587  23.437  25.985  1.00  0.00     0.251 C 
ATOM     40  H   UNL A   1      38.586  21.499  25.455  1.00  0.00     0.163 HD
ATOM     41  O   UNL A   1      37.613  23.726  25.298  1.00  0.00    -0.269 OA
BRANCH  39  42
ATOM     42  C   UNL A   1      39.271  24.477  26.784  1.00  0.00     0.039 A 
ATOM     43  C   UNL A   1      38.967  24.641  28.137  1.00  0.00     0.014 A 
ATOM     44  C   UNL A   1      40.166  25.346  26.156  1.00  0.00     0.014 A 
ATOM     45  C   UNL A   1      39.394  25.784  28.801  1.00  0.00     0.010 A 
ATOM     46  C   UNL A   1      40.678  26.440  26.861  1.00  0.00     0.010 A 
ATOM     47  C   UNL A   1      40.248  26.704  28.171  1.00  0.00    -0.014 A 
BRANCH  47  48
ATOM     48  C   UNL A   1      40.666  27.935  28.896  1.00  0.00     0.031 A 
ATOM     49  C   UNL A   1      39.714  29.091  29.070  1.00  0.00     0.074 A 
ATOM     50  C   UNL A   1      41.893  27.986  29.452  1.00  0.00     0.049 A 
ATOM     51  N   UNL A   1      39.911  30.229  29.686  1.00  0.00    -0.248 NA
ATOM     52  C   UNL A   1      38.371  28.959  28.480  1.00  0.00     0.031 C 
ATOM     53  C   UNL A   1      42.892  26.916  29.378  1.00  0.00     0.029 A 
ATOM     54  N   UNL A   1      42.502  28.954  30.211  1.00  0.00    -0.354 N 
ATOM     55  C   UNL A   1      38.729  30.950  29.548  1.00  0.00     0.074 A 
ATOM     56  C   UNL A   1      37.832  30.140  28.756  1.00  0.00     0.031 C 
ATOM     57  C   UNL A   1      43.959  27.260  30.111  1.00  0.00     0.029 A 
ATOM     58  C   UNL A   1      43.762  28.606  30.640  1.00  0.00     0.049 A 
ATOM     59  H   UNL A   1      42.078  29.815  30.429  1.00  0.00     0.167 HD
ATOM     60  C   UNL A   1      38.416  32.166  30.054  1.00  0.00     0.031 A 
ATOM     61  C   UNL A   1      44.673  29.290  31.362  1.00  0.00     0.031 A 
ATOM     62  C   UNL A   1      39.313  32.958  30.860  1.00  0.00     0.049 A 
ATOM     63  C   UNL A   1      44.325  30.664  31.858  1.00  0.00     0.074 A 
ATOM     64  C   UNL A   1      39.077  34.196  31.433  1.00  0.00     0.029 A 
ATOM     65  N   UNL A   1      40.604  32.594  31.213  1.00  0.00    -0.354 N 
ATOM     66  N   UNL A   1      43.198  31.322  31.728  1.00  0.00    -0.248 NA
ATOM     67  C   UNL A   1      45.365  31.390  32.602  1.00  0.00     0.031 C 
ATOM     68  C   UNL A   1      40.249  34.616  32.062  1.00  0.00     0.029 A 
ATOM     69  C   UNL A   1      41.188  33.601  31.966  1.00  0.00     0.049 A 
ATOM     70  H   UNL A   1      41.040  31.747  30.967  1.00  0.00     0.167 HD
ATOM     71  C   UNL A   1      43.385  32.532  32.386  1.00  0.00     0.074 A 
ATOM     72  C   UNL A   1      44.726  32.505  32.935  1.00  0.00     0.031 C 
ATOM     73  C   UNL A   1      42.523  33.570  32.515  1.00  0.00     0.031 A 
BRANCH  60  74
ATOM     74  C   UNL A   1      37.046  32.740  29.774  1.00  0.00    -0.014 A 
ATOM     75  C   UNL A   1      36.835  33.511  28.614  1.00  0.00     0.010 A 
ATOM     76  C   UNL A   1      36.013  32.644  30.723  1.00  0.00     0.010 A 
ATOM     77  C   UNL A   1      35.640  34.211  28.431  1.00  0.00     0.020 A 
ATOM     78  C   UNL A   1      34.801  33.316  30.527  1.00  0.00     0.020 A 
ATOM     79  C   UNL A   1      34.634  34.119  29.396  1.00  0.00     0.054 A 
BRANCH  79  80
ATOM     80  S   UNL A   1      33.112  35.080  29.167  1.00  0.00     0.124 S 
ATOM     81  O   UNL A   1      33.625  36.373  28.728  1.00  0.00    -0.237 OA
ATOM     82  O   UNL A   1      32.397  34.307  28.155  1.00  0.00    -0.237 OA
ATOM     83  O   UNL A   1      32.497  35.070  30.494  1.00  0.00    -0.744 OA
ENDBRANCH  79  80
ENDBRANCH  60  74
BRANCH  61  84
ATOM     84  C   UNL A   1      45.987  28.651  31.661  1.00  0.00    -0.014 A 
ATOM     85  C   UNL A   1      47.064  28.786  30.764  1.00  0.00     0.010 A 
ATOM     86  C   UNL A   1      46.139  27.822  32.785  1.00  0.00     0.010 A 
ATOM     87  C   UNL A   1      48.235  28.047  30.941  1.00  0.00     0.020 A 
ATOM     88  C   UNL A   1      47.327  27.111  32.988  1.00  0.00     0.020 A 
ATOM     89  C   UNL A   1      48.353  27.201  32.044  1.00  0.00     0.054 A 
BRANCH  89  90
ATOM     90  S   UNL A   1      49.853  26.196  32.211  1.00  0.00     0.124 S 
ATOM     91  O   UNL A   1      50.891  27.138  31.802  1.00  0.00    -0.237 OA
ATOM     92  O   UNL A   1      49.845  25.845  33.630  1.00  0.00    -0.237 OA
ATOM     93  O   UNL A   1      49.625  25.081  31.295  1.00  0.00    -0.744 OA
ENDBRANCH  89  90
ENDBRANCH  61  84
BRANCH  73  94
ATOM     94  C   UNL A   1      42.976  34.788  33.280  1.00  0.00    -0.014 A 
ATOM     95  C   UNL A   1      43.676  35.812  32.613  1.00  0.00     0.010 A 
ATOM     96  C   UNL A   1      42.848  34.849  34.680  1.00  0.00     0.010 A 
ATOM     97  C   UNL A   1      44.284  36.843  33.332  1.00  0.00     0.020 A 
ATOM     98  C   UNL A   1      43.423  35.900  35.399  1.00  0.00     0.020 A 
ATOM     99  C   UNL A   1      44.165  36.872  34.723  1.00  0.00     0.054 A 
BRANCH  99 100
ATOM    100  S   UNL A   1      45.015  38.185  35.644  1.00  0.00     0.124 S 
ATOM    101  O   UNL A   1      44.898  37.719  37.022  1.00  0.00    -0.237 OA
ATOM    102  O   UNL A   1      46.361  38.151  35.078  1.00  0.00    -0.237 OA
ATOM    103  O   UNL A   1      44.243  39.384  35.323  1.00  0.00    -0.744 OA
ENDBRANCH  99 100
ENDBRANCH  73  94
ENDBRANCH  47  48
ENDBRANCH  39  42
ENDBRANCH  37  38
ENDBRANCH  36  37
ENDBRANCH   1  36
TORSDOF 18
ENDMDL
