MODEL 1
REMARK VINA RESULT:     -12.2      0.000      0.000
REMARK SMILES O=C1O[C@@H](c2ccc(O)c(O)c2)[C@H](C(=O)NCCCCCCNC(=O)c2ccc(-c3c4nc(c(-c5ccc(S(=O)(=O)[O-])cc5)c5ccc([nH]5)c(-c5ccc(S(=O)(=O)[O-])cc5)c5nc(c(-c6ccc(S(=O)(=O)[O-])cc6)c6ccc3[nH]6)C=C5)C=C4)cc2)/C1=C\c1ccc(O)c(O)c1
REMARK SMILES IDX 20 1 19 2 18 3 17 4 16 5 14 6 15 7 13 9 1 10 2 11 3 12 86 13
REMARK SMILES IDX 4 14 87 15 5 16 6 17 12 18 7 19 10 20 8 21 11 22 9 24 88 26
REMARK SMILES IDX 89 27 95 28 90 29 93 30 91 31 94 32 92 34 21 36 22 37 23 38
REMARK SMILES IDX 24 39 25 41 26 42 27 43 85 44 28 45 84 46 29 47 30 48 31 49
REMARK SMILES IDX 78 50 32 51 83 52 77 53 79 54 33 55 82 56 76 57 75 58 34 60
REMARK SMILES IDX 64 61 45 62 63 63 46 64 49 65 62 66 80 67 47 68 48 69 61 71
REMARK SMILES IDX 81 72 50 73 35 74 36 75 44 76 37 77 43 78 38 79 39 80 40 81
REMARK SMILES IDX 41 82 42 83 65 84 66 85 74 86 67 87 73 88 68 89 69 90 70 91
REMARK SMILES IDX 71 92 72 93 51 94 52 95 60 96 53 97 59 98 54 99 55 100
REMARK SMILES IDX 56 101 57 102 58 103
REMARK H PARENT 16 8 11 23 9 25 94 33 92 35 23 40 79 59 49 70
REMARK Flexibility Score: inf
ROOT
ATOM      1  C   UNL A   1      36.677  23.415  25.280  1.00  0.00     0.002 C 
ENDROOT
BRANCH   1   2
ATOM      2  C   UNL A   1      35.930  22.439  24.364  1.00  0.00     0.002 C 
BRANCH   2   3
ATOM      3  C   UNL A   1      35.152  23.089  23.222  1.00  0.00     0.021 C 
BRANCH   3   4
ATOM      4  C   UNL A   1      34.361  24.325  23.626  1.00  0.00     0.116 C 
BRANCH   4   5
ATOM      5  N   UNL A   1      33.411  24.755  22.623  1.00  0.00    -0.355 N 
ATOM      6  C   UNL A   1      32.443  25.718  22.668  1.00  0.00     0.231 C 
ATOM      7  O   UNL A   1      31.862  25.964  21.609  1.00  0.00    -0.274 OA
ATOM      8  H   UNL A   1      33.472  24.274  21.766  1.00  0.00     0.163 HD
BRANCH   6   9
ATOM      9  C   UNL A   1      32.048  26.368  24.001  1.00  0.00     0.161 C 
ATOM     10  O   UNL A   1      28.486  26.637  24.064  1.00  0.00    -0.247 OA
ATOM     11  C   UNL A   1      29.691  26.814  24.053  1.00  0.00     0.335 C 
ATOM     12  O   UNL A   1      30.314  27.955  23.669  1.00  0.00    -0.453 OA
ATOM     13  C   UNL A   1      30.727  25.852  24.466  1.00  0.00     0.054 C 
ATOM     14  C   UNL A   1      31.734  27.856  23.874  1.00  0.00     0.224 C 
ATOM     15  C   UNL A   1      30.384  24.754  25.156  1.00  0.00     0.020 C 
BRANCH  14  16
ATOM     16  C   UNL A   1      32.198  28.713  25.058  1.00  0.00    -0.002 A 
ATOM     17  C   UNL A   1      33.359  28.382  25.796  1.00  0.00     0.012 A 
ATOM     18  C   UNL A   1      31.541  29.910  25.384  1.00  0.00     0.057 A 
ATOM     19  C   UNL A   1      33.863  29.218  26.798  1.00  0.00     0.050 A 
ATOM     20  C   UNL A   1      32.033  30.723  26.400  1.00  0.00     0.157 A 
ATOM     21  C   UNL A   1      33.192  30.392  27.092  1.00  0.00     0.157 A 
BRANCH  20  22
ATOM     22  O   UNL A   1      31.370  31.878  26.707  1.00  0.00    -0.504 OA
ATOM     23  H   UNL A   1      31.567  32.668  26.244  1.00  0.00     0.293 HD
ENDBRANCH  20  22
BRANCH  21  24
ATOM     24  O   UNL A   1      33.637  31.257  28.052  1.00  0.00    -0.504 OA
ATOM     25  H   UNL A   1      33.646  30.994  28.951  1.00  0.00     0.293 HD
ENDBRANCH  21  24
ENDBRANCH  14  16
BRANCH  15  26
ATOM     26  C   UNL A   1      31.331  23.743  25.620  1.00  0.00    -0.021 A 
ATOM     27  C   UNL A   1      32.347  24.069  26.532  1.00  0.00     0.012 A 
ATOM     28  C   UNL A   1      31.196  22.424  25.175  1.00  0.00     0.058 A 
ATOM     29  C   UNL A   1      33.245  23.094  26.976  1.00  0.00     0.051 A 
ATOM     30  C   UNL A   1      32.085  21.460  25.629  1.00  0.00     0.157 A 
ATOM     31  C   UNL A   1      33.106  21.790  26.517  1.00  0.00     0.157 A 
BRANCH  30  32
ATOM     32  O   UNL A   1      31.950  20.170  25.198  1.00  0.00    -0.504 OA
ATOM     33  H   UNL A   1      31.125  19.734  25.275  1.00  0.00     0.293 HD
ENDBRANCH  30  32
BRANCH  31  34
ATOM     34  O   UNL A   1      33.952  20.792  26.914  1.00  0.00    -0.504 OA
ATOM     35  H   UNL A   1      34.103  20.641  27.826  1.00  0.00     0.293 HD
ENDBRANCH  31  34
ENDBRANCH  15  26
ENDBRANCH   6   9
ENDBRANCH   4   5
ENDBRANCH   3   4
ENDBRANCH   2   3
ENDBRANCH   1   2
BRANCH   1  36
ATOM     36  C   UNL A   1      38.029  22.917  25.800  1.00  0.00     0.021 C 
BRANCH  36  37
ATOM     37  C   UNL A   1      38.869  23.978  26.500  1.00  0.00     0.116 C 
BRANCH  37  38
ATOM     38  N   UNL A   1      40.270  23.899  26.124  1.00  0.00    -0.352 N 
ATOM     39  C   UNL A   1      41.300  24.747  26.445  1.00  0.00     0.251 C 
ATOM     40  H   UNL A   1      40.515  23.130  25.560  1.00  0.00     0.163 HD
ATOM     41  O   UNL A   1      42.382  24.647  25.874  1.00  0.00    -0.269 OA
BRANCH  39  42
ATOM     42  C   UNL A   1      41.092  25.789  27.472  1.00  0.00     0.039 A 
ATOM     43  C   UNL A   1      40.071  25.625  28.411  1.00  0.00     0.014 A 
ATOM     44  C   UNL A   1      41.908  26.922  27.510  1.00  0.00     0.014 A 
ATOM     45  C   UNL A   1      39.905  26.573  29.422  1.00  0.00     0.010 A 
ATOM     46  C   UNL A   1      41.794  27.822  28.564  1.00  0.00     0.010 A 
ATOM     47  C   UNL A   1      40.785  27.663  29.526  1.00  0.00    -0.014 A 
BRANCH  47  48
ATOM     48  C   UNL A   1      40.661  28.658  30.621  1.00  0.00     0.031 A 
ATOM     49  C   UNL A   1      41.536  28.545  31.841  1.00  0.00     0.074 A 
ATOM     50  C   UNL A   1      39.721  29.621  30.549  1.00  0.00     0.049 A 
ATOM     51  N   UNL A   1      41.524  29.263  32.933  1.00  0.00    -0.248 NA
ATOM     52  C   UNL A   1      42.536  27.464  31.846  1.00  0.00     0.031 C 
ATOM     53  C   UNL A   1      38.792  29.819  29.434  1.00  0.00     0.029 A 
ATOM     54  N   UNL A   1      39.386  30.613  31.438  1.00  0.00    -0.354 N 
ATOM     55  C   UNL A   1      42.500  28.715  33.759  1.00  0.00     0.074 A 
ATOM     56  C   UNL A   1      43.043  27.568  33.065  1.00  0.00     0.031 C 
ATOM     57  C   UNL A   1      38.013  30.881  29.692  1.00  0.00     0.029 A 
ATOM     58  C   UNL A   1      38.351  31.412  31.009  1.00  0.00     0.049 A 
ATOM     59  H   UNL A   1      39.843  30.740  32.300  1.00  0.00     0.167 HD
ATOM     60  C   UNL A   1      42.921  29.139  34.974  1.00  0.00     0.031 A 
ATOM     61  C   UNL A   1      37.734  32.446  31.613  1.00  0.00     0.031 A 
ATOM     62  C   UNL A   1      42.383  30.286  35.655  1.00  0.00     0.049 A 
ATOM     63  C   UNL A   1      38.200  32.881  32.977  1.00  0.00     0.074 A 
ATOM     64  C   UNL A   1      42.773  30.826  36.868  1.00  0.00     0.029 A 
ATOM     65  N   UNL A   1      41.337  31.068  35.187  1.00  0.00    -0.354 N 
ATOM     66  N   UNL A   1      39.163  32.383  33.717  1.00  0.00    -0.248 NA
ATOM     67  C   UNL A   1      37.504  34.024  33.583  1.00  0.00     0.031 C 
ATOM     68  C   UNL A   1      41.921  31.895  37.163  1.00  0.00     0.029 A 
ATOM     69  C   UNL A   1      41.051  32.069  36.099  1.00  0.00     0.049 A 
ATOM     70  H   UNL A   1      40.869  30.931  34.332  1.00  0.00     0.167 HD
ATOM     71  C   UNL A   1      39.212  33.177  34.858  1.00  0.00     0.074 A 
ATOM     72  C   UNL A   1      38.190  34.191  34.706  1.00  0.00     0.031 C 
ATOM     73  C   UNL A   1      40.033  33.076  35.932  1.00  0.00     0.031 A 
BRANCH  60  74
ATOM     74  C   UNL A   1      44.013  28.350  35.649  1.00  0.00    -0.014 A 
ATOM     75  C   UNL A   1      45.372  28.636  35.417  1.00  0.00     0.010 A 
ATOM     76  C   UNL A   1      43.678  27.334  36.563  1.00  0.00     0.010 A 
ATOM     77  C   UNL A   1      46.372  27.892  36.049  1.00  0.00     0.020 A 
ATOM     78  C   UNL A   1      44.675  26.610  37.224  1.00  0.00     0.020 A 
ATOM     79  C   UNL A   1      46.016  26.883  36.948  1.00  0.00     0.054 A 
BRANCH  79  80
ATOM     80  S   UNL A   1      47.336  25.949  37.769  1.00  0.00     0.124 S 
ATOM     81  O   UNL A   1      46.693  24.658  37.997  1.00  0.00    -0.237 OA
ATOM     82  O   UNL A   1      48.400  25.953  36.769  1.00  0.00    -0.237 OA
ATOM     83  O   UNL A   1      47.614  26.726  38.975  1.00  0.00    -0.744 OA
ENDBRANCH  79  80
ENDBRANCH  60  74
BRANCH  61  84
ATOM     84  C   UNL A   1      36.615  33.149  30.928  1.00  0.00    -0.014 A 
ATOM     85  C   UNL A   1      35.305  33.075  31.435  1.00  0.00     0.010 A 
ATOM     86  C   UNL A   1      36.852  33.906  29.765  1.00  0.00     0.010 A 
ATOM     87  C   UNL A   1      34.252  33.721  30.781  1.00  0.00     0.020 A 
ATOM     88  C   UNL A   1      35.809  34.580  29.127  1.00  0.00     0.020 A 
ATOM     89  C   UNL A   1      34.512  34.473  29.632  1.00  0.00     0.054 A 
BRANCH  89  90
ATOM     90  S   UNL A   1      33.137  35.339  28.826  1.00  0.00     0.124 S 
ATOM     91  O   UNL A   1      32.502  34.265  28.071  1.00  0.00    -0.237 OA
ATOM     92  O   UNL A   1      32.378  35.849  29.964  1.00  0.00    -0.237 OA
ATOM     93  O   UNL A   1      33.803  36.363  28.022  1.00  0.00    -0.744 OA
ENDBRANCH  89  90
ENDBRANCH  61  84
BRANCH  73  94
ATOM     94  C   UNL A   1      39.902  34.119  37.012  1.00  0.00    -0.014 A 
ATOM     95  C   UNL A   1      40.523  35.376  36.903  1.00  0.00     0.010 A 
ATOM     96  C   UNL A   1      39.085  33.854  38.127  1.00  0.00     0.010 A 
ATOM     97  C   UNL A   1      40.351  36.337  37.903  1.00  0.00     0.020 A 
ATOM     98  C   UNL A   1      38.884  34.824  39.112  1.00  0.00     0.020 A 
ATOM     99  C   UNL A   1      39.530  36.056  39.000  1.00  0.00     0.054 A 
BRANCH  99 100
ATOM    100  S   UNL A   1      39.282  37.341  40.255  1.00  0.00     0.124 S 
ATOM    101  O   UNL A   1      38.559  36.615  41.296  1.00  0.00    -0.237 OA
ATOM    102  O   UNL A   1      40.650  37.726  40.592  1.00  0.00    -0.237 OA
ATOM    103  O   UNL A   1      38.507  38.364  39.556  1.00  0.00    -0.744 OA
ENDBRANCH  99 100
ENDBRANCH  73  94
ENDBRANCH  47  48
ENDBRANCH  39  42
ENDBRANCH  37  38
ENDBRANCH  36  37
ENDBRANCH   1  36
TORSDOF 22
ENDMDL
MODEL 2
REMARK VINA RESULT:     -12.2      6.084     11.739
REMARK SMILES O=C1O[C@@H](c2ccc(O)c(O)c2)[C@H](C(=O)NCCCCCCNC(=O)c2ccc(-c3c4nc(c(-c5ccc(S(=O)(=O)[O-])cc5)c5ccc([nH]5)c(-c5ccc(S(=O)(=O)[O-])cc5)c5nc(c(-c6ccc(S(=O)(=O)[O-])cc6)c6ccc3[nH]6)C=C5)C=C4)cc2)/C1=C\c1ccc(O)c(O)c1
REMARK SMILES IDX 20 1 19 2 18 3 17 4 16 5 14 6 15 7 13 9 1 10 2 11 3 12 86 13
REMARK SMILES IDX 4 14 87 15 5 16 6 17 12 18 7 19 10 20 8 21 11 22 9 24 88 26
REMARK SMILES IDX 89 27 95 28 90 29 93 30 91 31 94 32 92 34 21 36 22 37 23 38
REMARK SMILES IDX 24 39 25 41 26 42 27 43 85 44 28 45 84 46 29 47 30 48 31 49
REMARK SMILES IDX 78 50 32 51 83 52 77 53 79 54 33 55 82 56 76 57 75 58 34 60
REMARK SMILES IDX 64 61 45 62 63 63 46 64 49 65 62 66 80 67 47 68 48 69 61 71
REMARK SMILES IDX 81 72 50 73 35 74 36 75 44 76 37 77 43 78 38 79 39 80 40 81
REMARK SMILES IDX 41 82 42 83 65 84 66 85 74 86 67 87 73 88 68 89 69 90 70 91
REMARK SMILES IDX 71 92 72 93 51 94 52 95 60 96 53 97 59 98 54 99 55 100
REMARK SMILES IDX 56 101 57 102 58 103
REMARK H PARENT 16 8 11 23 9 25 94 33 92 35 23 40 79 59 49 70
REMARK Flexibility Score: inf
ROOT
ATOM      1  C   UNL A   1      33.088  29.384  26.768  1.00  0.00     0.002 C 
ENDROOT
BRANCH   1   2
ATOM      2  C   UNL A   1      31.925  28.531  27.288  1.00  0.00     0.002 C 
BRANCH   2   3
ATOM      3  C   UNL A   1      31.467  27.418  26.347  1.00  0.00     0.021 C 
BRANCH   3   4
ATOM      4  C   UNL A   1      32.298  26.146  26.429  1.00  0.00     0.116 C 
BRANCH   4   5
ATOM      5  N   UNL A   1      31.503  24.937  26.451  1.00  0.00    -0.355 N 
ATOM      6  C   UNL A   1      31.800  23.669  26.043  1.00  0.00     0.231 C 
ATOM      7  O   UNL A   1      30.969  22.797  26.306  1.00  0.00    -0.274 OA
ATOM      8  H   UNL A   1      30.597  25.048  26.821  1.00  0.00     0.163 HD
BRANCH   6   9
ATOM      9  C   UNL A   1      33.059  23.389  25.211  1.00  0.00     0.161 C 
ATOM     10  O   UNL A   1      32.191  21.006  22.694  1.00  0.00    -0.247 OA
ATOM     11  C   UNL A   1      32.653  21.624  23.637  1.00  0.00     0.335 C 
ATOM     12  O   UNL A   1      33.238  21.071  24.728  1.00  0.00    -0.453 OA
ATOM     13  C   UNL A   1      32.697  23.088  23.794  1.00  0.00     0.054 C 
ATOM     14  C   UNL A   1      33.761  22.090  25.599  1.00  0.00     0.224 C 
ATOM     15  C   UNL A   1      32.449  23.881  22.742  1.00  0.00     0.020 C 
BRANCH  14  16
ATOM     16  C   UNL A   1      35.292  22.148  25.551  1.00  0.00    -0.002 A 
ATOM     17  C   UNL A   1      35.995  23.325  25.902  1.00  0.00     0.012 A 
ATOM     18  C   UNL A   1      36.049  21.005  25.252  1.00  0.00     0.057 A 
ATOM     19  C   UNL A   1      37.391  23.357  25.982  1.00  0.00     0.050 A 
ATOM     20  C   UNL A   1      37.438  21.051  25.307  1.00  0.00     0.157 A 
ATOM     21  C   UNL A   1      38.106  22.211  25.683  1.00  0.00     0.157 A 
BRANCH  20  22
ATOM     22  O   UNL A   1      38.153  19.929  25.001  1.00  0.00    -0.504 OA
ATOM     23  H   UNL A   1      39.048  19.855  25.270  1.00  0.00     0.293 HD
ENDBRANCH  20  22
BRANCH  21  24
ATOM     24  O   UNL A   1      39.471  22.173  25.751  1.00  0.00    -0.504 OA
ATOM     25  H   UNL A   1      39.977  22.868  25.380  1.00  0.00     0.293 HD
ENDBRANCH  21  24
ENDBRANCH  14  16
BRANCH  15  26
ATOM     26  C   UNL A   1      32.474  25.342  22.788  1.00  0.00    -0.021 A 
ATOM     27  C   UNL A   1      33.626  26.032  23.198  1.00  0.00     0.012 A 
ATOM     28  C   UNL A   1      31.345  26.059  22.378  1.00  0.00     0.058 A 
ATOM     29  C   UNL A   1      33.644  27.428  23.232  1.00  0.00     0.051 A 
ATOM     30  C   UNL A   1      31.375  27.446  22.405  1.00  0.00     0.157 A 
ATOM     31  C   UNL A   1      32.511  28.128  22.834  1.00  0.00     0.157 A 
BRANCH  30  32
ATOM     32  O   UNL A   1      30.274  28.146  22.001  1.00  0.00    -0.504 OA
ATOM     33  H   UNL A   1      29.608  27.723  21.496  1.00  0.00     0.293 HD
ENDBRANCH  30  32
BRANCH  31  34
ATOM     34  O   UNL A   1      32.467  29.495  22.844  1.00  0.00    -0.504 OA
ATOM     35  H   UNL A   1      33.151  29.983  23.258  1.00  0.00     0.293 HD
ENDBRANCH  31  34
ENDBRANCH  15  26
ENDBRANCH   6   9
ENDBRANCH   4   5
ENDBRANCH   3   4
ENDBRANCH   2   3
ENDBRANCH   1   2
BRANCH   1  36
ATOM     36  C   UNL A   1      34.472  28.984  27.284  1.00  0.00     0.021 C 
BRANCH  36  37
ATOM     37  C   UNL A   1      35.386  30.155  27.625  1.00  0.00     0.116 C 
BRANCH  37  38
ATOM     38  N   UNL A   1      35.345  30.484  29.039  1.00  0.00    -0.352 N 
ATOM     39  C   UNL A   1      36.276  30.228  30.014  1.00  0.00     0.251 C 
ATOM     40  H   UNL A   1      34.536  30.957  29.341  1.00  0.00     0.163 HD
ATOM     41  O   UNL A   1      35.992  30.391  31.197  1.00  0.00    -0.269 OA
BRANCH  39  42
ATOM     42  C   UNL A   1      37.617  29.741  29.629  1.00  0.00     0.039 A 
ATOM     43  C   UNL A   1      38.033  29.871  28.302  1.00  0.00     0.014 A 
ATOM     44  C   UNL A   1      38.463  29.164  30.579  1.00  0.00     0.014 A 
ATOM     45  C   UNL A   1      39.321  29.470  27.941  1.00  0.00     0.010 A 
ATOM     46  C   UNL A   1      39.772  28.842  30.235  1.00  0.00     0.010 A 
ATOM     47  C   UNL A   1      40.212  28.982  28.911  1.00  0.00    -0.014 A 
BRANCH  47  48
ATOM     48  C   UNL A   1      41.602  28.596  28.562  1.00  0.00     0.031 A 
ATOM     49  C   UNL A   1      42.685  29.642  28.525  1.00  0.00     0.074 A 
ATOM     50  C   UNL A   1      41.879  27.323  28.214  1.00  0.00     0.049 A 
ATOM     51  N   UNL A   1      43.937  29.520  28.169  1.00  0.00    -0.248 NA
ATOM     52  C   UNL A   1      42.304  31.010  28.915  1.00  0.00     0.031 C 
ATOM     53  C   UNL A   1      40.911  26.224  28.182  1.00  0.00     0.029 A 
ATOM     54  N   UNL A   1      43.056  26.740  27.816  1.00  0.00    -0.354 N 
ATOM     55  C   UNL A   1      44.487  30.793  28.275  1.00  0.00     0.074 A 
ATOM     56  C   UNL A   1      43.419  31.682  28.672  1.00  0.00     0.031 C 
ATOM     57  C   UNL A   1      41.539  25.096  27.812  1.00  0.00     0.029 A 
ATOM     58  C   UNL A   1      42.940  25.398  27.534  1.00  0.00     0.049 A 
ATOM     59  H   UNL A   1      43.903  27.235  27.739  1.00  0.00     0.167 HD
ATOM     60  C   UNL A   1      45.769  31.183  28.080  1.00  0.00     0.031 A 
ATOM     61  C   UNL A   1      43.853  24.513  27.090  1.00  0.00     0.031 A 
ATOM     62  C   UNL A   1      46.830  30.292  27.693  1.00  0.00     0.049 A 
ATOM     63  C   UNL A   1      45.266  24.977  26.853  1.00  0.00     0.074 A 
ATOM     64  C   UNL A   1      48.172  30.580  27.515  1.00  0.00     0.029 A 
ATOM     65  N   UNL A   1      46.671  28.941  27.419  1.00  0.00    -0.354 N 
ATOM     66  N   UNL A   1      45.779  26.174  27.013  1.00  0.00    -0.248 NA
ATOM     67  C   UNL A   1      46.226  23.968  26.384  1.00  0.00     0.031 C 
ATOM     68  C   UNL A   1      48.812  29.418  27.072  1.00  0.00     0.029 A 
ATOM     69  C   UNL A   1      47.884  28.389  27.048  1.00  0.00     0.049 A 
ATOM     70  H   UNL A   1      45.820  28.449  27.480  1.00  0.00     0.167 HD
ATOM     71  C   UNL A   1      47.129  26.052  26.701  1.00  0.00     0.074 A 
ATOM     72  C   UNL A   1      47.354  24.665  26.354  1.00  0.00     0.031 C 
ATOM     73  C   UNL A   1      48.095  27.003  26.709  1.00  0.00     0.031 A 
BRANCH  60  74
ATOM     74  C   UNL A   1      46.093  32.642  28.274  1.00  0.00    -0.014 A 
ATOM     75  C   UNL A   1      46.049  33.550  27.199  1.00  0.00     0.010 A 
ATOM     76  C   UNL A   1      46.407  33.123  29.559  1.00  0.00     0.010 A 
ATOM     77  C   UNL A   1      46.356  34.899  27.396  1.00  0.00     0.020 A 
ATOM     78  C   UNL A   1      46.682  34.478  29.767  1.00  0.00     0.020 A 
ATOM     79  C   UNL A   1      46.672  35.353  28.680  1.00  0.00     0.054 A 
BRANCH  79  80
ATOM     80  S   UNL A   1      47.045  37.113  28.908  1.00  0.00     0.124 S 
ATOM     81  O   UNL A   1      47.368  37.170  30.331  1.00  0.00    -0.237 OA
ATOM     82  O   UNL A   1      48.171  37.321  28.000  1.00  0.00    -0.237 OA
ATOM     83  O   UNL A   1      45.806  37.784  28.524  1.00  0.00    -0.744 OA
ENDBRANCH  79  80
ENDBRANCH  60  74
BRANCH  61  84
ATOM     84  C   UNL A   1      43.464  23.096  26.851  1.00  0.00    -0.014 A 
ATOM     85  C   UNL A   1      43.703  22.489  25.606  1.00  0.00     0.010 A 
ATOM     86  C   UNL A   1      42.857  22.341  27.872  1.00  0.00     0.010 A 
ATOM     87  C   UNL A   1      43.320  21.163  25.377  1.00  0.00     0.020 A 
ATOM     88  C   UNL A   1      42.503  21.006  27.659  1.00  0.00     0.020 A 
ATOM     89  C   UNL A   1      42.725  20.429  26.407  1.00  0.00     0.054 A 
BRANCH  89  90
ATOM     90  S   UNL A   1      42.279  18.699  26.101  1.00  0.00     0.124 S 
ATOM     91  O   UNL A   1      42.572  18.077  27.388  1.00  0.00    -0.237 OA
ATOM     92  O   UNL A   1      40.865  18.796  25.751  1.00  0.00    -0.237 OA
ATOM     93  O   UNL A   1      43.160  18.309  25.001  1.00  0.00    -0.744 OA
ENDBRANCH  89  90
ENDBRANCH  61  84
BRANCH  73  94
ATOM     94  C   UNL A   1      49.501  26.573  26.378  1.00  0.00    -0.014 A 
ATOM     95  C   UNL A   1      50.027  26.708  25.081  1.00  0.00     0.010 A 
ATOM     96  C   UNL A   1      50.331  26.086  27.406  1.00  0.00     0.010 A 
ATOM     97  C   UNL A   1      51.347  26.336  24.812  1.00  0.00     0.020 A 
ATOM     98  C   UNL A   1      51.660  25.745  27.148  1.00  0.00     0.020 A 
ATOM     99  C   UNL A   1      52.157  25.860  25.850  1.00  0.00     0.054 A 
BRANCH  99 100
ATOM    100  S   UNL A   1      53.882  25.436  25.484  1.00  0.00     0.124 S 
ATOM    101  O   UNL A   1      54.316  26.584  24.692  1.00  0.00    -0.237 OA
ATOM    102  O   UNL A   1      54.473  25.330  26.815  1.00  0.00    -0.237 OA
ATOM    103  O   UNL A   1      53.781  24.176  24.751  1.00  0.00    -0.744 OA
ENDBRANCH  99 100
ENDBRANCH  73  94
ENDBRANCH  47  48
ENDBRANCH  39  42
ENDBRANCH  37  38
ENDBRANCH  36  37
ENDBRANCH   1  36
TORSDOF 22
ENDMDL
MODEL 3
REMARK VINA RESULT:     -12.0      6.148     11.344
REMARK SMILES O=C1O[C@@H](c2ccc(O)c(O)c2)[C@H](C(=O)NCCCCCCNC(=O)c2ccc(-c3c4nc(c(-c5ccc(S(=O)(=O)[O-])cc5)c5ccc([nH]5)c(-c5ccc(S(=O)(=O)[O-])cc5)c5nc(c(-c6ccc(S(=O)(=O)[O-])cc6)c6ccc3[nH]6)C=C5)C=C4)cc2)/C1=C\c1ccc(O)c(O)c1
REMARK SMILES IDX 20 1 19 2 18 3 17 4 16 5 14 6 15 7 13 9 1 10 2 11 3 12 86 13
REMARK SMILES IDX 4 14 87 15 5 16 6 17 12 18 7 19 10 20 8 21 11 22 9 24 88 26
REMARK SMILES IDX 89 27 95 28 90 29 93 30 91 31 94 32 92 34 21 36 22 37 23 38
REMARK SMILES IDX 24 39 25 41 26 42 27 43 85 44 28 45 84 46 29 47 30 48 31 49
REMARK SMILES IDX 78 50 32 51 83 52 77 53 79 54 33 55 82 56 76 57 75 58 34 60
REMARK SMILES IDX 64 61 45 62 63 63 46 64 49 65 62 66 80 67 47 68 48 69 61 71
REMARK SMILES IDX 81 72 50 73 35 74 36 75 44 76 37 77 43 78 38 79 39 80 40 81
REMARK SMILES IDX 41 82 42 83 65 84 66 85 74 86 67 87 73 88 68 89 69 90 70 91
REMARK SMILES IDX 71 92 72 93 51 94 52 95 60 96 53 97 59 98 54 99 55 100
REMARK SMILES IDX 56 101 57 102 58 103
REMARK H PARENT 16 8 11 23 9 25 94 33 92 35 23 40 79 59 49 70
REMARK Flexibility Score: inf
ROOT
ATOM      1  C   UNL A   1      33.238  29.848  27.197  1.00  0.00     0.002 C 
ENDROOT
BRANCH   1   2
ATOM      2  C   UNL A   1      32.279  28.874  26.504  1.00  0.00     0.002 C 
BRANCH   2   3
ATOM      3  C   UNL A   1      32.034  27.564  27.252  1.00  0.00     0.021 C 
BRANCH   3   4
ATOM      4  C   UNL A   1      32.150  26.317  26.387  1.00  0.00     0.116 C 
BRANCH   4   5
ATOM      5  N   UNL A   1      31.445  25.174  26.925  1.00  0.00    -0.355 N 
ATOM      6  C   UNL A   1      31.741  23.842  26.878  1.00  0.00     0.231 C 
ATOM      7  O   UNL A   1      31.023  23.094  27.545  1.00  0.00    -0.274 OA
ATOM      8  H   UNL A   1      30.613  25.393  27.404  1.00  0.00     0.163 HD
BRANCH   6   9
ATOM      9  C   UNL A   1      32.850  23.320  25.954  1.00  0.00     0.161 C 
ATOM     10  O   UNL A   1      31.829  20.119  24.737  1.00  0.00    -0.247 OA
ATOM     11  C   UNL A   1      32.379  21.070  25.263  1.00  0.00     0.335 C 
ATOM     12  O   UNL A   1      33.218  21.004  26.326  1.00  0.00    -0.453 OA
ATOM     13  C   UNL A   1      32.272  22.483  24.861  1.00  0.00     0.054 C 
ATOM     14  C   UNL A   1      33.764  22.300  26.628  1.00  0.00     0.224 C 
ATOM     15  C   UNL A   1      31.739  22.801  23.672  1.00  0.00     0.020 C 
BRANCH  14  16
ATOM     16  C   UNL A   1      35.242  22.401  26.230  1.00  0.00    -0.002 A 
ATOM     17  C   UNL A   1      35.961  23.610  26.376  1.00  0.00     0.012 A 
ATOM     18  C   UNL A   1      35.953  21.269  25.802  1.00  0.00     0.057 A 
ATOM     19  C   UNL A   1      37.338  23.686  26.135  1.00  0.00     0.050 A 
ATOM     20  C   UNL A   1      37.316  21.358  25.538  1.00  0.00     0.157 A 
ATOM     21  C   UNL A   1      38.008  22.551  25.717  1.00  0.00     0.157 A 
BRANCH  20  22
ATOM     22  O   UNL A   1      37.984  20.246  25.112  1.00  0.00    -0.504 OA
ATOM     23  H   UNL A   1      37.719  19.813  24.325  1.00  0.00     0.293 HD
ENDBRANCH  20  22
BRANCH  21  24
ATOM     24  O   UNL A   1      39.353  22.555  25.473  1.00  0.00    -0.504 OA
ATOM     25  H   UNL A   1      39.755  21.822  25.051  1.00  0.00     0.293 HD
ENDBRANCH  21  24
ENDBRANCH  14  16
BRANCH  15  26
ATOM     26  C   UNL A   1      31.594  24.167  23.174  1.00  0.00    -0.021 A 
ATOM     27  C   UNL A   1      30.501  24.963  23.553  1.00  0.00     0.012 A 
ATOM     28  C   UNL A   1      32.581  24.698  22.337  1.00  0.00     0.058 A 
ATOM     29  C   UNL A   1      30.374  26.270  23.076  1.00  0.00     0.051 A 
ATOM     30  C   UNL A   1      32.453  26.001  21.876  1.00  0.00     0.157 A 
ATOM     31  C   UNL A   1      31.356  26.781  22.236  1.00  0.00     0.157 A 
BRANCH  30  32
ATOM     32  O   UNL A   1      33.419  26.521  21.063  1.00  0.00    -0.504 OA
ATOM     33  H   UNL A   1      33.330  26.462  20.132  1.00  0.00     0.293 HD
ENDBRANCH  30  32
BRANCH  31  34
ATOM     34  O   UNL A   1      31.289  28.053  21.737  1.00  0.00    -0.504 OA
ATOM     35  H   UNL A   1      31.804  28.734  22.121  1.00  0.00     0.293 HD
ENDBRANCH  31  34
ENDBRANCH  15  26
ENDBRANCH   6   9
ENDBRANCH   4   5
ENDBRANCH   3   4
ENDBRANCH   2   3
ENDBRANCH   1   2
BRANCH   1  36
ATOM     36  C   UNL A   1      34.664  29.328  27.398  1.00  0.00     0.021 C 
BRANCH  36  37
ATOM     37  C   UNL A   1      35.617  30.323  28.049  1.00  0.00     0.116 C 
BRANCH  37  38
ATOM     38  N   UNL A   1      35.578  30.246  29.499  1.00  0.00    -0.352 N 
ATOM     39  C   UNL A   1      36.512  29.732  30.363  1.00  0.00     0.251 C 
ATOM     40  H   UNL A   1      34.768  30.614  29.922  1.00  0.00     0.163 HD
ATOM     41  O   UNL A   1      36.230  29.559  31.544  1.00  0.00    -0.269 OA
BRANCH  39  42
ATOM     42  C   UNL A   1      37.853  29.376  29.855  1.00  0.00     0.039 A 
ATOM     43  C   UNL A   1      38.116  29.487  28.488  1.00  0.00     0.014 A 
ATOM     44  C   UNL A   1      38.851  28.938  30.731  1.00  0.00     0.014 A 
ATOM     45  C   UNL A   1      39.397  29.212  28.007  1.00  0.00     0.010 A 
ATOM     46  C   UNL A   1      40.146  28.744  30.262  1.00  0.00     0.010 A 
ATOM     47  C   UNL A   1      40.431  28.869  28.894  1.00  0.00    -0.014 A 
BRANCH  47  48
ATOM     48  C   UNL A   1      41.814  28.619  28.414  1.00  0.00     0.031 A 
ATOM     49  C   UNL A   1      42.216  27.238  27.968  1.00  0.00     0.074 A 
ATOM     50  C   UNL A   1      42.723  29.614  28.439  1.00  0.00     0.049 A 
ATOM     51  N   UNL A   1      43.390  26.802  27.592  1.00  0.00    -0.248 NA
ATOM     52  C   UNL A   1      41.167  26.205  27.971  1.00  0.00     0.031 C 
ATOM     53  C   UNL A   1      42.465  30.988  28.877  1.00  0.00     0.029 A 
ATOM     54  N   UNL A   1      44.052  29.620  28.095  1.00  0.00    -0.354 N 
ATOM     55  C   UNL A   1      43.225  25.447  27.331  1.00  0.00     0.074 A 
ATOM     56  C   UNL A   1      41.853  25.120  27.647  1.00  0.00     0.031 C 
ATOM     57  C   UNL A   1      43.590  31.709  28.748  1.00  0.00     0.029 A 
ATOM     58  C   UNL A   1      44.661  30.842  28.267  1.00  0.00     0.049 A 
ATOM     59  H   UNL A   1      44.524  28.826  27.757  1.00  0.00     0.167 HD
ATOM     60  C   UNL A   1      44.128  24.558  26.851  1.00  0.00     0.031 A 
ATOM     61  C   UNL A   1      45.940  31.219  28.073  1.00  0.00     0.031 A 
ATOM     62  C   UNL A   1      45.490  24.892  26.530  1.00  0.00     0.049 A 
ATOM     63  C   UNL A   1      46.933  30.206  27.567  1.00  0.00     0.074 A 
ATOM     64  C   UNL A   1      46.471  24.076  25.994  1.00  0.00     0.029 A 
ATOM     65  N   UNL A   1      46.067  26.139  26.718  1.00  0.00    -0.354 N 
ATOM     66  N   UNL A   1      46.743  28.942  27.273  1.00  0.00    -0.248 NA
ATOM     67  C   UNL A   1      48.309  30.675  27.356  1.00  0.00     0.031 C 
ATOM     68  C   UNL A   1      47.657  24.812  25.918  1.00  0.00     0.029 A 
ATOM     69  C   UNL A   1      47.396  26.108  26.334  1.00  0.00     0.049 A 
ATOM     70  H   UNL A   1      45.599  26.930  27.072  1.00  0.00     0.167 HD
ATOM     71  C   UNL A   1      47.968  28.474  26.807  1.00  0.00     0.074 A 
ATOM     72  C   UNL A   1      48.886  29.593  26.849  1.00  0.00     0.031 C 
ATOM     73  C   UNL A   1      48.298  27.231  26.377  1.00  0.00     0.031 A 
BRANCH  60  74
ATOM     74  C   UNL A   1      43.672  23.136  26.653  1.00  0.00    -0.014 A 
ATOM     75  C   UNL A   1      43.969  22.431  25.472  1.00  0.00     0.010 A 
ATOM     76  C   UNL A   1      42.971  22.478  27.681  1.00  0.00     0.010 A 
ATOM     77  C   UNL A   1      43.535  21.113  25.303  1.00  0.00     0.020 A 
ATOM     78  C   UNL A   1      42.564  21.149  27.531  1.00  0.00     0.020 A 
ATOM     79  C   UNL A   1      42.834  20.481  26.334  1.00  0.00     0.054 A 
BRANCH  79  80
ATOM     80  S   UNL A   1      42.302  18.764  26.096  1.00  0.00     0.124 S 
ATOM     81  O   UNL A   1      43.200  18.316  25.036  1.00  0.00    -0.237 OA
ATOM     82  O   UNL A   1      42.536  18.172  27.410  1.00  0.00    -0.237 OA
ATOM     83  O   UNL A   1      40.898  18.886  25.711  1.00  0.00    -0.744 OA
ENDBRANCH  79  80
ENDBRANCH  60  74
BRANCH  61  84
ATOM     84  C   UNL A   1      46.353  32.623  28.347  1.00  0.00    -0.014 A 
ATOM     85  C   UNL A   1      46.284  33.600  27.338  1.00  0.00     0.010 A 
ATOM     86  C   UNL A   1      46.814  32.994  29.624  1.00  0.00     0.010 A 
ATOM     87  C   UNL A   1      46.691  34.913  27.593  1.00  0.00     0.020 A 
ATOM     88  C   UNL A   1      47.189  34.313  29.892  1.00  0.00     0.020 A 
ATOM     89  C   UNL A   1      47.137  35.262  28.870  1.00  0.00     0.054 A 
BRANCH  89  90
ATOM     90  S   UNL A   1      47.615  36.982  29.188  1.00  0.00     0.124 S 
ATOM     91  O   UNL A   1      46.375  37.552  29.705  1.00  0.00    -0.237 OA
ATOM     92  O   UNL A   1      48.697  36.833  30.158  1.00  0.00    -0.237 OA
ATOM     93  O   UNL A   1      48.030  37.470  27.874  1.00  0.00    -0.744 OA
ENDBRANCH  89  90
ENDBRANCH  61  84
BRANCH  73  94
ATOM     94  C   UNL A   1      49.701  27.018  25.868  1.00  0.00    -0.014 A 
ATOM     95  C   UNL A   1      50.665  26.335  26.631  1.00  0.00     0.010 A 
ATOM     96  C   UNL A   1      50.037  27.456  24.574  1.00  0.00     0.010 A 
ATOM     97  C   UNL A   1      51.947  26.119  26.118  1.00  0.00     0.020 A 
ATOM     98  C   UNL A   1      51.306  27.212  24.045  1.00  0.00     0.020 A 
ATOM     99  C   UNL A   1      52.258  26.556  24.825  1.00  0.00     0.054 A 
BRANCH  99 100
ATOM    100  S   UNL A   1      53.912  26.214  24.164  1.00  0.00     0.124 S 
ATOM    101  O   UNL A   1      54.651  27.410  24.561  1.00  0.00    -0.237 OA
ATOM    102  O   UNL A   1      54.285  24.985  24.859  1.00  0.00    -0.237 OA
ATOM    103  O   UNL A   1      53.688  26.069  22.728  1.00  0.00    -0.744 OA
ENDBRANCH  99 100
ENDBRANCH  73  94
ENDBRANCH  47  48
ENDBRANCH  39  42
ENDBRANCH  37  38
ENDBRANCH  36  37
ENDBRANCH   1  36
TORSDOF 22
ENDMDL
