MODEL 1
REMARK VINA RESULT:     -10.1      0.000      0.000
REMARK SMILES O=C(CCCOc1ccc([N+](=O)[O-])cc1F)NCCCCCCNC(=O)c1ccc(-c2c3nc(c(-c4ccc(S(=O)(=O)[O-])cc4)c4ccc([nH]4)c(-c4ccc(S(=O)(=O)[O-])cc4)c4nc(c(-c5ccc(S(=O)(=O)[O-])cc5)c5ccc2[nH]5)C=C4)C=C3)cc1
REMARK SMILES IDX 19 1 18 2 17 3 1 4 2 5 3 7 4 8 5 9 6 10 7 11 8 12 15 13 9 14
REMARK SMILES IDX 14 15 16 16 10 17 11 18 12 19 13 20 20 21 21 22 22 23 23 24
REMARK SMILES IDX 24 25 25 26 26 28 27 29 28 30 86 31 29 32 85 33 30 34 31 35
REMARK SMILES IDX 32 36 79 37 33 38 84 39 78 40 80 41 34 42 83 43 77 44 76 45
REMARK SMILES IDX 35 47 65 48 46 49 64 50 47 51 50 52 63 53 81 54 48 55 49 56
REMARK SMILES IDX 62 58 82 59 51 60 36 61 37 62 45 63 38 64 44 65 39 66 40 67
REMARK SMILES IDX 41 68 42 69 43 70 66 71 67 72 75 73 68 74 74 75 69 76 70 77
REMARK SMILES IDX 71 78 72 79 73 80 52 81 53 82 61 83 54 84 60 85 55 86 56 87
REMARK SMILES IDX 57 88 58 89 59 90
REMARK H PARENT 17 6 24 27 80 46 50 57
REMARK Flexibility Score: inf
ROOT
ATOM      1  C   UNL A   1      32.774  20.850  25.383  1.00  0.00     0.021 C 
ENDROOT
BRANCH   1   2
ATOM      2  C   UNL A   1      31.398  21.512  25.429  1.00  0.00     0.116 C 
BRANCH   2   3
ATOM      3  N   UNL A   1      31.500  22.953  25.312  1.00  0.00    -0.356 N 
ATOM      4  O   UNL A   1      30.698  23.415  27.408  1.00  0.00    -0.275 OA
ATOM      5  C   UNL A   1      31.148  23.798  26.335  1.00  0.00     0.220 C 
ATOM      6  H   UNL A   1      31.834  23.340  24.471  1.00  0.00     0.163 HD
BRANCH   5   7
ATOM      7  C   UNL A   1      31.307  25.268  26.005  1.00  0.00     0.103 C 
BRANCH   7   8
ATOM      8  C   UNL A   1      30.080  25.935  25.373  1.00  0.00     0.051 C 
BRANCH   8   9
ATOM      9  C   UNL A   1      30.295  27.129  24.427  1.00  0.00     0.230 C 
BRANCH   9  10
ATOM     10  O   UNL A   1      29.386  27.151  23.312  1.00  0.00    -0.490 OA
BRANCH  10  11
ATOM     11  C   UNL A   1      29.107  28.411  22.867  1.00  0.00     0.155 A 
ATOM     12  C   UNL A   1      30.071  29.183  22.222  1.00  0.00     0.056 A 
ATOM     13  C   UNL A   1      27.835  28.936  23.093  1.00  0.00     0.171 A 
ATOM     14  C   UNL A   1      29.711  30.419  21.671  1.00  0.00     0.089 A 
ATOM     15  C   UNL A   1      27.450  30.145  22.530  1.00  0.00     0.128 A 
ATOM     16  F   UNL A   1      26.930  28.223  23.779  1.00  0.00    -0.203 F 
ATOM     17  C   UNL A   1      28.387  30.870  21.790  1.00  0.00     0.272 A 
BRANCH  17  18
ATOM     18  N   UNL A   1      27.965  32.095  21.103  1.00  0.00     0.062 N 
ATOM     19  O   UNL A   1      27.573  31.990  19.934  1.00  0.00    -0.258 OA
ATOM     20  O   UNL A   1      28.012  33.153  21.745  1.00  0.00    -0.258 OA
ENDBRANCH  17  18
ENDBRANCH  10  11
ENDBRANCH   9  10
ENDBRANCH   8   9
ENDBRANCH   7   8
ENDBRANCH   5   7
ENDBRANCH   2   3
ENDBRANCH   1   2
BRANCH   1  21
ATOM     21  C   UNL A   1      33.893  21.748  24.840  1.00  0.00     0.002 C 
BRANCH  21  22
ATOM     22  C   UNL A   1      34.812  22.382  25.881  1.00  0.00     0.002 C 
BRANCH  22  23
ATOM     23  C   UNL A   1      35.029  23.884  25.721  1.00  0.00     0.021 C 
BRANCH  23  24
ATOM     24  C   UNL A   1      36.486  24.308  25.575  1.00  0.00     0.116 C 
BRANCH  24  25
ATOM     25  N   UNL A   1      37.402  23.177  25.604  1.00  0.00    -0.352 N 
ATOM     26  C   UNL A   1      38.685  23.105  26.089  1.00  0.00     0.251 C 
ATOM     27  H   UNL A   1      37.049  22.342  25.219  1.00  0.00     0.163 HD
ATOM     28  O   UNL A   1      39.362  22.108  25.871  1.00  0.00    -0.269 OA
BRANCH  26  29
ATOM     29  C   UNL A   1      39.255  24.243  26.847  1.00  0.00     0.039 A 
ATOM     30  C   UNL A   1      40.036  25.178  26.167  1.00  0.00     0.014 A 
ATOM     31  C   UNL A   1      39.018  24.393  28.217  1.00  0.00     0.014 A 
ATOM     32  C   UNL A   1      40.522  26.298  26.846  1.00  0.00     0.010 A 
ATOM     33  C   UNL A   1      39.433  25.551  28.872  1.00  0.00     0.010 A 
ATOM     34  C   UNL A   1      40.191  26.516  28.194  1.00  0.00    -0.014 A 
BRANCH  34  35
ATOM     35  C   UNL A   1      40.608  27.766  28.885  1.00  0.00     0.031 A 
ATOM     36  C   UNL A   1      41.987  27.901  29.472  1.00  0.00     0.074 A 
ATOM     37  C   UNL A   1      39.721  28.772  29.015  1.00  0.00     0.049 A 
ATOM     38  N   UNL A   1      42.529  28.934  30.068  1.00  0.00    -0.248 NA
ATOM     39  C   UNL A   1      42.863  26.721  29.404  1.00  0.00     0.031 C 
ATOM     40  C   UNL A   1      38.336  28.745  28.537  1.00  0.00     0.029 A 
ATOM     41  N   UNL A   1      39.851  30.018  29.575  1.00  0.00    -0.354 N 
ATOM     42  C   UNL A   1      43.801  28.525  30.455  1.00  0.00     0.074 A 
ATOM     43  C   UNL A   1      43.929  27.135  30.074  1.00  0.00     0.031 C 
ATOM     44  C   UNL A   1      37.764  29.936  28.774  1.00  0.00     0.029 A 
ATOM     45  C   UNL A   1      38.724  30.797  29.459  1.00  0.00     0.049 A 
ATOM     46  H   UNL A   1      40.675  30.325  30.019  1.00  0.00     0.167 HD
ATOM     47  C   UNL A   1      44.779  29.244  31.057  1.00  0.00     0.031 A 
ATOM     48  C   UNL A   1      38.487  32.063  29.851  1.00  0.00     0.031 A 
ATOM     49  C   UNL A   1      44.646  30.627  31.438  1.00  0.00     0.049 A 
ATOM     50  C   UNL A   1      39.585  32.839  30.524  1.00  0.00     0.074 A 
ATOM     51  C   UNL A   1      45.601  31.464  31.989  1.00  0.00     0.029 A 
ATOM     52  N   UNL A   1      43.481  31.373  31.324  1.00  0.00    -0.354 N 
ATOM     53  N   UNL A   1      40.812  32.463  30.797  1.00  0.00    -0.248 NA
ATOM     54  C   UNL A   1      39.267  34.213  30.930  1.00  0.00     0.031 C 
ATOM     55  C   UNL A   1      44.995  32.694  32.272  1.00  0.00     0.029 A 
ATOM     56  C   UNL A   1      43.682  32.648  31.831  1.00  0.00     0.049 A 
ATOM     57  H   UNL A   1      42.637  31.046  30.939  1.00  0.00     0.167 HD
ATOM     58  C   UNL A   1      41.421  33.564  31.388  1.00  0.00     0.074 A 
ATOM     59  C   UNL A   1      40.433  34.625  31.407  1.00  0.00     0.031 C 
ATOM     60  C   UNL A   1      42.683  33.688  31.871  1.00  0.00     0.031 A 
BRANCH  47  61
ATOM     61  C   UNL A   1      46.077  28.537  31.362  1.00  0.00    -0.014 A 
ATOM     62  C   UNL A   1      47.107  28.447  30.407  1.00  0.00     0.010 A 
ATOM     63  C   UNL A   1      46.280  27.974  32.635  1.00  0.00     0.010 A 
ATOM     64  C   UNL A   1      48.290  27.761  30.700  1.00  0.00     0.020 A 
ATOM     65  C   UNL A   1      47.474  27.316  32.944  1.00  0.00     0.020 A 
ATOM     66  C   UNL A   1      48.464  27.195  31.966  1.00  0.00     0.054 A 
BRANCH  66  67
ATOM     67  S   UNL A   1      50.010  26.314  32.320  1.00  0.00     0.124 S 
ATOM     68  O   UNL A   1      51.011  27.338  32.033  1.00  0.00    -0.237 OA
ATOM     69  O   UNL A   1      49.860  25.960  33.728  1.00  0.00    -0.237 OA
ATOM     70  O   UNL A   1      49.989  25.188  31.390  1.00  0.00    -0.744 OA
ENDBRANCH  66  67
ENDBRANCH  47  61
BRANCH  48  71
ATOM     71  C   UNL A   1      37.163  32.688  29.580  1.00  0.00    -0.014 A 
ATOM     72  C   UNL A   1      36.182  32.743  30.587  1.00  0.00     0.010 A 
ATOM     73  C   UNL A   1      36.883  33.255  28.323  1.00  0.00     0.010 A 
ATOM     74  C   UNL A   1      34.945  33.342  30.339  1.00  0.00     0.020 A 
ATOM     75  C   UNL A   1      35.658  33.882  28.081  1.00  0.00     0.020 A 
ATOM     76  C   UNL A   1      34.692  33.915  29.089  1.00  0.00     0.054 A 
BRANCH  76  77
ATOM     77  S   UNL A   1      33.105  34.748  28.815  1.00  0.00     0.124 S 
ATOM     78  O   UNL A   1      32.447  33.849  27.873  1.00  0.00    -0.237 OA
ATOM     79  O   UNL A   1      32.534  34.786  30.159  1.00  0.00    -0.237 OA
ATOM     80  O   UNL A   1      33.490  36.049  28.274  1.00  0.00    -0.744 OA
ENDBRANCH  76  77
ENDBRANCH  48  71
BRANCH  60  81
ATOM     81  C   UNL A   1      43.068  35.026  32.448  1.00  0.00    -0.014 A 
ATOM     82  C   UNL A   1      42.916  35.302  33.819  1.00  0.00     0.010 A 
ATOM     83  C   UNL A   1      43.603  36.020  31.608  1.00  0.00     0.010 A 
ATOM     84  C   UNL A   1      43.237  36.563  34.328  1.00  0.00     0.020 A 
ATOM     85  C   UNL A   1      43.958  37.270  32.119  1.00  0.00     0.020 A 
ATOM     86  C   UNL A   1      43.751  37.542  33.472  1.00  0.00     0.054 A 
BRANCH  86  87
ATOM     87  S   UNL A   1      44.164  39.170  34.157  1.00  0.00     0.124 S 
ATOM     88  O   UNL A   1      43.049  39.988  33.687  1.00  0.00    -0.237 OA
ATOM     89  O   UNL A   1      44.195  38.914  35.595  1.00  0.00    -0.237 OA
ATOM     90  O   UNL A   1      45.460  39.479  33.557  1.00  0.00    -0.744 OA
ENDBRANCH  86  87
ENDBRANCH  60  81
ENDBRANCH  34  35
ENDBRANCH  26  29
ENDBRANCH  24  25
ENDBRANCH  23  24
ENDBRANCH  22  23
ENDBRANCH  21  22
ENDBRANCH   1  21
TORSDOF 21
ENDMDL
MODEL 2
REMARK VINA RESULT:      -9.5      5.590     10.877
REMARK SMILES O=C(CCCOc1ccc([N+](=O)[O-])cc1F)NCCCCCCNC(=O)c1ccc(-c2c3nc(c(-c4ccc(S(=O)(=O)[O-])cc4)c4ccc([nH]4)c(-c4ccc(S(=O)(=O)[O-])cc4)c4nc(c(-c5ccc(S(=O)(=O)[O-])cc5)c5ccc2[nH]5)C=C4)C=C3)cc1
REMARK SMILES IDX 19 1 18 2 17 3 1 4 2 5 3 7 4 8 5 9 6 10 7 11 8 12 15 13 9 14
REMARK SMILES IDX 14 15 16 16 10 17 11 18 12 19 13 20 20 21 21 22 22 23 23 24
REMARK SMILES IDX 24 25 25 26 26 28 27 29 28 30 86 31 29 32 85 33 30 34 31 35
REMARK SMILES IDX 32 36 79 37 33 38 84 39 78 40 80 41 34 42 83 43 77 44 76 45
REMARK SMILES IDX 35 47 65 48 46 49 64 50 47 51 50 52 63 53 81 54 48 55 49 56
REMARK SMILES IDX 62 58 82 59 51 60 36 61 37 62 45 63 38 64 44 65 39 66 40 67
REMARK SMILES IDX 41 68 42 69 43 70 66 71 67 72 75 73 68 74 74 75 69 76 70 77
REMARK SMILES IDX 71 78 72 79 73 80 52 81 53 82 61 83 54 84 60 85 55 86 56 87
REMARK SMILES IDX 57 88 58 89 59 90
REMARK H PARENT 17 6 24 27 80 46 50 57
REMARK Flexibility Score: inf
ROOT
ATOM      1  C   UNL A   1      39.444  22.874  26.863  1.00  0.00     0.021 C 
ENDROOT
BRANCH   1   2
ATOM      2  C   UNL A   1      38.723  24.161  26.464  1.00  0.00     0.116 C 
BRANCH   2   3
ATOM      3  N   UNL A   1      37.285  24.015  26.570  1.00  0.00    -0.356 N 
ATOM      4  O   UNL A   1      36.935  23.541  24.356  1.00  0.00    -0.275 OA
ATOM      5  C   UNL A   1      36.499  23.699  25.490  1.00  0.00     0.220 C 
ATOM      6  H   UNL A   1      36.857  24.147  27.446  1.00  0.00     0.163 HD
BRANCH   5   7
ATOM      7  C   UNL A   1      35.020  23.616  25.805  1.00  0.00     0.103 C 
BRANCH   7   8
ATOM      8  C   UNL A   1      34.672  22.960  27.147  1.00  0.00     0.051 C 
BRANCH   8   9
ATOM      9  C   UNL A   1      33.741  21.735  27.149  1.00  0.00     0.230 C 
BRANCH   9  10
ATOM     10  O   UNL A   1      33.234  21.393  25.847  1.00  0.00    -0.490 OA
BRANCH  10  11
ATOM     11  C   UNL A   1      33.409  20.078  25.526  1.00  0.00     0.155 A 
ATOM     12  C   UNL A   1      32.489  19.107  25.918  1.00  0.00     0.056 A 
ATOM     13  C   UNL A   1      34.549  19.707  24.816  1.00  0.00     0.171 A 
ATOM     14  C   UNL A   1      32.639  17.791  25.463  1.00  0.00     0.089 A 
ATOM     15  C   UNL A   1      34.701  18.415  24.332  1.00  0.00     0.128 A 
ATOM     16  F   UNL A   1      35.471  20.629  24.503  1.00  0.00    -0.203 F 
ATOM     17  C   UNL A   1      33.723  17.465  24.633  1.00  0.00     0.272 A 
BRANCH  17  18
ATOM     18  N   UNL A   1      33.816  16.127  24.042  1.00  0.00     0.062 N 
ATOM     19  O   UNL A   1      33.444  15.169  24.731  1.00  0.00    -0.258 OA
ATOM     20  O   UNL A   1      34.245  16.045  22.883  1.00  0.00    -0.258 OA
ENDBRANCH  17  18
ENDBRANCH  10  11
ENDBRANCH   9  10
ENDBRANCH   8   9
ENDBRANCH   7   8
ENDBRANCH   5   7
ENDBRANCH   2   3
ENDBRANCH   1   2
BRANCH   1  21
ATOM     21  C   UNL A   1      40.966  23.013  26.993  1.00  0.00     0.002 C 
BRANCH  21  22
ATOM     22  C   UNL A   1      41.645  22.082  27.994  1.00  0.00     0.002 C 
BRANCH  22  23
ATOM     23  C   UNL A   1      41.806  20.638  27.526  1.00  0.00     0.021 C 
BRANCH  23  24
ATOM     24  C   UNL A   1      41.583  20.423  26.033  1.00  0.00     0.116 C 
BRANCH  24  25
ATOM     25  N   UNL A   1      42.641  19.634  25.419  1.00  0.00    -0.352 N 
ATOM     26  C   UNL A   1      43.884  20.028  24.987  1.00  0.00     0.251 C 
ATOM     27  H   UNL A   1      42.435  18.679  25.297  1.00  0.00     0.163 HD
ATOM     28  O   UNL A   1      44.576  19.253  24.338  1.00  0.00    -0.269 OA
BRANCH  26  29
ATOM     29  C   UNL A   1      44.372  21.396  25.280  1.00  0.00     0.039 A 
ATOM     30  C   UNL A   1      44.104  22.414  24.364  1.00  0.00     0.014 A 
ATOM     31  C   UNL A   1      45.083  21.678  26.451  1.00  0.00     0.014 A 
ATOM     32  C   UNL A   1      44.489  23.725  24.655  1.00  0.00     0.010 A 
ATOM     33  C   UNL A   1      45.392  22.996  26.776  1.00  0.00     0.010 A 
ATOM     34  C   UNL A   1      45.100  24.035  25.882  1.00  0.00    -0.014 A 
BRANCH  34  35
ATOM     35  C   UNL A   1      45.403  25.446  26.243  1.00  0.00     0.031 A 
ATOM     36  C   UNL A   1      44.334  26.350  26.791  1.00  0.00     0.074 A 
ATOM     37  C   UNL A   1      46.647  25.923  26.038  1.00  0.00     0.049 A 
ATOM     38  N   UNL A   1      44.434  27.591  27.198  1.00  0.00    -0.248 NA
ATOM     39  C   UNL A   1      42.970  25.802  26.874  1.00  0.00     0.031 C 
ATOM     40  C   UNL A   1      47.760  25.164  25.462  1.00  0.00     0.029 A 
ATOM     41  N   UNL A   1      47.190  27.156  26.300  1.00  0.00    -0.354 N 
ATOM     42  C   UNL A   1      43.151  27.975  27.571  1.00  0.00     0.074 A 
ATOM     43  C   UNL A   1      42.280  26.854  27.293  1.00  0.00     0.031 C 
ATOM     44  C   UNL A   1      48.864  25.928  25.467  1.00  0.00     0.029 A 
ATOM     45  C   UNL A   1      48.530  27.243  26.004  1.00  0.00     0.049 A 
ATOM     46  H   UNL A   1      46.670  27.907  26.667  1.00  0.00     0.167 HD
ATOM     47  C   UNL A   1      42.737  29.147  28.112  1.00  0.00     0.031 A 
ATOM     48  C   UNL A   1      49.398  28.262  26.153  1.00  0.00     0.031 A 
ATOM     49  C   UNL A   1      43.607  30.262  28.384  1.00  0.00     0.049 A 
ATOM     50  C   UNL A   1      48.914  29.555  26.748  1.00  0.00     0.074 A 
ATOM     51  C   UNL A   1      43.299  31.466  28.994  1.00  0.00     0.029 A 
ATOM     52  N   UNL A   1      44.953  30.319  28.048  1.00  0.00    -0.354 N 
ATOM     53  N   UNL A   1      47.715  29.866  27.182  1.00  0.00    -0.248 NA
ATOM     54  C   UNL A   1      49.905  30.630  26.884  1.00  0.00     0.031 C 
ATOM     55  C   UNL A   1      44.440  32.277  28.965  1.00  0.00     0.029 A 
ATOM     56  C   UNL A   1      45.478  31.552  28.402  1.00  0.00     0.049 A 
ATOM     57  H   UNL A   1      45.459  29.592  27.623  1.00  0.00     0.167 HD
ATOM     58  C   UNL A   1      47.814  31.166  27.662  1.00  0.00     0.074 A 
ATOM     59  C   UNL A   1      49.195  31.571  27.489  1.00  0.00     0.031 C 
ATOM     60  C   UNL A   1      46.849  31.955  28.200  1.00  0.00     0.031 A 
BRANCH  47  61
ATOM     61  C   UNL A   1      41.267  29.289  28.425  1.00  0.00    -0.014 A 
ATOM     62  C   UNL A   1      40.303  29.371  27.403  1.00  0.00     0.010 A 
ATOM     63  C   UNL A   1      40.841  29.316  29.765  1.00  0.00     0.010 A 
ATOM     64  C   UNL A   1      38.950  29.533  27.715  1.00  0.00     0.020 A 
ATOM     65  C   UNL A   1      39.485  29.444  30.083  1.00  0.00     0.020 A 
ATOM     66  C   UNL A   1      38.549  29.573  29.054  1.00  0.00     0.054 A 
BRANCH  66  67
ATOM     67  S   UNL A   1      36.787  29.780  29.429  1.00  0.00     0.124 S 
ATOM     68  O   UNL A   1      36.158  29.153  28.270  1.00  0.00    -0.237 OA
ATOM     69  O   UNL A   1      36.642  29.058  30.689  1.00  0.00    -0.237 OA
ATOM     70  O   UNL A   1      36.619  31.229  29.520  1.00  0.00    -0.744 OA
ENDBRANCH  66  67
ENDBRANCH  47  61
BRANCH  48  71
ATOM     71  C   UNL A   1      50.825  28.084  25.766  1.00  0.00    -0.014 A 
ATOM     72  C   UNL A   1      51.763  27.610  26.700  1.00  0.00     0.010 A 
ATOM     73  C   UNL A   1      51.250  28.361  24.453  1.00  0.00     0.010 A 
ATOM     74  C   UNL A   1      53.099  27.428  26.334  1.00  0.00     0.020 A 
ATOM     75  C   UNL A   1      52.578  28.152  24.075  1.00  0.00     0.020 A 
ATOM     76  C   UNL A   1      53.497  27.693  25.021  1.00  0.00     0.054 A 
BRANCH  76  77
ATOM     77  S   UNL A   1      55.222  27.383  24.552  1.00  0.00     0.124 S 
ATOM     78  O   UNL A   1      55.074  26.753  23.244  1.00  0.00    -0.237 OA
ATOM     79  O   UNL A   1      55.793  28.727  24.548  1.00  0.00    -0.237 OA
ATOM     80  O   UNL A   1      55.713  26.510  25.616  1.00  0.00    -0.744 OA
ENDBRANCH  76  77
ENDBRANCH  48  71
BRANCH  60  81
ATOM     81  C   UNL A   1      47.263  33.332  28.652  1.00  0.00    -0.014 A 
ATOM     82  C   UNL A   1      47.719  33.566  29.962  1.00  0.00     0.010 A 
ATOM     83  C   UNL A   1      47.207  34.409  27.748  1.00  0.00     0.010 A 
ATOM     84  C   UNL A   1      48.056  34.857  30.376  1.00  0.00     0.020 A 
ATOM     85  C   UNL A   1      47.577  35.695  28.146  1.00  0.00     0.020 A 
ATOM     86  C   UNL A   1      47.977  35.915  29.465  1.00  0.00     0.054 A 
BRANCH  86  87
ATOM     87  S   UNL A   1      48.425  37.582  30.024  1.00  0.00     0.124 S 
ATOM     88  O   UNL A   1      47.418  38.405  29.359  1.00  0.00    -0.237 OA
ATOM     89  O   UNL A   1      48.295  37.479  31.475  1.00  0.00    -0.237 OA
ATOM     90  O   UNL A   1      49.791  37.755  29.537  1.00  0.00    -0.744 OA
ENDBRANCH  86  87
ENDBRANCH  60  81
ENDBRANCH  34  35
ENDBRANCH  26  29
ENDBRANCH  24  25
ENDBRANCH  23  24
ENDBRANCH  22  23
ENDBRANCH  21  22
ENDBRANCH   1  21
TORSDOF 21
ENDMDL
MODEL 3
REMARK VINA RESULT:      -9.4      2.612      3.198
REMARK SMILES O=C(CCCOc1ccc([N+](=O)[O-])cc1F)NCCCCCCNC(=O)c1ccc(-c2c3nc(c(-c4ccc(S(=O)(=O)[O-])cc4)c4ccc([nH]4)c(-c4ccc(S(=O)(=O)[O-])cc4)c4nc(c(-c5ccc(S(=O)(=O)[O-])cc5)c5ccc2[nH]5)C=C4)C=C3)cc1
REMARK SMILES IDX 19 1 18 2 17 3 1 4 2 5 3 7 4 8 5 9 6 10 7 11 8 12 15 13 9 14
REMARK SMILES IDX 14 15 16 16 10 17 11 18 12 19 13 20 20 21 21 22 22 23 23 24
REMARK SMILES IDX 24 25 25 26 26 28 27 29 28 30 86 31 29 32 85 33 30 34 31 35
REMARK SMILES IDX 32 36 79 37 33 38 84 39 78 40 80 41 34 42 83 43 77 44 76 45
REMARK SMILES IDX 35 47 65 48 46 49 64 50 47 51 50 52 63 53 81 54 48 55 49 56
REMARK SMILES IDX 62 58 82 59 51 60 36 61 37 62 45 63 38 64 44 65 39 66 40 67
REMARK SMILES IDX 41 68 42 69 43 70 66 71 67 72 75 73 68 74 74 75 69 76 70 77
REMARK SMILES IDX 71 78 72 79 73 80 52 81 53 82 61 83 54 84 60 85 55 86 56 87
REMARK SMILES IDX 57 88 58 89 59 90
REMARK H PARENT 17 6 24 27 80 46 50 57
REMARK Flexibility Score: inf
ROOT
ATOM      1  C   UNL A   1      32.653  21.118  25.562  1.00  0.00     0.021 C 
ENDROOT
BRANCH   1   2
ATOM      2  C   UNL A   1      31.456  22.046  25.361  1.00  0.00     0.116 C 
BRANCH   2   3
ATOM      3  N   UNL A   1      31.873  23.426  25.223  1.00  0.00    -0.356 N 
ATOM      4  O   UNL A   1      31.294  24.059  27.348  1.00  0.00    -0.275 OA
ATOM      5  C   UNL A   1      31.768  24.330  26.251  1.00  0.00     0.220 C 
ATOM      6  H   UNL A   1      32.247  23.727  24.364  1.00  0.00     0.163 HD
BRANCH   5   7
ATOM      7  C   UNL A   1      32.238  25.726  25.898  1.00  0.00     0.103 C 
BRANCH   7   8
ATOM      8  C   UNL A   1      31.486  26.399  24.744  1.00  0.00     0.051 C 
BRANCH   8   9
ATOM      9  C   UNL A   1      30.718  27.702  25.024  1.00  0.00     0.230 C 
BRANCH   9  10
ATOM     10  O   UNL A   1      31.309  28.862  24.410  1.00  0.00    -0.490 OA
BRANCH  10  11
ATOM     11  C   UNL A   1      30.413  29.623  23.718  1.00  0.00     0.155 A 
ATOM     12  C   UNL A   1      29.813  30.742  24.294  1.00  0.00     0.056 A 
ATOM     13  C   UNL A   1      30.076  29.248  22.418  1.00  0.00     0.171 A 
ATOM     14  C   UNL A   1      28.996  31.567  23.511  1.00  0.00     0.089 A 
ATOM     15  C   UNL A   1      29.292  30.068  21.617  1.00  0.00     0.128 A 
ATOM     16  F   UNL A   1      30.596  28.131  21.889  1.00  0.00    -0.203 F 
ATOM     17  C   UNL A   1      28.779  31.247  22.162  1.00  0.00     0.272 A 
BRANCH  17  18
ATOM     18  N   UNL A   1      28.038  32.172  21.300  1.00  0.00     0.062 N 
ATOM     19  O   UNL A   1      27.575  31.725  20.243  1.00  0.00    -0.258 OA
ATOM     20  O   UNL A   1      27.907  33.339  21.695  1.00  0.00    -0.258 OA
ENDBRANCH  17  18
ENDBRANCH  10  11
ENDBRANCH   9  10
ENDBRANCH   8   9
ENDBRANCH   7   8
ENDBRANCH   5   7
ENDBRANCH   2   3
ENDBRANCH   1   2
BRANCH   1  21
ATOM     21  C   UNL A   1      33.935  21.574  24.856  1.00  0.00     0.002 C 
BRANCH  21  22
ATOM     22  C   UNL A   1      35.135  21.863  25.755  1.00  0.00     0.002 C 
BRANCH  22  23
ATOM     23  C   UNL A   1      35.477  23.341  25.920  1.00  0.00     0.021 C 
BRANCH  23  24
ATOM     24  C   UNL A   1      36.947  23.629  26.202  1.00  0.00     0.116 C 
BRANCH  24  25
ATOM     25  N   UNL A   1      37.768  22.429  26.166  1.00  0.00    -0.352 N 
ATOM     26  C   UNL A   1      39.126  22.295  26.321  1.00  0.00     0.251 C 
ATOM     27  H   UNL A   1      37.277  21.590  26.009  1.00  0.00     0.163 HD
ATOM     28  O   UNL A   1      39.662  21.218  26.088  1.00  0.00    -0.269 OA
BRANCH  26  29
ATOM     29  C   UNL A   1      39.943  23.459  26.737  1.00  0.00     0.039 A 
ATOM     30  C   UNL A   1      39.951  24.597  25.928  1.00  0.00     0.014 A 
ATOM     31  C   UNL A   1      40.690  23.436  27.918  1.00  0.00     0.014 A 
ATOM     32  C   UNL A   1      40.654  25.732  26.339  1.00  0.00     0.010 A 
ATOM     33  C   UNL A   1      41.322  24.595  28.366  1.00  0.00     0.010 A 
ATOM     34  C   UNL A   1      41.312  25.756  27.580  1.00  0.00    -0.014 A 
BRANCH  34  35
ATOM     35  C   UNL A   1      41.960  27.001  28.071  1.00  0.00     0.031 A 
ATOM     36  C   UNL A   1      43.434  27.232  27.881  1.00  0.00     0.074 A 
ATOM     37  C   UNL A   1      41.215  27.914  28.727  1.00  0.00     0.049 A 
ATOM     38  N   UNL A   1      44.152  28.278  28.208  1.00  0.00    -0.248 NA
ATOM     39  C   UNL A   1      44.209  26.141  27.268  1.00  0.00     0.031 C 
ATOM     40  C   UNL A   1      39.786  27.785  29.023  1.00  0.00     0.029 A 
ATOM     41  N   UNL A   1      41.552  29.136  29.253  1.00  0.00    -0.354 N 
ATOM     42  C   UNL A   1      45.460  27.967  27.851  1.00  0.00     0.074 A 
ATOM     43  C   UNL A   1      45.446  26.617  27.334  1.00  0.00     0.031 C 
ATOM     44  C   UNL A   1      39.359  28.905  29.626  1.00  0.00     0.029 A 
ATOM     45  C   UNL A   1      40.488  29.814  29.800  1.00  0.00     0.049 A 
ATOM     46  H   UNL A   1      42.469  29.494  29.239  1.00  0.00     0.167 HD
ATOM     47  C   UNL A   1      46.570  28.741  27.932  1.00  0.00     0.031 A 
ATOM     48  C   UNL A   1      40.421  31.031  30.371  1.00  0.00     0.031 A 
ATOM     49  C   UNL A   1      46.581  30.085  28.452  1.00  0.00     0.049 A 
ATOM     50  C   UNL A   1      41.667  31.869  30.456  1.00  0.00     0.074 A 
ATOM     51  C   UNL A   1      47.638  30.977  28.512  1.00  0.00     0.029 A 
ATOM     52  N   UNL A   1      45.487  30.726  29.017  1.00  0.00    -0.354 N 
ATOM     53  N   UNL A   1      42.877  31.594  30.028  1.00  0.00    -0.248 NA
ATOM     54  C   UNL A   1      41.533  33.186  31.091  1.00  0.00     0.031 C 
ATOM     55  C   UNL A   1      47.202  32.130  29.175  1.00  0.00     0.029 A 
ATOM     56  C   UNL A   1      45.854  31.987  29.464  1.00  0.00     0.049 A 
ATOM     57  H   UNL A   1      44.584  30.344  29.089  1.00  0.00     0.167 HD
ATOM     58  C   UNL A   1      43.645  32.714  30.323  1.00  0.00     0.074 A 
ATOM     59  C   UNL A   1      42.756  33.678  30.941  1.00  0.00     0.031 C 
ATOM     60  C   UNL A   1      44.967  32.928  30.102  1.00  0.00     0.031 A 
BRANCH  47  61
ATOM     61  C   UNL A   1      47.873  28.141  27.466  1.00  0.00    -0.014 A 
ATOM     62  C   UNL A   1      48.393  28.416  26.187  1.00  0.00     0.010 A 
ATOM     63  C   UNL A   1      48.604  27.307  28.331  1.00  0.00     0.010 A 
ATOM     64  C   UNL A   1      49.588  27.826  25.764  1.00  0.00     0.020 A 
ATOM     65  C   UNL A   1      49.816  26.741  27.925  1.00  0.00     0.020 A 
ATOM     66  C   UNL A   1      50.290  26.987  26.634  1.00  0.00     0.054 A 
BRANCH  66  67
ATOM     67  S   UNL A   1      51.839  26.238  26.060  1.00  0.00     0.124 S 
ATOM     68  O   UNL A   1      52.838  27.102  26.681  1.00  0.00    -0.237 OA
ATOM     69  O   UNL A   1      51.758  24.883  26.600  1.00  0.00    -0.237 OA
ATOM     70  O   UNL A   1      51.752  26.332  24.605  1.00  0.00    -0.744 OA
ENDBRANCH  66  67
ENDBRANCH  47  61
BRANCH  48  71
ATOM     71  C   UNL A   1      39.117  31.546  30.873  1.00  0.00    -0.014 A 
ATOM     72  C   UNL A   1      38.655  31.188  32.152  1.00  0.00     0.010 A 
ATOM     73  C   UNL A   1      38.341  32.416  30.086  1.00  0.00     0.010 A 
ATOM     74  C   UNL A   1      37.439  31.682  32.631  1.00  0.00     0.020 A 
ATOM     75  C   UNL A   1      37.139  32.936  30.572  1.00  0.00     0.020 A 
ATOM     76  C   UNL A   1      36.691  32.559  31.840  1.00  0.00     0.054 A 
BRANCH  76  77
ATOM     77  S   UNL A   1      35.150  33.240  32.512  1.00  0.00     0.124 S 
ATOM     78  O   UNL A   1      34.138  32.477  31.788  1.00  0.00    -0.237 OA
ATOM     79  O   UNL A   1      35.270  32.944  33.936  1.00  0.00    -0.237 OA
ATOM     80  O   UNL A   1      35.226  34.659  32.171  1.00  0.00    -0.744 OA
ENDBRANCH  76  77
ENDBRANCH  48  71
BRANCH  60  81
ATOM     81  C   UNL A   1      45.524  34.264  30.521  1.00  0.00    -0.014 A 
ATOM     82  C   UNL A   1      46.073  34.458  31.802  1.00  0.00     0.010 A 
ATOM     83  C   UNL A   1      45.511  35.340  29.615  1.00  0.00     0.010 A 
ATOM     84  C   UNL A   1      46.544  35.717  32.188  1.00  0.00     0.020 A 
ATOM     85  C   UNL A   1      46.014  36.590  29.984  1.00  0.00     0.020 A 
ATOM     86  C   UNL A   1      46.506  36.776  31.276  1.00  0.00     0.054 A 
BRANCH  86  87
ATOM     87  S   UNL A   1      47.128  38.398  31.798  1.00  0.00     0.124 S 
ATOM     88  O   UNL A   1      46.454  38.582  33.081  1.00  0.00    -0.237 OA
ATOM     89  O   UNL A   1      48.570  38.180  31.871  1.00  0.00    -0.237 OA
ATOM     90  O   UNL A   1      46.692  39.296  30.731  1.00  0.00    -0.744 OA
ENDBRANCH  86  87
ENDBRANCH  60  81
ENDBRANCH  34  35
ENDBRANCH  26  29
ENDBRANCH  24  25
ENDBRANCH  23  24
ENDBRANCH  22  23
ENDBRANCH  21  22
ENDBRANCH   1  21
TORSDOF 21
ENDMDL
