MODEL 1
REMARK VINA RESULT:     -10.7      0.000      0.000
REMARK SMILES CCC(C)(C)NC(=O)[C@@H](C)Oc1ccc(C)nc1C(=O)NCCCCCCNC(=O)c1ccc(-c2c3nc(c(-c4ccc(S(=O)(=O)[O-])cc4)c4ccc([nH]4)c(-c4ccc(S(=O)(=O)[O-])cc4)c4nc(c(-c5ccc(S(=O)(=O)[O-])cc5)c5ccc2[nH]5)C=C4)C=C3)cc1
REMARK SMILES IDX 23 1 22 2 21 3 19 4 20 5 18 7 12 8 13 9 14 10 17 11 15 12
REMARK SMILES IDX 16 13 11 14 9 15 10 16 7 17 6 18 8 20 3 21 4 22 5 23 2 24
REMARK SMILES IDX 1 25 24 26 25 27 26 28 27 29 28 30 29 31 30 33 31 34 32 35
REMARK SMILES IDX 90 36 33 37 89 38 34 39 35 40 36 41 83 42 37 43 88 44 82 45
REMARK SMILES IDX 84 46 38 47 87 48 81 49 80 50 39 52 69 53 50 54 68 55 51 56
REMARK SMILES IDX 54 57 67 58 85 59 52 60 53 61 66 63 86 64 55 65 40 66 41 67
REMARK SMILES IDX 49 68 42 69 48 70 43 71 44 72 45 73 46 74 47 75 70 76 71 77
REMARK SMILES IDX 79 78 72 79 78 80 73 81 74 82 75 83 76 84 77 85 56 86 57 87
REMARK SMILES IDX 65 88 58 89 64 90 59 91 60 92 61 93 62 94 63 95
REMARK H PARENT 21 6 6 19 28 32 84 51 54 62
REMARK Flexibility Score: inf
ROOT
ATOM      1  C   UNL A   1      37.250  21.713  24.408  1.00  0.00     0.021 C 
ENDROOT
BRANCH   1   2
ATOM      2  C   UNL A   1      36.870  23.190  24.279  1.00  0.00     0.116 C 
BRANCH   2   3
ATOM      3  N   UNL A   1      35.902  23.519  25.300  1.00  0.00    -0.351 N 
ATOM      4  C   UNL A   1      34.700  24.181  25.302  1.00  0.00     0.273 C 
ATOM      5  O   UNL A   1      34.253  24.419  26.432  1.00  0.00    -0.267 OA
ATOM      6  H   UNL A   1      36.164  23.198  26.193  1.00  0.00     0.163 HD
BRANCH   4   7
ATOM      7  C   UNL A   1      33.857  24.525  24.095  1.00  0.00     0.170 A 
ATOM      8  C   UNL A   1      33.196  23.660  23.217  1.00  0.00     0.151 A 
ATOM      9  C   UNL A   1      32.263  24.237  22.350  1.00  0.00     0.051 A 
ATOM     10  C   UNL A   1      32.264  25.617  22.140  1.00  0.00     0.027 A 
ATOM     11  N   UNL A   1      33.877  25.875  23.863  1.00  0.00    -0.244 NA
ATOM     12  C   UNL A   1      33.182  26.383  22.830  1.00  0.00     0.038 A 
ATOM     13  C   UNL A   1      33.524  27.779  22.410  1.00  0.00     0.067 C 
BRANCH   8  14
ATOM     14  O   UNL A   1      33.620  22.366  23.106  1.00  0.00    -0.478 OA
BRANCH  14  15
ATOM     15  C   UNL A   1      33.061  21.332  23.907  1.00  0.00     0.259 C 
ATOM     16  C   UNL A   1      31.887  21.908  24.729  1.00  0.00     0.064 C 
BRANCH  15  17
ATOM     17  C   UNL A   1      33.822  20.424  24.907  1.00  0.00     0.261 C 
ATOM     18  N   UNL A   1      34.262  19.179  24.574  1.00  0.00    -0.348 N 
ATOM     19  H   UNL A   1      35.238  19.119  24.460  1.00  0.00     0.164 HD
ATOM     20  O   UNL A   1      34.235  20.894  25.975  1.00  0.00    -0.271 OA
BRANCH  18  21
ATOM     21  C   UNL A   1      33.556  17.896  24.351  1.00  0.00     0.034 C 
ATOM     22  C   UNL A   1      32.702  18.055  23.069  1.00  0.00     0.034 C 
ATOM     23  C   UNL A   1      32.575  17.741  25.535  1.00  0.00     0.034 C 
BRANCH  21  24
ATOM     24  C   UNL A   1      34.362  16.577  24.229  1.00  0.00     0.024 C 
ATOM     25  C   UNL A   1      35.250  16.118  25.372  1.00  0.00     0.006 C 
ENDBRANCH  21  24
ENDBRANCH  18  21
ENDBRANCH  15  17
ENDBRANCH  14  15
ENDBRANCH   8  14
ENDBRANCH   4   7
ENDBRANCH   2   3
ENDBRANCH   1   2
BRANCH   1  26
ATOM     26  C   UNL A   1      38.017  21.363  25.684  1.00  0.00     0.002 C 
BRANCH  26  27
ATOM     27  C   UNL A   1      38.995  22.458  26.128  1.00  0.00     0.002 C 
BRANCH  27  28
ATOM     28  C   UNL A   1      40.202  21.973  26.945  1.00  0.00     0.021 C 
BRANCH  28  29
ATOM     29  C   UNL A   1      41.132  23.082  27.435  1.00  0.00     0.116 C 
BRANCH  29  30
ATOM     30  N   UNL A   1      41.670  23.848  26.322  1.00  0.00    -0.352 N 
ATOM     31  C   UNL A   1      41.681  25.205  26.119  1.00  0.00     0.251 C 
ATOM     32  H   UNL A   1      42.088  23.313  25.609  1.00  0.00     0.163 HD
ATOM     33  O   UNL A   1      41.869  25.649  24.991  1.00  0.00    -0.269 OA
BRANCH  31  34
ATOM     34  C   UNL A   1      41.476  26.132  27.254  1.00  0.00     0.039 A 
ATOM     35  C   UNL A   1      40.382  25.937  28.101  1.00  0.00     0.014 A 
ATOM     36  C   UNL A   1      42.321  27.229  27.445  1.00  0.00     0.014 A 
ATOM     37  C   UNL A   1      40.162  26.816  29.165  1.00  0.00     0.010 A 
ATOM     38  C   UNL A   1      42.137  28.068  28.542  1.00  0.00     0.010 A 
ATOM     39  C   UNL A   1      41.049  27.877  29.408  1.00  0.00    -0.014 A 
BRANCH  39  40
ATOM     40  C   UNL A   1      40.855  28.793  30.562  1.00  0.00     0.031 A 
ATOM     41  C   UNL A   1      41.687  28.632  31.808  1.00  0.00     0.074 A 
ATOM     42  C   UNL A   1      39.887  29.730  30.510  1.00  0.00     0.049 A 
ATOM     43  N   UNL A   1      41.628  29.304  32.929  1.00  0.00    -0.248 NA
ATOM     44  C   UNL A   1      42.702  27.565  31.804  1.00  0.00     0.031 C 
ATOM     45  C   UNL A   1      38.986  29.955  29.377  1.00  0.00     0.029 A 
ATOM     46  N   UNL A   1      39.491  30.662  31.437  1.00  0.00    -0.354 N 
ATOM     47  C   UNL A   1      42.574  28.726  33.770  1.00  0.00     0.074 A 
ATOM     48  C   UNL A   1      43.170  27.628  33.043  1.00  0.00     0.031 C 
ATOM     49  C   UNL A   1      38.162  30.976  29.665  1.00  0.00     0.029 A 
ATOM     50  C   UNL A   1      38.446  31.451  31.015  1.00  0.00     0.049 A 
ATOM     51  H   UNL A   1      39.915  30.757  32.320  1.00  0.00     0.167 HD
ATOM     52  C   UNL A   1      42.921  29.087  35.028  1.00  0.00     0.031 A 
ATOM     53  C   UNL A   1      37.786  32.441  31.647  1.00  0.00     0.031 A 
ATOM     54  C   UNL A   1      42.346  30.201  35.736  1.00  0.00     0.049 A 
ATOM     55  C   UNL A   1      38.201  32.824  33.042  1.00  0.00     0.074 A 
ATOM     56  C   UNL A   1      42.695  30.699  36.980  1.00  0.00     0.029 A 
ATOM     57  N   UNL A   1      41.304  30.986  35.268  1.00  0.00    -0.354 N 
ATOM     58  N   UNL A   1      39.159  32.322  33.784  1.00  0.00    -0.248 NA
ATOM     59  C   UNL A   1      37.450  33.915  33.682  1.00  0.00     0.031 C 
ATOM     60  C   UNL A   1      41.826  31.751  37.288  1.00  0.00     0.029 A 
ATOM     61  C   UNL A   1      40.975  31.944  36.212  1.00  0.00     0.049 A 
ATOM     62  H   UNL A   1      40.864  30.878  34.394  1.00  0.00     0.167 HD
ATOM     63  C   UNL A   1      39.147  33.058  34.964  1.00  0.00     0.074 A 
ATOM     64  C   UNL A   1      38.099  34.048  34.831  1.00  0.00     0.031 C 
ATOM     65  C   UNL A   1      39.934  32.927  36.060  1.00  0.00     0.031 A 
BRANCH  52  66
ATOM     66  C   UNL A   1      43.970  28.271  35.736  1.00  0.00    -0.014 A 
ATOM     67  C   UNL A   1      45.333  28.607  35.657  1.00  0.00     0.010 A 
ATOM     68  C   UNL A   1      43.576  27.201  36.562  1.00  0.00     0.010 A 
ATOM     69  C   UNL A   1      46.286  27.874  36.372  1.00  0.00     0.020 A 
ATOM     70  C   UNL A   1      44.523  26.482  37.299  1.00  0.00     0.020 A 
ATOM     71  C   UNL A   1      45.873  26.818  37.191  1.00  0.00     0.054 A 
BRANCH  71  72
ATOM     72  S   UNL A   1      47.126  25.922  38.151  1.00  0.00     0.124 S 
ATOM     73  O   UNL A   1      48.131  26.958  38.378  1.00  0.00    -0.237 OA
ATOM     74  O   UNL A   1      46.381  25.500  39.334  1.00  0.00    -0.237 OA
ATOM     75  O   UNL A   1      47.538  24.841  37.259  1.00  0.00    -0.744 OA
ENDBRANCH  71  72
ENDBRANCH  52  66
BRANCH  53  76
ATOM     76  C   UNL A   1      36.666  33.152  30.970  1.00  0.00    -0.014 A 
ATOM     77  C   UNL A   1      35.341  32.978  31.409  1.00  0.00     0.010 A 
ATOM     78  C   UNL A   1      36.915  33.984  29.864  1.00  0.00     0.010 A 
ATOM     79  C   UNL A   1      34.283  33.591  30.732  1.00  0.00     0.020 A 
ATOM     80  C   UNL A   1      35.862  34.623  29.202  1.00  0.00     0.020 A 
ATOM     81  C   UNL A   1      34.551  34.406  29.629  1.00  0.00     0.054 A 
BRANCH  81  82
ATOM     82  S   UNL A   1      33.165  35.201  28.769  1.00  0.00     0.124 S 
ATOM     83  O   UNL A   1      32.377  35.722  29.882  1.00  0.00    -0.237 OA
ATOM     84  O   UNL A   1      33.836  36.202  27.945  1.00  0.00    -0.237 OA
ATOM     85  O   UNL A   1      32.550  34.103  28.026  1.00  0.00    -0.744 OA
ENDBRANCH  81  82
ENDBRANCH  53  76
BRANCH  65  86
ATOM     86  C   UNL A   1      39.719  33.901  37.187  1.00  0.00    -0.014 A 
ATOM     87  C   UNL A   1      38.923  33.571  38.297  1.00  0.00     0.010 A 
ATOM     88  C   UNL A   1      40.365  35.152  37.153  1.00  0.00     0.010 A 
ATOM     89  C   UNL A   1      38.746  34.487  39.337  1.00  0.00     0.020 A 
ATOM     90  C   UNL A   1      40.214  36.059  38.205  1.00  0.00     0.020 A 
ATOM     91  C   UNL A   1      39.393  35.725  39.283  1.00  0.00     0.054 A 
BRANCH  91  92
ATOM     92  S   UNL A   1      39.179  36.883  40.664  1.00  0.00     0.124 S 
ATOM     93  O   UNL A   1      38.447  36.070  41.630  1.00  0.00    -0.237 OA
ATOM     94  O   UNL A   1      40.555  37.207  41.028  1.00  0.00    -0.237 OA
ATOM     95  O   UNL A   1      38.420  37.985  40.076  1.00  0.00    -0.744 OA
ENDBRANCH  91  92
ENDBRANCH  65  86
ENDBRANCH  39  40
ENDBRANCH  31  34
ENDBRANCH  29  30
ENDBRANCH  28  29
ENDBRANCH  27  28
ENDBRANCH  26  27
ENDBRANCH   1  26
TORSDOF 21
ENDMDL
MODEL 2
REMARK VINA RESULT:     -10.5      6.216      9.027
REMARK SMILES CCC(C)(C)NC(=O)[C@@H](C)Oc1ccc(C)nc1C(=O)NCCCCCCNC(=O)c1ccc(-c2c3nc(c(-c4ccc(S(=O)(=O)[O-])cc4)c4ccc([nH]4)c(-c4ccc(S(=O)(=O)[O-])cc4)c4nc(c(-c5ccc(S(=O)(=O)[O-])cc5)c5ccc2[nH]5)C=C4)C=C3)cc1
REMARK SMILES IDX 23 1 22 2 21 3 19 4 20 5 18 7 12 8 13 9 14 10 17 11 15 12
REMARK SMILES IDX 16 13 11 14 9 15 10 16 7 17 6 18 8 20 3 21 4 22 5 23 2 24
REMARK SMILES IDX 1 25 24 26 25 27 26 28 27 29 28 30 29 31 30 33 31 34 32 35
REMARK SMILES IDX 90 36 33 37 89 38 34 39 35 40 36 41 83 42 37 43 88 44 82 45
REMARK SMILES IDX 84 46 38 47 87 48 81 49 80 50 39 52 69 53 50 54 68 55 51 56
REMARK SMILES IDX 54 57 67 58 85 59 52 60 53 61 66 63 86 64 55 65 40 66 41 67
REMARK SMILES IDX 49 68 42 69 48 70 43 71 44 72 45 73 46 74 47 75 70 76 71 77
REMARK SMILES IDX 79 78 72 79 78 80 73 81 74 82 75 83 76 84 77 85 56 86 57 87
REMARK SMILES IDX 65 88 58 89 64 90 59 91 60 92 61 93 62 94 63 95
REMARK H PARENT 21 6 6 19 28 32 84 51 54 62
REMARK Flexibility Score: inf
ROOT
ATOM      1  C   UNL A   1      38.876  24.020  26.604  1.00  0.00     0.021 C 
ENDROOT
BRANCH   1   2
ATOM      2  C   UNL A   1      37.426  23.939  26.124  1.00  0.00     0.116 C 
BRANCH   2   3
ATOM      3  N   UNL A   1      37.414  23.678  24.702  1.00  0.00    -0.351 N 
ATOM      4  C   UNL A   1      36.480  23.182  23.827  1.00  0.00     0.273 C 
ATOM      5  O   UNL A   1      36.923  22.935  22.698  1.00  0.00    -0.267 OA
ATOM      6  H   UNL A   1      38.266  23.905  24.265  1.00  0.00     0.163 HD
BRANCH   4   7
ATOM      7  C   UNL A   1      34.997  23.030  24.081  1.00  0.00     0.170 A 
ATOM      8  C   UNL A   1      33.927  23.500  23.313  1.00  0.00     0.151 A 
ATOM      9  C   UNL A   1      32.662  22.990  23.620  1.00  0.00     0.051 A 
ATOM     10  C   UNL A   1      32.447  22.336  24.834  1.00  0.00     0.027 A 
ATOM     11  N   UNL A   1      34.776  22.417  25.286  1.00  0.00    -0.244 NA
ATOM     12  C   UNL A   1      33.516  22.187  25.694  1.00  0.00     0.038 A 
ATOM     13  C   UNL A   1      33.327  21.859  27.143  1.00  0.00     0.067 C 
BRANCH   8  14
ATOM     14  O   UNL A   1      34.124  24.551  22.462  1.00  0.00    -0.478 OA
BRANCH  14  15
ATOM     15  C   UNL A   1      33.118  25.532  22.250  1.00  0.00     0.259 C 
ATOM     16  C   UNL A   1      32.664  25.482  20.775  1.00  0.00     0.064 C 
BRANCH  15  17
ATOM     17  C   UNL A   1      33.222  27.046  22.569  1.00  0.00     0.261 C 
ATOM     18  N   UNL A   1      32.635  27.603  23.666  1.00  0.00    -0.348 N 
ATOM     19  H   UNL A   1      33.273  27.862  24.369  1.00  0.00     0.164 HD
ATOM     20  O   UNL A   1      34.020  27.754  21.944  1.00  0.00    -0.271 OA
BRANCH  18  21
ATOM     21  C   UNL A   1      31.223  27.896  24.003  1.00  0.00     0.034 C 
ATOM     22  C   UNL A   1      31.146  29.387  24.412  1.00  0.00     0.034 C 
ATOM     23  C   UNL A   1      30.907  27.061  25.264  1.00  0.00     0.034 C 
BRANCH  21  24
ATOM     24  C   UNL A   1      30.104  27.626  22.963  1.00  0.00     0.024 C 
ATOM     25  C   UNL A   1      28.787  28.375  23.049  1.00  0.00     0.006 C 
ENDBRANCH  21  24
ENDBRANCH  18  21
ENDBRANCH  15  17
ENDBRANCH  14  15
ENDBRANCH   8  14
ENDBRANCH   4   7
ENDBRANCH   2   3
ENDBRANCH   1   2
BRANCH   1  26
ATOM     26  C   UNL A   1      39.689  22.743  26.391  1.00  0.00     0.002 C 
BRANCH  26  27
ATOM     27  C   UNL A   1      40.513  22.332  27.618  1.00  0.00     0.002 C 
BRANCH  27  28
ATOM     28  C   UNL A   1      41.031  20.886  27.611  1.00  0.00     0.021 C 
BRANCH  28  29
ATOM     29  C   UNL A   1      40.679  20.084  26.359  1.00  0.00     0.116 C 
BRANCH  29  30
ATOM     30  N   UNL A   1      41.848  19.405  25.823  1.00  0.00    -0.352 N 
ATOM     31  C   UNL A   1      43.033  19.929  25.371  1.00  0.00     0.251 C 
ATOM     32  H   UNL A   1      41.778  18.424  25.778  1.00  0.00     0.163 HD
ATOM     33  O   UNL A   1      43.762  19.253  24.654  1.00  0.00    -0.269 OA
BRANCH  31  34
ATOM     34  C   UNL A   1      43.437  21.301  25.752  1.00  0.00     0.039 A 
ATOM     35  C   UNL A   1      43.127  22.363  24.898  1.00  0.00     0.014 A 
ATOM     36  C   UNL A   1      44.176  21.533  26.916  1.00  0.00     0.014 A 
ATOM     37  C   UNL A   1      43.520  23.661  25.233  1.00  0.00     0.010 A 
ATOM     38  C   UNL A   1      44.512  22.835  27.280  1.00  0.00     0.010 A 
ATOM     39  C   UNL A   1      44.198  23.912  26.438  1.00  0.00    -0.014 A 
BRANCH  39  40
ATOM     40  C   UNL A   1      44.582  25.293  26.830  1.00  0.00     0.031 A 
ATOM     41  C   UNL A   1      45.949  25.827  26.490  1.00  0.00     0.074 A 
ATOM     42  C   UNL A   1      43.722  26.043  27.549  1.00  0.00     0.049 A 
ATOM     43  N   UNL A   1      46.478  26.986  26.789  1.00  0.00    -0.248 NA
ATOM     44  C   UNL A   1      46.848  24.938  25.734  1.00  0.00     0.031 C 
ATOM     45  C   UNL A   1      42.386  25.622  27.978  1.00  0.00     0.029 A 
ATOM     46  N   UNL A   1      43.845  27.313  28.052  1.00  0.00    -0.354 N 
ATOM     47  C   UNL A   1      47.774  26.955  26.285  1.00  0.00     0.074 A 
ATOM     48  C   UNL A   1      47.965  25.651  25.689  1.00  0.00     0.031 C 
ATOM     49  C   UNL A   1      41.805  26.624  28.657  1.00  0.00     0.029 A 
ATOM     50  C   UNL A   1      42.738  27.742  28.747  1.00  0.00     0.049 A 
ATOM     51  H   UNL A   1      44.650  27.867  27.927  1.00  0.00     0.167 HD
ATOM     52  C   UNL A   1      48.714  27.929  26.307  1.00  0.00     0.031 A 
ATOM     53  C   UNL A   1      42.502  28.903  29.390  1.00  0.00     0.031 A 
ATOM     54  C   UNL A   1      48.510  29.236  26.873  1.00  0.00     0.049 A 
ATOM     55  C   UNL A   1      43.565  29.969  29.389  1.00  0.00     0.074 A 
ATOM     56  C   UNL A   1      49.372  30.320  26.864  1.00  0.00     0.029 A 
ATOM     57  N   UNL A   1      47.369  29.636  27.551  1.00  0.00    -0.354 N 
ATOM     58  N   UNL A   1      44.750  29.951  28.827  1.00  0.00    -0.248 NA
ATOM     59  C   UNL A   1      43.253  31.217  30.102  1.00  0.00     0.031 C 
ATOM     60  C   UNL A   1      48.774  31.358  27.586  1.00  0.00     0.029 A 
ATOM     61  C   UNL A   1      47.518  30.941  27.993  1.00  0.00     0.049 A 
ATOM     62  H   UNL A   1      46.573  29.077  27.696  1.00  0.00     0.167 HD
ATOM     63  C   UNL A   1      45.311  31.196  29.091  1.00  0.00     0.074 A 
ATOM     64  C   UNL A   1      44.331  31.947  29.848  1.00  0.00     0.031 C 
ATOM     65  C   UNL A   1      46.529  31.676  28.738  1.00  0.00     0.031 A 
BRANCH  52  66
ATOM     66  C   UNL A   1      50.062  27.627  25.705  1.00  0.00    -0.014 A 
ATOM     67  C   UNL A   1      51.125  27.152  26.494  1.00  0.00     0.010 A 
ATOM     68  C   UNL A   1      50.241  27.741  24.313  1.00  0.00     0.010 A 
ATOM     69  C   UNL A   1      52.349  26.818  25.905  1.00  0.00     0.020 A 
ATOM     70  C   UNL A   1      51.455  27.383  23.718  1.00  0.00     0.020 A 
ATOM     71  C   UNL A   1      52.504  26.933  24.520  1.00  0.00     0.054 A 
BRANCH  71  72
ATOM     72  S   UNL A   1      54.085  26.439  23.780  1.00  0.00     0.124 S 
ATOM     73  O   UNL A   1      54.946  27.568  24.124  1.00  0.00    -0.237 OA
ATOM     74  O   UNL A   1      54.385  25.187  24.469  1.00  0.00    -0.237 OA
ATOM     75  O   UNL A   1      53.776  26.305  22.358  1.00  0.00    -0.744 OA
ENDBRANCH  71  72
ENDBRANCH  52  66
BRANCH  53  76
ATOM     76  C   UNL A   1      41.206  29.129  30.086  1.00  0.00    -0.014 A 
ATOM     77  C   UNL A   1      41.004  28.652  31.394  1.00  0.00     0.010 A 
ATOM     78  C   UNL A   1      40.154  29.798  29.434  1.00  0.00     0.010 A 
ATOM     79  C   UNL A   1      39.764  28.805  32.022  1.00  0.00     0.020 A 
ATOM     80  C   UNL A   1      38.922  29.980  30.070  1.00  0.00     0.020 A 
ATOM     81  C   UNL A   1      38.730  29.463  31.353  1.00  0.00     0.054 A 
BRANCH  81  82
ATOM     82  S   UNL A   1      37.131  29.661  32.189  1.00  0.00     0.124 S 
ATOM     83  O   UNL A   1      37.167  31.066  32.582  1.00  0.00    -0.237 OA
ATOM     84  O   UNL A   1      36.179  29.322  31.135  1.00  0.00    -0.237 OA
ATOM     85  O   UNL A   1      37.201  28.700  33.288  1.00  0.00    -0.744 OA
ENDBRANCH  81  82
ENDBRANCH  53  76
BRANCH  65  86
ATOM     86  C   UNL A   1      46.855  33.091  29.131  1.00  0.00    -0.014 A 
ATOM     87  C   UNL A   1      47.507  33.382  30.342  1.00  0.00     0.010 A 
ATOM     88  C   UNL A   1      46.545  34.143  28.249  1.00  0.00     0.010 A 
ATOM     89  C   UNL A   1      47.811  34.703  30.681  1.00  0.00     0.020 A 
ATOM     90  C   UNL A   1      46.873  35.462  28.572  1.00  0.00     0.020 A 
ATOM     91  C   UNL A   1      47.491  35.734  29.794  1.00  0.00     0.054 A 
BRANCH  91  92
ATOM     92  S   UNL A   1      47.929  37.437  30.239  1.00  0.00     0.124 S 
ATOM     93  O   UNL A   1      46.857  38.201  29.610  1.00  0.00    -0.237 OA
ATOM     94  O   UNL A   1      47.904  37.404  31.699  1.00  0.00    -0.237 OA
ATOM     95  O   UNL A   1      49.254  37.619  29.649  1.00  0.00    -0.744 OA
ENDBRANCH  91  92
ENDBRANCH  65  86
ENDBRANCH  39  40
ENDBRANCH  31  34
ENDBRANCH  29  30
ENDBRANCH  28  29
ENDBRANCH  27  28
ENDBRANCH  26  27
ENDBRANCH   1  26
TORSDOF 21
ENDMDL
MODEL 3
REMARK VINA RESULT:     -10.2      5.713     11.146
REMARK SMILES CCC(C)(C)NC(=O)[C@@H](C)Oc1ccc(C)nc1C(=O)NCCCCCCNC(=O)c1ccc(-c2c3nc(c(-c4ccc(S(=O)(=O)[O-])cc4)c4ccc([nH]4)c(-c4ccc(S(=O)(=O)[O-])cc4)c4nc(c(-c5ccc(S(=O)(=O)[O-])cc5)c5ccc2[nH]5)C=C4)C=C3)cc1
REMARK SMILES IDX 23 1 22 2 21 3 19 4 20 5 18 7 12 8 13 9 14 10 17 11 15 12
REMARK SMILES IDX 16 13 11 14 9 15 10 16 7 17 6 18 8 20 3 21 4 22 5 23 2 24
REMARK SMILES IDX 1 25 24 26 25 27 26 28 27 29 28 30 29 31 30 33 31 34 32 35
REMARK SMILES IDX 90 36 33 37 89 38 34 39 35 40 36 41 83 42 37 43 88 44 82 45
REMARK SMILES IDX 84 46 38 47 87 48 81 49 80 50 39 52 69 53 50 54 68 55 51 56
REMARK SMILES IDX 54 57 67 58 85 59 52 60 53 61 66 63 86 64 55 65 40 66 41 67
REMARK SMILES IDX 49 68 42 69 48 70 43 71 44 72 45 73 46 74 47 75 70 76 71 77
REMARK SMILES IDX 79 78 72 79 78 80 73 81 74 82 75 83 76 84 77 85 56 86 57 87
REMARK SMILES IDX 65 88 58 89 64 90 59 91 60 92 61 93 62 94 63 95
REMARK H PARENT 21 6 6 19 28 32 84 51 54 62
REMARK Flexibility Score: inf
ROOT
ATOM      1  C   UNL A   1      34.827  28.820  26.963  1.00  0.00     0.021 C 
ENDROOT
BRANCH   1   2
ATOM      2  C   UNL A   1      33.458  28.911  26.287  1.00  0.00     0.116 C 
BRANCH   2   3
ATOM      3  N   UNL A   1      33.644  29.033  24.859  1.00  0.00    -0.351 N 
ATOM      4  C   UNL A   1      33.670  28.140  23.816  1.00  0.00     0.273 C 
ATOM      5  O   UNL A   1      34.044  28.626  22.741  1.00  0.00    -0.267 OA
ATOM      6  H   UNL A   1      33.784  29.963  24.570  1.00  0.00     0.163 HD
BRANCH   4   7
ATOM      7  C   UNL A   1      33.190  26.707  23.844  1.00  0.00     0.170 A 
ATOM      8  C   UNL A   1      31.894  26.224  24.057  1.00  0.00     0.151 A 
ATOM      9  C   UNL A   1      31.670  24.876  23.760  1.00  0.00     0.051 A 
ATOM     10  C   UNL A   1      32.749  24.005  23.604  1.00  0.00     0.027 A 
ATOM     11  N   UNL A   1      34.247  25.843  23.723  1.00  0.00    -0.244 NA
ATOM     12  C   UNL A   1      34.025  24.517  23.723  1.00  0.00     0.038 A 
ATOM     13  C   UNL A   1      35.214  23.636  23.954  1.00  0.00     0.067 C 
BRANCH   8  14
ATOM     14  O   UNL A   1      30.988  27.006  24.715  1.00  0.00    -0.478 OA
BRANCH  14  15
ATOM     15  C   UNL A   1      29.961  27.697  24.016  1.00  0.00     0.259 C 
ATOM     16  C   UNL A   1      28.762  26.745  23.807  1.00  0.00     0.064 C 
BRANCH  15  17
ATOM     17  C   UNL A   1      30.102  28.439  22.662  1.00  0.00     0.261 C 
ATOM     18  N   UNL A   1      29.989  29.793  22.556  1.00  0.00    -0.348 N 
ATOM     19  H   UNL A   1      30.844  30.251  22.393  1.00  0.00     0.164 HD
ATOM     20  O   UNL A   1      30.531  27.836  21.671  1.00  0.00    -0.271 OA
BRANCH  18  21
ATOM     21  C   UNL A   1      28.828  30.708  22.638  1.00  0.00     0.034 C 
ATOM     22  C   UNL A   1      27.584  29.848  22.972  1.00  0.00     0.034 C 
ATOM     23  C   UNL A   1      28.626  31.265  21.212  1.00  0.00     0.034 C 
BRANCH  21  24
ATOM     24  C   UNL A   1      28.855  31.911  23.617  1.00  0.00     0.024 C 
ATOM     25  C   UNL A   1      28.914  33.329  23.080  1.00  0.00     0.006 C 
ENDBRANCH  21  24
ENDBRANCH  18  21
ENDBRANCH  15  17
ENDBRANCH  14  15
ENDBRANCH   8  14
ENDBRANCH   4   7
ENDBRANCH   2   3
ENDBRANCH   1   2
BRANCH   1  26
ATOM     26  C   UNL A   1      35.080  29.883  28.033  1.00  0.00     0.002 C 
BRANCH  26  27
ATOM     27  C   UNL A   1      34.962  31.319  27.506  1.00  0.00     0.002 C 
BRANCH  27  28
ATOM     28  C   UNL A   1      33.784  32.133  28.064  1.00  0.00     0.021 C 
BRANCH  28  29
ATOM     29  C   UNL A   1      34.172  33.458  28.718  1.00  0.00     0.116 C 
BRANCH  29  30
ATOM     30  N   UNL A   1      33.965  33.415  30.156  1.00  0.00    -0.352 N 
ATOM     31  C   UNL A   1      34.713  32.802  31.130  1.00  0.00     0.251 C 
ATOM     32  H   UNL A   1      33.170  33.898  30.479  1.00  0.00     0.163 HD
ATOM     33  O   UNL A   1      34.218  32.588  32.231  1.00  0.00    -0.269 OA
BRANCH  31  34
ATOM     34  C   UNL A   1      36.113  32.408  30.859  1.00  0.00     0.039 A 
ATOM     35  C   UNL A   1      36.714  31.436  31.663  1.00  0.00     0.014 A 
ATOM     36  C   UNL A   1      36.854  33.042  29.856  1.00  0.00     0.014 A 
ATOM     37  C   UNL A   1      38.043  31.069  31.434  1.00  0.00     0.010 A 
ATOM     38  C   UNL A   1      38.158  32.630  29.588  1.00  0.00     0.010 A 
ATOM     39  C   UNL A   1      38.770  31.648  30.380  1.00  0.00    -0.014 A 
BRANCH  39  40
ATOM     40  C   UNL A   1      40.169  31.235  30.094  1.00  0.00     0.031 A 
ATOM     41  C   UNL A   1      41.299  32.218  30.256  1.00  0.00     0.074 A 
ATOM     42  C   UNL A   1      40.413  29.993  29.629  1.00  0.00     0.049 A 
ATOM     43  N   UNL A   1      42.574  32.054  30.010  1.00  0.00    -0.248 NA
ATOM     44  C   UNL A   1      40.952  33.567  30.735  1.00  0.00     0.031 C 
ATOM     45  C   UNL A   1      39.398  28.964  29.388  1.00  0.00     0.029 A 
ATOM     46  N   UNL A   1      41.589  29.387  29.267  1.00  0.00    -0.354 N 
ATOM     47  C   UNL A   1      43.174  33.280  30.277  1.00  0.00     0.074 A 
ATOM     48  C   UNL A   1      42.122  34.189  30.672  1.00  0.00     0.031 C 
ATOM     49  C   UNL A   1      39.998  27.848  28.943  1.00  0.00     0.029 A 
ATOM     50  C   UNL A   1      41.432  28.092  28.828  1.00  0.00     0.049 A 
ATOM     51  H   UNL A   1      42.464  29.836  29.316  1.00  0.00     0.167 HD
ATOM     52  C   UNL A   1      44.485  33.614  30.209  1.00  0.00     0.031 A 
ATOM     53  C   UNL A   1      42.339  27.204  28.378  1.00  0.00     0.031 A 
ATOM     54  C   UNL A   1      45.533  32.697  29.846  1.00  0.00     0.049 A 
ATOM     55  C   UNL A   1      43.790  27.602  28.323  1.00  0.00     0.074 A 
ATOM     56  C   UNL A   1      46.900  32.918  29.835  1.00  0.00     0.029 A 
ATOM     57  N   UNL A   1      45.335  31.391  29.427  1.00  0.00    -0.354 N 
ATOM     58  N   UNL A   1      44.346  28.739  28.666  1.00  0.00    -0.248 NA
ATOM     59  C   UNL A   1      44.737  26.592  27.827  1.00  0.00     0.031 C 
ATOM     60  C   UNL A   1      47.525  31.761  29.355  1.00  0.00     0.029 A 
ATOM     61  C   UNL A   1      46.552  30.803  29.124  1.00  0.00     0.049 A 
ATOM     62  H   UNL A   1      44.459  30.948  29.355  1.00  0.00     0.167 HD
ATOM     63  C   UNL A   1      45.711  28.569  28.459  1.00  0.00     0.074 A 
ATOM     64  C   UNL A   1      45.897  27.217  27.977  1.00  0.00     0.031 C 
ATOM     65  C   UNL A   1      46.720  29.453  28.652  1.00  0.00     0.031 A 
BRANCH  52  66
ATOM     66  C   UNL A   1      44.873  35.034  30.531  1.00  0.00    -0.014 A 
ATOM     67  C   UNL A   1      44.778  36.053  29.567  1.00  0.00     0.010 A 
ATOM     68  C   UNL A   1      45.259  35.367  31.843  1.00  0.00     0.010 A 
ATOM     69  C   UNL A   1      45.083  37.375  29.903  1.00  0.00     0.020 A 
ATOM     70  C   UNL A   1      45.539  36.693  32.189  1.00  0.00     0.020 A 
ATOM     71  C   UNL A   1      45.459  37.687  31.213  1.00  0.00     0.054 A 
BRANCH  71  72
ATOM     72  S   UNL A   1      45.794  39.420  31.633  1.00  0.00     0.124 S 
ATOM     73  O   UNL A   1      44.500  39.861  32.148  1.00  0.00    -0.237 OA
ATOM     74  O   UNL A   1      46.860  39.309  32.625  1.00  0.00    -0.237 OA
ATOM     75  O   UNL A   1      46.191  40.015  30.359  1.00  0.00    -0.744 OA
ENDBRANCH  71  72
ENDBRANCH  52  66
BRANCH  53  76
ATOM     76  C   UNL A   1      41.913  25.844  27.946  1.00  0.00    -0.014 A 
ATOM     77  C   UNL A   1      42.100  24.735  28.791  1.00  0.00     0.010 A 
ATOM     78  C   UNL A   1      41.343  25.646  26.675  1.00  0.00     0.010 A 
ATOM     79  C   UNL A   1      41.762  23.449  28.359  1.00  0.00     0.020 A 
ATOM     80  C   UNL A   1      40.975  24.365  26.252  1.00  0.00     0.020 A 
ATOM     81  C   UNL A   1      41.206  23.272  27.090  1.00  0.00     0.054 A 
BRANCH  81  82
ATOM     82  S   UNL A   1      40.764  21.597  26.552  1.00  0.00     0.124 S 
ATOM     83  O   UNL A   1      41.881  21.255  25.676  1.00  0.00    -0.237 OA
ATOM     84  O   UNL A   1      40.702  20.865  27.814  1.00  0.00    -0.237 OA
ATOM     85  O   UNL A   1      39.478  21.782  25.884  1.00  0.00    -0.744 OA
ENDBRANCH  81  82
ENDBRANCH  53  76
BRANCH  65  86
ATOM     86  C   UNL A   1      48.121  28.975  28.380  1.00  0.00    -0.014 A 
ATOM     87  C   UNL A   1      48.882  28.338  29.375  1.00  0.00     0.010 A 
ATOM     88  C   UNL A   1      48.664  29.125  27.090  1.00  0.00     0.010 A 
ATOM     89  C   UNL A   1      50.176  27.891  29.096  1.00  0.00     0.020 A 
ATOM     90  C   UNL A   1      49.947  28.653  26.799  1.00  0.00     0.020 A 
ATOM     91  C   UNL A   1      50.700  28.053  27.810  1.00  0.00     0.054 A 
BRANCH  91  92
ATOM     92  S   UNL A   1      52.368  27.430  27.462  1.00  0.00     0.124 S 
ATOM     93  O   UNL A   1      53.184  28.220  28.379  1.00  0.00    -0.237 OA
ATOM     94  O   UNL A   1      52.255  26.010  27.784  1.00  0.00    -0.237 OA
ATOM     95  O   UNL A   1      52.559  27.728  26.043  1.00  0.00    -0.744 OA
ENDBRANCH  91  92
ENDBRANCH  65  86
ENDBRANCH  39  40
ENDBRANCH  31  34
ENDBRANCH  29  30
ENDBRANCH  28  29
ENDBRANCH  27  28
ENDBRANCH  26  27
ENDBRANCH   1  26
TORSDOF 21
ENDMDL
