MODEL 1
REMARK VINA RESULT:     -11.4      0.000      0.000
REMARK SMILES Nc1oc2ccc(F)cc2c(=O)c1[C@@H]1[NH2+][C@H](C(=O)NCCCCCCNC(=O)c2ccc(-c3c4nc(c(-c5ccc(S(=O)(=O)[O-])cc5)c5ccc([nH]5)c(-c5ccc(S(=O)(=O)[O-])cc5)c5nc(c(-c6ccc(S(=O)(=O)[O-])cc6)c6ccc3[nH]6)C=C5)C=C4)cc2)CS1
REMARK SMILES IDX 23 1 22 2 21 3 20 4 19 5 17 6 18 7 16 9 14 10 15 11 90 12
REMARK SMILES IDX 89 15 13 16 2 17 3 18 4 19 11 20 5 21 10 22 12 23 6 24 9 25
REMARK SMILES IDX 7 26 8 27 1 28 24 31 25 32 26 33 27 34 28 36 29 37 30 38
REMARK SMILES IDX 88 39 31 40 87 41 32 42 33 43 34 44 81 45 35 46 86 47 80 48
REMARK SMILES IDX 82 49 36 50 85 51 79 52 78 53 37 55 67 56 48 57 66 58 49 59
REMARK SMILES IDX 52 60 65 61 83 62 50 63 51 64 64 66 84 67 53 68 38 69 39 70
REMARK SMILES IDX 47 71 40 72 46 73 41 74 42 75 43 76 44 77 45 78 68 79 69 80
REMARK SMILES IDX 77 81 70 82 76 83 71 84 72 85 73 86 74 87 75 88 54 89 55 90
REMARK SMILES IDX 63 91 56 92 62 93 57 94 58 95 59 96 60 97 61 98
REMARK H PARENT 19 8 15 13 15 14 1 29 1 30 26 35 82 54 52 65
REMARK Flexibility Score: inf
ROOT
ATOM      1  C   UNL A   1      31.571  28.956  25.702  1.00  0.00     0.002 C 
ENDROOT
BRANCH   1   2
ATOM      2  C   UNL A   1      31.501  29.392  24.228  1.00  0.00     0.002 C 
BRANCH   2   3
ATOM      3  C   UNL A   1      30.107  29.400  23.585  1.00  0.00     0.021 C 
BRANCH   3   4
ATOM      4  C   UNL A   1      29.877  28.301  22.546  1.00  0.00     0.116 C 
BRANCH   4   5
ATOM      5  N   UNL A   1      31.107  27.726  22.035  1.00  0.00    -0.351 N 
ATOM      6  C   UNL A   1      31.610  26.461  22.079  1.00  0.00     0.279 C 
ATOM      7  O   UNL A   1      32.638  26.266  21.411  1.00  0.00    -0.268 OA
ATOM      8  H   UNL A   1      31.686  28.371  21.569  1.00  0.00     0.163 HD
BRANCH   6   9
ATOM      9  C   UNL A   1      30.975  25.259  22.814  1.00  0.00     0.283 C 
ATOM     10  C   UNL A   1      31.846  23.268  23.927  1.00  0.00     0.283 C 
ATOM     11  N   UNL A   1      31.687  23.979  22.647  1.00  0.00    -0.320 N 
ATOM     12  S   UNL A   1      30.808  24.070  25.167  1.00  0.00    -0.087 SA
ATOM     13  H   UNL A   1      31.158  23.388  22.005  1.00  0.00     0.348 HD
ATOM     14  H   UNL A   1      32.617  24.180  22.278  1.00  0.00     0.348 HD
ATOM     15  C   UNL A   1      30.761  25.632  24.275  1.00  0.00     0.151 C 
BRANCH  10  16
ATOM     16  C   UNL A   1      33.319  23.139  24.267  1.00  0.00     0.128 A 
ATOM     17  C   UNL A   1      34.288  24.082  24.334  1.00  0.00     0.205 A 
ATOM     18  O   UNL A   1      35.634  23.799  24.512  1.00  0.00    -0.440 OA
ATOM     19  C   UNL A   1      36.043  22.508  24.655  1.00  0.00     0.140 A 
ATOM     20  C   UNL A   1      33.732  21.717  24.463  1.00  0.00     0.205 A 
ATOM     21  C   UNL A   1      37.415  22.282  24.801  1.00  0.00     0.051 A 
ATOM     22  C   UNL A   1      35.156  21.443  24.662  1.00  0.00     0.068 A 
ATOM     23  O   UNL A   1      32.929  20.788  24.436  1.00  0.00    -0.288 OA
ATOM     24  C   UNL A   1      37.882  20.982  24.985  1.00  0.00     0.043 A 
ATOM     25  C   UNL A   1      35.616  20.139  24.843  1.00  0.00     0.055 A 
ATOM     26  C   UNL A   1      36.975  19.928  25.019  1.00  0.00     0.124 A 
ATOM     27  F   UNL A   1      37.411  18.682  25.225  1.00  0.00    -0.207 F 
BRANCH  17  28
ATOM     28  N   UNL A   1      34.094  25.423  24.184  1.00  0.00    -0.369 N 
ATOM     29  H   UNL A   1      33.991  25.997  24.976  1.00  0.00     0.159 HD
ATOM     30  H   UNL A   1      34.056  25.817  23.282  1.00  0.00     0.159 HD
ENDBRANCH  17  28
ENDBRANCH  10  16
ENDBRANCH   6   9
ENDBRANCH   4   5
ENDBRANCH   3   4
ENDBRANCH   2   3
ENDBRANCH   1   2
BRANCH   1  31
ATOM     31  C   UNL A   1      32.758  28.072  26.094  1.00  0.00     0.021 C 
BRANCH  31  32
ATOM     32  C   UNL A   1      33.448  28.437  27.409  1.00  0.00     0.116 C 
BRANCH  32  33
ATOM     33  N   UNL A   1      33.500  29.876  27.626  1.00  0.00    -0.352 N 
ATOM     34  C   UNL A   1      34.486  30.691  28.132  1.00  0.00     0.251 C 
ATOM     35  H   UNL A   1      32.680  30.352  27.362  1.00  0.00     0.163 HD
ATOM     36  O   UNL A   1      34.202  31.861  28.389  1.00  0.00    -0.269 OA
BRANCH  34  37
ATOM     37  C   UNL A   1      35.867  30.207  28.396  1.00  0.00     0.039 A 
ATOM     38  C   UNL A   1      36.234  29.625  29.606  1.00  0.00     0.014 A 
ATOM     39  C   UNL A   1      36.812  30.259  27.361  1.00  0.00     0.014 A 
ATOM     40  C   UNL A   1      37.561  29.246  29.828  1.00  0.00     0.010 A 
ATOM     41  C   UNL A   1      38.126  29.804  27.565  1.00  0.00     0.010 A 
ATOM     42  C   UNL A   1      38.536  29.333  28.820  1.00  0.00    -0.014 A 
BRANCH  42  43
ATOM     43  C   UNL A   1      39.953  28.935  29.098  1.00  0.00     0.031 A 
ATOM     44  C   UNL A   1      40.882  29.834  29.886  1.00  0.00     0.074 A 
ATOM     45  C   UNL A   1      40.413  27.730  28.693  1.00  0.00     0.049 A 
ATOM     46  N   UNL A   1      42.138  29.639  30.211  1.00  0.00    -0.248 NA
ATOM     47  C   UNL A   1      40.341  31.114  30.370  1.00  0.00     0.031 C 
ATOM     48  C   UNL A   1      39.636  26.740  27.944  1.00  0.00     0.029 A 
ATOM     49  N   UNL A   1      41.630  27.114  28.881  1.00  0.00    -0.354 N 
ATOM     50  C   UNL A   1      42.539  30.773  30.911  1.00  0.00     0.074 A 
ATOM     51  C   UNL A   1      41.401  31.666  30.945  1.00  0.00     0.031 C 
ATOM     52  C   UNL A   1      40.360  25.620  27.808  1.00  0.00     0.029 A 
ATOM     53  C   UNL A   1      41.687  25.833  28.379  1.00  0.00     0.049 A 
ATOM     54  H   UNL A   1      42.389  27.550  29.331  1.00  0.00     0.167 HD
ATOM     55  C   UNL A   1      43.736  31.044  31.486  1.00  0.00     0.031 A 
ATOM     56  C   UNL A   1      42.687  24.925  28.358  1.00  0.00     0.031 A 
ATOM     57  C   UNL A   1      44.867  30.151  31.486  1.00  0.00     0.049 A 
ATOM     58  C   UNL A   1      44.021  25.271  28.957  1.00  0.00     0.074 A 
ATOM     59  C   UNL A   1      46.109  30.349  32.067  1.00  0.00     0.029 A 
ATOM     60  N   UNL A   1      44.901  28.899  30.893  1.00  0.00    -0.354 N 
ATOM     61  N   UNL A   1      44.376  26.356  29.599  1.00  0.00    -0.248 NA
ATOM     62  C   UNL A   1      45.095  24.275  28.816  1.00  0.00     0.031 C 
ATOM     63  C   UNL A   1      46.913  29.245  31.773  1.00  0.00     0.029 A 
ATOM     64  C   UNL A   1      46.151  28.328  31.070  1.00  0.00     0.049 A 
ATOM     65  H   UNL A   1      44.148  28.478  30.418  1.00  0.00     0.167 HD
ATOM     66  C   UNL A   1      45.712  26.175  29.939  1.00  0.00     0.074 A 
ATOM     67  C   UNL A   1      46.095  24.864  29.460  1.00  0.00     0.031 C 
ATOM     68  C   UNL A   1      46.543  27.029  30.584  1.00  0.00     0.031 A 
BRANCH  55  69
ATOM     69  C   UNL A   1      43.916  32.368  32.187  1.00  0.00    -0.014 A 
ATOM     70  C   UNL A   1      44.519  33.441  31.503  1.00  0.00     0.010 A 
ATOM     71  C   UNL A   1      43.637  32.503  33.558  1.00  0.00     0.010 A 
ATOM     72  C   UNL A   1      44.875  34.608  32.184  1.00  0.00     0.020 A 
ATOM     73  C   UNL A   1      43.967  33.680  34.237  1.00  0.00     0.020 A 
ATOM     74  C   UNL A   1      44.608  34.715  33.550  1.00  0.00     0.054 A 
BRANCH  74  75
ATOM     75  S   UNL A   1      45.115  36.219  34.430  1.00  0.00     0.124 S 
ATOM     76  O   UNL A   1      44.353  36.123  35.671  1.00  0.00    -0.237 OA
ATOM     77  O   UNL A   1      46.560  36.041  34.559  1.00  0.00    -0.237 OA
ATOM     78  O   UNL A   1      44.709  37.295  33.527  1.00  0.00    -0.744 OA
ENDBRANCH  74  75
ENDBRANCH  55  69
BRANCH  56  79
ATOM     79  C   UNL A   1      42.446  23.592  27.737  1.00  0.00    -0.014 A 
ATOM     80  C   UNL A   1      41.875  22.547  28.490  1.00  0.00     0.010 A 
ATOM     81  C   UNL A   1      42.851  23.337  26.415  1.00  0.00     0.010 A 
ATOM     82  C   UNL A   1      41.775  21.260  27.957  1.00  0.00     0.020 A 
ATOM     83  C   UNL A   1      42.719  22.058  25.865  1.00  0.00     0.020 A 
ATOM     84  C   UNL A   1      42.213  21.020  26.653  1.00  0.00     0.054 A 
BRANCH  84  85
ATOM     85  S   UNL A   1      42.125  19.332  25.996  1.00  0.00     0.124 S 
ATOM     86  O   UNL A   1      42.662  18.551  27.110  1.00  0.00    -0.237 OA
ATOM     87  O   UNL A   1      40.693  19.161  25.745  1.00  0.00    -0.237 OA
ATOM     88  O   UNL A   1      42.961  19.382  24.805  1.00  0.00    -0.744 OA
ENDBRANCH  84  85
ENDBRANCH  56  79
BRANCH  68  89
ATOM     89  C   UNL A   1      47.971  26.603  30.813  1.00  0.00    -0.014 A 
ATOM     90  C   UNL A   1      48.331  25.966  32.015  1.00  0.00     0.010 A 
ATOM     91  C   UNL A   1      48.978  26.949  29.894  1.00  0.00     0.010 A 
ATOM     92  C   UNL A   1      49.673  25.714  32.311  1.00  0.00     0.020 A 
ATOM     93  C   UNL A   1      50.320  26.673  30.174  1.00  0.00     0.020 A 
ATOM     94  C   UNL A   1      50.661  26.079  31.393  1.00  0.00     0.054 A 
BRANCH  94  95
ATOM     95  S   UNL A   1      52.400  25.774  31.809  1.00  0.00     0.124 S 
ATOM     96  O   UNL A   1      52.645  26.762  32.855  1.00  0.00    -0.237 OA
ATOM     97  O   UNL A   1      52.386  24.381  32.249  1.00  0.00    -0.237 OA
ATOM     98  O   UNL A   1      53.101  26.012  30.549  1.00  0.00    -0.744 OA
ENDBRANCH  94  95
ENDBRANCH  68  89
ENDBRANCH  42  43
ENDBRANCH  34  37
ENDBRANCH  32  33
ENDBRANCH  31  32
ENDBRANCH   1  31
TORSDOF 18
ENDMDL
MODEL 2
REMARK VINA RESULT:     -11.4      3.124      9.492
REMARK SMILES Nc1oc2ccc(F)cc2c(=O)c1[C@@H]1[NH2+][C@H](C(=O)NCCCCCCNC(=O)c2ccc(-c3c4nc(c(-c5ccc(S(=O)(=O)[O-])cc5)c5ccc([nH]5)c(-c5ccc(S(=O)(=O)[O-])cc5)c5nc(c(-c6ccc(S(=O)(=O)[O-])cc6)c6ccc3[nH]6)C=C5)C=C4)cc2)CS1
REMARK SMILES IDX 23 1 22 2 21 3 20 4 19 5 17 6 18 7 16 9 14 10 15 11 90 12
REMARK SMILES IDX 89 15 13 16 2 17 3 18 4 19 11 20 5 21 10 22 12 23 6 24 9 25
REMARK SMILES IDX 7 26 8 27 1 28 24 31 25 32 26 33 27 34 28 36 29 37 30 38
REMARK SMILES IDX 88 39 31 40 87 41 32 42 33 43 34 44 81 45 35 46 86 47 80 48
REMARK SMILES IDX 82 49 36 50 85 51 79 52 78 53 37 55 67 56 48 57 66 58 49 59
REMARK SMILES IDX 52 60 65 61 83 62 50 63 51 64 64 66 84 67 53 68 38 69 39 70
REMARK SMILES IDX 47 71 40 72 46 73 41 74 42 75 43 76 44 77 45 78 68 79 69 80
REMARK SMILES IDX 77 81 70 82 76 83 71 84 72 85 73 86 74 87 75 88 54 89 55 90
REMARK SMILES IDX 63 91 56 92 62 93 57 94 58 95 59 96 60 97 61 98
REMARK H PARENT 19 8 15 13 15 14 1 29 1 30 26 35 82 54 52 65
REMARK Flexibility Score: inf
ROOT
ATOM      1  C   UNL A   1      35.701  21.486  24.254  1.00  0.00     0.002 C 
ENDROOT
BRANCH   1   2
ATOM      2  C   UNL A   1      34.714  21.105  25.371  1.00  0.00     0.002 C 
BRANCH   2   3
ATOM      3  C   UNL A   1      33.770  19.931  25.074  1.00  0.00     0.021 C 
BRANCH   3   4
ATOM      4  C   UNL A   1      32.317  20.331  24.810  1.00  0.00     0.116 C 
BRANCH   4   5
ATOM      5  N   UNL A   1      31.791  21.264  25.789  1.00  0.00    -0.351 N 
ATOM      6  C   UNL A   1      31.196  22.483  25.660  1.00  0.00     0.279 C 
ATOM      7  O   UNL A   1      30.724  22.964  26.701  1.00  0.00    -0.268 OA
ATOM      8  H   UNL A   1      31.882  20.959  26.720  1.00  0.00     0.163 HD
BRANCH   6   9
ATOM      9  C   UNL A   1      30.996  23.258  24.338  1.00  0.00     0.283 C 
ATOM     10  C   UNL A   1      31.215  25.595  23.665  1.00  0.00     0.283 C 
ATOM     11  N   UNL A   1      30.473  24.627  24.491  1.00  0.00    -0.320 N 
ATOM     12  S   UNL A   1      32.268  24.684  22.513  1.00  0.00    -0.087 SA
ATOM     13  H   UNL A   1      29.493  24.639  24.211  1.00  0.00     0.348 HD
ATOM     14  H   UNL A   1      30.579  24.899  25.469  1.00  0.00     0.348 HD
ATOM     15  C   UNL A   1      32.289  23.203  23.536  1.00  0.00     0.151 C 
BRANCH  10  16
ATOM     16  C   UNL A   1      31.913  26.606  24.553  1.00  0.00     0.128 A 
ATOM     17  C   UNL A   1      32.943  26.448  25.419  1.00  0.00     0.205 A 
ATOM     18  O   UNL A   1      33.385  27.437  26.285  1.00  0.00    -0.440 OA
ATOM     19  C   UNL A   1      32.790  28.662  26.280  1.00  0.00     0.140 A 
ATOM     20  C   UNL A   1      31.268  27.951  24.495  1.00  0.00     0.205 A 
ATOM     21  C   UNL A   1      33.259  29.608  27.195  1.00  0.00     0.051 A 
ATOM     22  C   UNL A   1      31.760  28.984  25.409  1.00  0.00     0.068 A 
ATOM     23  O   UNL A   1      30.338  28.203  23.734  1.00  0.00    -0.288 OA
ATOM     24  C   UNL A   1      32.706  30.887  27.206  1.00  0.00     0.043 A 
ATOM     25  C   UNL A   1      31.201  30.261  25.415  1.00  0.00     0.055 A 
ATOM     26  C   UNL A   1      31.694  31.202  26.305  1.00  0.00     0.124 A 
ATOM     27  F   UNL A   1      31.179  32.435  26.289  1.00  0.00    -0.207 F 
BRANCH  17  28
ATOM     28  N   UNL A   1      33.648  25.296  25.603  1.00  0.00    -0.369 N 
ATOM     29  H   UNL A   1      34.039  25.093  26.483  1.00  0.00     0.159 HD
ATOM     30  H   UNL A   1      33.768  24.668  24.855  1.00  0.00     0.159 HD
ENDBRANCH  17  28
ENDBRANCH  10  16
ENDBRANCH   6   9
ENDBRANCH   4   5
ENDBRANCH   3   4
ENDBRANCH   2   3
ENDBRANCH   1   2
BRANCH   1  31
ATOM     31  C   UNL A   1      35.998  22.980  24.092  1.00  0.00     0.021 C 
BRANCH  31  32
ATOM     32  C   UNL A   1      36.908  23.592  25.157  1.00  0.00     0.116 C 
BRANCH  32  33
ATOM     33  N   UNL A   1      37.935  22.663  25.609  1.00  0.00    -0.352 N 
ATOM     34  C   UNL A   1      39.123  22.862  26.273  1.00  0.00     0.251 C 
ATOM     35  H   UNL A   1      37.743  21.720  25.400  1.00  0.00     0.163 HD
ATOM     36  O   UNL A   1      39.905  21.915  26.368  1.00  0.00    -0.269 OA
BRANCH  34  37
ATOM     37  C   UNL A   1      39.502  24.175  26.857  1.00  0.00     0.039 A 
ATOM     38  C   UNL A   1      40.093  25.184  26.102  1.00  0.00     0.014 A 
ATOM     39  C   UNL A   1      39.176  24.440  28.195  1.00  0.00     0.014 A 
ATOM     40  C   UNL A   1      40.489  26.378  26.714  1.00  0.00     0.010 A 
ATOM     41  C   UNL A   1      39.508  25.672  28.785  1.00  0.00     0.010 A 
ATOM     42  C   UNL A   1      40.215  26.645  28.066  1.00  0.00    -0.014 A 
BRANCH  42  43
ATOM     43  C   UNL A   1      40.672  27.926  28.693  1.00  0.00     0.031 A 
ATOM     44  C   UNL A   1      42.126  28.153  29.049  1.00  0.00     0.074 A 
ATOM     45  C   UNL A   1      39.792  28.931  28.904  1.00  0.00     0.049 A 
ATOM     46  N   UNL A   1      42.685  29.204  29.601  1.00  0.00    -0.248 NA
ATOM     47  C   UNL A   1      43.075  27.068  28.753  1.00  0.00     0.031 C 
ATOM     48  C   UNL A   1      38.362  28.878  28.595  1.00  0.00     0.029 A 
ATOM     49  N   UNL A   1      39.972  30.205  29.394  1.00  0.00    -0.354 N 
ATOM     50  C   UNL A   1      44.036  28.898  29.738  1.00  0.00     0.074 A 
ATOM     51  C   UNL A   1      44.212  27.553  29.235  1.00  0.00     0.031 C 
ATOM     52  C   UNL A   1      37.815  30.081  28.823  1.00  0.00     0.029 A 
ATOM     53  C   UNL A   1      38.829  30.972  29.380  1.00  0.00     0.049 A 
ATOM     54  H   UNL A   1      40.838  30.537  29.725  1.00  0.00     0.167 HD
ATOM     55  C   UNL A   1      45.041  29.666  30.223  1.00  0.00     0.031 A 
ATOM     56  C   UNL A   1      38.599  32.242  29.778  1.00  0.00     0.031 A 
ATOM     57  C   UNL A   1      44.883  31.018  30.699  1.00  0.00     0.049 A 
ATOM     58  C   UNL A   1      39.720  33.055  30.362  1.00  0.00     0.074 A 
ATOM     59  C   UNL A   1      45.862  31.868  31.187  1.00  0.00     0.029 A 
ATOM     60  N   UNL A   1      43.690  31.720  30.741  1.00  0.00    -0.354 N 
ATOM     61  N   UNL A   1      40.984  32.735  30.493  1.00  0.00    -0.248 NA
ATOM     62  C   UNL A   1      39.383  34.396  30.863  1.00  0.00     0.031 C 
ATOM     63  C   UNL A   1      45.252  33.061  31.582  1.00  0.00     0.029 A 
ATOM     64  C   UNL A   1      43.904  32.982  31.274  1.00  0.00     0.049 A 
ATOM     65  H   UNL A   1      42.820  31.375  30.436  1.00  0.00     0.167 HD
ATOM     66  C   UNL A   1      41.592  33.833  31.092  1.00  0.00     0.074 A 
ATOM     67  C   UNL A   1      40.566  34.838  31.269  1.00  0.00     0.031 C 
ATOM     68  C   UNL A   1      42.885  33.982  31.466  1.00  0.00     0.031 A 
BRANCH  55  69
ATOM     69  C   UNL A   1      46.433  29.087  30.272  1.00  0.00    -0.014 A 
ATOM     70  C   UNL A   1      46.893  28.482  31.458  1.00  0.00     0.010 A 
ATOM     71  C   UNL A   1      47.332  29.279  29.209  1.00  0.00     0.010 A 
ATOM     72  C   UNL A   1      48.235  28.116  31.594  1.00  0.00     0.020 A 
ATOM     73  C   UNL A   1      48.669  28.889  29.332  1.00  0.00     0.020 A 
ATOM     74  C   UNL A   1      49.118  28.333  30.534  1.00  0.00     0.054 A 
BRANCH  74  75
ATOM     75  S   UNL A   1      50.866  27.892  30.742  1.00  0.00     0.124 S 
ATOM     76  O   UNL A   1      51.501  29.200  30.870  1.00  0.00    -0.237 OA
ATOM     77  O   UNL A   1      50.846  27.076  31.954  1.00  0.00    -0.237 OA
ATOM     78  O   UNL A   1      51.181  27.160  29.517  1.00  0.00    -0.744 OA
ENDBRANCH  74  75
ENDBRANCH  55  69
BRANCH  56  79
ATOM     79  C   UNL A   1      37.231  32.815  29.632  1.00  0.00    -0.014 A 
ATOM     80  C   UNL A   1      36.765  33.235  28.371  1.00  0.00     0.010 A 
ATOM     81  C   UNL A   1      36.414  33.009  30.760  1.00  0.00     0.010 A 
ATOM     82  C   UNL A   1      35.541  33.897  28.251  1.00  0.00     0.020 A 
ATOM     83  C   UNL A   1      35.172  33.640  30.638  1.00  0.00     0.020 A 
ATOM     84  C   UNL A   1      34.760  34.110  29.388  1.00  0.00     0.054 A 
BRANCH  84  85
ATOM     85  S   UNL A   1      33.199  35.019  29.221  1.00  0.00     0.124 S 
ATOM     86  O   UNL A   1      32.510  34.241  28.193  1.00  0.00    -0.237 OA
ATOM     87  O   UNL A   1      32.628  34.924  30.566  1.00  0.00    -0.237 OA
ATOM     88  O   UNL A   1      33.620  36.355  28.821  1.00  0.00    -0.744 OA
ENDBRANCH  84  85
ENDBRANCH  56  79
BRANCH  68  89
ATOM     89  C   UNL A   1      43.295  35.274  32.126  1.00  0.00    -0.014 A 
ATOM     90  C   UNL A   1      43.062  35.466  33.500  1.00  0.00     0.010 A 
ATOM     91  C   UNL A   1      43.792  36.345  31.361  1.00  0.00     0.010 A 
ATOM     92  C   UNL A   1      43.283  36.713  34.092  1.00  0.00     0.020 A 
ATOM     93  C   UNL A   1      44.042  37.586  31.955  1.00  0.00     0.020 A 
ATOM     94  C   UNL A   1      43.762  37.769  33.312  1.00  0.00     0.054 A 
BRANCH  94  95
ATOM     95  S   UNL A   1      44.014  39.389  34.089  1.00  0.00     0.124 S 
ATOM     96  O   UNL A   1      44.152  39.036  35.499  1.00  0.00    -0.237 OA
ATOM     97  O   UNL A   1      45.230  39.872  33.438  1.00  0.00    -0.237 OA
ATOM     98  O   UNL A   1      42.800  40.126  33.746  1.00  0.00    -0.744 OA
ENDBRANCH  94  95
ENDBRANCH  68  89
ENDBRANCH  42  43
ENDBRANCH  34  37
ENDBRANCH  32  33
ENDBRANCH  31  32
ENDBRANCH   1  31
TORSDOF 18
ENDMDL
MODEL 3
REMARK VINA RESULT:     -11.1      4.494     10.114
REMARK SMILES Nc1oc2ccc(F)cc2c(=O)c1[C@@H]1[NH2+][C@H](C(=O)NCCCCCCNC(=O)c2ccc(-c3c4nc(c(-c5ccc(S(=O)(=O)[O-])cc5)c5ccc([nH]5)c(-c5ccc(S(=O)(=O)[O-])cc5)c5nc(c(-c6ccc(S(=O)(=O)[O-])cc6)c6ccc3[nH]6)C=C5)C=C4)cc2)CS1
REMARK SMILES IDX 23 1 22 2 21 3 20 4 19 5 17 6 18 7 16 9 14 10 15 11 90 12
REMARK SMILES IDX 89 15 13 16 2 17 3 18 4 19 11 20 5 21 10 22 12 23 6 24 9 25
REMARK SMILES IDX 7 26 8 27 1 28 24 31 25 32 26 33 27 34 28 36 29 37 30 38
REMARK SMILES IDX 88 39 31 40 87 41 32 42 33 43 34 44 81 45 35 46 86 47 80 48
REMARK SMILES IDX 82 49 36 50 85 51 79 52 78 53 37 55 67 56 48 57 66 58 49 59
REMARK SMILES IDX 52 60 65 61 83 62 50 63 51 64 64 66 84 67 53 68 38 69 39 70
REMARK SMILES IDX 47 71 40 72 46 73 41 74 42 75 43 76 44 77 45 78 68 79 69 80
REMARK SMILES IDX 77 81 70 82 76 83 71 84 72 85 73 86 74 87 75 88 54 89 55 90
REMARK SMILES IDX 63 91 56 92 62 93 57 94 58 95 59 96 60 97 61 98
REMARK H PARENT 19 8 15 13 15 14 1 29 1 30 26 35 82 54 52 65
REMARK Flexibility Score: inf
ROOT
ATOM      1  C   UNL A   1      39.620  21.683  26.228  1.00  0.00     0.002 C 
ENDROOT
BRANCH   1   2
ATOM      2  C   UNL A   1      38.925  23.028  26.499  1.00  0.00     0.002 C 
BRANCH   2   3
ATOM      3  C   UNL A   1      37.648  23.310  25.694  1.00  0.00     0.021 C 
BRANCH   3   4
ATOM      4  C   UNL A   1      37.288  22.232  24.670  1.00  0.00     0.116 C 
BRANCH   4   5
ATOM      5  N   UNL A   1      36.390  22.702  23.632  1.00  0.00    -0.351 N 
ATOM      6  C   UNL A   1      35.044  22.915  23.617  1.00  0.00     0.279 C 
ATOM      7  O   UNL A   1      34.598  23.466  22.598  1.00  0.00    -0.268 OA
ATOM      8  H   UNL A   1      36.837  22.905  22.780  1.00  0.00     0.163 HD
BRANCH   6   9
ATOM      9  C   UNL A   1      34.065  22.604  24.771  1.00  0.00     0.283 C 
ATOM     10  C   UNL A   1      32.097  23.711  25.700  1.00  0.00     0.283 C 
ATOM     11  N   UNL A   1      33.552  23.786  25.489  1.00  0.00    -0.320 N 
ATOM     12  S   UNL A   1      31.539  22.040  25.303  1.00  0.00    -0.087 SA
ATOM     13  H   UNL A   1      34.015  23.847  26.395  1.00  0.00     0.348 HD
ATOM     14  H   UNL A   1      33.748  24.611  24.920  1.00  0.00     0.348 HD
ATOM     15  C   UNL A   1      32.956  21.702  24.246  1.00  0.00     0.151 C 
BRANCH  10  16
ATOM     16  C   UNL A   1      31.407  24.841  24.960  1.00  0.00     0.128 A 
ATOM     17  C   UNL A   1      30.678  24.823  23.818  1.00  0.00     0.205 A 
ATOM     18  O   UNL A   1      30.229  25.963  23.169  1.00  0.00    -0.440 OA
ATOM     19  C   UNL A   1      30.498  27.192  23.689  1.00  0.00     0.140 A 
ATOM     20  C   UNL A   1      31.681  26.172  25.577  1.00  0.00     0.205 A 
ATOM     21  C   UNL A   1      30.045  28.305  22.974  1.00  0.00     0.051 A 
ATOM     22  C   UNL A   1      31.187  27.361  24.880  1.00  0.00     0.068 A 
ATOM     23  O   UNL A   1      32.319  26.297  26.619  1.00  0.00    -0.288 OA
ATOM     24  C   UNL A   1      30.264  29.585  23.481  1.00  0.00     0.043 A 
ATOM     25  C   UNL A   1      31.411  28.638  25.394  1.00  0.00     0.055 A 
ATOM     26  C   UNL A   1      30.931  29.734  24.693  1.00  0.00     0.124 A 
ATOM     27  F   UNL A   1      31.119  30.955  25.202  1.00  0.00    -0.207 F 
BRANCH  17  28
ATOM     28  N   UNL A   1      30.331  23.704  23.123  1.00  0.00    -0.369 N 
ATOM     29  H   UNL A   1      29.502  23.691  22.592  1.00  0.00     0.159 HD
ATOM     30  H   UNL A   1      30.909  22.907  23.152  1.00  0.00     0.159 HD
ENDBRANCH  17  28
ENDBRANCH  10  16
ENDBRANCH   6   9
ENDBRANCH   4   5
ENDBRANCH   3   4
ENDBRANCH   2   3
ENDBRANCH   1   2
BRANCH   1  31
ATOM     31  C   UNL A   1      41.151  21.703  26.199  1.00  0.00     0.021 C 
BRANCH  31  32
ATOM     32  C   UNL A   1      41.806  22.965  26.762  1.00  0.00     0.116 C 
BRANCH  32  33
ATOM     33  N   UNL A   1      42.142  23.927  25.721  1.00  0.00    -0.352 N 
ATOM     34  C   UNL A   1      42.136  25.302  25.708  1.00  0.00     0.251 C 
ATOM     35  H   UNL A   1      42.425  23.517  24.872  1.00  0.00     0.163 HD
ATOM     36  O   UNL A   1      42.283  25.876  24.628  1.00  0.00    -0.269 OA
BRANCH  34  37
ATOM     37  C   UNL A   1      41.940  26.113  26.938  1.00  0.00     0.039 A 
ATOM     38  C   UNL A   1      40.978  25.797  27.894  1.00  0.00     0.014 A 
ATOM     39  C   UNL A   1      42.810  27.184  27.189  1.00  0.00     0.014 A 
ATOM     40  C   UNL A   1      40.790  26.630  29.002  1.00  0.00     0.010 A 
ATOM     41  C   UNL A   1      42.667  27.970  28.344  1.00  0.00     0.010 A 
ATOM     42  C   UNL A   1      41.621  27.735  29.248  1.00  0.00    -0.014 A 
BRANCH  42  43
ATOM     43  C   UNL A   1      41.379  28.617  30.435  1.00  0.00     0.031 A 
ATOM     44  C   UNL A   1      40.230  29.602  30.461  1.00  0.00     0.074 A 
ATOM     45  C   UNL A   1      42.159  28.506  31.534  1.00  0.00     0.049 A 
ATOM     46  N   UNL A   1      39.885  30.440  31.410  1.00  0.00    -0.248 NA
ATOM     47  C   UNL A   1      39.357  29.661  29.278  1.00  0.00     0.031 C 
ATOM     48  C   UNL A   1      43.292  27.589  31.674  1.00  0.00     0.029 A 
ATOM     49  N   UNL A   1      42.100  29.141  32.754  1.00  0.00    -0.354 N 
ATOM     50  C   UNL A   1      38.778  31.135  30.931  1.00  0.00     0.074 A 
ATOM     51  C   UNL A   1      38.521  30.641  29.596  1.00  0.00     0.031 C 
ATOM     52  C   UNL A   1      43.766  27.661  32.926  1.00  0.00     0.029 A 
ATOM     53  C   UNL A   1      43.035  28.690  33.659  1.00  0.00     0.049 A 
ATOM     54  H   UNL A   1      41.451  29.852  32.960  1.00  0.00     0.167 HD
ATOM     55  C   UNL A   1      38.034  32.086  31.546  1.00  0.00     0.031 A 
ATOM     56  C   UNL A   1      43.298  29.060  34.931  1.00  0.00     0.031 A 
ATOM     57  C   UNL A   1      38.261  32.565  32.886  1.00  0.00     0.049 A 
ATOM     58  C   UNL A   1      42.492  30.155  35.572  1.00  0.00     0.074 A 
ATOM     59  C   UNL A   1      37.533  33.514  33.586  1.00  0.00     0.029 A 
ATOM     60  N   UNL A   1      39.271  32.136  33.732  1.00  0.00    -0.354 N 
ATOM     61  N   UNL A   1      41.461  30.804  35.090  1.00  0.00    -0.248 NA
ATOM     62  C   UNL A   1      42.891  30.575  36.923  1.00  0.00     0.031 C 
ATOM     63  C   UNL A   1      38.140  33.705  34.829  1.00  0.00     0.029 A 
ATOM     64  C   UNL A   1      39.203  32.823  34.934  1.00  0.00     0.049 A 
ATOM     65  H   UNL A   1      39.937  31.445  33.512  1.00  0.00     0.167 HD
ATOM     66  C   UNL A   1      41.090  31.710  36.077  1.00  0.00     0.074 A 
ATOM     67  C   UNL A   1      41.984  31.505  37.196  1.00  0.00     0.031 C 
ATOM     68  C   UNL A   1      40.098  32.633  36.047  1.00  0.00     0.031 A 
BRANCH  55  69
ATOM     69  C   UNL A   1      36.877  32.695  30.793  1.00  0.00    -0.014 A 
ATOM     70  C   UNL A   1      37.099  33.808  29.959  1.00  0.00     0.010 A 
ATOM     71  C   UNL A   1      35.558  32.272  31.032  1.00  0.00     0.010 A 
ATOM     72  C   UNL A   1      36.022  34.509  29.409  1.00  0.00     0.020 A 
ATOM     73  C   UNL A   1      34.480  32.955  30.460  1.00  0.00     0.020 A 
ATOM     74  C   UNL A   1      34.719  34.085  29.673  1.00  0.00     0.054 A 
BRANCH  74  75
ATOM     75  S   UNL A   1      33.331  35.032  28.987  1.00  0.00     0.124 S 
ATOM     76  O   UNL A   1      32.739  34.078  28.054  1.00  0.00    -0.237 OA
ATOM     77  O   UNL A   1      32.534  35.334  30.174  1.00  0.00    -0.237 OA
ATOM     78  O   UNL A   1      33.978  36.189  28.373  1.00  0.00    -0.744 OA
ENDBRANCH  74  75
ENDBRANCH  55  69
BRANCH  56  79
ATOM     79  C   UNL A   1      44.391  28.374  35.678  1.00  0.00    -0.014 A 
ATOM     80  C   UNL A   1      44.106  27.268  36.501  1.00  0.00     0.010 A 
ATOM     81  C   UNL A   1      45.708  28.865  35.626  1.00  0.00     0.010 A 
ATOM     82  C   UNL A   1      45.099  26.708  37.308  1.00  0.00     0.020 A 
ATOM     83  C   UNL A   1      46.713  28.285  36.406  1.00  0.00     0.020 A 
ATOM     84  C   UNL A   1      46.393  27.231  37.267  1.00  0.00     0.054 A 
BRANCH  84  85
ATOM     85  S   UNL A   1      47.657  26.527  38.362  1.00  0.00     0.124 S 
ATOM     86  O   UNL A   1      46.858  25.644  39.209  1.00  0.00    -0.237 OA
ATOM     87  O   UNL A   1      48.553  25.851  37.422  1.00  0.00    -0.237 OA
ATOM     88  O   UNL A   1      48.223  27.692  39.027  1.00  0.00    -0.744 OA
ENDBRANCH  84  85
ENDBRANCH  56  79
BRANCH  68  89
ATOM     89  C   UNL A   1      39.911  33.523  37.249  1.00  0.00    -0.014 A 
ATOM     90  C   UNL A   1      38.997  33.163  38.256  1.00  0.00     0.010 A 
ATOM     91  C   UNL A   1      40.544  34.778  37.318  1.00  0.00     0.010 A 
ATOM     92  C   UNL A   1      38.692  34.051  39.291  1.00  0.00     0.020 A 
ATOM     93  C   UNL A   1      40.263  35.658  38.366  1.00  0.00     0.020 A 
ATOM     94  C   UNL A   1      39.319  35.299  39.334  1.00  0.00     0.054 A 
BRANCH  94  95
ATOM     95  S   UNL A   1      38.887  36.452  40.665  1.00  0.00     0.124 S 
ATOM     96  O   UNL A   1      38.374  37.600  39.923  1.00  0.00    -0.237 OA
ATOM     97  O   UNL A   1      37.894  35.702  41.430  1.00  0.00    -0.237 OA
ATOM     98  O   UNL A   1      40.156  36.672  41.355  1.00  0.00    -0.744 OA
ENDBRANCH  94  95
ENDBRANCH  68  89
ENDBRANCH  42  43
ENDBRANCH  34  37
ENDBRANCH  32  33
ENDBRANCH  31  32
ENDBRANCH   1  31
TORSDOF 18
ENDMDL
