MODEL 1
REMARK VINA RESULT:     -11.7      0.000      0.000
REMARK SMILES O=C(NCCCCCCNC(=O)c1cc(F)c(F)cc1NS(=O)(=O)c1ccc2c(c1)CCC2)c1ccc(-c2c3nc(c(-c4ccc(S(=O)(=O)[O-])cc4)c4ccc([nH]4)c(-c4ccc(S(=O)(=O)[O-])cc4)c4nc(c(-c5ccc(S(=O)(=O)[O-])cc5)c5ccc2[nH]5)C=C4)C=C3)cc1
REMARK SMILES IDX 6 1 5 2 4 3 3 4 1 5 2 6 34 8 35 9 93 10 36 11 92 12 37 13
REMARK SMILES IDX 38 14 39 15 86 16 40 17 91 18 85 19 87 20 41 21 90 22 84 23
REMARK SMILES IDX 83 24 42 26 72 27 53 28 71 29 54 30 57 31 70 32 88 33 55 34
REMARK SMILES IDX 56 35 69 37 89 38 58 39 43 40 44 41 52 42 45 43 51 44 46 45
REMARK SMILES IDX 47 46 48 47 49 48 50 49 73 50 74 51 82 52 75 53 81 54 76 55
REMARK SMILES IDX 77 56 78 57 79 58 80 59 59 60 60 61 68 62 61 63 67 64 62 65
REMARK SMILES IDX 63 66 64 67 65 68 66 69 7 70 8 71 9 72 10 73 11 74 12 76
REMARK SMILES IDX 13 77 14 78 20 79 15 80 19 81 16 82 17 83 18 84 21 85 22 87
REMARK SMILES IDX 23 88 24 89 25 90 26 91 30 92 27 93 29 94 28 95 31 96 33 97
REMARK SMILES IDX 32 98
REMARK H PARENT 3 7 87 25 57 36 10 75 21 86
REMARK Flexibility Score: inf
ROOT
ATOM      1  C   UNL A   1      32.931  28.639  24.170  1.00  0.00     0.002 C 
ENDROOT
BRANCH   1   2
ATOM      2  C   UNL A   1      34.016  28.109  25.113  1.00  0.00     0.021 C 
BRANCH   2   3
ATOM      3  C   UNL A   1      33.776  28.370  26.598  1.00  0.00     0.116 C 
BRANCH   3   4
ATOM      4  N   UNL A   1      33.635  29.786  26.890  1.00  0.00    -0.352 N 
ATOM      5  O   UNL A   1      34.075  31.746  27.900  1.00  0.00    -0.269 OA
ATOM      6  C   UNL A   1      34.460  30.618  27.603  1.00  0.00     0.251 C 
ATOM      7  H   UNL A   1      32.828  30.211  26.522  1.00  0.00     0.163 HD
BRANCH   6   8
ATOM      8  C   UNL A   1      35.801  30.159  28.025  1.00  0.00     0.039 A 
ATOM      9  C   UNL A   1      36.898  30.233  27.161  1.00  0.00     0.014 A 
ATOM     10  C   UNL A   1      35.967  29.690  29.332  1.00  0.00     0.014 A 
ATOM     11  C   UNL A   1      38.141  29.753  27.572  1.00  0.00     0.010 A 
ATOM     12  C   UNL A   1      37.225  29.260  29.760  1.00  0.00     0.010 A 
ATOM     13  C   UNL A   1      38.317  29.271  28.878  1.00  0.00    -0.014 A 
BRANCH  13  14
ATOM     14  C   UNL A   1      39.654  28.831  29.346  1.00  0.00     0.031 A 
ATOM     15  C   UNL A   1      40.543  29.763  30.117  1.00  0.00     0.074 A 
ATOM     16  C   UNL A   1      40.084  27.595  29.029  1.00  0.00     0.049 A 
ATOM     17  N   UNL A   1      41.770  29.577  30.530  1.00  0.00    -0.248 NA
ATOM     18  C   UNL A   1      39.984  31.080  30.458  1.00  0.00     0.031 C 
ATOM     19  C   UNL A   1      39.313  26.601  28.277  1.00  0.00     0.029 A 
ATOM     20  N   UNL A   1      41.278  26.970  29.280  1.00  0.00    -0.354 N 
ATOM     21  C   UNL A   1      42.144  30.758  31.157  1.00  0.00     0.074 A 
ATOM     22  C   UNL A   1      41.016  31.662  31.057  1.00  0.00     0.031 C 
ATOM     23  C   UNL A   1      40.053  25.493  28.129  1.00  0.00     0.029 A 
ATOM     24  C   UNL A   1      41.366  25.715  28.727  1.00  0.00     0.049 A 
ATOM     25  H   UNL A   1      42.003  27.380  29.806  1.00  0.00     0.167 HD
ATOM     26  C   UNL A   1      43.319  31.064  31.758  1.00  0.00     0.031 A 
ATOM     27  C   UNL A   1      42.396  24.849  28.671  1.00  0.00     0.031 A 
ATOM     28  C   UNL A   1      44.440  30.165  31.844  1.00  0.00     0.049 A 
ATOM     29  C   UNL A   1      43.700  25.214  29.319  1.00  0.00     0.074 A 
ATOM     30  C   UNL A   1      45.659  30.367  32.466  1.00  0.00     0.029 A 
ATOM     31  N   UNL A   1      44.484  28.898  31.279  1.00  0.00    -0.354 N 
ATOM     32  N   UNL A   1      44.018  26.319  29.949  1.00  0.00    -0.248 NA
ATOM     33  C   UNL A   1      44.779  24.220  29.254  1.00  0.00     0.031 C 
ATOM     34  C   UNL A   1      46.458  29.241  32.237  1.00  0.00     0.029 A 
ATOM     35  C   UNL A   1      45.718  28.317  31.515  1.00  0.00     0.049 A 
ATOM     36  H   UNL A   1      43.746  28.476  30.783  1.00  0.00     0.167 HD
ATOM     37  C   UNL A   1      45.330  26.147  30.374  1.00  0.00     0.074 A 
ATOM     38  C   UNL A   1      45.743  24.829  29.933  1.00  0.00     0.031 C 
ATOM     39  C   UNL A   1      46.116  27.004  31.071  1.00  0.00     0.031 A 
BRANCH  26  40
ATOM     40  C   UNL A   1      43.460  32.450  32.329  1.00  0.00    -0.014 A 
ATOM     41  C   UNL A   1      43.090  32.735  33.656  1.00  0.00     0.010 A 
ATOM     42  C   UNL A   1      43.972  33.484  31.525  1.00  0.00     0.010 A 
ATOM     43  C   UNL A   1      43.167  34.041  34.146  1.00  0.00     0.020 A 
ATOM     44  C   UNL A   1      44.075  34.787  32.019  1.00  0.00     0.020 A 
ATOM     45  C   UNL A   1      43.645  35.063  33.319  1.00  0.00     0.054 A 
BRANCH  45  46
ATOM     46  S   UNL A   1      43.705  36.756  33.965  1.00  0.00     0.124 S 
ATOM     47  O   UNL A   1      43.661  37.545  32.735  1.00  0.00    -0.237 OA
ATOM     48  O   UNL A   1      42.507  36.828  34.798  1.00  0.00    -0.237 OA
ATOM     49  O   UNL A   1      44.970  36.806  34.693  1.00  0.00    -0.744 OA
ENDBRANCH  45  46
ENDBRANCH  26  40
BRANCH  27  50
ATOM     50  C   UNL A   1      42.211  23.560  27.955  1.00  0.00    -0.014 A 
ATOM     51  C   UNL A   1      42.621  23.420  26.619  1.00  0.00     0.010 A 
ATOM     52  C   UNL A   1      41.717  22.437  28.645  1.00  0.00     0.010 A 
ATOM     53  C   UNL A   1      42.556  22.174  25.989  1.00  0.00     0.020 A 
ATOM     54  C   UNL A   1      41.673  21.186  28.026  1.00  0.00     0.020 A 
ATOM     55  C   UNL A   1      42.094  21.062  26.701  1.00  0.00     0.054 A 
BRANCH  55  56
ATOM     56  S   UNL A   1      42.131  19.433  25.901  1.00  0.00     0.124 S 
ATOM     57  O   UNL A   1      43.030  19.668  24.775  1.00  0.00    -0.237 OA
ATOM     58  O   UNL A   1      42.653  18.573  26.959  1.00  0.00    -0.237 OA
ATOM     59  O   UNL A   1      40.733  19.194  25.550  1.00  0.00    -0.744 OA
ENDBRANCH  55  56
ENDBRANCH  27  50
BRANCH  39  60
ATOM     60  C   UNL A   1      47.500  26.541  31.436  1.00  0.00    -0.014 A 
ATOM     61  C   UNL A   1      47.751  25.899  32.660  1.00  0.00     0.010 A 
ATOM     62  C   UNL A   1      48.538  26.663  30.496  1.00  0.00     0.010 A 
ATOM     63  C   UNL A   1      49.021  25.389  32.939  1.00  0.00     0.020 A 
ATOM     64  C   UNL A   1      49.804  26.137  30.763  1.00  0.00     0.020 A 
ATOM     65  C   UNL A   1      50.039  25.506  31.987  1.00  0.00     0.054 A 
BRANCH  65  66
ATOM     66  S   UNL A   1      51.655  24.758  32.334  1.00  0.00     0.124 S 
ATOM     67  O   UNL A   1      52.513  25.421  31.356  1.00  0.00    -0.237 OA
ATOM     68  O   UNL A   1      51.888  25.127  33.728  1.00  0.00    -0.237 OA
ATOM     69  O   UNL A   1      51.433  23.333  32.103  1.00  0.00    -0.744 OA
ENDBRANCH  65  66
ENDBRANCH  39  60
ENDBRANCH  13  14
ENDBRANCH   6   8
ENDBRANCH   3   4
ENDBRANCH   2   3
ENDBRANCH   1   2
BRANCH   1  70
ATOM     70  C   UNL A   1      33.127  28.319  22.685  1.00  0.00     0.002 C 
BRANCH  70  71
ATOM     71  C   UNL A   1      33.487  26.867  22.370  1.00  0.00     0.021 C 
BRANCH  71  72
ATOM     72  C   UNL A   1      32.441  26.116  21.553  1.00  0.00     0.116 C 
BRANCH  72  73
ATOM     73  N   UNL A   1      32.635  24.671  21.601  1.00  0.00    -0.352 N 
ATOM     74  C   UNL A   1      32.397  23.818  22.656  1.00  0.00     0.253 C 
ATOM     75  H   UNL A   1      32.979  24.254  20.779  1.00  0.00     0.163 HD
ATOM     76  O   UNL A   1      32.758  22.650  22.630  1.00  0.00    -0.269 OA
BRANCH  74  77
ATOM     77  C   UNL A   1      31.745  24.386  23.848  1.00  0.00     0.067 A 
ATOM     78  C   UNL A   1      30.509  25.028  23.670  1.00  0.00     0.058 A 
ATOM     79  C   UNL A   1      32.462  24.509  25.048  1.00  0.00     0.065 A 
ATOM     80  C   UNL A   1      30.046  25.878  24.663  1.00  0.00     0.159 A 
ATOM     81  C   UNL A   1      32.014  25.434  25.994  1.00  0.00     0.070 A 
ATOM     82  F   UNL A   1      28.886  26.524  24.488  1.00  0.00    -0.204 F 
ATOM     83  C   UNL A   1      30.810  26.108  25.799  1.00  0.00     0.160 A 
ATOM     84  F   UNL A   1      30.386  26.968  26.734  1.00  0.00    -0.204 F 
BRANCH  79  85
ATOM     85  N   UNL A   1      33.588  23.675  25.385  1.00  0.00    -0.279 N 
ATOM     86  H   UNL A   1      34.471  23.808  24.972  1.00  0.00     0.180 HD
BRANCH  85  87
ATOM     87  S   UNL A   1      33.307  22.433  26.547  1.00  0.00     0.261 S 
ATOM     88  O   UNL A   1      34.226  22.606  27.652  1.00  0.00    -0.201 OA
ATOM     89  O   UNL A   1      31.875  22.403  26.760  1.00  0.00    -0.201 OA
BRANCH  87  90
ATOM     90  C   UNL A   1      33.761  20.926  25.713  1.00  0.00     0.088 A 
ATOM     91  C   UNL A   1      35.090  20.694  25.313  1.00  0.00     0.022 A 
ATOM     92  C   UNL A   1      32.759  19.979  25.468  1.00  0.00     0.026 A 
ATOM     93  C   UNL A   1      35.439  19.470  24.731  1.00  0.00     0.005 A 
ATOM     94  C   UNL A   1      33.142  18.740  24.995  1.00  0.00    -0.043 A 
ATOM     95  C   UNL A   1      34.464  18.491  24.616  1.00  0.00    -0.045 A 
ATOM     96  C   UNL A   1      32.294  17.515  24.848  1.00  0.00     0.036 C 
ATOM     97  C   UNL A   1      34.596  17.093  24.096  1.00  0.00     0.036 C 
ATOM     98  C   UNL A   1      33.376  16.429  24.753  1.00  0.00     0.010 C 
ENDBRANCH  87  90
ENDBRANCH  85  87
ENDBRANCH  79  85
ENDBRANCH  74  77
ENDBRANCH  72  73
ENDBRANCH  71  72
ENDBRANCH  70  71
ENDBRANCH   1  70
TORSDOF 19
ENDMDL
MODEL 2
REMARK VINA RESULT:     -11.6      4.273      9.748
REMARK SMILES O=C(NCCCCCCNC(=O)c1cc(F)c(F)cc1NS(=O)(=O)c1ccc2c(c1)CCC2)c1ccc(-c2c3nc(c(-c4ccc(S(=O)(=O)[O-])cc4)c4ccc([nH]4)c(-c4ccc(S(=O)(=O)[O-])cc4)c4nc(c(-c5ccc(S(=O)(=O)[O-])cc5)c5ccc2[nH]5)C=C4)C=C3)cc1
REMARK SMILES IDX 6 1 5 2 4 3 3 4 1 5 2 6 34 8 35 9 93 10 36 11 92 12 37 13
REMARK SMILES IDX 38 14 39 15 86 16 40 17 91 18 85 19 87 20 41 21 90 22 84 23
REMARK SMILES IDX 83 24 42 26 72 27 53 28 71 29 54 30 57 31 70 32 88 33 55 34
REMARK SMILES IDX 56 35 69 37 89 38 58 39 43 40 44 41 52 42 45 43 51 44 46 45
REMARK SMILES IDX 47 46 48 47 49 48 50 49 73 50 74 51 82 52 75 53 81 54 76 55
REMARK SMILES IDX 77 56 78 57 79 58 80 59 59 60 60 61 68 62 61 63 67 64 62 65
REMARK SMILES IDX 63 66 64 67 65 68 66 69 7 70 8 71 9 72 10 73 11 74 12 76
REMARK SMILES IDX 13 77 14 78 20 79 15 80 19 81 16 82 17 83 18 84 21 85 22 87
REMARK SMILES IDX 23 88 24 89 25 90 26 91 30 92 27 93 29 94 28 95 31 96 33 97
REMARK SMILES IDX 32 98
REMARK H PARENT 3 7 87 25 57 36 10 75 21 86
REMARK Flexibility Score: inf
ROOT
ATOM      1  C   UNL A   1      37.913  23.919  26.329  1.00  0.00     0.002 C 
ENDROOT
BRANCH   1   2
ATOM      2  C   UNL A   1      38.998  22.853  26.511  1.00  0.00     0.021 C 
BRANCH   2   3
ATOM      3  C   UNL A   1      40.329  23.363  27.059  1.00  0.00     0.116 C 
BRANCH   3   4
ATOM      4  N   UNL A   1      41.061  24.146  26.080  1.00  0.00    -0.352 N 
ATOM      5  O   UNL A   1      41.833  26.000  25.068  1.00  0.00    -0.269 OA
ATOM      6  C   UNL A   1      41.367  25.483  26.080  1.00  0.00     0.251 C 
ATOM      7  H   UNL A   1      41.386  23.642  25.299  1.00  0.00     0.163 HD
BRANCH   6   8
ATOM      8  C   UNL A   1      41.124  26.304  27.285  1.00  0.00     0.039 A 
ATOM      9  C   UNL A   1      40.132  25.960  28.209  1.00  0.00     0.014 A 
ATOM     10  C   UNL A   1      41.943  27.414  27.515  1.00  0.00     0.014 A 
ATOM     11  C   UNL A   1      39.897  26.778  29.314  1.00  0.00     0.010 A 
ATOM     12  C   UNL A   1      41.741  28.201  28.651  1.00  0.00     0.010 A 
ATOM     13  C   UNL A   1      40.706  27.900  29.549  1.00  0.00    -0.014 A 
BRANCH  13  14
ATOM     14  C   UNL A   1      40.511  28.729  30.764  1.00  0.00     0.031 A 
ATOM     15  C   UNL A   1      39.459  29.800  30.800  1.00  0.00     0.074 A 
ATOM     16  C   UNL A   1      41.323  28.543  31.821  1.00  0.00     0.049 A 
ATOM     17  N   UNL A   1      39.205  30.672  31.742  1.00  0.00    -0.248 NA
ATOM     18  C   UNL A   1      38.586  29.913  29.622  1.00  0.00     0.031 C 
ATOM     19  C   UNL A   1      42.387  27.538  31.900  1.00  0.00     0.029 A 
ATOM     20  N   UNL A   1      41.396  29.201  33.022  1.00  0.00    -0.354 N 
ATOM     21  C   UNL A   1      38.164  31.456  31.264  1.00  0.00     0.074 A 
ATOM     22  C   UNL A   1      37.841  30.963  29.940  1.00  0.00     0.031 C 
ATOM     23  C   UNL A   1      43.005  27.647  33.085  1.00  0.00     0.029 A 
ATOM     24  C   UNL A   1      42.419  28.759  33.827  1.00  0.00     0.049 A 
ATOM     25  H   UNL A   1      40.775  29.920  33.283  1.00  0.00     0.167 HD
ATOM     26  C   UNL A   1      37.534  32.492  31.870  1.00  0.00     0.031 A 
ATOM     27  C   UNL A   1      42.864  29.216  35.013  1.00  0.00     0.031 A 
ATOM     28  C   UNL A   1      37.868  32.983  33.181  1.00  0.00     0.049 A 
ATOM     29  C   UNL A   1      42.173  30.382  35.658  1.00  0.00     0.074 A 
ATOM     30  C   UNL A   1      37.264  34.002  33.898  1.00  0.00     0.029 A 
ATOM     31  N   UNL A   1      38.904  32.500  33.968  1.00  0.00    -0.354 N 
ATOM     32  N   UNL A   1      41.157  31.080  35.211  1.00  0.00    -0.248 NA
ATOM     33  C   UNL A   1      42.681  30.819  36.965  1.00  0.00     0.031 C 
ATOM     34  C   UNL A   1      37.965  34.166  35.097  1.00  0.00     0.029 A 
ATOM     35  C   UNL A   1      38.974  33.217  35.150  1.00  0.00     0.049 A 
ATOM     36  H   UNL A   1      39.502  31.758  33.720  1.00  0.00     0.167 HD
ATOM     37  C   UNL A   1      40.890  32.029  36.190  1.00  0.00     0.074 A 
ATOM     38  C   UNL A   1      41.849  31.811  37.256  1.00  0.00     0.031 C 
ATOM     39  C   UNL A   1      39.933  32.989  36.203  1.00  0.00     0.031 A 
BRANCH  26  40
ATOM     40  C   UNL A   1      36.450  33.190  31.092  1.00  0.00    -0.014 A 
ATOM     41  C   UNL A   1      36.749  33.960  29.953  1.00  0.00     0.010 A 
ATOM     42  C   UNL A   1      35.112  33.073  31.508  1.00  0.00     0.010 A 
ATOM     43  C   UNL A   1      35.736  34.653  29.284  1.00  0.00     0.020 A 
ATOM     44  C   UNL A   1      34.093  33.743  30.826  1.00  0.00     0.020 A 
ATOM     45  C   UNL A   1      34.416  34.552  29.734  1.00  0.00     0.054 A 
BRANCH  45  46
ATOM     46  S   UNL A   1      33.123  35.487  28.872  1.00  0.00     0.124 S 
ATOM     47  O   UNL A   1      33.914  36.441  28.096  1.00  0.00    -0.237 OA
ATOM     48  O   UNL A   1      32.444  34.456  28.091  1.00  0.00    -0.237 OA
ATOM     49  O   UNL A   1      32.332  36.066  29.954  1.00  0.00    -0.744 OA
ENDBRANCH  45  46
ENDBRANCH  26  40
BRANCH  27  50
ATOM     50  C   UNL A   1      44.038  28.557  35.640  1.00  0.00    -0.014 A 
ATOM     51  C   UNL A   1      45.336  29.044  35.414  1.00  0.00     0.010 A 
ATOM     52  C   UNL A   1      43.848  27.499  36.550  1.00  0.00     0.010 A 
ATOM     53  C   UNL A   1      46.423  28.497  36.101  1.00  0.00     0.020 A 
ATOM     54  C   UNL A   1      44.930  26.965  37.254  1.00  0.00     0.020 A 
ATOM     55  C   UNL A   1      46.211  27.469  37.026  1.00  0.00     0.054 A 
BRANCH  55  56
ATOM     56  S   UNL A   1      47.620  26.856  37.992  1.00  0.00     0.124 S 
ATOM     57  O   UNL A   1      47.750  25.486  37.505  1.00  0.00    -0.237 OA
ATOM     58  O   UNL A   1      48.691  27.770  37.605  1.00  0.00    -0.237 OA
ATOM     59  O   UNL A   1      47.169  26.991  39.376  1.00  0.00    -0.744 OA
ENDBRANCH  55  56
ENDBRANCH  27  50
BRANCH  39  60
ATOM     60  C   UNL A   1      39.843  33.867  37.421  1.00  0.00    -0.014 A 
ATOM     61  C   UNL A   1      40.377  35.166  37.420  1.00  0.00     0.010 A 
ATOM     62  C   UNL A   1      39.126  33.417  38.544  1.00  0.00     0.010 A 
ATOM     63  C   UNL A   1      40.198  36.001  38.526  1.00  0.00     0.020 A 
ATOM     64  C   UNL A   1      38.928  34.256  39.643  1.00  0.00     0.020 A 
ATOM     65  C   UNL A   1      39.470  35.543  39.629  1.00  0.00     0.054 A 
BRANCH  65  66
ATOM     66  S   UNL A   1      39.174  36.675  41.015  1.00  0.00     0.124 S 
ATOM     67  O   UNL A   1      38.162  35.957  41.783  1.00  0.00    -0.237 OA
ATOM     68  O   UNL A   1      40.491  36.768  41.642  1.00  0.00    -0.237 OA
ATOM     69  O   UNL A   1      38.713  37.901  40.368  1.00  0.00    -0.744 OA
ENDBRANCH  65  66
ENDBRANCH  39  60
ENDBRANCH  13  14
ENDBRANCH   6   8
ENDBRANCH   3   4
ENDBRANCH   2   3
ENDBRANCH   1   2
BRANCH   1  70
ATOM     70  C   UNL A   1      36.674  23.479  25.544  1.00  0.00     0.002 C 
BRANCH  70  71
ATOM     71  C   UNL A   1      36.884  22.294  24.601  1.00  0.00     0.021 C 
BRANCH  71  72
ATOM     72  C   UNL A   1      36.152  21.019  25.010  1.00  0.00     0.116 C 
BRANCH  72  73
ATOM     73  N   UNL A   1      35.453  21.167  26.282  1.00  0.00    -0.352 N 
ATOM     74  C   UNL A   1      34.099  21.304  26.495  1.00  0.00     0.253 C 
ATOM     75  H   UNL A   1      36.018  21.170  27.088  1.00  0.00     0.163 HD
ATOM     76  O   UNL A   1      33.648  21.591  27.594  1.00  0.00    -0.269 OA
BRANCH  74  77
ATOM     77  C   UNL A   1      33.215  21.157  25.326  1.00  0.00     0.067 A 
ATOM     78  C   UNL A   1      33.022  19.863  24.815  1.00  0.00     0.058 A 
ATOM     79  C   UNL A   1      32.809  22.291  24.606  1.00  0.00     0.065 A 
ATOM     80  C   UNL A   1      32.515  19.718  23.532  1.00  0.00     0.159 A 
ATOM     81  C   UNL A   1      32.379  22.119  23.288  1.00  0.00     0.070 A 
ATOM     82  F   UNL A   1      32.361  18.490  23.022  1.00  0.00    -0.204 F 
ATOM     83  C   UNL A   1      32.231  20.837  22.762  1.00  0.00     0.160 A 
ATOM     84  F   UNL A   1      31.789  20.696  21.505  1.00  0.00    -0.204 F 
BRANCH  79  85
ATOM     85  N   UNL A   1      32.739  23.610  25.182  1.00  0.00    -0.279 N 
ATOM     86  H   UNL A   1      33.504  24.228  25.154  1.00  0.00     0.180 HD
BRANCH  85  87
ATOM     87  S   UNL A   1      31.246  24.048  25.926  1.00  0.00     0.261 S 
ATOM     88  O   UNL A   1      30.337  22.925  25.852  1.00  0.00    -0.201 OA
ATOM     89  O   UNL A   1      31.595  24.649  27.196  1.00  0.00    -0.201 OA
BRANCH  87  90
ATOM     90  C   UNL A   1      30.585  25.334  24.884  1.00  0.00     0.088 A 
ATOM     91  C   UNL A   1      29.215  25.652  24.912  1.00  0.00     0.022 A 
ATOM     92  C   UNL A   1      31.467  26.017  24.038  1.00  0.00     0.026 A 
ATOM     93  C   UNL A   1      28.731  26.719  24.144  1.00  0.00     0.005 A 
ATOM     94  C   UNL A   1      30.993  27.131  23.375  1.00  0.00    -0.043 A 
ATOM     95  C   UNL A   1      29.638  27.471  23.414  1.00  0.00    -0.045 A 
ATOM     96  C   UNL A   1      31.782  28.129  22.585  1.00  0.00     0.036 C 
ATOM     97  C   UNL A   1      29.387  28.686  22.575  1.00  0.00     0.036 C 
ATOM     98  C   UNL A   1      30.793  29.304  22.543  1.00  0.00     0.010 C 
ENDBRANCH  87  90
ENDBRANCH  85  87
ENDBRANCH  79  85
ENDBRANCH  74  77
ENDBRANCH  72  73
ENDBRANCH  71  72
ENDBRANCH  70  71
ENDBRANCH   1  70
TORSDOF 19
ENDMDL
MODEL 3
REMARK VINA RESULT:     -11.5      3.738      5.860
REMARK SMILES O=C(NCCCCCCNC(=O)c1cc(F)c(F)cc1NS(=O)(=O)c1ccc2c(c1)CCC2)c1ccc(-c2c3nc(c(-c4ccc(S(=O)(=O)[O-])cc4)c4ccc([nH]4)c(-c4ccc(S(=O)(=O)[O-])cc4)c4nc(c(-c5ccc(S(=O)(=O)[O-])cc5)c5ccc2[nH]5)C=C4)C=C3)cc1
REMARK SMILES IDX 6 1 5 2 4 3 3 4 1 5 2 6 34 8 35 9 93 10 36 11 92 12 37 13
REMARK SMILES IDX 38 14 39 15 86 16 40 17 91 18 85 19 87 20 41 21 90 22 84 23
REMARK SMILES IDX 83 24 42 26 72 27 53 28 71 29 54 30 57 31 70 32 88 33 55 34
REMARK SMILES IDX 56 35 69 37 89 38 58 39 43 40 44 41 52 42 45 43 51 44 46 45
REMARK SMILES IDX 47 46 48 47 49 48 50 49 73 50 74 51 82 52 75 53 81 54 76 55
REMARK SMILES IDX 77 56 78 57 79 58 80 59 59 60 60 61 68 62 61 63 67 64 62 65
REMARK SMILES IDX 63 66 64 67 65 68 66 69 7 70 8 71 9 72 10 73 11 74 12 76
REMARK SMILES IDX 13 77 14 78 20 79 15 80 19 81 16 82 17 83 18 84 21 85 22 87
REMARK SMILES IDX 23 88 24 89 25 90 26 91 30 92 27 93 29 94 28 95 31 96 33 97
REMARK SMILES IDX 32 98
REMARK H PARENT 3 7 87 25 57 36 10 75 21 86
REMARK Flexibility Score: inf
ROOT
ATOM      1  C   UNL A   1      34.848  29.215  26.791  1.00  0.00     0.002 C 
ENDROOT
BRANCH   1   2
ATOM      2  C   UNL A   1      34.569  30.482  27.606  1.00  0.00     0.021 C 
BRANCH   2   3
ATOM      3  C   UNL A   1      35.762  31.036  28.381  1.00  0.00     0.116 C 
BRANCH   3   4
ATOM      4  N   UNL A   1      35.645  30.801  29.810  1.00  0.00    -0.352 N 
ATOM      5  O   UNL A   1      36.138  29.893  31.806  1.00  0.00    -0.269 OA
ATOM      6  C   UNL A   1      36.503  30.154  30.663  1.00  0.00     0.251 C 
ATOM      7  H   UNL A   1      34.829  31.159  30.227  1.00  0.00     0.163 HD
BRANCH   6   8
ATOM      8  C   UNL A   1      37.853  29.760  30.208  1.00  0.00     0.039 A 
ATOM      9  C   UNL A   1      38.184  29.744  28.849  1.00  0.00     0.014 A 
ATOM     10  C   UNL A   1      38.818  29.447  31.169  1.00  0.00     0.014 A 
ATOM     11  C   UNL A   1      39.452  29.326  28.447  1.00  0.00     0.010 A 
ATOM     12  C   UNL A   1      40.104  29.081  30.767  1.00  0.00     0.010 A 
ATOM     13  C   UNL A   1      40.426  29.000  29.403  1.00  0.00    -0.014 A 
BRANCH  13  14
ATOM     14  C   UNL A   1      41.800  28.629  28.985  1.00  0.00     0.031 A 
ATOM     15  C   UNL A   1      42.889  29.661  28.924  1.00  0.00     0.074 A 
ATOM     16  C   UNL A   1      42.050  27.360  28.612  1.00  0.00     0.049 A 
ATOM     17  N   UNL A   1      44.121  29.534  28.502  1.00  0.00    -0.248 NA
ATOM     18  C   UNL A   1      42.546  31.014  29.386  1.00  0.00     0.031 C 
ATOM     19  C   UNL A   1      41.071  26.270  28.621  1.00  0.00     0.029 A 
ATOM     20  N   UNL A   1      43.195  26.775  28.135  1.00  0.00    -0.354 N 
ATOM     21  C   UNL A   1      44.695  30.792  28.621  1.00  0.00     0.074 A 
ATOM     22  C   UNL A   1      43.671  31.674  29.143  1.00  0.00     0.031 C 
ATOM     23  C   UNL A   1      41.657  25.151  28.172  1.00  0.00     0.029 A 
ATOM     24  C   UNL A   1      43.034  25.454  27.794  1.00  0.00     0.049 A 
ATOM     25  H   UNL A   1      44.051  27.255  28.046  1.00  0.00     0.167 HD
ATOM     26  C   UNL A   1      45.959  31.179  28.322  1.00  0.00     0.031 A 
ATOM     27  C   UNL A   1      43.883  24.587  27.209  1.00  0.00     0.031 A 
ATOM     28  C   UNL A   1      46.968  30.300  27.793  1.00  0.00     0.049 A 
ATOM     29  C   UNL A   1      45.270  25.039  26.859  1.00  0.00     0.074 A 
ATOM     30  C   UNL A   1      48.289  30.587  27.494  1.00  0.00     0.029 A 
ATOM     31  N   UNL A   1      46.767  28.965  27.472  1.00  0.00    -0.354 N 
ATOM     32  N   UNL A   1      45.811  26.222  27.024  1.00  0.00    -0.248 NA
ATOM     33  C   UNL A   1      46.163  24.044  26.251  1.00  0.00     0.031 C 
ATOM     34  C   UNL A   1      48.873  29.438  26.949  1.00  0.00     0.029 A 
ATOM     35  C   UNL A   1      47.930  28.422  26.954  1.00  0.00     0.049 A 
ATOM     36  H   UNL A   1      45.920  28.477  27.594  1.00  0.00     0.167 HD
ATOM     37  C   UNL A   1      47.115  26.111  26.557  1.00  0.00     0.074 A 
ATOM     38  C   UNL A   1      47.283  24.742  26.108  1.00  0.00     0.031 C 
ATOM     39  C   UNL A   1      48.084  27.058  26.512  1.00  0.00     0.031 A 
BRANCH  26  40
ATOM     40  C   UNL A   1      46.299  32.633  28.519  1.00  0.00    -0.014 A 
ATOM     41  C   UNL A   1      46.253  33.546  27.450  1.00  0.00     0.010 A 
ATOM     42  C   UNL A   1      46.672  33.091  29.795  1.00  0.00     0.010 A 
ATOM     43  C   UNL A   1      46.636  34.876  27.641  1.00  0.00     0.020 A 
ATOM     44  C   UNL A   1      47.031  34.427  29.995  1.00  0.00     0.020 A 
ATOM     45  C   UNL A   1      47.037  35.305  28.909  1.00  0.00     0.054 A 
BRANCH  45  46
ATOM     46  S   UNL A   1      47.563  37.027  29.126  1.00  0.00     0.124 S 
ATOM     47  O   UNL A   1      46.796  37.705  28.082  1.00  0.00    -0.237 OA
ATOM     48  O   UNL A   1      47.152  37.322  30.496  1.00  0.00    -0.237 OA
ATOM     49  O   UNL A   1      49.006  36.980  28.908  1.00  0.00    -0.744 OA
ENDBRANCH  45  46
ENDBRANCH  26  40
BRANCH  27  50
ATOM     50  C   UNL A   1      43.410  23.209  26.915  1.00  0.00    -0.014 A 
ATOM     51  C   UNL A   1      43.559  22.661  25.631  1.00  0.00     0.010 A 
ATOM     52  C   UNL A   1      42.903  22.404  27.953  1.00  0.00     0.010 A 
ATOM     53  C   UNL A   1      43.225  21.325  25.391  1.00  0.00     0.020 A 
ATOM     54  C   UNL A   1      42.589  21.062  27.722  1.00  0.00     0.020 A 
ATOM     55  C   UNL A   1      42.753  20.531  26.442  1.00  0.00     0.054 A 
BRANCH  55  56
ATOM     56  S   UNL A   1      42.439  18.770  26.135  1.00  0.00     0.124 S 
ATOM     57  O   UNL A   1      42.693  18.183  27.447  1.00  0.00    -0.237 OA
ATOM     58  O   UNL A   1      41.045  18.768  25.700  1.00  0.00    -0.237 OA
ATOM     59  O   UNL A   1      43.407  18.427  25.095  1.00  0.00    -0.744 OA
ENDBRANCH  55  56
ENDBRANCH  27  50
BRANCH  39  60
ATOM     60  C   UNL A   1      49.433  26.650  25.986  1.00  0.00    -0.014 A 
ATOM     61  C   UNL A   1      49.791  26.883  24.648  1.00  0.00     0.010 A 
ATOM     62  C   UNL A   1      50.386  26.117  26.872  1.00  0.00     0.010 A 
ATOM     63  C   UNL A   1      51.082  26.587  24.203  1.00  0.00     0.020 A 
ATOM     64  C   UNL A   1      51.683  25.839  26.436  1.00  0.00     0.020 A 
ATOM     65  C   UNL A   1      52.022  26.072  25.101  1.00  0.00     0.054 A 
BRANCH  65  66
ATOM     66  S   UNL A   1      53.717  25.778  24.525  1.00  0.00     0.124 S 
ATOM     67  O   UNL A   1      53.883  24.351  24.781  1.00  0.00    -0.237 OA
ATOM     68  O   UNL A   1      53.649  26.161  23.116  1.00  0.00    -0.237 OA
ATOM     69  O   UNL A   1      54.525  26.660  25.364  1.00  0.00    -0.744 OA
ENDBRANCH  65  66
ENDBRANCH  39  60
ENDBRANCH  13  14
ENDBRANCH   6   8
ENDBRANCH   3   4
ENDBRANCH   2   3
ENDBRANCH   1   2
BRANCH   1  70
ATOM     70  C   UNL A   1      33.770  28.130  26.860  1.00  0.00     0.002 C 
BRANCH  70  71
ATOM     71  C   UNL A   1      33.928  26.986  25.858  1.00  0.00     0.021 C 
BRANCH  71  72
ATOM     72  C   UNL A   1      33.216  25.695  26.250  1.00  0.00     0.116 C 
BRANCH  72  73
ATOM     73  N   UNL A   1      31.806  25.912  26.557  1.00  0.00    -0.352 N 
ATOM     74  C   UNL A   1      30.719  25.200  26.102  1.00  0.00     0.253 C 
ATOM     75  H   UNL A   1      31.608  26.661  27.164  1.00  0.00     0.163 HD
ATOM     76  O   UNL A   1      29.575  25.583  26.296  1.00  0.00    -0.269 OA
BRANCH  74  77
ATOM     77  C   UNL A   1      30.991  23.987  25.312  1.00  0.00     0.067 A 
ATOM     78  C   UNL A   1      31.446  22.850  26.001  1.00  0.00     0.058 A 
ATOM     79  C   UNL A   1      31.047  24.059  23.912  1.00  0.00     0.065 A 
ATOM     80  C   UNL A   1      32.053  21.830  25.284  1.00  0.00     0.159 A 
ATOM     81  C   UNL A   1      31.736  23.057  23.225  1.00  0.00     0.070 A 
ATOM     82  F   UNL A   1      32.524  20.759  25.935  1.00  0.00    -0.204 F 
ATOM     83  C   UNL A   1      32.230  21.950  23.912  1.00  0.00     0.160 A 
ATOM     84  F   UNL A   1      32.862  20.987  23.228  1.00  0.00    -0.204 F 
BRANCH  79  85
ATOM     85  N   UNL A   1      30.363  25.069  23.145  1.00  0.00    -0.279 N 
ATOM     86  H   UNL A   1      29.386  25.059  23.032  1.00  0.00     0.180 HD
BRANCH  85  87
ATOM     87  S   UNL A   1      31.346  26.294  22.432  1.00  0.00     0.261 S 
ATOM     88  O   UNL A   1      32.687  26.191  22.966  1.00  0.00    -0.201 OA
ATOM     89  O   UNL A   1      31.098  26.223  21.007  1.00  0.00    -0.201 OA
BRANCH  87  90
ATOM     90  C   UNL A   1      30.656  27.826  23.026  1.00  0.00     0.088 A 
ATOM     91  C   UNL A   1      31.342  28.606  23.974  1.00  0.00     0.022 A 
ATOM     92  C   UNL A   1      29.415  28.230  22.520  1.00  0.00     0.026 A 
ATOM     93  C   UNL A   1      30.819  29.844  24.366  1.00  0.00     0.005 A 
ATOM     94  C   UNL A   1      28.971  29.499  22.835  1.00  0.00    -0.043 A 
ATOM     95  C   UNL A   1      29.657  30.293  23.759  1.00  0.00    -0.045 A 
ATOM     96  C   UNL A   1      27.793  30.224  22.264  1.00  0.00     0.036 C 
ATOM     97  C   UNL A   1      28.940  31.594  23.952  1.00  0.00     0.036 C 
ATOM     98  C   UNL A   1      28.136  31.671  22.645  1.00  0.00     0.010 C 
ENDBRANCH  87  90
ENDBRANCH  85  87
ENDBRANCH  79  85
ENDBRANCH  74  77
ENDBRANCH  72  73
ENDBRANCH  71  72
ENDBRANCH  70  71
ENDBRANCH   1  70
TORSDOF 19
ENDMDL
