MODEL 1
REMARK VINA RESULT:     -11.9      0.000      0.000
REMARK SMILES Cc1cc(OC(F)(F)F)cc2c1O[C@H](C(F)(F)F)C(C(=O)NCCCCCCNC(=O)c1ccc(-c3c4nc(c(-c5ccc(S(=O)(=O)[O-])cc5)c5ccc([nH]5)c(-c5ccc(S(=O)(=O)[O-])cc5)c5nc(c(-c6ccc(S(=O)(=O)[O-])cc6)c6ccc3[nH]6)C=C5)C=C4)cc1)=C2
REMARK SMILES IDX 26 1 25 2 24 3 23 4 22 5 20 6 21 7 19 9 1 10 2 11 3 12 12 13
REMARK SMILES IDX 4 14 11 15 13 16 10 17 92 18 14 19 5 20 6 21 7 22 8 23 9 24
REMARK SMILES IDX 15 25 16 26 17 27 18 28 27 29 28 30 29 31 30 32 31 34 32 35
REMARK SMILES IDX 33 36 91 37 34 38 90 39 35 40 36 41 37 42 84 43 38 44 89 45
REMARK SMILES IDX 83 46 85 47 39 48 88 49 82 50 81 51 40 53 70 54 51 55 69 56
REMARK SMILES IDX 52 57 55 58 68 59 86 60 53 61 54 62 67 64 87 65 56 66 41 67
REMARK SMILES IDX 42 68 50 69 43 70 49 71 44 72 45 73 46 74 47 75 48 76 71 77
REMARK SMILES IDX 72 78 80 79 73 80 79 81 74 82 75 83 76 84 77 85 78 86 57 87
REMARK SMILES IDX 58 88 66 89 59 90 65 91 60 92 61 93 62 94 63 95 64 96
REMARK H PARENT 22 8 29 33 85 52 55 63
REMARK Flexibility Score: inf
ROOT
ATOM      1  C   UNL A   1      31.702  27.849  25.741  1.00  0.00     0.002 C 
ENDROOT
BRANCH   1   2
ATOM      2  C   UNL A   1      30.625  26.806  25.413  1.00  0.00     0.002 C 
BRANCH   2   3
ATOM      3  C   UNL A   1      30.158  26.783  23.954  1.00  0.00     0.021 C 
BRANCH   3   4
ATOM      4  C   UNL A   1      30.452  25.468  23.236  1.00  0.00     0.116 C 
BRANCH   4   5
ATOM      5  N   UNL A   1      31.458  25.634  22.202  1.00  0.00    -0.352 N 
ATOM      6  C   UNL A   1      32.674  25.118  21.908  1.00  0.00     0.251 C 
ATOM      7  O   UNL A   1      33.190  25.553  20.872  1.00  0.00    -0.270 OA
ATOM      8  H   UNL A   1      31.181  26.304  21.536  1.00  0.00     0.163 HD
BRANCH   6   9
ATOM      9  C   UNL A   1      33.404  24.099  22.721  1.00  0.00     0.067 C 
ATOM     10  C   UNL A   1      36.792  21.302  25.389  1.00  0.00     0.048 C 
ATOM     11  C   UNL A   1      35.419  21.065  24.824  1.00  0.00    -0.005 A 
ATOM     12  C   UNL A   1      34.796  19.820  24.995  1.00  0.00     0.054 A 
ATOM     13  C   UNL A   1      34.765  22.054  24.079  1.00  0.00     0.131 A 
ATOM     14  C   UNL A   1      33.535  19.572  24.448  1.00  0.00     0.130 A 
ATOM     15  C   UNL A   1      33.503  21.823  23.529  1.00  0.00     0.021 A 
ATOM     16  O   UNL A   1      35.437  23.224  23.872  1.00  0.00    -0.475 OA
ATOM     17  C   UNL A   1      32.892  20.581  23.720  1.00  0.00     0.058 A 
ATOM     18  C   UNL A   1      32.866  22.865  22.732  1.00  0.00     0.025 C 
ATOM     19  C   UNL A   1      34.637  24.385  23.530  1.00  0.00     0.314 C 
BRANCH  14  20
ATOM     20  O   UNL A   1      32.830  18.406  24.541  1.00  0.00    -0.406 OA
BRANCH  20  21
ATOM     21  C   UNL A   1      33.147  17.369  23.628  1.00  0.00     0.573 C 
ATOM     22  F   UNL A   1      32.436  17.489  22.486  1.00  0.00    -0.132 F 
ATOM     23  F   UNL A   1      34.466  17.357  23.341  1.00  0.00    -0.132 F 
ATOM     24  F   UNL A   1      32.831  16.183  24.194  1.00  0.00    -0.132 F 
ENDBRANCH  20  21
ENDBRANCH  14  20
BRANCH  19  25
ATOM     25  C   UNL A   1      34.336  25.189  24.809  1.00  0.00     0.429 C 
ATOM     26  F   UNL A   1      34.246  26.511  24.529  1.00  0.00    -0.167 F 
ATOM     27  F   UNL A   1      33.160  24.835  25.377  1.00  0.00    -0.167 F 
ATOM     28  F   UNL A   1      35.292  25.034  25.754  1.00  0.00    -0.167 F 
ENDBRANCH  19  25
ENDBRANCH   6   9
ENDBRANCH   4   5
ENDBRANCH   3   4
ENDBRANCH   2   3
ENDBRANCH   1   2
BRANCH   1  29
ATOM     29  C   UNL A   1      32.341  27.720  27.128  1.00  0.00     0.021 C 
BRANCH  29  30
ATOM     30  C   UNL A   1      33.718  28.362  27.250  1.00  0.00     0.116 C 
BRANCH  30  31
ATOM     31  N   UNL A   1      33.626  29.810  27.326  1.00  0.00    -0.352 N 
ATOM     32  C   UNL A   1      34.510  30.696  27.886  1.00  0.00     0.251 C 
ATOM     33  H   UNL A   1      32.820  30.208  26.922  1.00  0.00     0.163 HD
ATOM     34  O   UNL A   1      34.182  31.864  28.079  1.00  0.00    -0.269 OA
BRANCH  32  35
ATOM     35  C   UNL A   1      35.859  30.229  28.256  1.00  0.00     0.039 A 
ATOM     36  C   UNL A   1      36.875  30.251  27.299  1.00  0.00     0.014 A 
ATOM     37  C   UNL A   1      36.109  29.760  29.551  1.00  0.00     0.014 A 
ATOM     38  C   UNL A   1      38.159  29.833  27.651  1.00  0.00     0.010 A 
ATOM     39  C   UNL A   1      37.399  29.386  29.912  1.00  0.00     0.010 A 
ATOM     40  C   UNL A   1      38.430  29.409  28.961  1.00  0.00    -0.014 A 
BRANCH  40  41
ATOM     41  C   UNL A   1      39.780  28.935  29.344  1.00  0.00     0.031 A 
ATOM     42  C   UNL A   1      40.691  29.843  30.119  1.00  0.00     0.074 A 
ATOM     43  C   UNL A   1      40.196  27.711  28.965  1.00  0.00     0.049 A 
ATOM     44  N   UNL A   1      41.920  29.632  30.513  1.00  0.00    -0.248 NA
ATOM     45  C   UNL A   1      40.159  31.165  30.489  1.00  0.00     0.031 C 
ATOM     46  C   UNL A   1      39.405  26.749  28.194  1.00  0.00     0.029 A 
ATOM     47  N   UNL A   1      41.389  27.070  29.176  1.00  0.00    -0.354 N 
ATOM     48  C   UNL A   1      42.309  30.792  31.169  1.00  0.00     0.074 A 
ATOM     49  C   UNL A   1      41.202  31.720  31.089  1.00  0.00     0.031 C 
ATOM     50  C   UNL A   1      40.129  25.633  28.015  1.00  0.00     0.029 A 
ATOM     51  C   UNL A   1      41.442  25.809  28.632  1.00  0.00     0.049 A 
ATOM     52  H   UNL A   1      42.138  27.475  29.670  1.00  0.00     0.167 HD
ATOM     53  C   UNL A   1      43.477  31.053  31.800  1.00  0.00     0.031 A 
ATOM     54  C   UNL A   1      42.434  24.898  28.629  1.00  0.00     0.031 A 
ATOM     55  C   UNL A   1      44.568  30.124  31.894  1.00  0.00     0.049 A 
ATOM     56  C   UNL A   1      43.730  25.218  29.320  1.00  0.00     0.074 A 
ATOM     57  C   UNL A   1      45.776  30.284  32.549  1.00  0.00     0.029 A 
ATOM     58  N   UNL A   1      44.583  28.863  31.320  1.00  0.00    -0.354 N 
ATOM     59  N   UNL A   1      44.067  26.310  29.963  1.00  0.00    -0.248 NA
ATOM     60  C   UNL A   1      44.775  24.184  29.293  1.00  0.00     0.031 C 
ATOM     61  C   UNL A   1      46.538  29.131  32.341  1.00  0.00     0.029 A 
ATOM     62  C   UNL A   1      45.787  28.239  31.592  1.00  0.00     0.049 A 
ATOM     63  H   UNL A   1      43.848  28.471  30.797  1.00  0.00     0.167 HD
ATOM     64  C   UNL A   1      45.357  26.089  30.432  1.00  0.00     0.074 A 
ATOM     65  C   UNL A   1      45.737  24.759  30.004  1.00  0.00     0.031 C 
ATOM     66  C   UNL A   1      46.150  26.915  31.156  1.00  0.00     0.031 A 
BRANCH  53  67
ATOM     67  C   UNL A   1      43.633  32.399  32.450  1.00  0.00    -0.014 A 
ATOM     68  C   UNL A   1      44.130  33.494  31.721  1.00  0.00     0.010 A 
ATOM     69  C   UNL A   1      43.217  32.587  33.780  1.00  0.00     0.010 A 
ATOM     70  C   UNL A   1      44.222  34.753  32.317  1.00  0.00     0.020 A 
ATOM     71  C   UNL A   1      43.289  33.850  34.374  1.00  0.00     0.020 A 
ATOM     72  C   UNL A   1      43.796  34.924  33.638  1.00  0.00     0.054 A 
BRANCH  72  73
ATOM     73  S   UNL A   1      43.898  36.580  34.369  1.00  0.00     0.124 S 
ATOM     74  O   UNL A   1      44.939  37.208  33.559  1.00  0.00    -0.237 OA
ATOM     75  O   UNL A   1      42.547  37.097  34.167  1.00  0.00    -0.237 OA
ATOM     76  O   UNL A   1      44.267  36.326  35.760  1.00  0.00    -0.744 OA
ENDBRANCH  72  73
ENDBRANCH  53  67
BRANCH  54  77
ATOM     77  C   UNL A   1      42.220  23.586  27.964  1.00  0.00    -0.014 A 
ATOM     78  C   UNL A   1      42.761  23.341  26.691  1.00  0.00     0.010 A 
ATOM     79  C   UNL A   1      41.522  22.559  28.626  1.00  0.00     0.010 A 
ATOM     80  C   UNL A   1      42.615  22.086  26.092  1.00  0.00     0.020 A 
ATOM     81  C   UNL A   1      41.389  21.299  28.037  1.00  0.00     0.020 A 
ATOM     82  C   UNL A   1      41.939  21.069  26.774  1.00  0.00     0.054 A 
BRANCH  82  83
ATOM     83  S   UNL A   1      41.825  19.432  25.999  1.00  0.00     0.124 S 
ATOM     84  O   UNL A   1      42.713  19.573  24.850  1.00  0.00    -0.237 OA
ATOM     85  O   UNL A   1      42.305  18.556  27.065  1.00  0.00    -0.237 OA
ATOM     86  O   UNL A   1      40.406  19.300  25.682  1.00  0.00    -0.744 OA
ENDBRANCH  82  83
ENDBRANCH  54  77
BRANCH  66  87
ATOM     87  C   UNL A   1      47.510  26.414  31.554  1.00  0.00    -0.014 A 
ATOM     88  C   UNL A   1      47.701  25.752  32.779  1.00  0.00     0.010 A 
ATOM     89  C   UNL A   1      48.575  26.498  30.638  1.00  0.00     0.010 A 
ATOM     90  C   UNL A   1      48.939  25.181  33.081  1.00  0.00     0.020 A 
ATOM     91  C   UNL A   1      49.808  25.913  30.931  1.00  0.00     0.020 A 
ATOM     92  C   UNL A   1      49.981  25.255  32.151  1.00  0.00     0.054 A 
BRANCH  92  93
ATOM     93  S   UNL A   1      51.554  24.441  32.546  1.00  0.00     0.124 S 
ATOM     94  O   UNL A   1      51.289  23.057  32.159  1.00  0.00    -0.237 OA
ATOM     95  O   UNL A   1      52.501  25.161  31.700  1.00  0.00    -0.237 OA
ATOM     96  O   UNL A   1      51.711  24.664  33.982  1.00  0.00    -0.744 OA
ENDBRANCH  92  93
ENDBRANCH  66  87
ENDBRANCH  40  41
ENDBRANCH  32  35
ENDBRANCH  30  31
ENDBRANCH  29  30
ENDBRANCH   1  29
TORSDOF 19
ENDMDL
MODEL 2
REMARK VINA RESULT:     -11.7      3.158      9.621
REMARK SMILES Cc1cc(OC(F)(F)F)cc2c1O[C@H](C(F)(F)F)C(C(=O)NCCCCCCNC(=O)c1ccc(-c3c4nc(c(-c5ccc(S(=O)(=O)[O-])cc5)c5ccc([nH]5)c(-c5ccc(S(=O)(=O)[O-])cc5)c5nc(c(-c6ccc(S(=O)(=O)[O-])cc6)c6ccc3[nH]6)C=C5)C=C4)cc1)=C2
REMARK SMILES IDX 26 1 25 2 24 3 23 4 22 5 20 6 21 7 19 9 1 10 2 11 3 12 12 13
REMARK SMILES IDX 4 14 11 15 13 16 10 17 92 18 14 19 5 20 6 21 7 22 8 23 9 24
REMARK SMILES IDX 15 25 16 26 17 27 18 28 27 29 28 30 29 31 30 32 31 34 32 35
REMARK SMILES IDX 33 36 91 37 34 38 90 39 35 40 36 41 37 42 84 43 38 44 89 45
REMARK SMILES IDX 83 46 85 47 39 48 88 49 82 50 81 51 40 53 70 54 51 55 69 56
REMARK SMILES IDX 52 57 55 58 68 59 86 60 53 61 54 62 67 64 87 65 56 66 41 67
REMARK SMILES IDX 42 68 50 69 43 70 49 71 44 72 45 73 46 74 47 75 48 76 71 77
REMARK SMILES IDX 72 78 80 79 73 80 79 81 74 82 75 83 76 84 77 85 78 86 57 87
REMARK SMILES IDX 58 88 66 89 59 90 65 91 60 92 61 93 62 94 63 95 64 96
REMARK H PARENT 22 8 29 33 85 52 55 63
REMARK Flexibility Score: inf
ROOT
ATOM      1  C   UNL A   1      35.756  22.534  24.043  1.00  0.00     0.002 C 
ENDROOT
BRANCH   1   2
ATOM      2  C   UNL A   1      34.407  21.824  23.859  1.00  0.00     0.002 C 
BRANCH   2   3
ATOM      3  C   UNL A   1      33.662  21.488  25.156  1.00  0.00     0.021 C 
BRANCH   3   4
ATOM      4  C   UNL A   1      32.161  21.290  24.967  1.00  0.00     0.116 C 
BRANCH   4   5
ATOM      5  N   UNL A   1      31.396  21.961  26.004  1.00  0.00    -0.352 N 
ATOM      6  C   UNL A   1      31.140  23.234  26.381  1.00  0.00     0.251 C 
ATOM      7  O   UNL A   1      30.385  23.350  27.353  1.00  0.00    -0.270 OA
ATOM      8  H   UNL A   1      30.942  21.314  26.590  1.00  0.00     0.163 HD
BRANCH   6   9
ATOM      9  C   UNL A   1      31.689  24.460  25.728  1.00  0.00     0.067 C 
ATOM     10  C   UNL A   1      33.922  27.948  22.682  1.00  0.00     0.048 C 
ATOM     11  C   UNL A   1      33.390  27.940  24.089  1.00  0.00    -0.005 A 
ATOM     12  C   UNL A   1      33.460  29.103  24.870  1.00  0.00     0.054 A 
ATOM     13  C   UNL A   1      32.870  26.771  24.657  1.00  0.00     0.131 A 
ATOM     14  C   UNL A   1      33.002  29.103  26.191  1.00  0.00     0.130 A 
ATOM     15  C   UNL A   1      32.406  26.756  25.973  1.00  0.00     0.021 A 
ATOM     16  O   UNL A   1      32.890  25.643  23.889  1.00  0.00    -0.475 OA
ATOM     17  C   UNL A   1      32.471  27.927  26.733  1.00  0.00     0.058 A 
ATOM     18  C   UNL A   1      31.900  25.512  26.542  1.00  0.00     0.025 C 
ATOM     19  C   UNL A   1      31.968  24.585  24.257  1.00  0.00     0.314 C 
BRANCH  14  20
ATOM     20  O   UNL A   1      33.020  30.164  27.050  1.00  0.00    -0.406 OA
BRANCH  20  21
ATOM     21  C   UNL A   1      34.240  30.458  27.709  1.00  0.00     0.573 C 
ATOM     22  F   UNL A   1      35.087  31.124  26.896  1.00  0.00    -0.132 F 
ATOM     23  F   UNL A   1      34.028  31.180  28.831  1.00  0.00    -0.132 F 
ATOM     24  F   UNL A   1      34.831  29.296  28.066  1.00  0.00    -0.132 F 
ENDBRANCH  20  21
ENDBRANCH  14  20
BRANCH  19  25
ATOM     25  C   UNL A   1      30.684  24.716  23.417  1.00  0.00     0.429 C 
ATOM     26  F   UNL A   1      30.940  25.358  22.252  1.00  0.00    -0.167 F 
ATOM     27  F   UNL A   1      30.159  23.513  23.084  1.00  0.00    -0.167 F 
ATOM     28  F   UNL A   1      29.713  25.405  24.059  1.00  0.00    -0.167 F 
ENDBRANCH  19  25
ENDBRANCH   6   9
ENDBRANCH   4   5
ENDBRANCH   3   4
ENDBRANCH   2   3
ENDBRANCH   1   2
BRANCH   1  29
ATOM     29  C   UNL A   1      35.703  23.854  24.820  1.00  0.00     0.021 C 
BRANCH  29  30
ATOM     30  C   UNL A   1      36.431  23.826  26.160  1.00  0.00     0.116 C 
BRANCH  30  31
ATOM     31  N   UNL A   1      37.478  22.818  26.177  1.00  0.00    -0.352 N 
ATOM     32  C   UNL A   1      38.818  22.980  26.414  1.00  0.00     0.251 C 
ATOM     33  H   UNL A   1      37.185  21.896  25.992  1.00  0.00     0.163 HD
ATOM     34  O   UNL A   1      39.609  22.075  26.162  1.00  0.00    -0.269 OA
BRANCH  32  35
ATOM     35  C   UNL A   1      39.301  24.257  26.971  1.00  0.00     0.039 A 
ATOM     36  C   UNL A   1      40.014  25.134  26.152  1.00  0.00     0.014 A 
ATOM     37  C   UNL A   1      39.052  24.577  28.312  1.00  0.00     0.014 A 
ATOM     38  C   UNL A   1      40.452  26.354  26.668  1.00  0.00     0.010 A 
ATOM     39  C   UNL A   1      39.451  25.812  28.811  1.00  0.00     0.010 A 
ATOM     40  C   UNL A   1      40.163  26.704  27.996  1.00  0.00    -0.014 A 
BRANCH  40  41
ATOM     41  C   UNL A   1      40.645  27.982  28.568  1.00  0.00     0.031 A 
ATOM     42  C   UNL A   1      42.085  28.115  28.976  1.00  0.00     0.074 A 
ATOM     43  C   UNL A   1      39.786  29.003  28.753  1.00  0.00     0.049 A 
ATOM     44  N   UNL A   1      42.691  29.132  29.531  1.00  0.00    -0.248 NA
ATOM     45  C   UNL A   1      42.955  26.950  28.742  1.00  0.00     0.031 C 
ATOM     46  C   UNL A   1      38.362  28.983  28.412  1.00  0.00     0.029 A 
ATOM     47  N   UNL A   1      39.987  30.254  29.277  1.00  0.00    -0.354 N 
ATOM     48  C   UNL A   1      44.006  28.729  29.719  1.00  0.00     0.074 A 
ATOM     49  C   UNL A   1      44.105  27.363  29.255  1.00  0.00     0.031 C 
ATOM     50  C   UNL A   1      37.824  30.175  28.718  1.00  0.00     0.029 A 
ATOM     51  C   UNL A   1      38.854  31.031  29.301  1.00  0.00     0.049 A 
ATOM     52  H   UNL A   1      40.861  30.566  29.606  1.00  0.00     0.167 HD
ATOM     53  C   UNL A   1      45.044  29.441  30.214  1.00  0.00     0.031 A 
ATOM     54  C   UNL A   1      38.665  32.290  29.742  1.00  0.00     0.031 A 
ATOM     55  C   UNL A   1      44.948  30.804  30.658  1.00  0.00     0.049 A 
ATOM     56  C   UNL A   1      39.829  33.055  30.306  1.00  0.00     0.074 A 
ATOM     57  C   UNL A   1      45.956  31.622  31.137  1.00  0.00     0.029 A 
ATOM     58  N   UNL A   1      43.780  31.549  30.674  1.00  0.00    -0.354 N 
ATOM     59  N   UNL A   1      41.074  32.667  30.447  1.00  0.00    -0.248 NA
ATOM     60  C   UNL A   1      39.567  34.426  30.765  1.00  0.00     0.031 C 
ATOM     61  C   UNL A   1      45.389  32.854  31.478  1.00  0.00     0.029 A 
ATOM     62  C   UNL A   1      44.038  32.814  31.171  1.00  0.00     0.049 A 
ATOM     63  H   UNL A   1      42.899  31.226  30.378  1.00  0.00     0.167 HD
ATOM     64  C   UNL A   1      41.748  33.752  30.994  1.00  0.00     0.074 A 
ATOM     65  C   UNL A   1      40.776  34.813  31.155  1.00  0.00     0.031 C 
ATOM     66  C   UNL A   1      43.057  33.857  31.327  1.00  0.00     0.031 A 
BRANCH  53  67
ATOM     67  C   UNL A   1      46.382  28.762  30.294  1.00  0.00    -0.014 A 
ATOM     68  C   UNL A   1      47.294  28.846  29.228  1.00  0.00     0.010 A 
ATOM     69  C   UNL A   1      46.757  28.090  31.471  1.00  0.00     0.010 A 
ATOM     70  C   UNL A   1      48.556  28.256  29.331  1.00  0.00     0.020 A 
ATOM     71  C   UNL A   1      48.025  27.516  31.587  1.00  0.00     0.020 A 
ATOM     72  C   UNL A   1      48.915  27.600  30.513  1.00  0.00     0.054 A 
BRANCH  72  73
ATOM     73  S   UNL A   1      50.574  26.876  30.626  1.00  0.00     0.124 S 
ATOM     74  O   UNL A   1      50.891  26.618  29.223  1.00  0.00    -0.237 OA
ATOM     75  O   UNL A   1      51.342  27.946  31.257  1.00  0.00    -0.237 OA
ATOM     76  O   UNL A   1      50.378  25.682  31.445  1.00  0.00    -0.744 OA
ENDBRANCH  72  73
ENDBRANCH  53  67
BRANCH  54  77
ATOM     77  C   UNL A   1      37.316  32.905  29.640  1.00  0.00    -0.014 A 
ATOM     78  C   UNL A   1      36.501  33.018  30.780  1.00  0.00     0.010 A 
ATOM     79  C   UNL A   1      36.865  33.431  28.416  1.00  0.00     0.010 A 
ATOM     80  C   UNL A   1      35.259  33.653  30.698  1.00  0.00     0.020 A 
ATOM     81  C   UNL A   1      35.631  34.082  28.335  1.00  0.00     0.020 A 
ATOM     82  C   UNL A   1      34.837  34.192  29.478  1.00  0.00     0.054 A 
BRANCH  82  83
ATOM     83  S   UNL A   1      33.250  35.071  29.421  1.00  0.00     0.124 S 
ATOM     84  O   UNL A   1      33.659  36.419  29.039  1.00  0.00    -0.237 OA
ATOM     85  O   UNL A   1      32.521  34.319  28.403  1.00  0.00    -0.237 OA
ATOM     86  O   UNL A   1      32.733  34.936  30.780  1.00  0.00    -0.744 OA
ENDBRANCH  82  83
ENDBRANCH  54  77
BRANCH  66  87
ATOM     87  C   UNL A   1      43.537  35.166  31.889  1.00  0.00    -0.014 A 
ATOM     88  C   UNL A   1      43.987  36.190  31.039  1.00  0.00     0.010 A 
ATOM     89  C   UNL A   1      43.418  35.413  33.269  1.00  0.00     0.010 A 
ATOM     90  C   UNL A   1      44.311  37.444  31.562  1.00  0.00     0.020 A 
ATOM     91  C   UNL A   1      43.724  36.671  33.792  1.00  0.00     0.020 A 
ATOM     92  C   UNL A   1      44.166  37.680  32.933  1.00  0.00     0.054 A 
BRANCH  92  93
ATOM     93  S   UNL A   1      44.527  39.341  33.568  1.00  0.00     0.124 S 
ATOM     94  O   UNL A   1      44.402  40.163  32.367  1.00  0.00    -0.237 OA
ATOM     95  O   UNL A   1      43.481  39.528  34.570  1.00  0.00    -0.237 OA
ATOM     96  O   UNL A   1      45.883  39.224  34.102  1.00  0.00    -0.744 OA
ENDBRANCH  92  93
ENDBRANCH  66  87
ENDBRANCH  40  41
ENDBRANCH  32  35
ENDBRANCH  30  31
ENDBRANCH  29  30
ENDBRANCH   1  29
TORSDOF 19
ENDMDL
MODEL 3
REMARK VINA RESULT:     -11.6      1.938      2.747
REMARK SMILES Cc1cc(OC(F)(F)F)cc2c1O[C@H](C(F)(F)F)C(C(=O)NCCCCCCNC(=O)c1ccc(-c3c4nc(c(-c5ccc(S(=O)(=O)[O-])cc5)c5ccc([nH]5)c(-c5ccc(S(=O)(=O)[O-])cc5)c5nc(c(-c6ccc(S(=O)(=O)[O-])cc6)c6ccc3[nH]6)C=C5)C=C4)cc1)=C2
REMARK SMILES IDX 26 1 25 2 24 3 23 4 22 5 20 6 21 7 19 9 1 10 2 11 3 12 12 13
REMARK SMILES IDX 4 14 11 15 13 16 10 17 92 18 14 19 5 20 6 21 7 22 8 23 9 24
REMARK SMILES IDX 15 25 16 26 17 27 18 28 27 29 28 30 29 31 30 32 31 34 32 35
REMARK SMILES IDX 33 36 91 37 34 38 90 39 35 40 36 41 37 42 84 43 38 44 89 45
REMARK SMILES IDX 83 46 85 47 39 48 88 49 82 50 81 51 40 53 70 54 51 55 69 56
REMARK SMILES IDX 52 57 55 58 68 59 86 60 53 61 54 62 67 64 87 65 56 66 41 67
REMARK SMILES IDX 42 68 50 69 43 70 49 71 44 72 45 73 46 74 47 75 48 76 71 77
REMARK SMILES IDX 72 78 80 79 73 80 79 81 74 82 75 83 76 84 77 85 78 86 57 87
REMARK SMILES IDX 58 88 66 89 59 90 65 91 60 92 61 93 62 94 63 95 64 96
REMARK H PARENT 22 8 29 33 85 52 55 63
REMARK Flexibility Score: inf
ROOT
ATOM      1  C   UNL A   1      32.858  29.011  24.601  1.00  0.00     0.002 C 
ENDROOT
BRANCH   1   2
ATOM      2  C   UNL A   1      31.359  29.214  24.342  1.00  0.00     0.002 C 
BRANCH   2   3
ATOM      3  C   UNL A   1      30.899  28.939  22.906  1.00  0.00     0.021 C 
BRANCH   3   4
ATOM      4  C   UNL A   1      30.624  27.465  22.622  1.00  0.00     0.116 C 
BRANCH   4   5
ATOM      5  N   UNL A   1      31.636  26.886  21.755  1.00  0.00    -0.352 N 
ATOM      6  C   UNL A   1      32.596  25.938  21.845  1.00  0.00     0.251 C 
ATOM      7  O   UNL A   1      33.243  25.749  20.808  1.00  0.00    -0.270 OA
ATOM      8  H   UNL A   1      31.618  27.296  20.860  1.00  0.00     0.163 HD
BRANCH   6   9
ATOM      9  C   UNL A   1      32.915  25.139  23.066  1.00  0.00     0.067 C 
ATOM     10  C   UNL A   1      33.071  22.874  27.678  1.00  0.00     0.048 C 
ATOM     11  C   UNL A   1      34.026  23.023  26.527  1.00  0.00    -0.005 A 
ATOM     12  C   UNL A   1      35.306  22.452  26.600  1.00  0.00     0.054 A 
ATOM     13  C   UNL A   1      33.681  23.769  25.394  1.00  0.00     0.131 A 
ATOM     14  C   UNL A   1      36.218  22.610  25.554  1.00  0.00     0.130 A 
ATOM     15  C   UNL A   1      34.579  23.933  24.339  1.00  0.00     0.021 A 
ATOM     16  O   UNL A   1      32.455  24.370  25.395  1.00  0.00    -0.475 OA
ATOM     17  C   UNL A   1      35.845  23.347  24.423  1.00  0.00     0.058 A 
ATOM     18  C   UNL A   1      34.196  24.744  23.189  1.00  0.00     0.025 C 
ATOM     19  C   UNL A   1      31.905  24.734  24.103  1.00  0.00     0.314 C 
BRANCH  14  20
ATOM     20  O   UNL A   1      37.488  22.110  25.509  1.00  0.00    -0.406 OA
BRANCH  20  21
ATOM     21  C   UNL A   1      38.537  22.929  25.998  1.00  0.00     0.573 C 
ATOM     22  F   UNL A   1      38.380  24.211  25.604  1.00  0.00    -0.132 F 
ATOM     23  F   UNL A   1      38.612  22.874  27.345  1.00  0.00    -0.132 F 
ATOM     24  F   UNL A   1      39.708  22.479  25.494  1.00  0.00    -0.132 F 
ENDBRANCH  20  21
ENDBRANCH  14  20
BRANCH  19  25
ATOM     25  C   UNL A   1      30.969  23.613  23.615  1.00  0.00     0.429 C 
ATOM     26  F   UNL A   1      29.909  24.133  22.951  1.00  0.00    -0.167 F 
ATOM     27  F   UNL A   1      31.581  22.765  22.756  1.00  0.00    -0.167 F 
ATOM     28  F   UNL A   1      30.487  22.862  24.632  1.00  0.00    -0.167 F 
ENDBRANCH  19  25
ENDBRANCH   6   9
ENDBRANCH   4   5
ENDBRANCH   3   4
ENDBRANCH   2   3
ENDBRANCH   1   2
BRANCH   1  29
ATOM     29  C   UNL A   1      33.212  27.840  25.524  1.00  0.00     0.021 C 
BRANCH  29  30
ATOM     30  C   UNL A   1      33.961  28.239  26.790  1.00  0.00     0.116 C 
BRANCH  30  31
ATOM     31  N   UNL A   1      33.741  29.637  27.121  1.00  0.00    -0.352 N 
ATOM     32  C   UNL A   1      34.531  30.475  27.864  1.00  0.00     0.251 C 
ATOM     33  H   UNL A   1      32.913  30.034  26.765  1.00  0.00     0.163 HD
ATOM     34  O   UNL A   1      34.098  31.557  28.252  1.00  0.00    -0.269 OA
BRANCH  32  35
ATOM     35  C   UNL A   1      35.907  30.061  28.196  1.00  0.00     0.039 A 
ATOM     36  C   UNL A   1      36.904  30.167  27.224  1.00  0.00     0.014 A 
ATOM     37  C   UNL A   1      36.201  29.557  29.469  1.00  0.00     0.014 A 
ATOM     38  C   UNL A   1      38.212  29.799  27.540  1.00  0.00     0.010 A 
ATOM     39  C   UNL A   1      37.514  29.234  29.795  1.00  0.00     0.010 A 
ATOM     40  C   UNL A   1      38.526  29.341  28.829  1.00  0.00    -0.014 A 
BRANCH  40  41
ATOM     41  C   UNL A   1      39.904  28.919  29.173  1.00  0.00     0.031 A 
ATOM     42  C   UNL A   1      40.813  29.875  29.891  1.00  0.00     0.074 A 
ATOM     43  C   UNL A   1      40.344  27.699  28.810  1.00  0.00     0.049 A 
ATOM     44  N   UNL A   1      42.062  29.712  30.243  1.00  0.00    -0.248 NA
ATOM     45  C   UNL A   1      40.253  31.190  30.247  1.00  0.00     0.031 C 
ATOM     46  C   UNL A   1      39.557  26.693  28.094  1.00  0.00     0.029 A 
ATOM     47  N   UNL A   1      41.564  27.101  28.992  1.00  0.00    -0.354 N 
ATOM     48  C   UNL A   1      42.437  30.901  30.855  1.00  0.00     0.074 A 
ATOM     49  C   UNL A   1      41.299  31.791  30.793  1.00  0.00     0.031 C 
ATOM     50  C   UNL A   1      40.309  25.595  27.916  1.00  0.00     0.029 A 
ATOM     51  C   UNL A   1      41.637  25.828  28.478  1.00  0.00     0.049 A 
ATOM     52  H   UNL A   1      42.318  27.541  29.448  1.00  0.00     0.167 HD
ATOM     53  C   UNL A   1      43.618  31.214  31.435  1.00  0.00     0.031 A 
ATOM     54  C   UNL A   1      42.657  24.949  28.461  1.00  0.00     0.031 A 
ATOM     55  C   UNL A   1      44.741  30.322  31.511  1.00  0.00     0.049 A 
ATOM     56  C   UNL A   1      43.966  25.326  29.095  1.00  0.00     0.074 A 
ATOM     57  C   UNL A   1      45.967  30.537  32.117  1.00  0.00     0.029 A 
ATOM     58  N   UNL A   1      44.776  29.048  30.970  1.00  0.00    -0.354 N 
ATOM     59  N   UNL A   1      44.292  26.445  29.697  1.00  0.00    -0.248 NA
ATOM     60  C   UNL A   1      45.042  24.325  29.055  1.00  0.00     0.031 C 
ATOM     61  C   UNL A   1      46.758  29.403  31.909  1.00  0.00     0.029 A 
ATOM     62  C   UNL A   1      46.009  28.468  31.212  1.00  0.00     0.049 A 
ATOM     63  H   UNL A   1      44.035  28.619  30.484  1.00  0.00     0.167 HD
ATOM     64  C   UNL A   1      45.604  26.276  30.123  1.00  0.00     0.074 A 
ATOM     65  C   UNL A   1      46.011  24.947  29.714  1.00  0.00     0.031 C 
ATOM     66  C   UNL A   1      46.397  27.145  30.796  1.00  0.00     0.031 A 
BRANCH  53  67
ATOM     67  C   UNL A   1      43.756  32.581  32.045  1.00  0.00    -0.014 A 
ATOM     68  C   UNL A   1      43.451  32.795  33.401  1.00  0.00     0.010 A 
ATOM     69  C   UNL A   1      44.258  33.645  31.275  1.00  0.00     0.010 A 
ATOM     70  C   UNL A   1      43.631  34.056  33.973  1.00  0.00     0.020 A 
ATOM     71  C   UNL A   1      44.459  34.903  31.848  1.00  0.00     0.020 A 
ATOM     72  C   UNL A   1      44.140  35.100  33.194  1.00  0.00     0.054 A 
BRANCH  72  73
ATOM     73  S   UNL A   1      44.395  36.715  33.978  1.00  0.00     0.124 S 
ATOM     74  O   UNL A   1      43.322  37.514  33.388  1.00  0.00    -0.237 OA
ATOM     75  O   UNL A   1      44.239  36.405  35.396  1.00  0.00    -0.237 OA
ATOM     76  O   UNL A   1      45.744  37.094  33.567  1.00  0.00    -0.744 OA
ENDBRANCH  72  73
ENDBRANCH  53  67
BRANCH  54  77
ATOM     77  C   UNL A   1      42.461  23.614  27.838  1.00  0.00    -0.014 A 
ATOM     78  C   UNL A   1      42.967  23.350  26.554  1.00  0.00     0.010 A 
ATOM     79  C   UNL A   1      41.816  22.585  28.550  1.00  0.00     0.010 A 
ATOM     80  C   UNL A   1      42.838  22.076  25.993  1.00  0.00     0.020 A 
ATOM     81  C   UNL A   1      41.701  21.306  27.998  1.00  0.00     0.020 A 
ATOM     82  C   UNL A   1      42.216  21.059  26.724  1.00  0.00     0.054 A 
BRANCH  82  83
ATOM     83  S   UNL A   1      42.126  19.399  25.996  1.00  0.00     0.124 S 
ATOM     84  O   UNL A   1      42.636  18.561  27.077  1.00  0.00    -0.237 OA
ATOM     85  O   UNL A   1      40.699  19.267  25.712  1.00  0.00    -0.237 OA
ATOM     86  O   UNL A   1      42.986  19.492  24.818  1.00  0.00    -0.744 OA
ENDBRANCH  82  83
ENDBRANCH  54  77
BRANCH  66  87
ATOM     87  C   UNL A   1      47.786  26.697  31.155  1.00  0.00    -0.014 A 
ATOM     88  C   UNL A   1      48.889  27.086  30.376  1.00  0.00     0.010 A 
ATOM     89  C   UNL A   1      47.998  25.985  32.350  1.00  0.00     0.010 A 
ATOM     90  C   UNL A   1      50.185  26.769  30.789  1.00  0.00     0.020 A 
ATOM     91  C   UNL A   1      49.293  25.683  32.774  1.00  0.00     0.020 A 
ATOM     92  C   UNL A   1      50.379  26.080  31.991  1.00  0.00     0.054 A 
BRANCH  92  93
ATOM     93  S   UNL A   1      52.078  25.748  32.533  1.00  0.00     0.124 S 
ATOM     94  O   UNL A   1      52.419  26.976  33.248  1.00  0.00    -0.237 OA
ATOM     95  O   UNL A   1      51.915  24.559  33.366  1.00  0.00    -0.237 OA
ATOM     96  O   UNL A   1      52.808  25.535  31.285  1.00  0.00    -0.744 OA
ENDBRANCH  92  93
ENDBRANCH  66  87
ENDBRANCH  40  41
ENDBRANCH  32  35
ENDBRANCH  30  31
ENDBRANCH  29  30
ENDBRANCH   1  29
TORSDOF 19
ENDMDL
