MODEL 1
REMARK VINA RESULT:     -11.2      0.000      0.000
REMARK SMILES CN(C)C(=O)CCNC(=O)NC[C@H]1CC[C@@H](C(=O)NCCCCCCNC(=O)c2ccc(-c3c4nc(c(-c5ccc(S(=O)(=O)[O-])cc5)c5ccc([nH]5)c(-c5ccc(S(=O)(=O)[O-])cc5)c5nc(c(-c6ccc(S(=O)(=O)[O-])cc6)c6ccc3[nH]6)C=C5)C=C4)cc2)CC1
REMARK SMILES IDX 21 1 20 2 19 3 17 4 18 5 16 7 13 8 14 9 90 10 15 11 89 12
REMARK SMILES IDX 12 13 11 14 8 15 9 16 10 18 7 20 6 21 4 22 1 23 2 24 3 25
REMARK SMILES IDX 5 26 22 27 23 28 24 29 25 30 26 31 27 32 28 34 29 35 30 36
REMARK SMILES IDX 88 37 31 38 87 39 32 40 33 41 34 42 81 43 35 44 86 45 80 46
REMARK SMILES IDX 82 47 36 48 85 49 79 50 78 51 37 53 67 54 48 55 66 56 49 57
REMARK SMILES IDX 52 58 65 59 83 60 50 61 51 62 64 64 84 65 53 66 38 67 39 68
REMARK SMILES IDX 47 69 40 70 46 71 41 72 42 73 43 74 44 75 45 76 68 77 69 78
REMARK SMILES IDX 77 79 70 80 76 81 71 82 72 83 73 84 74 85 75 86 54 87 55 88
REMARK SMILES IDX 63 89 56 90 62 91 57 92 58 93 59 94 60 95 61 96
REMARK H PARENT 19 6 8 17 11 19 26 33 82 52 52 63
REMARK Flexibility Score: inf
ROOT
ATOM      1  C   UNL A   1      34.906  20.353  24.826  1.00  0.00     0.021 C 
ENDROOT
BRANCH   1   2
ATOM      2  C   UNL A   1      33.616  20.138  25.628  1.00  0.00     0.116 C 
BRANCH   2   3
ATOM      3  N   UNL A   1      33.574  20.875  26.876  1.00  0.00    -0.356 N 
ATOM      4  C   UNL A   1      32.885  21.975  27.273  1.00  0.00     0.223 C 
ATOM      5  O   UNL A   1      33.014  22.281  28.468  1.00  0.00    -0.275 OA
ATOM      6  H   UNL A   1      34.161  20.505  27.573  1.00  0.00     0.163 HD
BRANCH   4   7
ATOM      7  C   UNL A   1      31.968  22.836  26.385  1.00  0.00     0.078 C 
ATOM      8  C   UNL A   1      32.362  24.219  23.746  1.00  0.00     0.008 C 
ATOM      9  C   UNL A   1      32.280  22.690  23.824  1.00  0.00     0.006 C 
ATOM     10  C   UNL A   1      32.931  24.839  25.033  1.00  0.00     0.006 C 
ATOM     11  C   UNL A   1      31.547  22.194  25.062  1.00  0.00     0.014 C 
ATOM     12  C   UNL A   1      32.271  24.334  26.314  1.00  0.00     0.014 C 
BRANCH   8  13
ATOM     13  C   UNL A   1      33.075  24.669  22.444  1.00  0.00     0.121 C 
BRANCH  13  14
ATOM     14  N   UNL A   1      33.601  26.020  22.450  1.00  0.00    -0.338 N 
ATOM     15  N   UNL A   1      31.725  27.258  21.817  1.00  0.00    -0.338 N 
ATOM     16  C   UNL A   1      33.058  27.159  21.998  1.00  0.00     0.314 C 
ATOM     17  H   UNL A   1      31.412  27.436  20.900  1.00  0.00     0.165 HD
ATOM     18  O   UNL A   1      33.818  28.063  21.643  1.00  0.00    -0.249 OA
ATOM     19  H   UNL A   1      34.496  26.115  22.848  1.00  0.00     0.165 HD
BRANCH  15  20
ATOM     20  C   UNL A   1      30.705  27.125  22.849  1.00  0.00     0.127 C 
BRANCH  20  21
ATOM     21  C   UNL A   1      30.299  28.503  23.398  1.00  0.00     0.121 C 
BRANCH  21  22
ATOM     22  C   UNL A   1      29.842  29.470  22.307  1.00  0.00     0.223 C 
ATOM     23  C   UNL A   1      28.038  30.537  21.028  1.00  0.00     0.146 C 
ATOM     24  N   UNL A   1      28.491  29.772  22.184  1.00  0.00    -0.349 N 
ATOM     25  C   UNL A   1      27.427  29.387  23.098  1.00  0.00     0.146 C 
ATOM     26  O   UNL A   1      30.672  29.922  21.511  1.00  0.00    -0.275 OA
ENDBRANCH  21  22
ENDBRANCH  20  21
ENDBRANCH  15  20
ENDBRANCH  13  14
ENDBRANCH   8  13
ENDBRANCH   4   7
ENDBRANCH   2   3
ENDBRANCH   1   2
BRANCH   1  27
ATOM     27  C   UNL A   1      35.510  21.772  24.813  1.00  0.00     0.002 C 
BRANCH  27  28
ATOM     28  C   UNL A   1      37.010  21.963  25.095  1.00  0.00     0.002 C 
BRANCH  28  29
ATOM     29  C   UNL A   1      37.436  22.811  26.295  1.00  0.00     0.021 C 
BRANCH  29  30
ATOM     30  C   UNL A   1      38.160  24.133  26.060  1.00  0.00     0.116 C 
BRANCH  30  31
ATOM     31  N   UNL A   1      39.603  23.961  26.010  1.00  0.00    -0.352 N 
ATOM     32  C   UNL A   1      40.646  24.669  26.569  1.00  0.00     0.251 C 
ATOM     33  H   UNL A   1      39.892  23.188  25.473  1.00  0.00     0.163 HD
ATOM     34  O   UNL A   1      41.775  24.443  26.157  1.00  0.00    -0.269 OA
BRANCH  32  35
ATOM     35  C   UNL A   1      40.462  25.717  27.618  1.00  0.00     0.039 A 
ATOM     36  C   UNL A   1      41.369  26.791  27.637  1.00  0.00     0.014 A 
ATOM     37  C   UNL A   1      39.503  25.641  28.629  1.00  0.00     0.014 A 
ATOM     38  C   UNL A   1      41.291  27.787  28.621  1.00  0.00     0.010 A 
ATOM     39  C   UNL A   1      39.386  26.668  29.578  1.00  0.00     0.010 A 
ATOM     40  C   UNL A   1      40.290  27.742  29.601  1.00  0.00    -0.014 A 
BRANCH  40  41
ATOM     41  C   UNL A   1      40.230  28.763  30.690  1.00  0.00     0.031 A 
ATOM     42  C   UNL A   1      41.137  28.641  31.892  1.00  0.00     0.074 A 
ATOM     43  C   UNL A   1      39.353  29.786  30.627  1.00  0.00     0.049 A 
ATOM     44  N   UNL A   1      41.208  29.399  32.957  1.00  0.00    -0.248 NA
ATOM     45  C   UNL A   1      42.073  27.505  31.904  1.00  0.00     0.031 C 
ATOM     46  C   UNL A   1      38.404  30.024  29.538  1.00  0.00     0.029 A 
ATOM     47  N   UNL A   1      39.110  30.817  31.506  1.00  0.00    -0.354 N 
ATOM     48  C   UNL A   1      42.175  28.821  33.774  1.00  0.00     0.074 A 
ATOM     49  C   UNL A   1      42.630  27.624  33.100  1.00  0.00     0.031 C 
ATOM     50  C   UNL A   1      37.696  31.134  29.805  1.00  0.00     0.029 A 
ATOM     51  C   UNL A   1      38.109  31.669  31.101  1.00  0.00     0.049 A 
ATOM     52  H   UNL A   1      39.608  30.933  32.347  1.00  0.00     0.167 HD
ATOM     53  C   UNL A   1      42.656  29.248  34.968  1.00  0.00     0.031 A 
ATOM     54  C   UNL A   1      37.572  32.751  31.703  1.00  0.00     0.031 A 
ATOM     55  C   UNL A   1      42.217  30.446  35.634  1.00  0.00     0.049 A 
ATOM     56  C   UNL A   1      38.108  33.199  33.038  1.00  0.00     0.074 A 
ATOM     57  C   UNL A   1      42.689  30.993  36.815  1.00  0.00     0.029 A 
ATOM     58  N   UNL A   1      41.201  31.276  35.188  1.00  0.00    -0.354 N 
ATOM     59  N   UNL A   1      39.071  32.674  33.758  1.00  0.00    -0.248 NA
ATOM     60  C   UNL A   1      37.493  34.394  33.635  1.00  0.00     0.031 C 
ATOM     61  C   UNL A   1      41.916  32.120  37.116  1.00  0.00     0.029 A 
ATOM     62  C   UNL A   1      41.009  32.313  36.087  1.00  0.00     0.049 A 
ATOM     63  H   UNL A   1      40.692  31.149  34.355  1.00  0.00     0.167 HD
ATOM     64  C   UNL A   1      39.190  33.487  34.882  1.00  0.00     0.074 A 
ATOM     65  C   UNL A   1      38.217  34.549  34.737  1.00  0.00     0.031 C 
ATOM     66  C   UNL A   1      40.031  33.363  35.939  1.00  0.00     0.031 A 
BRANCH  53  67
ATOM     67  C   UNL A   1      43.705  28.400  35.643  1.00  0.00    -0.014 A 
ATOM     68  C   UNL A   1      45.077  28.642  35.454  1.00  0.00     0.010 A 
ATOM     69  C   UNL A   1      43.309  27.364  36.511  1.00  0.00     0.010 A 
ATOM     70  C   UNL A   1      46.033  27.835  36.078  1.00  0.00     0.020 A 
ATOM     71  C   UNL A   1      44.261  26.575  37.162  1.00  0.00     0.020 A 
ATOM     72  C   UNL A   1      45.617  26.802  36.925  1.00  0.00     0.054 A 
BRANCH  72  73
ATOM     73  S   UNL A   1      46.880  25.779  37.731  1.00  0.00     0.124 S 
ATOM     74  O   UNL A   1      46.878  24.583  36.891  1.00  0.00    -0.237 OA
ATOM     75  O   UNL A   1      48.076  26.611  37.635  1.00  0.00    -0.237 OA
ATOM     76  O   UNL A   1      46.362  25.589  39.084  1.00  0.00    -0.744 OA
ENDBRANCH  72  73
ENDBRANCH  53  67
BRANCH  54  77
ATOM     77  C   UNL A   1      36.456  33.488  31.047  1.00  0.00    -0.014 A 
ATOM     78  C   UNL A   1      36.526  33.844  29.688  1.00  0.00     0.010 A 
ATOM     79  C   UNL A   1      35.304  33.831  31.781  1.00  0.00     0.010 A 
ATOM     80  C   UNL A   1      35.474  34.537  29.080  1.00  0.00     0.020 A 
ATOM     81  C   UNL A   1      34.239  34.497  31.169  1.00  0.00     0.020 A 
ATOM     82  C   UNL A   1      34.334  34.853  29.823  1.00  0.00     0.054 A 
BRANCH  82  83
ATOM     83  S   UNL A   1      32.954  35.693  28.996  1.00  0.00     0.124 S 
ATOM     84  O   UNL A   1      33.636  36.765  28.278  1.00  0.00    -0.237 OA
ATOM     85  O   UNL A   1      32.392  34.631  28.166  1.00  0.00    -0.237 OA
ATOM     86  O   UNL A   1      32.104  36.123  30.104  1.00  0.00    -0.744 OA
ENDBRANCH  82  83
ENDBRANCH  54  77
BRANCH  66  87
ATOM     87  C   UNL A   1      39.961  34.414  37.017  1.00  0.00    -0.014 A 
ATOM     88  C   UNL A   1      40.642  35.638  36.889  1.00  0.00     0.010 A 
ATOM     89  C   UNL A   1      39.149  34.200  38.147  1.00  0.00     0.010 A 
ATOM     90  C   UNL A   1      40.536  36.614  37.885  1.00  0.00     0.020 A 
ATOM     91  C   UNL A   1      39.015  35.184  39.129  1.00  0.00     0.020 A 
ATOM     92  C   UNL A   1      39.722  36.382  38.998  1.00  0.00     0.054 A 
BRANCH  92  93
ATOM     93  S   UNL A   1      39.564  37.683  40.251  1.00  0.00     0.124 S 
ATOM     94  O   UNL A   1      40.939  38.162  40.367  1.00  0.00    -0.237 OA
ATOM     95  O   UNL A   1      38.626  38.614  39.629  1.00  0.00    -0.237 OA
ATOM     96  O   UNL A   1      39.049  36.978  41.422  1.00  0.00    -0.744 OA
ENDBRANCH  92  93
ENDBRANCH  66  87
ENDBRANCH  40  41
ENDBRANCH  32  35
ENDBRANCH  30  31
ENDBRANCH  29  30
ENDBRANCH  28  29
ENDBRANCH  27  28
ENDBRANCH   1  27
TORSDOF 21
ENDMDL
MODEL 2
REMARK VINA RESULT:     -10.9      2.201      3.455
REMARK SMILES CN(C)C(=O)CCNC(=O)NC[C@H]1CC[C@@H](C(=O)NCCCCCCNC(=O)c2ccc(-c3c4nc(c(-c5ccc(S(=O)(=O)[O-])cc5)c5ccc([nH]5)c(-c5ccc(S(=O)(=O)[O-])cc5)c5nc(c(-c6ccc(S(=O)(=O)[O-])cc6)c6ccc3[nH]6)C=C5)C=C4)cc2)CC1
REMARK SMILES IDX 21 1 20 2 19 3 17 4 18 5 16 7 13 8 14 9 90 10 15 11 89 12
REMARK SMILES IDX 12 13 11 14 8 15 9 16 10 18 7 20 6 21 4 22 1 23 2 24 3 25
REMARK SMILES IDX 5 26 22 27 23 28 24 29 25 30 26 31 27 32 28 34 29 35 30 36
REMARK SMILES IDX 88 37 31 38 87 39 32 40 33 41 34 42 81 43 35 44 86 45 80 46
REMARK SMILES IDX 82 47 36 48 85 49 79 50 78 51 37 53 67 54 48 55 66 56 49 57
REMARK SMILES IDX 52 58 65 59 83 60 50 61 51 62 64 64 84 65 53 66 38 67 39 68
REMARK SMILES IDX 47 69 40 70 46 71 41 72 42 73 43 74 44 75 45 76 68 77 69 78
REMARK SMILES IDX 77 79 70 80 76 81 71 82 72 83 73 84 74 85 75 86 54 87 55 88
REMARK SMILES IDX 63 89 56 90 62 91 57 92 58 93 59 94 60 95 61 96
REMARK H PARENT 19 6 8 17 11 19 26 33 82 52 52 63
REMARK Flexibility Score: inf
ROOT
ATOM      1  C   UNL A   1      41.213  19.916  26.614  1.00  0.00     0.021 C 
ENDROOT
BRANCH   1   2
ATOM      2  C   UNL A   1      39.902  20.221  25.876  1.00  0.00     0.116 C 
BRANCH   2   3
ATOM      3  N   UNL A   1      39.399  21.562  26.108  1.00  0.00    -0.356 N 
ATOM      4  C   UNL A   1      38.317  22.233  25.642  1.00  0.00     0.223 C 
ATOM      5  O   UNL A   1      38.130  23.353  26.139  1.00  0.00    -0.275 OA
ATOM      6  H   UNL A   1      39.953  22.089  26.727  1.00  0.00     0.163 HD
BRANCH   4   7
ATOM      7  C   UNL A   1      37.319  21.718  24.587  1.00  0.00     0.078 C 
ATOM      8  C   UNL A   1      34.343  21.977  24.266  1.00  0.00     0.008 C 
ATOM      9  C   UNL A   1      35.261  23.185  24.051  1.00  0.00     0.006 C 
ATOM     10  C   UNL A   1      34.923  20.975  25.277  1.00  0.00     0.006 C 
ATOM     11  C   UNL A   1      36.690  22.794  23.702  1.00  0.00     0.014 C 
ATOM     12  C   UNL A   1      36.377  20.589  25.010  1.00  0.00     0.014 C 
BRANCH   8  13
ATOM     13  C   UNL A   1      32.892  22.433  24.571  1.00  0.00     0.121 C 
BRANCH  13  14
ATOM     14  N   UNL A   1      32.426  22.185  25.921  1.00  0.00    -0.338 N 
ATOM     15  N   UNL A   1      31.919  24.345  26.649  1.00  0.00    -0.338 N 
ATOM     16  C   UNL A   1      32.163  23.045  26.915  1.00  0.00     0.314 C 
ATOM     17  H   UNL A   1      32.542  25.003  27.036  1.00  0.00     0.165 HD
ATOM     18  O   UNL A   1      32.267  22.641  28.075  1.00  0.00    -0.249 OA
ATOM     19  H   UNL A   1      32.282  21.237  26.142  1.00  0.00     0.165 HD
BRANCH  15  20
ATOM     20  C   UNL A   1      30.823  24.867  25.842  1.00  0.00     0.127 C 
BRANCH  20  21
ATOM     21  C   UNL A   1      31.079  26.332  25.454  1.00  0.00     0.121 C 
BRANCH  21  22
ATOM     22  C   UNL A   1      32.482  26.812  25.822  1.00  0.00     0.223 C 
ATOM     23  C   UNL A   1      33.953  28.377  27.011  1.00  0.00     0.146 C 
ATOM     24  N   UNL A   1      32.636  27.785  26.801  1.00  0.00    -0.349 N 
ATOM     25  C   UNL A   1      31.597  28.321  27.667  1.00  0.00     0.146 C 
ATOM     26  O   UNL A   1      33.456  26.372  25.201  1.00  0.00    -0.275 OA
ENDBRANCH  21  22
ENDBRANCH  20  21
ENDBRANCH  15  20
ENDBRANCH  13  14
ENDBRANCH   8  13
ENDBRANCH   4   7
ENDBRANCH   2   3
ENDBRANCH   1   2
BRANCH   1  27
ATOM     27  C   UNL A   1      42.501  20.572  26.078  1.00  0.00     0.002 C 
BRANCH  27  28
ATOM     28  C   UNL A   1      42.817  22.034  26.438  1.00  0.00     0.002 C 
BRANCH  28  29
ATOM     29  C   UNL A   1      42.443  22.552  27.827  1.00  0.00     0.021 C 
BRANCH  29  30
ATOM     30  C   UNL A   1      41.291  23.541  27.974  1.00  0.00     0.116 C 
BRANCH  30  31
ATOM     31  N   UNL A   1      41.232  24.476  26.861  1.00  0.00    -0.352 N 
ATOM     32  C   UNL A   1      40.893  25.810  26.781  1.00  0.00     0.251 C 
ATOM     33  H   UNL A   1      41.483  24.078  25.996  1.00  0.00     0.163 HD
ATOM     34  O   UNL A   1      40.693  26.283  25.671  1.00  0.00    -0.269 OA
BRANCH  32  35
ATOM     35  C   UNL A   1      40.724  26.690  27.977  1.00  0.00     0.039 A 
ATOM     36  C   UNL A   1      41.681  27.698  28.189  1.00  0.00     0.014 A 
ATOM     37  C   UNL A   1      39.727  26.511  28.936  1.00  0.00     0.014 A 
ATOM     38  C   UNL A   1      41.617  28.531  29.315  1.00  0.00     0.010 A 
ATOM     39  C   UNL A   1      39.627  27.382  30.032  1.00  0.00     0.010 A 
ATOM     40  C   UNL A   1      40.581  28.389  30.248  1.00  0.00    -0.014 A 
BRANCH  40  41
ATOM     41  C   UNL A   1      40.532  29.230  31.482  1.00  0.00     0.031 A 
ATOM     42  C   UNL A   1      41.566  29.042  32.566  1.00  0.00     0.074 A 
ATOM     43  C   UNL A   1      39.556  30.145  31.654  1.00  0.00     0.049 A 
ATOM     44  N   UNL A   1      41.672  29.643  33.725  1.00  0.00    -0.248 NA
ATOM     45  C   UNL A   1      42.607  28.030  32.322  1.00  0.00     0.031 C 
ATOM     46  C   UNL A   1      38.480  30.426  30.701  1.00  0.00     0.029 A 
ATOM     47  N   UNL A   1      39.304  31.005  32.697  1.00  0.00    -0.354 N 
ATOM     48  C   UNL A   1      42.771  29.068  34.356  1.00  0.00     0.074 A 
ATOM     49  C   UNL A   1      43.271  28.039  33.469  1.00  0.00     0.031 C 
ATOM     50  C   UNL A   1      37.697  31.399  31.196  1.00  0.00     0.029 A 
ATOM     51  C   UNL A   1      38.186  31.787  32.518  1.00  0.00     0.049 A 
ATOM     52  H   UNL A   1      39.872  31.056  33.500  1.00  0.00     0.167 HD
ATOM     53  C   UNL A   1      43.327  29.371  35.554  1.00  0.00     0.031 A 
ATOM     54  C   UNL A   1      37.609  32.702  33.323  1.00  0.00     0.031 A 
ATOM     55  C   UNL A   1      42.843  30.404  36.432  1.00  0.00     0.049 A 
ATOM     56  C   UNL A   1      38.233  33.013  34.659  1.00  0.00     0.074 A 
ATOM     57  C   UNL A   1      43.378  30.827  37.637  1.00  0.00     0.029 A 
ATOM     58  N   UNL A   1      41.708  31.168  36.209  1.00  0.00    -0.354 N 
ATOM     59  N   UNL A   1      39.313  32.504  35.203  1.00  0.00    -0.248 NA
ATOM     60  C   UNL A   1      37.567  34.033  35.484  1.00  0.00     0.031 C 
ATOM     61  C   UNL A   1      42.531  31.803  38.174  1.00  0.00     0.029 A 
ATOM     62  C   UNL A   1      41.507  32.037  37.270  1.00  0.00     0.049 A 
ATOM     63  H   UNL A   1      41.131  31.104  35.414  1.00  0.00     0.167 HD
ATOM     64  C   UNL A   1      39.466  33.156  36.423  1.00  0.00     0.074 A 
ATOM     65  C   UNL A   1      38.381  34.110  36.528  1.00  0.00     0.031 C 
ATOM     66  C   UNL A   1      40.420  32.979  37.370  1.00  0.00     0.031 A 
BRANCH  53  67
ATOM     67  C   UNL A   1      44.520  28.561  35.997  1.00  0.00    -0.014 A 
ATOM     68  C   UNL A   1      45.835  29.019  35.795  1.00  0.00     0.010 A 
ATOM     69  C   UNL A   1      44.321  27.335  36.659  1.00  0.00     0.010 A 
ATOM     70  C   UNL A   1      46.926  28.245  36.200  1.00  0.00     0.020 A 
ATOM     71  C   UNL A   1      45.408  26.573  37.095  1.00  0.00     0.020 A 
ATOM     72  C   UNL A   1      46.705  27.023  36.843  1.00  0.00     0.054 A 
BRANCH  72  73
ATOM     73  S   UNL A   1      48.140  26.046  37.369  1.00  0.00     0.124 S 
ATOM     74  O   UNL A   1      47.656  24.679  37.187  1.00  0.00    -0.237 OA
ATOM     75  O   UNL A   1      49.178  26.474  36.435  1.00  0.00    -0.237 OA
ATOM     76  O   UNL A   1      48.348  26.452  38.757  1.00  0.00    -0.744 OA
ENDBRANCH  72  73
ENDBRANCH  53  67
BRANCH  54  77
ATOM     77  C   UNL A   1      36.363  33.394  32.888  1.00  0.00    -0.014 A 
ATOM     78  C   UNL A   1      35.119  33.065  33.457  1.00  0.00     0.010 A 
ATOM     79  C   UNL A   1      36.416  34.399  31.903  1.00  0.00     0.010 A 
ATOM     80  C   UNL A   1      33.954  33.718  33.042  1.00  0.00     0.020 A 
ATOM     81  C   UNL A   1      35.257  35.074  31.508  1.00  0.00     0.020 A 
ATOM     82  C   UNL A   1      34.032  34.723  32.074  1.00  0.00     0.054 A 
BRANCH  82  83
ATOM     83  S   UNL A   1      32.516  35.602  31.601  1.00  0.00     0.124 S 
ATOM     84  O   UNL A   1      32.382  35.243  30.193  1.00  0.00    -0.237 OA
ATOM     85  O   UNL A   1      31.523  35.023  32.502  1.00  0.00    -0.237 OA
ATOM     86  O   UNL A   1      32.840  37.004  31.861  1.00  0.00    -0.744 OA
ENDBRANCH  82  83
ENDBRANCH  54  77
BRANCH  66  87
ATOM     87  C   UNL A   1      40.357  33.850  38.599  1.00  0.00    -0.014 A 
ATOM     88  C   UNL A   1      41.167  34.993  38.726  1.00  0.00     0.010 A 
ATOM     89  C   UNL A   1      39.428  33.556  39.614  1.00  0.00     0.010 A 
ATOM     90  C   UNL A   1      41.069  35.808  39.859  1.00  0.00     0.020 A 
ATOM     91  C   UNL A   1      39.304  34.384  40.732  1.00  0.00     0.020 A 
ATOM     92  C   UNL A   1      40.137  35.499  40.854  1.00  0.00     0.054 A 
BRANCH  92  93
ATOM     93  S   UNL A   1      39.996  36.598  42.290  1.00  0.00     0.124 S 
ATOM     94  O   UNL A   1      41.278  36.390  42.959  1.00  0.00    -0.237 OA
ATOM     95  O   UNL A   1      39.817  37.910  41.672  1.00  0.00    -0.237 OA
ATOM     96  O   UNL A   1      38.830  36.088  43.006  1.00  0.00    -0.744 OA
ENDBRANCH  92  93
ENDBRANCH  66  87
ENDBRANCH  40  41
ENDBRANCH  32  35
ENDBRANCH  30  31
ENDBRANCH  29  30
ENDBRANCH  28  29
ENDBRANCH  27  28
ENDBRANCH   1  27
TORSDOF 21
ENDMDL
MODEL 3
REMARK VINA RESULT:     -10.7      7.489     15.007
REMARK SMILES CN(C)C(=O)CCNC(=O)NC[C@H]1CC[C@@H](C(=O)NCCCCCCNC(=O)c2ccc(-c3c4nc(c(-c5ccc(S(=O)(=O)[O-])cc5)c5ccc([nH]5)c(-c5ccc(S(=O)(=O)[O-])cc5)c5nc(c(-c6ccc(S(=O)(=O)[O-])cc6)c6ccc3[nH]6)C=C5)C=C4)cc2)CC1
REMARK SMILES IDX 21 1 20 2 19 3 17 4 18 5 16 7 13 8 14 9 90 10 15 11 89 12
REMARK SMILES IDX 12 13 11 14 8 15 9 16 10 18 7 20 6 21 4 22 1 23 2 24 3 25
REMARK SMILES IDX 5 26 22 27 23 28 24 29 25 30 26 31 27 32 28 34 29 35 30 36
REMARK SMILES IDX 88 37 31 38 87 39 32 40 33 41 34 42 81 43 35 44 86 45 80 46
REMARK SMILES IDX 82 47 36 48 85 49 79 50 78 51 37 53 67 54 48 55 66 56 49 57
REMARK SMILES IDX 52 58 65 59 83 60 50 61 51 62 64 64 84 65 53 66 38 67 39 68
REMARK SMILES IDX 47 69 40 70 46 71 41 72 42 73 43 74 44 75 45 76 68 77 69 78
REMARK SMILES IDX 77 79 70 80 76 81 71 82 72 83 73 84 74 85 75 86 54 87 55 88
REMARK SMILES IDX 63 89 56 90 62 91 57 92 58 93 59 94 60 95 61 96
REMARK H PARENT 19 6 8 17 11 19 26 33 82 52 52 63
REMARK Flexibility Score: inf
ROOT
ATOM      1  C   UNL A   1      38.546  34.135  30.387  1.00  0.00     0.021 C 
ENDROOT
BRANCH   1   2
ATOM      2  C   UNL A   1      39.839  33.354  30.661  1.00  0.00     0.116 C 
BRANCH   2   3
ATOM      3  N   UNL A   1      40.704  33.982  31.640  1.00  0.00    -0.356 N 
ATOM      4  C   UNL A   1      41.843  34.710  31.529  1.00  0.00     0.223 C 
ATOM      5  O   UNL A   1      42.274  35.191  32.588  1.00  0.00    -0.275 OA
ATOM      6  H   UNL A   1      40.406  33.856  32.569  1.00  0.00     0.163 HD
BRANCH   4   7
ATOM      7  C   UNL A   1      42.611  34.994  30.224  1.00  0.00     0.078 C 
ATOM      8  C   UNL A   1      43.068  37.482  28.601  1.00  0.00     0.008 C 
ATOM      9  C   UNL A   1      43.744  37.302  29.965  1.00  0.00     0.006 C 
ATOM     10  C   UNL A   1      41.723  36.742  28.515  1.00  0.00     0.006 C 
ATOM     11  C   UNL A   1      43.874  35.844  30.380  1.00  0.00     0.014 C 
ATOM     12  C   UNL A   1      41.780  35.286  28.974  1.00  0.00     0.014 C 
BRANCH   8  13
ATOM     13  C   UNL A   1      43.005  38.981  28.208  1.00  0.00     0.121 C 
BRANCH  13  14
ATOM     14  N   UNL A   1      44.059  39.816  28.748  1.00  0.00    -0.338 N 
ATOM     15  N   UNL A   1      42.859  41.689  29.459  1.00  0.00    -0.338 N 
ATOM     16  C   UNL A   1      44.029  41.097  29.142  1.00  0.00     0.314 C 
ATOM     17  H   UNL A   1      42.589  42.464  28.914  1.00  0.00     0.165 HD
ATOM     18  O   UNL A   1      45.076  41.746  29.091  1.00  0.00    -0.249 OA
ATOM     19  H   UNL A   1      44.933  39.374  28.839  1.00  0.00     0.165 HD
BRANCH  15  20
ATOM     20  C   UNL A   1      41.955  41.287  30.530  1.00  0.00     0.127 C 
BRANCH  20  21
ATOM     21  C   UNL A   1      42.528  41.674  31.903  1.00  0.00     0.121 C 
BRANCH  21  22
ATOM     22  C   UNL A   1      42.532  43.182  32.147  1.00  0.00     0.223 C 
ATOM     23  C   UNL A   1      42.148  45.099  33.631  1.00  0.00     0.146 C 
ATOM     24  N   UNL A   1      42.337  43.667  33.434  1.00  0.00    -0.349 N 
ATOM     25  C   UNL A   1      42.278  42.884  34.659  1.00  0.00     0.146 C 
ATOM     26  O   UNL A   1      42.647  43.951  31.187  1.00  0.00    -0.275 OA
ENDBRANCH  21  22
ENDBRANCH  20  21
ENDBRANCH  15  20
ENDBRANCH  13  14
ENDBRANCH   8  13
ENDBRANCH   4   7
ENDBRANCH   2   3
ENDBRANCH   1   2
BRANCH   1  27
ATOM     27  C   UNL A   1      37.724  33.739  29.145  1.00  0.00     0.002 C 
BRANCH  27  28
ATOM     28  C   UNL A   1      36.199  33.942  29.146  1.00  0.00     0.002 C 
BRANCH  28  29
ATOM     29  C   UNL A   1      35.319  32.945  28.389  1.00  0.00     0.021 C 
BRANCH  29  30
ATOM     30  C   UNL A   1      35.518  31.449  28.610  1.00  0.00     0.116 C 
BRANCH  30  31
ATOM     31  N   UNL A   1      35.526  31.106  30.023  1.00  0.00    -0.352 N 
ATOM     32  C   UNL A   1      36.442  30.447  30.817  1.00  0.00     0.251 C 
ATOM     33  H   UNL A   1      34.721  31.400  30.508  1.00  0.00     0.163 HD
ATOM     34  O   UNL A   1      36.076  30.080  31.926  1.00  0.00    -0.269 OA
BRANCH  32  35
ATOM     35  C   UNL A   1      37.835  30.132  30.380  1.00  0.00     0.039 A 
ATOM     36  C   UNL A   1      38.094  30.086  28.999  1.00  0.00     0.014 A 
ATOM     37  C   UNL A   1      38.864  29.793  31.259  1.00  0.00     0.014 A 
ATOM     38  C   UNL A   1      39.364  29.748  28.511  1.00  0.00     0.010 A 
ATOM     39  C   UNL A   1      40.151  29.513  30.774  1.00  0.00     0.010 A 
ATOM     40  C   UNL A   1      40.414  29.466  29.395  1.00  0.00    -0.014 A 
BRANCH  40  41
ATOM     41  C   UNL A   1      41.757  29.047  28.892  1.00  0.00     0.031 A 
ATOM     42  C   UNL A   1      42.870  30.061  28.779  1.00  0.00     0.074 A 
ATOM     43  C   UNL A   1      41.983  27.774  28.510  1.00  0.00     0.049 A 
ATOM     44  N   UNL A   1      44.091  29.906  28.330  1.00  0.00    -0.248 NA
ATOM     45  C   UNL A   1      42.565  31.434  29.212  1.00  0.00     0.031 C 
ATOM     46  C   UNL A   1      41.000  26.690  28.547  1.00  0.00     0.029 A 
ATOM     47  N   UNL A   1      43.115  27.175  28.006  1.00  0.00    -0.354 N 
ATOM     48  C   UNL A   1      44.688  31.161  28.402  1.00  0.00     0.074 A 
ATOM     49  C   UNL A   1      43.681  32.075  28.897  1.00  0.00     0.031 C 
ATOM     50  C   UNL A   1      41.574  25.559  28.102  1.00  0.00     0.029 A 
ATOM     51  C   UNL A   1      42.953  25.841  27.710  1.00  0.00     0.049 A 
ATOM     52  H   UNL A   1      43.962  27.657  27.871  1.00  0.00     0.167 HD
ATOM     53  C   UNL A   1      45.959  31.524  28.101  1.00  0.00     0.031 A 
ATOM     54  C   UNL A   1      43.808  24.945  27.174  1.00  0.00     0.031 A 
ATOM     55  C   UNL A   1      46.968  30.615  27.624  1.00  0.00     0.049 A 
ATOM     56  C   UNL A   1      45.211  25.373  26.829  1.00  0.00     0.074 A 
ATOM     57  C   UNL A   1      48.300  30.878  27.352  1.00  0.00     0.029 A 
ATOM     58  N   UNL A   1      46.759  29.275  27.337  1.00  0.00    -0.354 N 
ATOM     59  N   UNL A   1      45.773  26.550  26.972  1.00  0.00    -0.248 NA
ATOM     60  C   UNL A   1      46.100  24.346  26.264  1.00  0.00     0.031 C 
ATOM     61  C   UNL A   1      48.881  29.712  26.840  1.00  0.00     0.029 A 
ATOM     62  C   UNL A   1      47.928  28.706  26.860  1.00  0.00     0.049 A 
ATOM     63  H   UNL A   1      45.906  28.799  27.457  1.00  0.00     0.167 HD
ATOM     64  C   UNL A   1      47.085  26.399  26.533  1.00  0.00     0.074 A 
ATOM     65  C   UNL A   1      47.240  25.014  26.140  1.00  0.00     0.031 C 
ATOM     66  C   UNL A   1      48.072  27.327  26.463  1.00  0.00     0.031 A 
BRANCH  53  67
ATOM     67  C   UNL A   1      46.328  32.978  28.264  1.00  0.00    -0.014 A 
ATOM     68  C   UNL A   1      46.848  33.472  29.474  1.00  0.00     0.010 A 
ATOM     69  C   UNL A   1      46.185  33.857  27.174  1.00  0.00     0.010 A 
ATOM     70  C   UNL A   1      47.169  34.826  29.607  1.00  0.00     0.020 A 
ATOM     71  C   UNL A   1      46.536  35.205  27.293  1.00  0.00     0.020 A 
ATOM     72  C   UNL A   1      47.006  35.685  28.516  1.00  0.00     0.054 A 
BRANCH  72  73
ATOM     73  S   UNL A   1      47.444  37.434  28.715  1.00  0.00     0.124 S 
ATOM     74  O   UNL A   1      46.415  38.094  27.914  1.00  0.00    -0.237 OA
ATOM     75  O   UNL A   1      47.336  37.629  30.158  1.00  0.00    -0.237 OA
ATOM     76  O   UNL A   1      48.799  37.517  28.176  1.00  0.00    -0.744 OA
ENDBRANCH  72  73
ENDBRANCH  53  67
BRANCH  54  77
ATOM     77  C   UNL A   1      43.358  23.546  26.924  1.00  0.00    -0.014 A 
ATOM     78  C   UNL A   1      43.275  22.616  27.977  1.00  0.00     0.010 A 
ATOM     79  C   UNL A   1      42.998  23.138  25.626  1.00  0.00     0.010 A 
ATOM     80  C   UNL A   1      42.852  21.305  27.734  1.00  0.00     0.020 A 
ATOM     81  C   UNL A   1      42.547  21.837  25.386  1.00  0.00     0.020 A 
ATOM     82  C   UNL A   1      42.485  20.926  26.440  1.00  0.00     0.054 A 
BRANCH  82  83
ATOM     83  S   UNL A   1      41.876  19.239  26.162  1.00  0.00     0.124 S 
ATOM     84  O   UNL A   1      42.657  18.820  25.003  1.00  0.00    -0.237 OA
ATOM     85  O   UNL A   1      42.203  18.576  27.422  1.00  0.00    -0.237 OA
ATOM     86  O   UNL A   1      40.447  19.428  25.919  1.00  0.00    -0.744 OA
ENDBRANCH  82  83
ENDBRANCH  54  77
BRANCH  66  87
ATOM     87  C   UNL A   1      49.422  26.877  25.966  1.00  0.00    -0.014 A 
ATOM     88  C   UNL A   1      49.944  27.343  24.745  1.00  0.00     0.010 A 
ATOM     89  C   UNL A   1      50.209  26.024  26.763  1.00  0.00     0.010 A 
ATOM     90  C   UNL A   1      51.213  26.940  24.318  1.00  0.00     0.020 A 
ATOM     91  C   UNL A   1      51.490  25.644  26.355  1.00  0.00     0.020 A 
ATOM     92  C   UNL A   1      51.979  26.095  25.127  1.00  0.00     0.054 A 
BRANCH  92  93
ATOM     93  S   UNL A   1      53.640  25.626  24.572  1.00  0.00     0.124 S 
ATOM     94  O   UNL A   1      53.488  25.628  23.119  1.00  0.00    -0.237 OA
ATOM     95  O   UNL A   1      54.473  26.694  25.117  1.00  0.00    -0.237 OA
ATOM     96  O   UNL A   1      53.850  24.311  25.173  1.00  0.00    -0.744 OA
ENDBRANCH  92  93
ENDBRANCH  66  87
ENDBRANCH  40  41
ENDBRANCH  32  35
ENDBRANCH  30  31
ENDBRANCH  29  30
ENDBRANCH  28  29
ENDBRANCH  27  28
ENDBRANCH   1  27
TORSDOF 21
ENDMDL
