MODEL 1
REMARK VINA RESULT:     -10.8      0.000      0.000
REMARK SMILES COC(=O)c1ccccc1-c1ccc(/C=C(\C#N)C(=O)NCCCCCCNC(=O)c2ccc(-c3c4nc(c(-c5ccc(S(=O)(=O)[O-])cc5)c5ccc([nH]5)c(-c5ccc(S(=O)(=O)[O-])cc5)c5nc(c(-c6ccc(S(=O)(=O)[O-])cc6)c6ccc3[nH]6)C=C5)C=C4)cc2)o1
REMARK SMILES IDX 24 1 23 2 22 3 21 4 19 5 20 6 16 8 15 9 14 10 11 11 12 12
REMARK SMILES IDX 91 13 13 14 10 15 5 16 6 17 7 18 9 19 8 20 3 21 4 22 2 23
REMARK SMILES IDX 1 24 17 25 18 26 25 27 26 28 27 29 28 30 29 31 30 33 31 34
REMARK SMILES IDX 32 35 90 36 33 37 89 38 34 39 35 40 36 41 83 42 37 43 88 44
REMARK SMILES IDX 82 45 84 46 38 47 87 48 81 49 80 50 39 52 69 53 50 54 68 55
REMARK SMILES IDX 51 56 54 57 67 58 85 59 52 60 53 61 66 63 86 64 55 65 40 66
REMARK SMILES IDX 41 67 49 68 42 69 48 70 43 71 44 72 45 73 46 74 47 75 70 76
REMARK SMILES IDX 71 77 79 78 72 79 78 80 73 81 74 82 75 83 76 84 77 85 56 86
REMARK SMILES IDX 57 87 65 88 58 89 64 90 59 91 60 92 61 93 62 94 63 95
REMARK H PARENT 21 7 28 32 84 51 54 62
REMARK Flexibility Score: inf
ROOT
ATOM      1  C   UNL A   1      31.718  29.519  26.271  1.00  0.00     0.002 C 
ENDROOT
BRANCH   1   2
ATOM      2  C   UNL A   1      31.090  30.179  25.038  1.00  0.00     0.021 C 
BRANCH   2   3
ATOM      3  C   UNL A   1      30.876  29.193  23.892  1.00  0.00     0.116 C 
BRANCH   3   4
ATOM      4  N   UNL A   1      32.045  29.144  23.033  1.00  0.00    -0.351 N 
ATOM      5  C   UNL A   1      33.003  28.208  22.816  1.00  0.00     0.262 C 
ATOM      6  O   UNL A   1      33.897  28.517  22.021  1.00  0.00    -0.268 OA
ATOM      7  H   UNL A   1      32.167  29.959  22.494  1.00  0.00     0.163 HD
BRANCH   5   8
ATOM      8  C   UNL A   1      33.001  26.859  23.457  1.00  0.00     0.120 C 
ATOM      9  C   UNL A   1      33.958  26.635  24.383  1.00  0.00     0.072 C 
BRANCH   9  10
ATOM     10  C   UNL A   1      34.161  25.397  25.062  1.00  0.00     0.129 A 
ATOM     11  C   UNL A   1      35.040  23.418  25.591  1.00  0.00     0.135 A 
ATOM     12  C   UNL A   1      33.964  23.590  26.429  1.00  0.00     0.051 A 
ATOM     13  O   UNL A   1      35.179  24.509  24.795  1.00  0.00    -0.457 OA
ATOM     14  C   UNL A   1      33.406  24.848  26.094  1.00  0.00     0.051 A 
BRANCH  11  15
ATOM     15  C   UNL A   1      35.982  22.334  25.355  1.00  0.00     0.032 A 
ATOM     16  C   UNL A   1      35.560  21.032  25.025  1.00  0.00     0.071 A 
ATOM     17  C   UNL A   1      36.487  19.986  24.903  1.00  0.00     0.016 A 
ATOM     18  C   UNL A   1      37.848  20.238  25.075  1.00  0.00     0.001 A 
ATOM     19  C   UNL A   1      37.358  22.570  25.503  1.00  0.00     0.013 A 
ATOM     20  C   UNL A   1      38.282  21.529  25.366  1.00  0.00     0.001 A 
BRANCH  16  21
ATOM     21  C   UNL A   1      34.139  20.702  24.800  1.00  0.00     0.338 C 
ATOM     22  O   UNL A   1      33.523  19.867  25.450  1.00  0.00    -0.246 OA
BRANCH  21  23
ATOM     23  O   UNL A   1      33.667  21.426  23.758  1.00  0.00    -0.465 OA
ATOM     24  C   UNL A   1      32.245  21.518  23.697  1.00  0.00     0.282 C 
ENDBRANCH  21  23
ENDBRANCH  16  21
ENDBRANCH  11  15
ENDBRANCH   9  10
BRANCH   8  25
ATOM     25  C   UNL A   1      32.039  25.757  23.045  1.00  0.00     0.105 C 
ATOM     26  N   UNL A   1      31.240  24.843  22.703  1.00  0.00    -0.192 NA
ENDBRANCH   8  25
ENDBRANCH   5   8
ENDBRANCH   3   4
ENDBRANCH   2   3
ENDBRANCH   1   2
BRANCH   1  27
ATOM     27  C   UNL A   1      33.075  30.105  26.683  1.00  0.00     0.002 C 
BRANCH  27  28
ATOM     28  C   UNL A   1      34.073  29.083  27.236  1.00  0.00     0.021 C 
BRANCH  28  29
ATOM     29  C   UNL A   1      35.406  29.689  27.662  1.00  0.00     0.116 C 
BRANCH  29  30
ATOM     30  N   UNL A   1      35.357  30.146  29.041  1.00  0.00    -0.352 N 
ATOM     31  C   UNL A   1      36.303  30.034  30.026  1.00  0.00     0.251 C 
ATOM     32  H   UNL A   1      34.526  30.602  29.305  1.00  0.00     0.163 HD
ATOM     33  O   UNL A   1      35.990  30.226  31.197  1.00  0.00    -0.269 OA
BRANCH  31  34
ATOM     34  C   UNL A   1      37.694  29.684  29.672  1.00  0.00     0.039 A 
ATOM     35  C   UNL A   1      38.549  29.217  30.671  1.00  0.00     0.014 A 
ATOM     36  C   UNL A   1      38.161  29.851  28.366  1.00  0.00     0.014 A 
ATOM     37  C   UNL A   1      39.868  28.889  30.353  1.00  0.00     0.010 A 
ATOM     38  C   UNL A   1      39.451  29.454  28.034  1.00  0.00     0.010 A 
ATOM     39  C   UNL A   1      40.323  28.987  29.027  1.00  0.00    -0.014 A 
BRANCH  39  40
ATOM     40  C   UNL A   1      41.718  28.629  28.669  1.00  0.00     0.031 A 
ATOM     41  C   UNL A   1      42.792  29.684  28.679  1.00  0.00     0.074 A 
ATOM     42  C   UNL A   1      42.005  27.369  28.291  1.00  0.00     0.049 A 
ATOM     43  N   UNL A   1      44.058  29.573  28.367  1.00  0.00    -0.248 NA
ATOM     44  C   UNL A   1      42.388  31.045  29.066  1.00  0.00     0.031 C 
ATOM     45  C   UNL A   1      41.039  26.270  28.202  1.00  0.00     0.029 A 
ATOM     46  N   UNL A   1      43.192  26.799  27.909  1.00  0.00    -0.354 N 
ATOM     47  C   UNL A   1      44.595  30.848  28.503  1.00  0.00     0.074 A 
ATOM     48  C   UNL A   1      43.508  31.727  28.875  1.00  0.00     0.031 C 
ATOM     49  C   UNL A   1      41.680  25.154  27.820  1.00  0.00     0.029 A 
ATOM     50  C   UNL A   1      43.089  25.463  27.601  1.00  0.00     0.049 A 
ATOM     51  H   UNL A   1      44.038  27.299  27.859  1.00  0.00     0.167 HD
ATOM     52  C   UNL A   1      45.880  31.248  28.354  1.00  0.00     0.031 A 
ATOM     53  C   UNL A   1      44.023  24.586  27.188  1.00  0.00     0.031 A 
ATOM     54  C   UNL A   1      46.959  30.367  27.994  1.00  0.00     0.049 A 
ATOM     55  C   UNL A   1      45.444  25.053  27.031  1.00  0.00     0.074 A 
ATOM     56  C   UNL A   1      48.305  30.661  27.866  1.00  0.00     0.029 A 
ATOM     57  N   UNL A   1      46.816  29.018  27.705  1.00  0.00    -0.354 N 
ATOM     58  N   UNL A   1      45.945  26.251  27.225  1.00  0.00    -0.248 NA
ATOM     59  C   UNL A   1      46.430  24.046  26.616  1.00  0.00     0.031 C 
ATOM     60  C   UNL A   1      48.968  29.501  27.452  1.00  0.00     0.029 A 
ATOM     61  C   UNL A   1      48.046  28.470  27.382  1.00  0.00     0.049 A 
ATOM     62  H   UNL A   1      45.965  28.523  27.727  1.00  0.00     0.167 HD
ATOM     63  C   UNL A   1      47.310  26.133  26.987  1.00  0.00     0.074 A 
ATOM     64  C   UNL A   1      47.556  24.746  26.649  1.00  0.00     0.031 C 
ATOM     65  C   UNL A   1      48.272  27.086  27.048  1.00  0.00     0.031 A 
BRANCH  52  66
ATOM     66  C   UNL A   1      46.186  32.707  28.575  1.00  0.00    -0.014 A 
ATOM     67  C   UNL A   1      46.117  33.633  27.517  1.00  0.00     0.010 A 
ATOM     68  C   UNL A   1      46.513  33.167  29.863  1.00  0.00     0.010 A 
ATOM     69  C   UNL A   1      46.412  34.981  27.735  1.00  0.00     0.020 A 
ATOM     70  C   UNL A   1      46.779  34.520  30.092  1.00  0.00     0.020 A 
ATOM     71  C   UNL A   1      46.745  35.416  29.021  1.00  0.00     0.054 A 
BRANCH  71  72
ATOM     72  S   UNL A   1      47.102  37.176  29.278  1.00  0.00     0.124 S 
ATOM     73  O   UNL A   1      46.952  37.305  30.726  1.00  0.00    -0.237 OA
ATOM     74  O   UNL A   1      48.468  37.303  28.776  1.00  0.00    -0.237 OA
ATOM     75  O   UNL A   1      46.082  37.857  28.484  1.00  0.00    -0.744 OA
ENDBRANCH  71  72
ENDBRANCH  52  66
BRANCH  53  76
ATOM     76  C   UNL A   1      43.647  23.171  26.919  1.00  0.00    -0.014 A 
ATOM     77  C   UNL A   1      43.179  22.346  27.957  1.00  0.00     0.010 A 
ATOM     78  C   UNL A   1      43.741  22.645  25.618  1.00  0.00     0.010 A 
ATOM     79  C   UNL A   1      42.833  21.016  27.704  1.00  0.00     0.020 A 
ATOM     80  C   UNL A   1      43.368  21.324  25.355  1.00  0.00     0.020 A 
ATOM     81  C   UNL A   1      42.928  20.513  26.403  1.00  0.00     0.054 A 
BRANCH  81  82
ATOM     82  S   UNL A   1      42.427  18.798  26.089  1.00  0.00     0.124 S 
ATOM     83  O   UNL A   1      43.422  18.365  25.114  1.00  0.00    -0.237 OA
ATOM     84  O   UNL A   1      42.533  18.191  27.414  1.00  0.00    -0.237 OA
ATOM     85  O   UNL A   1      41.064  18.928  25.580  1.00  0.00    -0.744 OA
ENDBRANCH  81  82
ENDBRANCH  53  76
BRANCH  65  86
ATOM     86  C   UNL A   1      49.690  26.653  26.784  1.00  0.00    -0.014 A 
ATOM     87  C   UNL A   1      50.549  26.274  27.831  1.00  0.00     0.010 A 
ATOM     88  C   UNL A   1      50.155  26.584  25.457  1.00  0.00     0.010 A 
ATOM     89  C   UNL A   1      51.860  25.874  27.559  1.00  0.00     0.020 A 
ATOM     90  C   UNL A   1      51.455  26.157  25.180  1.00  0.00     0.020 A 
ATOM     91  C   UNL A   1      52.305  25.821  26.234  1.00  0.00     0.054 A 
BRANCH  91  92
ATOM     92  S   UNL A   1      54.002  25.271  25.904  1.00  0.00     0.124 S 
ATOM     93  O   UNL A   1      54.521  26.364  25.085  1.00  0.00    -0.237 OA
ATOM     94  O   UNL A   1      54.573  25.166  27.245  1.00  0.00    -0.237 OA
ATOM     95  O   UNL A   1      53.825  24.000  25.207  1.00  0.00    -0.744 OA
ENDBRANCH  91  92
ENDBRANCH  65  86
ENDBRANCH  39  40
ENDBRANCH  31  34
ENDBRANCH  29  30
ENDBRANCH  28  29
ENDBRANCH  27  28
ENDBRANCH   1  27
TORSDOF 21
ENDMDL
MODEL 2
REMARK VINA RESULT:     -10.7      6.533      8.474
REMARK SMILES COC(=O)c1ccccc1-c1ccc(/C=C(\C#N)C(=O)NCCCCCCNC(=O)c2ccc(-c3c4nc(c(-c5ccc(S(=O)(=O)[O-])cc5)c5ccc([nH]5)c(-c5ccc(S(=O)(=O)[O-])cc5)c5nc(c(-c6ccc(S(=O)(=O)[O-])cc6)c6ccc3[nH]6)C=C5)C=C4)cc2)o1
REMARK SMILES IDX 24 1 23 2 22 3 21 4 19 5 20 6 16 8 15 9 14 10 11 11 12 12
REMARK SMILES IDX 91 13 13 14 10 15 5 16 6 17 7 18 9 19 8 20 3 21 4 22 2 23
REMARK SMILES IDX 1 24 17 25 18 26 25 27 26 28 27 29 28 30 29 31 30 33 31 34
REMARK SMILES IDX 32 35 90 36 33 37 89 38 34 39 35 40 36 41 83 42 37 43 88 44
REMARK SMILES IDX 82 45 84 46 38 47 87 48 81 49 80 50 39 52 69 53 50 54 68 55
REMARK SMILES IDX 51 56 54 57 67 58 85 59 52 60 53 61 66 63 86 64 55 65 40 66
REMARK SMILES IDX 41 67 49 68 42 69 48 70 43 71 44 72 45 73 46 74 47 75 70 76
REMARK SMILES IDX 71 77 79 78 72 79 78 80 73 81 74 82 75 83 76 84 77 85 56 86
REMARK SMILES IDX 57 87 65 88 58 89 64 90 59 91 60 92 61 93 62 94 63 95
REMARK H PARENT 21 7 28 32 84 51 54 62
REMARK Flexibility Score: inf
ROOT
ATOM      1  C   UNL A   1      35.071  31.666  28.652  1.00  0.00     0.002 C 
ENDROOT
BRANCH   1   2
ATOM      2  C   UNL A   1      35.638  30.652  27.652  1.00  0.00     0.021 C 
BRANCH   2   3
ATOM      3  C   UNL A   1      34.661  29.517  27.352  1.00  0.00     0.116 C 
BRANCH   3   4
ATOM      4  N   UNL A   1      33.452  30.030  26.736  1.00  0.00    -0.351 N 
ATOM      5  C   UNL A   1      32.536  29.491  25.893  1.00  0.00     0.262 C 
ATOM      6  O   UNL A   1      31.624  30.241  25.527  1.00  0.00    -0.268 OA
ATOM      7  H   UNL A   1      33.256  30.964  26.981  1.00  0.00     0.163 HD
BRANCH   5   8
ATOM      8  C   UNL A   1      32.571  28.071  25.432  1.00  0.00     0.120 C 
ATOM      9  C   UNL A   1      33.409  27.794  24.411  1.00  0.00     0.072 C 
BRANCH   9  10
ATOM     10  C   UNL A   1      33.544  26.516  23.790  1.00  0.00     0.129 A 
ATOM     11  C   UNL A   1      34.149  24.394  23.476  1.00  0.00     0.135 A 
ATOM     12  C   UNL A   1      33.492  24.774  22.330  1.00  0.00     0.051 A 
ATOM     13  O   UNL A   1      34.154  25.423  24.362  1.00  0.00    -0.457 OA
ATOM     14  C   UNL A   1      33.107  26.122  22.530  1.00  0.00     0.051 A 
BRANCH  11  15
ATOM     15  C   UNL A   1      34.854  23.191  23.892  1.00  0.00     0.032 A 
ATOM     16  C   UNL A   1      34.190  22.097  24.478  1.00  0.00     0.071 A 
ATOM     17  C   UNL A   1      34.912  20.994  24.960  1.00  0.00     0.016 A 
ATOM     18  C   UNL A   1      36.300  20.958  24.829  1.00  0.00     0.001 A 
ATOM     19  C   UNL A   1      36.249  23.126  23.751  1.00  0.00     0.013 A 
ATOM     20  C   UNL A   1      36.965  22.018  24.218  1.00  0.00     0.001 A 
BRANCH  16  21
ATOM     21  C   UNL A   1      32.722  22.056  24.621  1.00  0.00     0.338 C 
ATOM     22  O   UNL A   1      31.948  21.995  23.675  1.00  0.00    -0.246 OA
BRANCH  21  23
ATOM     23  O   UNL A   1      32.393  22.137  25.932  1.00  0.00    -0.465 OA
ATOM     24  C   UNL A   1      31.040  22.511  26.181  1.00  0.00     0.282 C 
ENDBRANCH  21  23
ENDBRANCH  16  21
ENDBRANCH  11  15
ENDBRANCH   9  10
BRANCH   8  25
ATOM     25  C   UNL A   1      31.661  26.999  26.010  1.00  0.00     0.105 C 
ATOM     26  N   UNL A   1      30.907  26.109  26.488  1.00  0.00    -0.192 NA
ENDBRANCH   8  25
ENDBRANCH   5   8
ENDBRANCH   3   4
ENDBRANCH   2   3
ENDBRANCH   1   2
BRANCH   1  27
ATOM     27  C   UNL A   1      35.008  33.108  28.129  1.00  0.00     0.002 C 
BRANCH  27  28
ATOM     28  C   UNL A   1      33.666  33.812  28.351  1.00  0.00     0.021 C 
BRANCH  28  29
ATOM     29  C   UNL A   1      33.797  35.270  28.781  1.00  0.00     0.116 C 
BRANCH  29  30
ATOM     30  N   UNL A   1      32.942  35.559  29.920  1.00  0.00    -0.352 N 
ATOM     31  C   UNL A   1      33.041  35.117  31.213  1.00  0.00     0.251 C 
ATOM     32  H   UNL A   1      32.183  36.158  29.737  1.00  0.00     0.163 HD
ATOM     33  O   UNL A   1      32.085  35.236  31.974  1.00  0.00    -0.269 OA
BRANCH  31  34
ATOM     34  C   UNL A   1      34.299  34.504  31.686  1.00  0.00     0.039 A 
ATOM     35  C   UNL A   1      34.366  33.116  31.824  1.00  0.00     0.014 A 
ATOM     36  C   UNL A   1      35.397  35.300  32.026  1.00  0.00     0.014 A 
ATOM     37  C   UNL A   1      35.546  32.524  32.275  1.00  0.00     0.010 A 
ATOM     38  C   UNL A   1      36.595  34.705  32.404  1.00  0.00     0.010 A 
ATOM     39  C   UNL A   1      36.676  33.313  32.550  1.00  0.00    -0.014 A 
BRANCH  39  40
ATOM     40  C   UNL A   1      37.942  32.698  33.018  1.00  0.00     0.031 A 
ATOM     41  C   UNL A   1      38.438  32.963  34.414  1.00  0.00     0.074 A 
ATOM     42  C   UNL A   1      38.667  31.941  32.170  1.00  0.00     0.049 A 
ATOM     43  N   UNL A   1      39.534  32.543  34.993  1.00  0.00    -0.248 NA
ATOM     44  C   UNL A   1      37.608  33.833  35.263  1.00  0.00     0.031 C 
ATOM     45  C   UNL A   1      38.310  31.648  30.780  1.00  0.00     0.029 A 
ATOM     46  N   UNL A   1      39.856  31.282  32.355  1.00  0.00    -0.354 N 
ATOM     47  C   UNL A   1      39.533  33.109  36.263  1.00  0.00     0.074 A 
ATOM     48  C   UNL A   1      38.354  33.943  36.353  1.00  0.00     0.031 C 
ATOM     49  C   UNL A   1      39.244  30.843  30.248  1.00  0.00     0.029 A 
ATOM     50  C   UNL A   1      40.283  30.596  31.243  1.00  0.00     0.049 A 
ATOM     51  H   UNL A   1      40.355  31.300  33.202  1.00  0.00     0.167 HD
ATOM     52  C   UNL A   1      40.420  32.933  37.271  1.00  0.00     0.031 A 
ATOM     53  C   UNL A   1      41.387  29.852  31.046  1.00  0.00     0.031 A 
ATOM     54  C   UNL A   1      41.585  32.093  37.179  1.00  0.00     0.049 A 
ATOM     55  C   UNL A   1      42.357  29.669  32.181  1.00  0.00     0.074 A 
ATOM     56  C   UNL A   1      42.519  31.807  38.158  1.00  0.00     0.029 A 
ATOM     57  N   UNL A   1      41.975  31.404  36.041  1.00  0.00    -0.354 N 
ATOM     58  N   UNL A   1      42.306  30.162  33.396  1.00  0.00    -0.248 NA
ATOM     59  C   UNL A   1      43.524  28.815  31.924  1.00  0.00     0.031 C 
ATOM     60  C   UNL A   1      43.501  30.983  37.597  1.00  0.00     0.029 A 
ATOM     61  C   UNL A   1      43.145  30.706  36.288  1.00  0.00     0.049 A 
ATOM     62  H   UNL A   1      41.490  31.408  35.184  1.00  0.00     0.167 HD
ATOM     63  C   UNL A   1      43.417  29.653  34.058  1.00  0.00     0.074 A 
ATOM     64  C   UNL A   1      44.113  28.803  33.112  1.00  0.00     0.031 C 
ATOM     65  C   UNL A   1      43.823  29.865  35.334  1.00  0.00     0.031 A 
BRANCH  52  66
ATOM     66  C   UNL A   1      40.164  33.672  38.560  1.00  0.00    -0.014 A 
ATOM     67  C   UNL A   1      40.772  34.914  38.819  1.00  0.00     0.010 A 
ATOM     68  C   UNL A   1      39.279  33.133  39.511  1.00  0.00     0.010 A 
ATOM     69  C   UNL A   1      40.532  35.582  40.023  1.00  0.00     0.020 A 
ATOM     70  C   UNL A   1      39.014  33.813  40.704  1.00  0.00     0.020 A 
ATOM     71  C   UNL A   1      39.657  35.026  40.960  1.00  0.00     0.054 A 
BRANCH  71  72
ATOM     72  S   UNL A   1      39.349  35.926  42.504  1.00  0.00     0.124 S 
ATOM     73  O   UNL A   1      37.997  35.487  42.844  1.00  0.00    -0.237 OA
ATOM     74  O   UNL A   1      40.407  35.431  43.381  1.00  0.00    -0.237 OA
ATOM     75  O   UNL A   1      39.469  37.330  42.118  1.00  0.00    -0.744 OA
ENDBRANCH  71  72
ENDBRANCH  52  66
BRANCH  53  76
ATOM     76  C   UNL A   1      41.620  29.202  29.727  1.00  0.00    -0.014 A 
ATOM     77  C   UNL A   1      41.141  27.904  29.475  1.00  0.00     0.010 A 
ATOM     78  C   UNL A   1      42.310  29.885  28.709  1.00  0.00     0.010 A 
ATOM     79  C   UNL A   1      41.366  27.294  28.238  1.00  0.00     0.020 A 
ATOM     80  C   UNL A   1      42.512  29.289  27.461  1.00  0.00     0.020 A 
ATOM     81  C   UNL A   1      42.050  27.991  27.237  1.00  0.00     0.054 A 
BRANCH  81  82
ATOM     82  S   UNL A   1      42.288  27.197  25.623  1.00  0.00     0.124 S 
ATOM     83  O   UNL A   1      41.099  26.359  25.519  1.00  0.00    -0.237 OA
ATOM     84  O   UNL A   1      42.342  28.339  24.714  1.00  0.00    -0.237 OA
ATOM     85  O   UNL A   1      43.551  26.478  25.781  1.00  0.00    -0.744 OA
ENDBRANCH  81  82
ENDBRANCH  53  76
BRANCH  65  86
ATOM     86  C   UNL A   1      45.054  29.132  35.798  1.00  0.00    -0.014 A 
ATOM     87  C   UNL A   1      44.974  27.845  36.360  1.00  0.00     0.010 A 
ATOM     88  C   UNL A   1      46.317  29.729  35.627  1.00  0.00     0.010 A 
ATOM     89  C   UNL A   1      46.132  27.186  36.782  1.00  0.00     0.020 A 
ATOM     90  C   UNL A   1      47.479  29.060  36.020  1.00  0.00     0.020 A 
ATOM     91  C   UNL A   1      47.378  27.800  36.611  1.00  0.00     0.054 A 
BRANCH  91  92
ATOM     92  S   UNL A   1      48.869  26.913  37.139  1.00  0.00     0.124 S 
ATOM     93  O   UNL A   1      49.609  27.956  37.844  1.00  0.00    -0.237 OA
ATOM     94  O   UNL A   1      48.328  25.848  37.980  1.00  0.00    -0.237 OA
ATOM     95  O   UNL A   1      49.467  26.464  35.884  1.00  0.00    -0.744 OA
ENDBRANCH  91  92
ENDBRANCH  65  86
ENDBRANCH  39  40
ENDBRANCH  31  34
ENDBRANCH  29  30
ENDBRANCH  28  29
ENDBRANCH  27  28
ENDBRANCH   1  27
TORSDOF 21
ENDMDL
MODEL 3
REMARK VINA RESULT:     -10.4      4.803      5.695
REMARK SMILES COC(=O)c1ccccc1-c1ccc(/C=C(\C#N)C(=O)NCCCCCCNC(=O)c2ccc(-c3c4nc(c(-c5ccc(S(=O)(=O)[O-])cc5)c5ccc([nH]5)c(-c5ccc(S(=O)(=O)[O-])cc5)c5nc(c(-c6ccc(S(=O)(=O)[O-])cc6)c6ccc3[nH]6)C=C5)C=C4)cc2)o1
REMARK SMILES IDX 24 1 23 2 22 3 21 4 19 5 20 6 16 8 15 9 14 10 11 11 12 12
REMARK SMILES IDX 91 13 13 14 10 15 5 16 6 17 7 18 9 19 8 20 3 21 4 22 2 23
REMARK SMILES IDX 1 24 17 25 18 26 25 27 26 28 27 29 28 30 29 31 30 33 31 34
REMARK SMILES IDX 32 35 90 36 33 37 89 38 34 39 35 40 36 41 83 42 37 43 88 44
REMARK SMILES IDX 82 45 84 46 38 47 87 48 81 49 80 50 39 52 69 53 50 54 68 55
REMARK SMILES IDX 51 56 54 57 67 58 85 59 52 60 53 61 66 63 86 64 55 65 40 66
REMARK SMILES IDX 41 67 49 68 42 69 48 70 43 71 44 72 45 73 46 74 47 75 70 76
REMARK SMILES IDX 71 77 79 78 72 79 78 80 73 81 74 82 75 83 76 84 77 85 56 86
REMARK SMILES IDX 57 87 65 88 58 89 64 90 59 91 60 92 61 93 62 94 63 95
REMARK H PARENT 21 7 28 32 84 51 54 62
REMARK Flexibility Score: inf
ROOT
ATOM      1  C   UNL A   1      31.404  28.921  26.556  1.00  0.00     0.002 C 
ENDROOT
BRANCH   1   2
ATOM      2  C   UNL A   1      31.534  29.923  25.403  1.00  0.00     0.021 C 
BRANCH   2   3
ATOM      3  C   UNL A   1      31.572  29.241  24.037  1.00  0.00     0.116 C 
BRANCH   3   4
ATOM      4  N   UNL A   1      30.240  28.833  23.631  1.00  0.00    -0.351 N 
ATOM      5  C   UNL A   1      29.616  27.630  23.558  1.00  0.00     0.262 C 
ATOM      6  O   UNL A   1      28.460  27.642  23.122  1.00  0.00    -0.268 OA
ATOM      7  H   UNL A   1      29.671  29.586  23.349  1.00  0.00     0.163 HD
BRANCH   5   8
ATOM      8  C   UNL A   1      30.240  26.347  23.997  1.00  0.00     0.120 C 
ATOM      9  C   UNL A   1      30.985  25.698  23.077  1.00  0.00     0.072 C 
BRANCH   9  10
ATOM     10  C   UNL A   1      31.613  24.434  23.280  1.00  0.00     0.129 A 
ATOM     11  C   UNL A   1      33.195  22.930  23.736  1.00  0.00     0.135 A 
ATOM     12  C   UNL A   1      32.075  22.210  23.394  1.00  0.00     0.051 A 
ATOM     13  O   UNL A   1      32.913  24.257  23.698  1.00  0.00    -0.457 OA
ATOM     14  C   UNL A   1      31.070  23.165  23.106  1.00  0.00     0.051 A 
BRANCH  11  15
ATOM     15  C   UNL A   1      34.570  22.579  24.059  1.00  0.00     0.032 A 
ATOM     16  C   UNL A   1      34.914  21.912  25.249  1.00  0.00     0.071 A 
ATOM     17  C   UNL A   1      36.258  21.678  25.578  1.00  0.00     0.016 A 
ATOM     18  C   UNL A   1      37.269  22.076  24.703  1.00  0.00     0.001 A 
ATOM     19  C   UNL A   1      35.601  22.953  23.182  1.00  0.00     0.013 A 
ATOM     20  C   UNL A   1      36.940  22.705  23.505  1.00  0.00     0.001 A 
BRANCH  16  21
ATOM     21  C   UNL A   1      33.894  21.437  26.205  1.00  0.00     0.338 C 
ATOM     22  O   UNL A   1      33.279  20.386  26.076  1.00  0.00    -0.246 OA
BRANCH  21  23
ATOM     23  O   UNL A   1      33.735  22.353  27.187  1.00  0.00    -0.465 OA
ATOM     24  C   UNL A   1      32.427  22.916  27.265  1.00  0.00     0.282 C 
ENDBRANCH  21  23
ENDBRANCH  16  21
ENDBRANCH  11  15
ENDBRANCH   9  10
BRANCH   8  25
ATOM     25  C   UNL A   1      29.997  25.744  25.371  1.00  0.00     0.105 C 
ATOM     26  N   UNL A   1      29.794  25.243  26.511  1.00  0.00    -0.192 NA
ENDBRANCH   8  25
ENDBRANCH   5   8
ENDBRANCH   3   4
ENDBRANCH   2   3
ENDBRANCH   1   2
BRANCH   1  27
ATOM     27  C   UNL A   1      32.668  28.772  27.414  1.00  0.00     0.002 C 
BRANCH  27  28
ATOM     28  C   UNL A   1      33.917  28.332  26.644  1.00  0.00     0.021 C 
BRANCH  28  29
ATOM     29  C   UNL A   1      34.992  29.410  26.542  1.00  0.00     0.116 C 
BRANCH  29  30
ATOM     30  N   UNL A   1      34.569  30.635  27.200  1.00  0.00    -0.352 N 
ATOM     31  C   UNL A   1      35.022  31.194  28.365  1.00  0.00     0.251 C 
ATOM     32  H   UNL A   1      33.856  31.136  26.742  1.00  0.00     0.163 HD
ATOM     33  O   UNL A   1      34.369  32.077  28.914  1.00  0.00    -0.269 OA
BRANCH  31  34
ATOM     34  C   UNL A   1      36.296  30.732  28.955  1.00  0.00     0.039 A 
ATOM     35  C   UNL A   1      36.273  29.695  29.889  1.00  0.00     0.014 A 
ATOM     36  C   UNL A   1      37.504  31.347  28.614  1.00  0.00     0.014 A 
ATOM     37  C   UNL A   1      37.468  29.254  30.459  1.00  0.00     0.010 A 
ATOM     38  C   UNL A   1      38.700  30.858  29.125  1.00  0.00     0.010 A 
ATOM     39  C   UNL A   1      38.693  29.819  30.067  1.00  0.00    -0.014 A 
BRANCH  39  40
ATOM     40  C   UNL A   1      39.973  29.352  30.653  1.00  0.00     0.031 A 
ATOM     41  C   UNL A   1      40.523  30.016  31.887  1.00  0.00     0.074 A 
ATOM     42  C   UNL A   1      40.660  28.364  30.048  1.00  0.00     0.049 A 
ATOM     43  N   UNL A   1      41.638  29.771  32.527  1.00  0.00    -0.248 NA
ATOM     44  C   UNL A   1      39.730  31.114  32.464  1.00  0.00     0.031 C 
ATOM     45  C   UNL A   1      40.249  27.673  28.823  1.00  0.00     0.029 A 
ATOM     46  N   UNL A   1      41.852  27.772  30.380  1.00  0.00    -0.354 N 
ATOM     47  C   UNL A   1      41.688  30.692  33.567  1.00  0.00     0.074 A 
ATOM     48  C   UNL A   1      40.518  31.534  33.443  1.00  0.00     0.031 C 
ATOM     49  C   UNL A   1      41.158  26.731  28.525  1.00  0.00     0.029 A 
ATOM     50  C   UNL A   1      42.233  26.776  29.511  1.00  0.00     0.049 A 
ATOM     51  H   UNL A   1      42.384  28.034  31.165  1.00  0.00     0.167 HD
ATOM     52  C   UNL A   1      42.612  30.813  34.550  1.00  0.00     0.031 A 
ATOM     53  C   UNL A   1      43.325  25.989  29.508  1.00  0.00     0.031 A 
ATOM     54  C   UNL A   1      43.768  29.965  34.674  1.00  0.00     0.049 A 
ATOM     55  C   UNL A   1      44.336  26.140  30.612  1.00  0.00     0.074 A 
ATOM     56  C   UNL A   1      44.738  29.970  35.661  1.00  0.00     0.029 A 
ATOM     57  N   UNL A   1      44.111  28.959  33.782  1.00  0.00    -0.354 N 
ATOM     58  N   UNL A   1      44.334  26.976  31.623  1.00  0.00    -0.248 NA
ATOM     59  C   UNL A   1      45.489  25.229  30.582  1.00  0.00     0.031 C 
ATOM     60  C   UNL A   1      45.694  29.000  35.339  1.00  0.00     0.029 A 
ATOM     61  C   UNL A   1      45.287  28.349  34.186  1.00  0.00     0.049 A 
ATOM     62  H   UNL A   1      43.594  28.714  32.981  1.00  0.00     0.167 HD
ATOM     63  C   UNL A   1      45.468  26.670  32.368  1.00  0.00     0.074 A 
ATOM     64  C   UNL A   1      46.122  25.564  31.698  1.00  0.00     0.031 C 
ATOM     65  C   UNL A   1      45.923  27.249  33.507  1.00  0.00     0.031 A 
BRANCH  52  66
ATOM     66  C   UNL A   1      42.410  31.908  35.566  1.00  0.00    -0.014 A 
ATOM     67  C   UNL A   1      42.939  33.196  35.361  1.00  0.00     0.010 A 
ATOM     68  C   UNL A   1      41.653  31.656  36.724  1.00  0.00     0.010 A 
ATOM     69  C   UNL A   1      42.751  34.198  36.316  1.00  0.00     0.020 A 
ATOM     70  C   UNL A   1      41.437  32.665  37.668  1.00  0.00     0.020 A 
ATOM     71  C   UNL A   1      42.003  33.926  37.466  1.00  0.00     0.054 A 
BRANCH  71  72
ATOM     72  S   UNL A   1      41.758  35.252  38.678  1.00  0.00     0.124 S 
ATOM     73  O   UNL A   1      42.961  35.136  39.499  1.00  0.00    -0.237 OA
ATOM     74  O   UNL A   1      41.685  36.445  37.838  1.00  0.00    -0.237 OA
ATOM     75  O   UNL A   1      40.512  34.887  39.347  1.00  0.00    -0.744 OA
ENDBRANCH  71  72
ENDBRANCH  52  66
BRANCH  53  76
ATOM     76  C   UNL A   1      43.504  24.970  28.438  1.00  0.00    -0.014 A 
ATOM     77  C   UNL A   1      44.097  25.317  27.212  1.00  0.00     0.010 A 
ATOM     78  C   UNL A   1      43.094  23.640  28.648  1.00  0.00     0.010 A 
ATOM     79  C   UNL A   1      44.258  24.359  26.207  1.00  0.00     0.020 A 
ATOM     80  C   UNL A   1      43.279  22.673  27.655  1.00  0.00     0.020 A 
ATOM     81  C   UNL A   1      43.849  23.042  26.435  1.00  0.00     0.054 A 
BRANCH  81  82
ATOM     82  S   UNL A   1      44.112  21.805  25.134  1.00  0.00     0.124 S 
ATOM     83  O   UNL A   1      45.454  21.324  25.439  1.00  0.00    -0.237 OA
ATOM     84  O   UNL A   1      43.027  20.857  25.377  1.00  0.00    -0.237 OA
ATOM     85  O   UNL A   1      43.987  22.578  23.899  1.00  0.00    -0.744 OA
ENDBRANCH  81  82
ENDBRANCH  53  76
BRANCH  65  86
ATOM     86  C   UNL A   1      47.167  26.669  34.126  1.00  0.00    -0.014 A 
ATOM     87  C   UNL A   1      47.103  25.608  35.047  1.00  0.00     0.010 A 
ATOM     88  C   UNL A   1      48.426  27.170  33.745  1.00  0.00     0.010 A 
ATOM     89  C   UNL A   1      48.273  25.087  35.606  1.00  0.00     0.020 A 
ATOM     90  C   UNL A   1      49.598  26.632  34.279  1.00  0.00     0.020 A 
ATOM     91  C   UNL A   1      49.513  25.605  35.220  1.00  0.00     0.054 A 
BRANCH  91  92
ATOM     92  S   UNL A   1      51.019  24.893  35.938  1.00  0.00     0.124 S 
ATOM     93  O   UNL A   1      51.543  26.011  36.717  1.00  0.00    -0.237 OA
ATOM     94  O   UNL A   1      50.504  23.770  36.718  1.00  0.00    -0.237 OA
ATOM     95  O   UNL A   1      51.816  24.520  34.772  1.00  0.00    -0.744 OA
ENDBRANCH  91  92
ENDBRANCH  65  86
ENDBRANCH  39  40
ENDBRANCH  31  34
ENDBRANCH  29  30
ENDBRANCH  28  29
ENDBRANCH  27  28
ENDBRANCH   1  27
TORSDOF 21
ENDMDL
