MODEL 1
REMARK VINA RESULT:     -10.9      0.000      0.000
REMARK SMILES O=C(CN(CC(=O)NCc1ccccc1)c1ccccc1)NCCCCCCNC(=O)c1ccc(-c2c3nc(c(-c4ccc(S(=O)(=O)[O-])cc4)c4ccc([nH]4)c(-c4ccc(S(=O)(=O)[O-])cc4)c4nc(c(-c5ccc(S(=O)(=O)[O-])cc5)c5ccc2[nH]5)C=C4)C=C3)cc1
REMARK SMILES IDX 24 1 23 2 22 3 1 4 2 5 3 7 4 8 5 9 6 10 7 11 8 12 9 14 10 15
REMARK SMILES IDX 11 16 15 17 12 18 14 19 13 20 16 21 17 22 21 23 18 24 20 25
REMARK SMILES IDX 19 26 25 27 26 28 27 29 28 30 29 31 30 32 31 34 32 35 33 36
REMARK SMILES IDX 91 37 34 38 90 39 35 40 36 41 37 42 84 43 38 44 89 45 83 46
REMARK SMILES IDX 85 47 39 48 88 49 82 50 81 51 40 53 70 54 51 55 69 56 52 57
REMARK SMILES IDX 55 58 68 59 86 60 53 61 54 62 67 64 87 65 56 66 41 67 42 68
REMARK SMILES IDX 50 69 43 70 49 71 44 72 45 73 46 74 47 75 48 76 71 77 72 78
REMARK SMILES IDX 80 79 73 80 79 81 74 82 75 83 76 84 77 85 78 86 57 87 58 88
REMARK SMILES IDX 66 89 59 90 65 91 60 92 61 93 62 94 63 95 64 96
REMARK H PARENT 22 6 8 13 29 33 85 52 55 63
REMARK Flexibility Score: inf
ROOT
ATOM      1  C   UNL A   1      32.788  28.375  26.511  1.00  0.00     0.021 C 
ENDROOT
BRANCH   1   2
ATOM      2  C   UNL A   1      31.677  27.383  26.851  1.00  0.00     0.116 C 
BRANCH   2   3
ATOM      3  N   UNL A   1      31.983  26.036  26.419  1.00  0.00    -0.355 N 
ATOM      4  O   UNL A   1      29.806  25.327  26.389  1.00  0.00    -0.273 OA
ATOM      5  C   UNL A   1      30.997  25.114  26.161  1.00  0.00     0.239 C 
ATOM      6  H   UNL A   1      32.926  25.772  26.308  1.00  0.00     0.163 HD
BRANCH   5   7
ATOM      7  C   UNL A   1      31.469  23.764  25.626  1.00  0.00     0.217 C 
BRANCH   7   8
ATOM      8  N   UNL A   1      32.432  23.777  24.491  1.00  0.00    -0.353 N 
BRANCH   8   9
ATOM      9  C   UNL A   1      31.950  24.373  23.218  1.00  0.00     0.217 C 
BRANCH   9  10
ATOM     10  C   UNL A   1      32.347  25.831  22.921  1.00  0.00     0.239 C 
ATOM     11  O   UNL A   1      33.493  26.104  22.542  1.00  0.00    -0.273 OA
ATOM     12  N   UNL A   1      31.480  26.874  23.018  1.00  0.00    -0.350 N 
ATOM     13  H   UNL A   1      31.897  27.765  22.966  1.00  0.00     0.163 HD
BRANCH  12  14
ATOM     14  C   UNL A   1      30.046  26.888  23.185  1.00  0.00     0.151 C 
BRANCH  14  15
ATOM     15  C   UNL A   1      29.388  28.193  22.815  1.00  0.00    -0.029 A 
ATOM     16  C   UNL A   1      30.087  29.243  22.203  1.00  0.00     0.005 A 
ATOM     17  C   UNL A   1      28.050  28.415  23.176  1.00  0.00     0.005 A 
ATOM     18  C   UNL A   1      29.478  30.478  21.970  1.00  0.00     0.000 A 
ATOM     19  C   UNL A   1      27.434  29.645  22.931  1.00  0.00     0.000 A 
ATOM     20  C   UNL A   1      28.151  30.679  22.335  1.00  0.00     0.000 A 
ENDBRANCH  14  15
ENDBRANCH  12  14
ENDBRANCH   9  10
ENDBRANCH   8   9
BRANCH   8  21
ATOM     21  C   UNL A   1      33.776  23.474  24.719  1.00  0.00     0.038 A 
ATOM     22  C   UNL A   1      34.345  22.225  24.414  1.00  0.00     0.026 A 
ATOM     23  C   UNL A   1      34.677  24.416  25.247  1.00  0.00     0.026 A 
ATOM     24  C   UNL A   1      35.718  21.960  24.545  1.00  0.00     0.002 A 
ATOM     25  C   UNL A   1      36.042  24.149  25.430  1.00  0.00     0.002 A 
ATOM     26  C   UNL A   1      36.569  22.925  25.057  1.00  0.00     0.000 A 
ENDBRANCH   8  21
ENDBRANCH   7   8
ENDBRANCH   5   7
ENDBRANCH   2   3
ENDBRANCH   1   2
BRANCH   1  27
ATOM     27  C   UNL A   1      32.719  29.692  27.290  1.00  0.00     0.002 C 
BRANCH  27  28
ATOM     28  C   UNL A   1      33.814  30.710  26.957  1.00  0.00     0.002 C 
BRANCH  28  29
ATOM     29  C   UNL A   1      34.394  31.469  28.154  1.00  0.00     0.021 C 
BRANCH  29  30
ATOM     30  C   UNL A   1      35.713  30.921  28.692  1.00  0.00     0.116 C 
BRANCH  30  31
ATOM     31  N   UNL A   1      35.682  30.716  30.131  1.00  0.00    -0.352 N 
ATOM     32  C   UNL A   1      36.586  30.084  30.946  1.00  0.00     0.251 C 
ATOM     33  H   UNL A   1      34.895  31.087  30.589  1.00  0.00     0.163 HD
ATOM     34  O   UNL A   1      36.293  29.866  32.122  1.00  0.00    -0.269 OA
BRANCH  32  35
ATOM     35  C   UNL A   1      37.897  29.643  30.420  1.00  0.00     0.039 A 
ATOM     36  C   UNL A   1      38.158  29.792  29.055  1.00  0.00     0.014 A 
ATOM     37  C   UNL A   1      38.861  29.068  31.254  1.00  0.00     0.014 A 
ATOM     38  C   UNL A   1      39.402  29.419  28.540  1.00  0.00     0.010 A 
ATOM     39  C   UNL A   1      40.126  28.767  30.753  1.00  0.00     0.010 A 
ATOM     40  C   UNL A   1      40.411  28.934  29.390  1.00  0.00    -0.014 A 
BRANCH  40  41
ATOM     41  C   UNL A   1      41.765  28.621  28.863  1.00  0.00     0.031 A 
ATOM     42  C   UNL A   1      42.832  29.681  28.799  1.00  0.00     0.074 A 
ATOM     43  C   UNL A   1      42.023  27.380  28.400  1.00  0.00     0.049 A 
ATOM     44  N   UNL A   1      44.073  29.577  28.395  1.00  0.00    -0.248 NA
ATOM     45  C   UNL A   1      42.452  31.037  29.223  1.00  0.00     0.031 C 
ATOM     46  C   UNL A   1      41.063  26.275  28.363  1.00  0.00     0.029 A 
ATOM     47  N   UNL A   1      43.172  26.837  27.880  1.00  0.00    -0.354 N 
ATOM     48  C   UNL A   1      44.616  30.853  28.497  1.00  0.00     0.074 A 
ATOM     49  C   UNL A   1      43.554  31.723  28.957  1.00  0.00     0.031 C 
ATOM     50  C   UNL A   1      41.675  25.175  27.898  1.00  0.00     0.029 A 
ATOM     51  C   UNL A   1      43.056  25.504  27.565  1.00  0.00     0.049 A 
ATOM     52  H   UNL A   1      43.999  27.353  27.748  1.00  0.00     0.167 HD
ATOM     53  C   UNL A   1      45.883  31.262  28.249  1.00  0.00     0.031 A 
ATOM     54  C   UNL A   1      43.962  24.638  27.069  1.00  0.00     0.031 A 
ATOM     55  C   UNL A   1      46.938  30.393  27.793  1.00  0.00     0.049 A 
ATOM     56  C   UNL A   1      45.360  25.118  26.793  1.00  0.00     0.074 A 
ATOM     57  C   UNL A   1      48.272  30.695  27.582  1.00  0.00     0.029 A 
ATOM     58  N   UNL A   1      46.777  29.055  27.466  1.00  0.00    -0.354 N 
ATOM     59  N   UNL A   1      45.877  26.309  26.980  1.00  0.00    -0.248 NA
ATOM     60  C   UNL A   1      46.301  24.129  26.252  1.00  0.00     0.031 C 
ATOM     61  C   UNL A   1      48.903  29.558  27.065  1.00  0.00     0.029 A 
ATOM     62  C   UNL A   1      47.978  28.527  27.018  1.00  0.00     0.049 A 
ATOM     63  H   UNL A   1      45.933  28.553  27.540  1.00  0.00     0.167 HD
ATOM     64  C   UNL A   1      47.211  26.205  26.603  1.00  0.00     0.074 A 
ATOM     65  C   UNL A   1      47.424  24.831  26.198  1.00  0.00     0.031 C 
ATOM     66  C   UNL A   1      48.174  27.162  26.597  1.00  0.00     0.031 A 
BRANCH  53  67
ATOM     67  C   UNL A   1      46.192  32.727  28.440  1.00  0.00    -0.014 A 
ATOM     68  C   UNL A   1      46.019  33.656  27.397  1.00  0.00     0.010 A 
ATOM     69  C   UNL A   1      46.643  33.186  29.691  1.00  0.00     0.010 A 
ATOM     70  C   UNL A   1      46.346  35.003  27.585  1.00  0.00     0.020 A 
ATOM     71  C   UNL A   1      46.942  34.537  29.893  1.00  0.00     0.020 A 
ATOM     72  C   UNL A   1      46.812  35.433  28.831  1.00  0.00     0.054 A 
BRANCH  72  73
ATOM     73  S   UNL A   1      47.232  37.185  29.045  1.00  0.00     0.124 S 
ATOM     74  O   UNL A   1      48.190  37.398  27.962  1.00  0.00    -0.237 OA
ATOM     75  O   UNL A   1      45.941  37.847  28.879  1.00  0.00    -0.237 OA
ATOM     76  O   UNL A   1      47.793  37.245  30.393  1.00  0.00    -0.744 OA
ENDBRANCH  72  73
ENDBRANCH  53  67
BRANCH  54  77
ATOM     77  C   UNL A   1      43.583  23.217  26.842  1.00  0.00    -0.014 A 
ATOM     78  C   UNL A   1      43.019  22.459  27.885  1.00  0.00     0.010 A 
ATOM     79  C   UNL A   1      43.760  22.618  25.581  1.00  0.00     0.010 A 
ATOM     80  C   UNL A   1      42.652  21.127  27.675  1.00  0.00     0.020 A 
ATOM     81  C   UNL A   1      43.366  21.296  25.359  1.00  0.00     0.020 A 
ATOM     82  C   UNL A   1      42.823  20.556  26.410  1.00  0.00     0.054 A 
BRANCH  82  83
ATOM     83  S   UNL A   1      42.278  18.845  26.145  1.00  0.00     0.124 S 
ATOM     84  O   UNL A   1      43.234  18.372  25.149  1.00  0.00    -0.237 OA
ATOM     85  O   UNL A   1      42.411  18.262  27.478  1.00  0.00    -0.237 OA
ATOM     86  O   UNL A   1      40.902  18.994  25.673  1.00  0.00    -0.744 OA
ENDBRANCH  82  83
ENDBRANCH  54  77
BRANCH  66  87
ATOM     87  C   UNL A   1      49.554  26.743  26.157  1.00  0.00    -0.014 A 
ATOM     88  C   UNL A   1      50.491  26.232  27.073  1.00  0.00     0.010 A 
ATOM     89  C   UNL A   1      49.912  26.848  24.800  1.00  0.00     0.010 A 
ATOM     90  C   UNL A   1      51.778  25.888  26.651  1.00  0.00     0.020 A 
ATOM     91  C   UNL A   1      51.186  26.472  24.368  1.00  0.00     0.020 A 
ATOM     92  C   UNL A   1      52.119  26.015  25.302  1.00  0.00     0.054 A 
BRANCH  92  93
ATOM     93  S   UNL A   1      53.793  25.554  24.776  1.00  0.00     0.124 S 
ATOM     94  O   UNL A   1      54.603  26.029  25.894  1.00  0.00    -0.237 OA
ATOM     95  O   UNL A   1      53.699  24.102  24.641  1.00  0.00    -0.237 OA
ATOM     96  O   UNL A   1      53.975  26.280  23.521  1.00  0.00    -0.744 OA
ENDBRANCH  92  93
ENDBRANCH  66  87
ENDBRANCH  40  41
ENDBRANCH  32  35
ENDBRANCH  30  31
ENDBRANCH  29  30
ENDBRANCH  28  29
ENDBRANCH  27  28
ENDBRANCH   1  27
TORSDOF 22
ENDMDL
MODEL 2
REMARK VINA RESULT:     -10.4      0.874      8.032
REMARK SMILES O=C(CN(CC(=O)NCc1ccccc1)c1ccccc1)NCCCCCCNC(=O)c1ccc(-c2c3nc(c(-c4ccc(S(=O)(=O)[O-])cc4)c4ccc([nH]4)c(-c4ccc(S(=O)(=O)[O-])cc4)c4nc(c(-c5ccc(S(=O)(=O)[O-])cc5)c5ccc2[nH]5)C=C4)C=C3)cc1
REMARK SMILES IDX 24 1 23 2 22 3 1 4 2 5 3 7 4 8 5 9 6 10 7 11 8 12 9 14 10 15
REMARK SMILES IDX 11 16 15 17 12 18 14 19 13 20 16 21 17 22 21 23 18 24 20 25
REMARK SMILES IDX 19 26 25 27 26 28 27 29 28 30 29 31 30 32 31 34 32 35 33 36
REMARK SMILES IDX 91 37 34 38 90 39 35 40 36 41 37 42 84 43 38 44 89 45 83 46
REMARK SMILES IDX 85 47 39 48 88 49 82 50 81 51 40 53 70 54 51 55 69 56 52 57
REMARK SMILES IDX 55 58 68 59 86 60 53 61 54 62 67 64 87 65 56 66 41 67 42 68
REMARK SMILES IDX 50 69 43 70 49 71 44 72 45 73 46 74 47 75 48 76 71 77 72 78
REMARK SMILES IDX 80 79 73 80 79 81 74 82 75 83 76 84 77 85 78 86 57 87 58 88
REMARK SMILES IDX 66 89 59 90 65 91 60 92 61 93 62 94 63 95 64 96
REMARK H PARENT 22 6 8 13 29 33 85 52 55 63
REMARK Flexibility Score: inf
ROOT
ATOM      1  C   UNL A   1      32.998  28.280  26.607  1.00  0.00     0.021 C 
ENDROOT
BRANCH   1   2
ATOM      2  C   UNL A   1      31.849  27.287  26.772  1.00  0.00     0.116 C 
BRANCH   2   3
ATOM      3  N   UNL A   1      32.149  25.989  26.206  1.00  0.00    -0.355 N 
ATOM      4  O   UNL A   1      30.027  25.161  26.443  1.00  0.00    -0.273 OA
ATOM      5  C   UNL A   1      31.180  25.032  26.029  1.00  0.00     0.239 C 
ATOM      6  H   UNL A   1      33.076  25.787  25.939  1.00  0.00     0.163 HD
BRANCH   5   7
ATOM      7  C   UNL A   1      31.629  23.747  25.335  1.00  0.00     0.217 C 
BRANCH   7   8
ATOM      8  N   UNL A   1      32.593  23.879  24.209  1.00  0.00    -0.353 N 
BRANCH   8   9
ATOM      9  C   UNL A   1      32.059  24.442  22.942  1.00  0.00     0.217 C 
BRANCH   9  10
ATOM     10  C   UNL A   1      32.357  25.923  22.641  1.00  0.00     0.239 C 
ATOM     11  O   UNL A   1      33.440  26.255  22.142  1.00  0.00    -0.273 OA
ATOM     12  N   UNL A   1      31.464  26.924  22.863  1.00  0.00    -0.350 N 
ATOM     13  H   UNL A   1      31.835  27.833  22.788  1.00  0.00     0.163 HD
BRANCH  12  14
ATOM     14  C   UNL A   1      30.060  26.870  23.191  1.00  0.00     0.151 C 
BRANCH  14  15
ATOM     15  C   UNL A   1      29.394  28.218  23.307  1.00  0.00    -0.029 A 
ATOM     16  C   UNL A   1      28.042  28.420  23.000  1.00  0.00     0.005 A 
ATOM     17  C   UNL A   1      30.169  29.339  23.643  1.00  0.00     0.005 A 
ATOM     18  C   UNL A   1      27.480  29.698  23.013  1.00  0.00     0.000 A 
ATOM     19  C   UNL A   1      29.606  30.619  23.670  1.00  0.00     0.000 A 
ATOM     20  C   UNL A   1      28.263  30.798  23.348  1.00  0.00     0.000 A 
ENDBRANCH  14  15
ENDBRANCH  12  14
ENDBRANCH   9  10
ENDBRANCH   8   9
BRANCH   8  21
ATOM     21  C   UNL A   1      33.960  23.714  24.442  1.00  0.00     0.038 A 
ATOM     22  C   UNL A   1      34.539  23.815  25.719  1.00  0.00     0.026 A 
ATOM     23  C   UNL A   1      34.863  23.401  23.410  1.00  0.00     0.026 A 
ATOM     24  C   UNL A   1      35.895  23.544  25.964  1.00  0.00     0.002 A 
ATOM     25  C   UNL A   1      36.230  23.176  23.633  1.00  0.00     0.002 A 
ATOM     26  C   UNL A   1      36.744  23.225  24.917  1.00  0.00     0.000 A 
ENDBRANCH   8  21
ENDBRANCH   7   8
ENDBRANCH   5   7
ENDBRANCH   2   3
ENDBRANCH   1   2
BRANCH   1  27
ATOM     27  C   UNL A   1      32.785  29.617  27.323  1.00  0.00     0.002 C 
BRANCH  27  28
ATOM     28  C   UNL A   1      33.862  30.677  27.070  1.00  0.00     0.002 C 
BRANCH  28  29
ATOM     29  C   UNL A   1      34.152  31.614  28.245  1.00  0.00     0.021 C 
BRANCH  29  30
ATOM     30  C   UNL A   1      35.547  31.482  28.851  1.00  0.00     0.116 C 
BRANCH  30  31
ATOM     31  N   UNL A   1      35.511  31.335  30.297  1.00  0.00    -0.352 N 
ATOM     32  C   UNL A   1      36.424  30.759  31.142  1.00  0.00     0.251 C 
ATOM     33  H   UNL A   1      34.712  31.706  30.736  1.00  0.00     0.163 HD
ATOM     34  O   UNL A   1      36.128  30.581  32.325  1.00  0.00    -0.269 OA
BRANCH  32  35
ATOM     35  C   UNL A   1      37.748  30.328  30.643  1.00  0.00     0.039 A 
ATOM     36  C   UNL A   1      38.021  30.440  29.276  1.00  0.00     0.014 A 
ATOM     37  C   UNL A   1      38.715  29.797  31.503  1.00  0.00     0.014 A 
ATOM     38  C   UNL A   1      39.277  30.076  28.785  1.00  0.00     0.010 A 
ATOM     39  C   UNL A   1      39.991  29.506  31.023  1.00  0.00     0.010 A 
ATOM     40  C   UNL A   1      40.286  29.637  29.659  1.00  0.00    -0.014 A 
BRANCH  40  41
ATOM     41  C   UNL A   1      41.651  29.335  29.154  1.00  0.00     0.031 A 
ATOM     42  C   UNL A   1      41.995  27.965  28.632  1.00  0.00     0.074 A 
ATOM     43  C   UNL A   1      42.601  30.291  29.205  1.00  0.00     0.049 A 
ATOM     44  N   UNL A   1      43.124  27.534  28.129  1.00  0.00    -0.248 NA
ATOM     45  C   UNL A   1      40.941  26.940  28.702  1.00  0.00     0.031 C 
ATOM     46  C   UNL A   1      42.411  31.645  29.730  1.00  0.00     0.029 A 
ATOM     47  N   UNL A   1      43.913  30.275  28.801  1.00  0.00    -0.354 N 
ATOM     48  C   UNL A   1      42.925  26.189  27.841  1.00  0.00     0.074 A 
ATOM     49  C   UNL A   1      41.581  25.863  28.270  1.00  0.00     0.031 C 
ATOM     50  C   UNL A   1      43.545  32.343  29.569  1.00  0.00     0.029 A 
ATOM     51  C   UNL A   1      44.555  31.479  28.970  1.00  0.00     0.049 A 
ATOM     52  H   UNL A   1      44.351  29.477  28.426  1.00  0.00     0.167 HD
ATOM     53  C   UNL A   1      43.773  25.307  27.259  1.00  0.00     0.031 A 
ATOM     54  C   UNL A   1      45.815  31.850  28.669  1.00  0.00     0.031 A 
ATOM     55  C   UNL A   1      45.109  25.635  26.832  1.00  0.00     0.049 A 
ATOM     56  C   UNL A   1      46.742  30.852  28.031  1.00  0.00     0.074 A 
ATOM     57  C   UNL A   1      46.022  24.834  26.167  1.00  0.00     0.029 A 
ATOM     58  N   UNL A   1      45.731  26.858  27.038  1.00  0.00    -0.354 N 
ATOM     59  N   UNL A   1      46.506  29.609  27.687  1.00  0.00    -0.248 NA
ATOM     60  C   UNL A   1      48.102  31.315  27.729  1.00  0.00     0.031 C 
ATOM     61  C   UNL A   1      47.217  25.550  26.030  1.00  0.00     0.029 A 
ATOM     62  C   UNL A   1      47.027  26.822  26.548  1.00  0.00     0.049 A 
ATOM     63  H   UNL A   1      45.313  27.638  27.470  1.00  0.00     0.167 HD
ATOM     64  C   UNL A   1      47.681  29.148  27.103  1.00  0.00     0.074 A 
ATOM     65  C   UNL A   1      48.617  30.254  27.124  1.00  0.00     0.031 C 
ATOM     66  C   UNL A   1      47.958  27.922  26.593  1.00  0.00     0.031 A 
BRANCH  53  67
ATOM     67  C   UNL A   1      43.288  23.891  27.075  1.00  0.00    -0.014 A 
ATOM     68  C   UNL A   1      42.773  23.445  25.843  1.00  0.00     0.010 A 
ATOM     69  C   UNL A   1      43.366  22.983  28.147  1.00  0.00     0.010 A 
ATOM     70  C   UNL A   1      42.294  22.138  25.705  1.00  0.00     0.020 A 
ATOM     71  C   UNL A   1      42.918  21.667  28.004  1.00  0.00     0.020 A 
ATOM     72  C   UNL A   1      42.363  21.259  26.790  1.00  0.00     0.054 A 
BRANCH  72  73
ATOM     73  S   UNL A   1      41.732  19.571  26.583  1.00  0.00     0.124 S 
ATOM     74  O   UNL A   1      40.287  19.782  26.645  1.00  0.00    -0.237 OA
ATOM     75  O   UNL A   1      42.255  19.191  25.274  1.00  0.00    -0.237 OA
ATOM     76  O   UNL A   1      42.304  18.846  27.716  1.00  0.00    -0.744 OA
ENDBRANCH  72  73
ENDBRANCH  53  67
BRANCH  54  77
ATOM     77  C   UNL A   1      46.259  33.247  28.931  1.00  0.00    -0.014 A 
ATOM     78  C   UNL A   1      45.722  34.312  28.185  1.00  0.00     0.010 A 
ATOM     79  C   UNL A   1      47.201  33.524  29.938  1.00  0.00     0.010 A 
ATOM     80  C   UNL A   1      46.128  35.626  28.433  1.00  0.00     0.020 A 
ATOM     81  C   UNL A   1      47.587  34.840  30.208  1.00  0.00     0.020 A 
ATOM     82  C   UNL A   1      47.054  35.882  29.448  1.00  0.00     0.054 A 
BRANCH  82  83
ATOM     83  S   UNL A   1      47.516  37.603  29.794  1.00  0.00     0.124 S 
ATOM     84  O   UNL A   1      48.865  37.673  29.242  1.00  0.00    -0.237 OA
ATOM     85  O   UNL A   1      46.494  38.354  29.068  1.00  0.00    -0.237 OA
ATOM     86  O   UNL A   1      47.428  37.693  31.250  1.00  0.00    -0.744 OA
ENDBRANCH  82  83
ENDBRANCH  54  77
BRANCH  66  87
ATOM     87  C   UNL A   1      49.327  27.722  25.994  1.00  0.00    -0.014 A 
ATOM     88  C   UNL A   1      49.537  27.800  24.605  1.00  0.00     0.010 A 
ATOM     89  C   UNL A   1      50.424  27.468  26.838  1.00  0.00     0.010 A 
ATOM     90  C   UNL A   1      50.807  27.572  24.067  1.00  0.00     0.020 A 
ATOM     91  C   UNL A   1      51.701  27.273  26.306  1.00  0.00     0.020 A 
ATOM     92  C   UNL A   1      51.880  27.304  24.922  1.00  0.00     0.054 A 
BRANCH  92  93
ATOM     93  S   UNL A   1      53.520  27.020  24.202  1.00  0.00     0.124 S 
ATOM     94  O   UNL A   1      53.408  25.642  23.728  1.00  0.00    -0.237 OA
ATOM     95  O   UNL A   1      53.594  28.039  23.157  1.00  0.00    -0.237 OA
ATOM     96  O   UNL A   1      54.432  27.220  25.326  1.00  0.00    -0.744 OA
ENDBRANCH  92  93
ENDBRANCH  66  87
ENDBRANCH  40  41
ENDBRANCH  32  35
ENDBRANCH  30  31
ENDBRANCH  29  30
ENDBRANCH  28  29
ENDBRANCH  27  28
ENDBRANCH   1  27
TORSDOF 22
ENDMDL
MODEL 3
REMARK VINA RESULT:     -10.3      5.533     13.254
REMARK SMILES O=C(CN(CC(=O)NCc1ccccc1)c1ccccc1)NCCCCCCNC(=O)c1ccc(-c2c3nc(c(-c4ccc(S(=O)(=O)[O-])cc4)c4ccc([nH]4)c(-c4ccc(S(=O)(=O)[O-])cc4)c4nc(c(-c5ccc(S(=O)(=O)[O-])cc5)c5ccc2[nH]5)C=C4)C=C3)cc1
REMARK SMILES IDX 24 1 23 2 22 3 1 4 2 5 3 7 4 8 5 9 6 10 7 11 8 12 9 14 10 15
REMARK SMILES IDX 11 16 15 17 12 18 14 19 13 20 16 21 17 22 21 23 18 24 20 25
REMARK SMILES IDX 19 26 25 27 26 28 27 29 28 30 29 31 30 32 31 34 32 35 33 36
REMARK SMILES IDX 91 37 34 38 90 39 35 40 36 41 37 42 84 43 38 44 89 45 83 46
REMARK SMILES IDX 85 47 39 48 88 49 82 50 81 51 40 53 70 54 51 55 69 56 52 57
REMARK SMILES IDX 55 58 68 59 86 60 53 61 54 62 67 64 87 65 56 66 41 67 42 68
REMARK SMILES IDX 50 69 43 70 49 71 44 72 45 73 46 74 47 75 48 76 71 77 72 78
REMARK SMILES IDX 80 79 73 80 79 81 74 82 75 83 76 84 77 85 78 86 57 87 58 88
REMARK SMILES IDX 66 89 59 90 65 91 60 92 61 93 62 94 63 95 64 96
REMARK H PARENT 22 6 8 13 29 33 85 52 55 63
REMARK Flexibility Score: inf
ROOT
ATOM      1  C   UNL A   1      47.609  25.185  27.323  1.00  0.00     0.021 C 
ENDROOT
BRANCH   1   2
ATOM      2  C   UNL A   1      46.781  24.129  26.594  1.00  0.00     0.116 C 
BRANCH   2   3
ATOM      3  N   UNL A   1      45.601  24.682  25.965  1.00  0.00    -0.355 N 
ATOM      4  O   UNL A   1      44.334  22.789  26.195  1.00  0.00    -0.273 OA
ATOM      5  C   UNL A   1      44.428  23.972  25.868  1.00  0.00     0.239 C 
ATOM      6  H   UNL A   1      45.639  25.595  25.596  1.00  0.00     0.163 HD
BRANCH   5   7
ATOM      7  C   UNL A   1      43.243  24.720  25.262  1.00  0.00     0.217 C 
BRANCH   7   8
ATOM      8  N   UNL A   1      42.309  25.399  26.202  1.00  0.00    -0.353 N 
BRANCH   8   9
ATOM      9  C   UNL A   1      41.413  24.519  26.997  1.00  0.00     0.217 C 
BRANCH   9  10
ATOM     10  C   UNL A   1      39.899  24.790  26.918  1.00  0.00     0.239 C 
ATOM     11  O   UNL A   1      39.221  24.296  26.008  1.00  0.00    -0.273 OA
ATOM     12  N   UNL A   1      39.225  25.534  27.835  1.00  0.00    -0.350 N 
ATOM     13  H   UNL A   1      38.303  25.769  27.580  1.00  0.00     0.163 HD
BRANCH  12  14
ATOM     14  C   UNL A   1      39.643  26.037  29.121  1.00  0.00     0.151 C 
BRANCH  14  15
ATOM     15  C   UNL A   1      39.764  27.538  29.195  1.00  0.00    -0.029 A 
ATOM     16  C   UNL A   1      40.595  28.183  30.120  1.00  0.00     0.005 A 
ATOM     17  C   UNL A   1      38.949  28.334  28.374  1.00  0.00     0.005 A 
ATOM     18  C   UNL A   1      40.606  29.575  30.237  1.00  0.00     0.000 A 
ATOM     19  C   UNL A   1      38.968  29.728  28.479  1.00  0.00     0.000 A 
ATOM     20  C   UNL A   1      39.791  30.347  29.415  1.00  0.00     0.000 A 
ENDBRANCH  14  15
ENDBRANCH  12  14
ENDBRANCH   9  10
ENDBRANCH   8   9
BRANCH   8  21
ATOM     21  C   UNL A   1      42.471  26.757  26.481  1.00  0.00     0.038 A 
ATOM     22  C   UNL A   1      41.767  27.769  25.806  1.00  0.00     0.026 A 
ATOM     23  C   UNL A   1      43.338  27.217  27.489  1.00  0.00     0.026 A 
ATOM     24  C   UNL A   1      41.854  29.125  26.162  1.00  0.00     0.002 A 
ATOM     25  C   UNL A   1      43.472  28.573  27.822  1.00  0.00     0.002 A 
ATOM     26  C   UNL A   1      42.710  29.529  27.172  1.00  0.00     0.000 A 
ENDBRANCH   8  21
ENDBRANCH   7   8
ENDBRANCH   5   7
ENDBRANCH   2   3
ENDBRANCH   1   2
BRANCH   1  27
ATOM     27  C   UNL A   1      49.005  24.715  27.743  1.00  0.00     0.002 C 
BRANCH  27  28
ATOM     28  C   UNL A   1      50.121  25.753  27.591  1.00  0.00     0.002 C 
BRANCH  28  29
ATOM     29  C   UNL A   1      51.004  25.594  26.351  1.00  0.00     0.021 C 
BRANCH  29  30
ATOM     30  C   UNL A   1      50.510  26.323  25.104  1.00  0.00     0.116 C 
BRANCH  30  31
ATOM     31  N   UNL A   1      51.154  27.614  24.926  1.00  0.00    -0.352 N 
ATOM     32  C   UNL A   1      50.801  28.845  25.417  1.00  0.00     0.251 C 
ATOM     33  H   UNL A   1      51.966  27.603  24.370  1.00  0.00     0.163 HD
ATOM     34  O   UNL A   1      51.384  29.851  25.009  1.00  0.00    -0.269 OA
BRANCH  32  35
ATOM     35  C   UNL A   1      49.713  28.977  26.412  1.00  0.00     0.039 A 
ATOM     36  C   UNL A   1      50.021  29.471  27.682  1.00  0.00     0.014 A 
ATOM     37  C   UNL A   1      48.401  28.600  26.111  1.00  0.00     0.014 A 
ATOM     38  C   UNL A   1      49.006  29.642  28.627  1.00  0.00     0.010 A 
ATOM     39  C   UNL A   1      47.379  28.841  27.028  1.00  0.00     0.010 A 
ATOM     40  C   UNL A   1      47.669  29.360  28.298  1.00  0.00    -0.014 A 
BRANCH  40  41
ATOM     41  C   UNL A   1      46.574  29.624  29.268  1.00  0.00     0.031 A 
ATOM     42  C   UNL A   1      46.217  28.610  30.323  1.00  0.00     0.074 A 
ATOM     43  C   UNL A   1      45.869  30.770  29.173  1.00  0.00     0.049 A 
ATOM     44  N   UNL A   1      45.312  28.686  31.266  1.00  0.00    -0.248 NA
ATOM     45  C   UNL A   1      46.957  27.339  30.304  1.00  0.00     0.031 C 
ATOM     46  C   UNL A   1      46.084  31.814  28.168  1.00  0.00     0.029 A 
ATOM     47  N   UNL A   1      44.836  31.254  29.936  1.00  0.00    -0.354 N 
ATOM     48  C   UNL A   1      45.359  27.471  31.939  1.00  0.00     0.074 A 
ATOM     49  C   UNL A   1      46.350  26.658  31.266  1.00  0.00     0.031 C 
ATOM     50  C   UNL A   1      45.247  32.834  28.408  1.00  0.00     0.029 A 
ATOM     51  C   UNL A   1      44.408  32.503  29.554  1.00  0.00     0.049 A 
ATOM     52  H   UNL A   1      44.440  30.753  30.685  1.00  0.00     0.167 HD
ATOM     53  C   UNL A   1      44.657  27.071  33.026  1.00  0.00     0.031 A 
ATOM     54  C   UNL A   1      43.452  33.299  30.072  1.00  0.00     0.031 A 
ATOM     55  C   UNL A   1      43.673  27.884  33.695  1.00  0.00     0.049 A 
ATOM     56  C   UNL A   1      42.679  32.830  31.274  1.00  0.00     0.074 A 
ATOM     57  C   UNL A   1      42.959  27.599  34.847  1.00  0.00     0.029 A 
ATOM     58  N   UNL A   1      43.253  29.134  33.267  1.00  0.00    -0.354 N 
ATOM     59  N   UNL A   1      42.800  31.713  31.949  1.00  0.00    -0.248 NA
ATOM     60  C   UNL A   1      41.650  33.741  31.791  1.00  0.00     0.031 C 
ATOM     61  C   UNL A   1      42.062  28.648  35.077  1.00  0.00     0.029 A 
ATOM     62  C   UNL A   1      42.263  29.618  34.108  1.00  0.00     0.049 A 
ATOM     63  H   UNL A   1      43.606  29.609  32.479  1.00  0.00     0.167 HD
ATOM     64  C   UNL A   1      41.879  31.797  32.988  1.00  0.00     0.074 A 
ATOM     65  C   UNL A   1      41.226  33.083  32.861  1.00  0.00     0.031 C 
ATOM     66  C   UNL A   1      41.603  30.892  33.960  1.00  0.00     0.031 A 
BRANCH  53  67
ATOM     67  C   UNL A   1      44.911  25.678  33.546  1.00  0.00    -0.014 A 
ATOM     68  C   UNL A   1      44.374  24.546  32.904  1.00  0.00     0.010 A 
ATOM     69  C   UNL A   1      45.718  25.495  34.684  1.00  0.00     0.010 A 
ATOM     70  C   UNL A   1      44.591  23.265  33.424  1.00  0.00     0.020 A 
ATOM     71  C   UNL A   1      45.964  24.215  35.188  1.00  0.00     0.020 A 
ATOM     72  C   UNL A   1      45.380  23.109  34.568  1.00  0.00     0.054 A 
BRANCH  72  73
ATOM     73  S   UNL A   1      45.642  21.438  35.221  1.00  0.00     0.124 S 
ATOM     74  O   UNL A   1      46.882  21.046  34.555  1.00  0.00    -0.237 OA
ATOM     75  O   UNL A   1      45.749  21.668  36.659  1.00  0.00    -0.237 OA
ATOM     76  O   UNL A   1      44.450  20.708  34.797  1.00  0.00    -0.744 OA
ENDBRANCH  72  73
ENDBRANCH  53  67
BRANCH  54  77
ATOM     77  C   UNL A   1      43.202  34.641  29.478  1.00  0.00    -0.014 A 
ATOM     78  C   UNL A   1      43.956  35.752  29.898  1.00  0.00     0.010 A 
ATOM     79  C   UNL A   1      42.229  34.815  28.477  1.00  0.00     0.010 A 
ATOM     80  C   UNL A   1      43.733  37.013  29.338  1.00  0.00     0.020 A 
ATOM     81  C   UNL A   1      42.024  36.068  27.893  1.00  0.00     0.020 A 
ATOM     82  C   UNL A   1      42.772  37.161  28.334  1.00  0.00     0.054 A 
BRANCH  82  83
ATOM     83  S   UNL A   1      42.547  38.795  27.576  1.00  0.00     0.124 S 
ATOM     84  O   UNL A   1      42.171  39.614  28.724  1.00  0.00    -0.237 OA
ATOM     85  O   UNL A   1      43.867  39.064  27.010  1.00  0.00    -0.237 OA
ATOM     86  O   UNL A   1      41.489  38.571  26.592  1.00  0.00    -0.744 OA
ENDBRANCH  82  83
ENDBRANCH  54  77
BRANCH  66  87
ATOM     87  C   UNL A   1      40.561  31.277  34.979  1.00  0.00    -0.014 A 
ATOM     88  C   UNL A   1      39.247  30.778  34.907  1.00  0.00     0.010 A 
ATOM     89  C   UNL A   1      40.907  32.140  36.035  1.00  0.00     0.010 A 
ATOM     90  C   UNL A   1      38.285  31.180  35.838  1.00  0.00     0.020 A 
ATOM     91  C   UNL A   1      39.957  32.516  36.988  1.00  0.00     0.020 A 
ATOM     92  C   UNL A   1      38.646  32.051  36.870  1.00  0.00     0.054 A 
BRANCH  92  93
ATOM     93  S   UNL A   1      37.383  32.552  38.072  1.00  0.00     0.124 S 
ATOM     94  O   UNL A   1      36.902  31.262  38.560  1.00  0.00    -0.237 OA
ATOM     95  O   UNL A   1      38.148  33.342  39.033  1.00  0.00    -0.237 OA
ATOM     96  O   UNL A   1      36.425  33.312  37.272  1.00  0.00    -0.744 OA
ENDBRANCH  92  93
ENDBRANCH  66  87
ENDBRANCH  40  41
ENDBRANCH  32  35
ENDBRANCH  30  31
ENDBRANCH  29  30
ENDBRANCH  28  29
ENDBRANCH  27  28
ENDBRANCH   1  27
TORSDOF 22
ENDMDL
