MODEL 1
REMARK VINA RESULT:     -11.7      0.000      0.000
REMARK SMILES Cc1cccc(C[N@H+]2CC[C@@](C)(C(=O)NCCCCCCNC(=O)c3ccc(-c4c5nc(c(-c6ccc(S(=O)(=O)[O-])cc6)c6ccc([nH]6)c(-c6ccc(S(=O)(=O)[O-])cc6)c6nc(c(-c7ccc(S(=O)(=O)[O-])cc7)c7ccc4[nH]7)C=C6)C=C5)cc3)C2)n1
REMARK SMILES IDX 19 1 18 2 17 3 16 4 15 5 13 6 14 7 11 9 8 10 9 11 85 12
REMARK SMILES IDX 10 14 12 15 7 16 6 17 1 18 2 19 3 20 86 21 4 22 5 23 20 24
REMARK SMILES IDX 21 25 22 26 23 27 24 29 25 30 26 31 84 32 27 33 83 34 28 35
REMARK SMILES IDX 29 36 30 37 77 38 31 39 82 40 76 41 78 42 32 43 81 44 75 45
REMARK SMILES IDX 74 46 33 48 63 49 44 50 62 51 45 52 48 53 61 54 79 55 46 56
REMARK SMILES IDX 47 57 60 59 80 60 49 61 34 62 35 63 43 64 36 65 42 66 37 67
REMARK SMILES IDX 38 68 39 69 40 70 41 71 64 72 65 73 73 74 66 75 72 76 67 77
REMARK SMILES IDX 68 78 69 79 70 80 71 81 50 82 51 83 59 84 52 85 58 86 53 87
REMARK SMILES IDX 54 88 55 89 56 90 57 91
REMARK H PARENT 15 8 8 13 22 28 78 47 48 58
REMARK Flexibility Score: inf
ROOT
ATOM      1  C   UNL A   1      31.678  28.644  26.655  1.00  0.00     0.002 C 
ENDROOT
BRANCH   1   2
ATOM      2  C   UNL A   1      31.462  29.217  25.237  1.00  0.00     0.002 C 
BRANCH   2   3
ATOM      3  C   UNL A   1      30.787  28.173  23.975  1.00  0.00     0.021 C 
BRANCH   3   4
ATOM      4  C   UNL A   1      31.731  26.905  22.467  1.00  0.00     0.116 C 
BRANCH   4   5
ATOM      5  N   UNL A   1      32.821  25.804  22.530  1.00  0.00    -0.355 N 
ATOM      6  C   UNL A   1      32.883  24.698  23.313  1.00  0.00     0.231 C 
ATOM      7  O   UNL A   1      33.949  24.072  23.215  1.00  0.00    -0.274 OA
ATOM      8  H   UNL A   1      33.579  25.925  21.911  1.00  0.00     0.163 HD
BRANCH   6   9
ATOM      9  C   UNL A   1      31.688  24.164  24.167  1.00  0.00     0.100 C 
ATOM     10  N   UNL A   1      31.962  22.642  26.099  1.00  0.00    -0.329 N 
ATOM     11  C   UNL A   1      31.961  24.012  26.621  1.00  0.00     0.263 C 
ATOM     12  C   UNL A   1      31.703  22.693  24.641  1.00  0.00     0.279 C 
ATOM     13  H   UNL A   1      31.195  22.138  26.543  1.00  0.00     0.348 HD
ATOM     14  C   UNL A   1      31.559  24.953  25.479  1.00  0.00     0.084 C 
ATOM     15  C   UNL A   1      30.442  24.400  23.278  1.00  0.00     0.028 C 
BRANCH  10  16
ATOM     16  C   UNL A   1      33.094  21.763  26.535  1.00  0.00     0.319 C 
BRANCH  16  17
ATOM     17  C   UNL A   1      34.358  21.753  25.628  1.00  0.00     0.095 A 
ATOM     18  C   UNL A   1      38.123  23.964  25.994  1.00  0.00     0.067 C 
ATOM     19  C   UNL A   1      37.236  22.792  25.736  1.00  0.00     0.038 A 
ATOM     20  C   UNL A   1      37.865  21.182  25.193  1.00  0.00     0.023 A 
ATOM     21  N   UNL A   1      35.520  23.029  26.000  1.00  0.00    -0.252 NA
ATOM     22  C   UNL A   1      36.677  19.888  24.764  1.00  0.00     0.004 A 
ATOM     23  C   UNL A   1      34.915  20.165  25.034  1.00  0.00     0.030 A 
ENDBRANCH  16  17
ENDBRANCH  10  16
ENDBRANCH   6   9
ENDBRANCH   4   5
ENDBRANCH   3   4
ENDBRANCH   2   3
ENDBRANCH   1   2
BRANCH   1  24
ATOM     24  C   UNL A   1      33.103  28.203  26.927  1.00  0.00     0.021 C 
BRANCH  24  25
ATOM     25  C   UNL A   1      34.090  29.127  26.251  1.00  0.00     0.116 C 
BRANCH  25  26
ATOM     26  N   UNL A   1      34.028  30.447  26.879  1.00  0.00    -0.352 N 
ATOM     27  C   UNL A   1      34.762  30.836  27.972  1.00  0.00     0.251 C 
ATOM     28  H   UNL A   1      33.413  31.108  26.487  1.00  0.00     0.163 HD
ATOM     29  O   UNL A   1      34.394  31.719  28.732  1.00  0.00    -0.269 OA
BRANCH  27  30
ATOM     30  C   UNL A   1      36.025  30.110  28.160  1.00  0.00     0.039 A 
ATOM     31  C   UNL A   1      37.029  30.191  27.200  1.00  0.00     0.014 A 
ATOM     32  C   UNL A   1      36.257  29.559  29.428  1.00  0.00     0.014 A 
ATOM     33  C   UNL A   1      38.304  29.741  27.535  1.00  0.00     0.010 A 
ATOM     34  C   UNL A   1      37.549  29.245  29.795  1.00  0.00     0.010 A 
ATOM     35  C   UNL A   1      38.576  29.301  28.843  1.00  0.00    -0.014 A 
BRANCH  35  36
ATOM     36  C   UNL A   1      39.917  28.829  29.242  1.00  0.00     0.031 A 
ATOM     37  C   UNL A   1      40.825  29.780  29.973  1.00  0.00     0.074 A 
ATOM     38  C   UNL A   1      40.331  27.593  28.902  1.00  0.00     0.049 A 
ATOM     39  N   UNL A   1      42.068  29.615  30.335  1.00  0.00    -0.248 NA
ATOM     40  C   UNL A   1      40.273  31.106  30.316  1.00  0.00     0.031 C 
ATOM     41  C   UNL A   1      39.543  26.605  28.158  1.00  0.00     0.029 A 
ATOM     42  N   UNL A   1      41.523  26.958  29.136  1.00  0.00    -0.354 N 
ATOM     43  C   UNL A   1      42.442  30.808  30.940  1.00  0.00     0.074 A 
ATOM     44  C   UNL A   1      41.328  31.719  30.827  1.00  0.00     0.031 C 
ATOM     45  C   UNL A   1      40.265  25.479  28.025  1.00  0.00     0.029 A 
ATOM     46  C   UNL A   1      41.580  25.684  28.621  1.00  0.00     0.049 A 
ATOM     47  H   UNL A   1      42.268  27.374  29.625  1.00  0.00     0.167 HD
ATOM     48  C   UNL A   1      43.598  31.106  31.571  1.00  0.00     0.031 A 
ATOM     49  C   UNL A   1      42.591  24.793  28.615  1.00  0.00     0.031 A 
ATOM     50  C   UNL A   1      44.695  30.189  31.690  1.00  0.00     0.049 A 
ATOM     51  C   UNL A   1      43.891  25.176  29.273  1.00  0.00     0.074 A 
ATOM     52  C   UNL A   1      45.903  30.376  32.336  1.00  0.00     0.029 A 
ATOM     53  N   UNL A   1      44.717  28.911  31.154  1.00  0.00    -0.354 N 
ATOM     54  N   UNL A   1      44.201  26.284  29.904  1.00  0.00    -0.248 NA
ATOM     55  C   UNL A   1      44.978  24.187  29.224  1.00  0.00     0.031 C 
ATOM     56  C   UNL A   1      46.682  29.235  32.134  1.00  0.00     0.029 A 
ATOM     57  C   UNL A   1      45.932  28.310  31.426  1.00  0.00     0.049 A 
ATOM     58  H   UNL A   1      43.978  28.494  30.655  1.00  0.00     0.167 HD
ATOM     59  C   UNL A   1      45.509  26.114  30.347  1.00  0.00     0.074 A 
ATOM     60  C   UNL A   1      45.918  24.787  29.940  1.00  0.00     0.031 C 
ATOM     61  C   UNL A   1      46.307  26.980  31.017  1.00  0.00     0.031 A 
BRANCH  48  62
ATOM     62  C   UNL A   1      43.725  32.467  32.198  1.00  0.00    -0.014 A 
ATOM     63  C   UNL A   1      44.210  33.560  31.456  1.00  0.00     0.010 A 
ATOM     64  C   UNL A   1      43.289  32.674  33.520  1.00  0.00     0.010 A 
ATOM     65  C   UNL A   1      44.265  34.833  32.026  1.00  0.00     0.020 A 
ATOM     66  C   UNL A   1      43.313  33.953  34.083  1.00  0.00     0.020 A 
ATOM     67  C   UNL A   1      43.806  35.023  33.333  1.00  0.00     0.054 A 
BRANCH  67  68
ATOM     68  S   UNL A   1      43.815  36.703  34.013  1.00  0.00     0.124 S 
ATOM     69  O   UNL A   1      44.926  36.639  34.961  1.00  0.00    -0.237 OA
ATOM     70  O   UNL A   1      44.048  37.523  32.828  1.00  0.00    -0.237 OA
ATOM     71  O   UNL A   1      42.492  36.842  34.615  1.00  0.00    -0.744 OA
ENDBRANCH  67  68
ENDBRANCH  48  62
BRANCH  49  72
ATOM     72  C   UNL A   1      42.437  23.475  27.938  1.00  0.00    -0.014 A 
ATOM     73  C   UNL A   1      41.619  22.470  28.485  1.00  0.00     0.010 A 
ATOM     74  C   UNL A   1      43.149  23.201  26.755  1.00  0.00     0.010 A 
ATOM     75  C   UNL A   1      41.556  21.205  27.893  1.00  0.00     0.020 A 
ATOM     76  C   UNL A   1      43.057  21.952  26.136  1.00  0.00     0.020 A 
ATOM     77  C   UNL A   1      42.279  20.953  26.724  1.00  0.00     0.054 A 
BRANCH  77  78
ATOM     78  S   UNL A   1      42.186  19.305  25.973  1.00  0.00     0.124 S 
ATOM     79  O   UNL A   1      42.757  18.463  27.020  1.00  0.00    -0.237 OA
ATOM     80  O   UNL A   1      40.753  19.147  25.742  1.00  0.00    -0.237 OA
ATOM     81  O   UNL A   1      42.996  19.436  24.763  1.00  0.00    -0.744 OA
ENDBRANCH  77  78
ENDBRANCH  49  72
BRANCH  61  82
ATOM     82  C   UNL A   1      47.691  26.511  31.377  1.00  0.00    -0.014 A 
ATOM     83  C   UNL A   1      48.773  26.710  30.502  1.00  0.00     0.010 A 
ATOM     84  C   UNL A   1      47.923  25.937  32.641  1.00  0.00     0.010 A 
ATOM     85  C   UNL A   1      50.060  26.317  30.874  1.00  0.00     0.020 A 
ATOM     86  C   UNL A   1      49.215  25.577  33.030  1.00  0.00     0.020 A 
ATOM     87  C   UNL A   1      50.274  25.761  32.139  1.00  0.00     0.054 A 
BRANCH  87  88
ATOM     88  S   UNL A   1      51.967  25.326  32.618  1.00  0.00     0.124 S 
ATOM     89  O   UNL A   1      52.015  23.900  32.308  1.00  0.00    -0.237 OA
ATOM     90  O   UNL A   1      52.771  26.185  31.753  1.00  0.00    -0.237 OA
ATOM     91  O   UNL A   1      52.022  25.655  34.040  1.00  0.00    -0.744 OA
ENDBRANCH  87  88
ENDBRANCH  61  82
ENDBRANCH  35  36
ENDBRANCH  27  30
ENDBRANCH  25  26
ENDBRANCH  24  25
ENDBRANCH   1  24
TORSDOF 18
ENDMDL
MODEL 2
REMARK VINA RESULT:     -11.6      4.369     10.177
REMARK SMILES Cc1cccc(C[N@H+]2CC[C@@](C)(C(=O)NCCCCCCNC(=O)c3ccc(-c4c5nc(c(-c6ccc(S(=O)(=O)[O-])cc6)c6ccc([nH]6)c(-c6ccc(S(=O)(=O)[O-])cc6)c6nc(c(-c7ccc(S(=O)(=O)[O-])cc7)c7ccc4[nH]7)C=C6)C=C5)cc3)C2)n1
REMARK SMILES IDX 19 1 18 2 17 3 16 4 15 5 13 6 14 7 11 9 8 10 9 11 85 12
REMARK SMILES IDX 10 14 12 15 7 16 6 17 1 18 2 19 3 20 86 21 4 22 5 23 20 24
REMARK SMILES IDX 21 25 22 26 23 27 24 29 25 30 26 31 84 32 27 33 83 34 28 35
REMARK SMILES IDX 29 36 30 37 77 38 31 39 82 40 76 41 78 42 32 43 81 44 75 45
REMARK SMILES IDX 74 46 33 48 63 49 44 50 62 51 45 52 48 53 61 54 79 55 46 56
REMARK SMILES IDX 47 57 60 59 80 60 49 61 34 62 35 63 43 64 36 65 42 66 37 67
REMARK SMILES IDX 38 68 39 69 40 70 41 71 64 72 65 73 73 74 66 75 72 76 67 77
REMARK SMILES IDX 68 78 69 79 70 80 71 81 50 82 51 83 59 84 52 85 58 86 53 87
REMARK SMILES IDX 54 88 55 89 56 90 57 91
REMARK H PARENT 15 8 8 13 22 28 78 47 48 58
REMARK Flexibility Score: inf
ROOT
ATOM      1  C   UNL A   1      41.334  21.951  26.183  1.00  0.00     0.002 C 
ENDROOT
BRANCH   1   2
ATOM      2  C   UNL A   1      40.038  22.280  26.955  1.00  0.00     0.002 C 
BRANCH   2   3
ATOM      3  C   UNL A   1      38.704  23.080  26.108  1.00  0.00     0.021 C 
BRANCH   3   4
ATOM      4  C   UNL A   1      36.584  22.585  25.923  1.00  0.00     0.116 C 
BRANCH   4   5
ATOM      5  N   UNL A   1      35.510  22.097  26.930  1.00  0.00    -0.355 N 
ATOM      6  C   UNL A   1      34.177  22.346  26.954  1.00  0.00     0.231 C 
ATOM      7  O   UNL A   1      33.602  21.910  27.962  1.00  0.00    -0.274 OA
ATOM      8  H   UNL A   1      35.845  21.523  27.657  1.00  0.00     0.163 HD
BRANCH   6   9
ATOM      9  C   UNL A   1      33.388  23.001  25.773  1.00  0.00     0.100 C 
ATOM     10  N   UNL A   1      32.205  21.700  24.032  1.00  0.00    -0.329 N 
ATOM     11  C   UNL A   1      31.233  21.998  25.088  1.00  0.00     0.263 C 
ATOM     12  C   UNL A   1      33.485  22.369  24.366  1.00  0.00     0.279 C 
ATOM     13  H   UNL A   1      31.854  22.097  23.162  1.00  0.00     0.348 HD
ATOM     14  C   UNL A   1      31.878  22.997  26.056  1.00  0.00     0.084 C 
ATOM     15  C   UNL A   1      33.916  24.456  25.716  1.00  0.00     0.028 C 
BRANCH  10  16
ATOM     16  C   UNL A   1      32.306  20.267  23.604  1.00  0.00     0.319 C 
BRANCH  16  17
ATOM     17  C   UNL A   1      33.030  19.297  24.582  1.00  0.00     0.095 A 
ATOM     18  C   UNL A   1      32.137  15.134  25.616  1.00  0.00     0.067 C 
ATOM     19  C   UNL A   1      32.982  16.313  25.266  1.00  0.00     0.038 A 
ATOM     20  C   UNL A   1      34.790  16.240  25.187  1.00  0.00     0.023 A 
ATOM     21  N   UNL A   1      32.140  17.807  24.906  1.00  0.00    -0.252 NA
ATOM     22  C   UNL A   1      35.708  17.772  24.904  1.00  0.00     0.004 A 
ATOM     23  C   UNL A   1      34.814  19.298  24.549  1.00  0.00     0.030 A 
ENDBRANCH  16  17
ENDBRANCH  10  16
ENDBRANCH   6   9
ENDBRANCH   4   5
ENDBRANCH   3   4
ENDBRANCH   2   3
ENDBRANCH   1   2
BRANCH   1  24
ATOM     24  C   UNL A   1      42.578  21.939  27.051  1.00  0.00     0.021 C 
BRANCH  24  25
ATOM     25  C   UNL A   1      43.137  23.335  27.208  1.00  0.00     0.116 C 
BRANCH  25  26
ATOM     26  N   UNL A   1      42.831  24.118  26.011  1.00  0.00    -0.352 N 
ATOM     27  C   UNL A   1      42.082  25.269  25.990  1.00  0.00     0.251 C 
ATOM     28  H   UNL A   1      43.192  23.796  25.154  1.00  0.00     0.163 HD
ATOM     29  O   UNL A   1      41.475  25.641  24.998  1.00  0.00    -0.269 OA
BRANCH  27  30
ATOM     30  C   UNL A   1      42.065  26.019  27.253  1.00  0.00     0.039 A 
ATOM     31  C   UNL A   1      42.950  27.075  27.452  1.00  0.00     0.014 A 
ATOM     32  C   UNL A   1      40.982  25.790  28.112  1.00  0.00     0.014 A 
ATOM     33  C   UNL A   1      42.719  27.940  28.518  1.00  0.00     0.010 A 
ATOM     34  C   UNL A   1      40.683  26.729  29.077  1.00  0.00     0.010 A 
ATOM     35  C   UNL A   1      41.566  27.792  29.311  1.00  0.00    -0.014 A 
BRANCH  35  36
ATOM     36  C   UNL A   1      41.277  28.697  30.442  1.00  0.00     0.031 A 
ATOM     37  C   UNL A   1      42.083  28.549  31.704  1.00  0.00     0.074 A 
ATOM     38  C   UNL A   1      40.273  29.590  30.356  1.00  0.00     0.049 A 
ATOM     39  N   UNL A   1      41.940  29.165  32.845  1.00  0.00    -0.248 NA
ATOM     40  C   UNL A   1      43.173  27.553  31.692  1.00  0.00     0.031 C 
ATOM     41  C   UNL A   1      39.403  29.788  29.191  1.00  0.00     0.029 A 
ATOM     42  N   UNL A   1      39.810  30.499  31.271  1.00  0.00    -0.354 N 
ATOM     43  C   UNL A   1      42.915  28.632  33.680  1.00  0.00     0.074 A 
ATOM     44  C   UNL A   1      43.589  27.588  32.947  1.00  0.00     0.031 C 
ATOM     45  C   UNL A   1      38.536  30.778  29.455  1.00  0.00     0.029 A 
ATOM     46  C   UNL A   1      38.747  31.246  30.821  1.00  0.00     0.049 A 
ATOM     47  H   UNL A   1      40.202  30.608  32.168  1.00  0.00     0.167 HD
ATOM     48  C   UNL A   1      43.247  29.008  34.934  1.00  0.00     0.031 A 
ATOM     49  C   UNL A   1      38.014  32.185  31.450  1.00  0.00     0.031 A 
ATOM     50  C   UNL A   1      42.579  30.057  35.650  1.00  0.00     0.049 A 
ATOM     51  C   UNL A   1      38.368  32.540  32.871  1.00  0.00     0.074 A 
ATOM     52  C   UNL A   1      42.854  30.541  36.915  1.00  0.00     0.029 A 
ATOM     53  N   UNL A   1      41.506  30.787  35.162  1.00  0.00    -0.354 N 
ATOM     54  N   UNL A   1      39.340  32.076  33.620  1.00  0.00    -0.248 NA
ATOM     55  C   UNL A   1      37.529  33.551  33.531  1.00  0.00     0.031 C 
ATOM     56  C   UNL A   1      41.905  31.519  37.219  1.00  0.00     0.029 A 
ATOM     57  C   UNL A   1      41.085  31.695  36.115  1.00  0.00     0.049 A 
ATOM     58  H   UNL A   1      41.104  30.674  34.270  1.00  0.00     0.167 HD
ATOM     59  C   UNL A   1      39.244  32.755  34.830  1.00  0.00     0.074 A 
ATOM     60  C   UNL A   1      38.141  33.684  34.700  1.00  0.00     0.031 C 
ATOM     61  C   UNL A   1      39.989  32.617  35.953  1.00  0.00     0.031 A 
BRANCH  48  62
ATOM     62  C   UNL A   1      44.392  28.298  35.600  1.00  0.00    -0.014 A 
ATOM     63  C   UNL A   1      45.706  28.793  35.498  1.00  0.00     0.010 A 
ATOM     64  C   UNL A   1      44.146  27.165  36.397  1.00  0.00     0.010 A 
ATOM     65  C   UNL A   1      46.753  28.163  36.172  1.00  0.00     0.020 A 
ATOM     66  C   UNL A   1      45.187  26.550  37.098  1.00  0.00     0.020 A 
ATOM     67  C   UNL A   1      46.485  27.052  36.977  1.00  0.00     0.054 A 
BRANCH  67  68
ATOM     68  S   UNL A   1      47.855  26.309  37.903  1.00  0.00     0.124 S 
ATOM     69  O   UNL A   1      47.339  26.325  39.270  1.00  0.00    -0.237 OA
ATOM     70  O   UNL A   1      47.971  24.988  37.291  1.00  0.00    -0.237 OA
ATOM     71  O   UNL A   1      48.975  27.211  37.652  1.00  0.00    -0.744 OA
ENDBRANCH  67  68
ENDBRANCH  48  62
BRANCH  49  72
ATOM     72  C   UNL A   1      36.855  32.827  30.768  1.00  0.00    -0.014 A 
ATOM     73  C   UNL A   1      37.041  33.909  29.889  1.00  0.00     0.010 A 
ATOM     74  C   UNL A   1      35.546  32.384  31.031  1.00  0.00     0.010 A 
ATOM     75  C   UNL A   1      35.942  34.566  29.328  1.00  0.00     0.020 A 
ATOM     76  C   UNL A   1      34.445  33.010  30.441  1.00  0.00     0.020 A 
ATOM     77  C   UNL A   1      34.650  34.114  29.611  1.00  0.00     0.054 A 
BRANCH  77  78
ATOM     78  S   UNL A   1      33.237  34.981  28.876  1.00  0.00     0.124 S 
ATOM     79  O   UNL A   1      32.436  35.306  30.052  1.00  0.00    -0.237 OA
ATOM     80  O   UNL A   1      33.876  36.113  28.210  1.00  0.00    -0.237 OA
ATOM     81  O   UNL A   1      32.656  33.985  27.978  1.00  0.00    -0.744 OA
ENDBRANCH  77  78
ENDBRANCH  49  72
BRANCH  61  82
ATOM     82  C   UNL A   1      39.657  33.507  37.119  1.00  0.00    -0.014 A 
ATOM     83  C   UNL A   1      38.784  33.075  38.134  1.00  0.00     0.010 A 
ATOM     84  C   UNL A   1      40.288  34.759  37.241  1.00  0.00     0.010 A 
ATOM     85  C   UNL A   1      38.528  33.892  39.237  1.00  0.00     0.020 A 
ATOM     86  C   UNL A   1      40.063  35.562  38.360  1.00  0.00     0.020 A 
ATOM     87  C   UNL A   1      39.176  35.127  39.347  1.00  0.00     0.054 A 
BRANCH  87  88
ATOM     88  S   UNL A   1      38.875  36.133  40.824  1.00  0.00     0.124 S 
ATOM     89  O   UNL A   1      37.791  35.403  41.475  1.00  0.00    -0.237 OA
ATOM     90  O   UNL A   1      40.165  36.084  41.508  1.00  0.00    -0.237 OA
ATOM     91  O   UNL A   1      38.511  37.441  40.286  1.00  0.00    -0.744 OA
ENDBRANCH  87  88
ENDBRANCH  61  82
ENDBRANCH  35  36
ENDBRANCH  27  30
ENDBRANCH  25  26
ENDBRANCH  24  25
ENDBRANCH   1  24
TORSDOF 18
ENDMDL
MODEL 3
REMARK VINA RESULT:     -11.5      4.103      9.544
REMARK SMILES Cc1cccc(C[N@H+]2CC[C@@](C)(C(=O)NCCCCCCNC(=O)c3ccc(-c4c5nc(c(-c6ccc(S(=O)(=O)[O-])cc6)c6ccc([nH]6)c(-c6ccc(S(=O)(=O)[O-])cc6)c6nc(c(-c7ccc(S(=O)(=O)[O-])cc7)c7ccc4[nH]7)C=C6)C=C5)cc3)C2)n1
REMARK SMILES IDX 19 1 18 2 17 3 16 4 15 5 13 6 14 7 11 9 8 10 9 11 85 12
REMARK SMILES IDX 10 14 12 15 7 16 6 17 1 18 2 19 3 20 86 21 4 22 5 23 20 24
REMARK SMILES IDX 21 25 22 26 23 27 24 29 25 30 26 31 84 32 27 33 83 34 28 35
REMARK SMILES IDX 29 36 30 37 77 38 31 39 82 40 76 41 78 42 32 43 81 44 75 45
REMARK SMILES IDX 74 46 33 48 63 49 44 50 62 51 45 52 48 53 61 54 79 55 46 56
REMARK SMILES IDX 47 57 60 59 80 60 49 61 34 62 35 63 43 64 36 65 42 66 37 67
REMARK SMILES IDX 38 68 39 69 40 70 41 71 64 72 65 73 73 74 66 75 72 76 67 77
REMARK SMILES IDX 68 78 69 79 70 80 71 81 50 82 51 83 59 84 52 85 58 86 53 87
REMARK SMILES IDX 54 88 55 89 56 90 57 91
REMARK H PARENT 15 8 8 13 22 28 78 47 48 58
REMARK Flexibility Score: inf
ROOT
ATOM      1  C   UNL A   1      33.171  29.867  26.692  1.00  0.00     0.002 C 
ENDROOT
BRANCH   1   2
ATOM      2  C   UNL A   1      32.312  29.320  25.532  1.00  0.00     0.002 C 
BRANCH   2   3
ATOM      3  C   UNL A   1      31.492  27.761  25.720  1.00  0.00     0.021 C 
BRANCH   3   4
ATOM      4  C   UNL A   1      31.410  25.989  24.445  1.00  0.00     0.116 C 
BRANCH   4   5
ATOM      5  N   UNL A   1      32.413  25.337  23.457  1.00  0.00    -0.355 N 
ATOM      6  C   UNL A   1      33.676  24.896  23.680  1.00  0.00     0.231 C 
ATOM      7  O   UNL A   1      34.270  24.533  22.654  1.00  0.00    -0.274 OA
ATOM      8  H   UNL A   1      32.085  25.227  22.535  1.00  0.00     0.163 HD
BRANCH   6   9
ATOM      9  C   UNL A   1      34.305  24.724  25.101  1.00  0.00     0.100 C 
ATOM     10  N   UNL A   1      34.390  22.565  26.306  1.00  0.00    -0.329 N 
ATOM     11  C   UNL A   1      35.648  22.700  25.566  1.00  0.00     0.263 C 
ATOM     12  C   UNL A   1      33.601  23.807  26.126  1.00  0.00     0.279 C 
ATOM     13  H   UNL A   1      34.617  22.471  27.295  1.00  0.00     0.348 HD
ATOM     14  C   UNL A   1      35.716  24.126  25.005  1.00  0.00     0.084 C 
ATOM     15  C   UNL A   1      34.374  26.164  25.668  1.00  0.00     0.028 C 
BRANCH  10  16
ATOM     16  C   UNL A   1      33.641  21.280  26.121  1.00  0.00     0.319 C 
BRANCH  16  17
ATOM     17  C   UNL A   1      33.715  20.627  24.711  1.00  0.00     0.095 A 
ATOM     18  C   UNL A   1      34.022  16.411  23.557  1.00  0.00     0.067 C 
ATOM     19  C   UNL A   1      33.536  17.821  23.499  1.00  0.00     0.038 A 
ATOM     20  C   UNL A   1      32.374  18.411  22.241  1.00  0.00     0.023 A 
ATOM     21  N   UNL A   1      34.132  18.912  24.734  1.00  0.00    -0.252 NA
ATOM     22  C   UNL A   1      31.982  20.175  22.182  1.00  0.00     0.004 A 
ATOM     23  C   UNL A   1      32.621  21.277  23.461  1.00  0.00     0.030 A 
ENDBRANCH  16  17
ENDBRANCH  10  16
ENDBRANCH   6   9
ENDBRANCH   4   5
ENDBRANCH   3   4
ENDBRANCH   2   3
ENDBRANCH   1   2
BRANCH   1  24
ATOM     24  C   UNL A   1      32.646  31.160  27.286  1.00  0.00     0.021 C 
BRANCH  24  25
ATOM     25  C   UNL A   1      33.786  32.059  27.708  1.00  0.00     0.116 C 
BRANCH  25  26
ATOM     26  N   UNL A   1      33.347  33.454  27.661  1.00  0.00    -0.352 N 
ATOM     27  C   UNL A   1      33.443  34.347  28.699  1.00  0.00     0.251 C 
ATOM     28  H   UNL A   1      32.953  33.778  26.819  1.00  0.00     0.163 HD
ATOM     29  O   UNL A   1      32.700  35.311  28.809  1.00  0.00    -0.269 OA
BRANCH  27  30
ATOM     30  C   UNL A   1      34.506  34.056  29.670  1.00  0.00     0.039 A 
ATOM     31  C   UNL A   1      34.232  33.290  30.800  1.00  0.00     0.014 A 
ATOM     32  C   UNL A   1      35.818  34.361  29.284  1.00  0.00     0.014 A 
ATOM     33  C   UNL A   1      35.302  32.791  31.537  1.00  0.00     0.010 A 
ATOM     34  C   UNL A   1      36.867  33.749  29.937  1.00  0.00     0.010 A 
ATOM     35  C   UNL A   1      36.622  32.988  31.089  1.00  0.00    -0.014 A 
BRANCH  35  36
ATOM     36  C   UNL A   1      37.784  32.463  31.833  1.00  0.00     0.031 A 
ATOM     37  C   UNL A   1      38.485  31.242  31.302  1.00  0.00     0.074 A 
ATOM     38  C   UNL A   1      38.162  33.035  32.992  1.00  0.00     0.049 A 
ATOM     39  N   UNL A   1      39.460  30.558  31.836  1.00  0.00    -0.248 NA
ATOM     40  C   UNL A   1      38.007  30.701  30.014  1.00  0.00     0.031 C 
ATOM     41  C   UNL A   1      37.524  34.198  33.618  1.00  0.00     0.029 A 
ATOM     42  N   UNL A   1      39.175  32.710  33.856  1.00  0.00    -0.354 N 
ATOM     43  C   UNL A   1      39.706  29.512  30.955  1.00  0.00     0.074 A 
ATOM     44  C   UNL A   1      38.730  29.599  29.895  1.00  0.00     0.031 C 
ATOM     45  C   UNL A   1      38.182  34.505  34.747  1.00  0.00     0.029 A 
ATOM     46  C   UNL A   1      39.248  33.531  34.957  1.00  0.00     0.049 A 
ATOM     47  H   UNL A   1      39.792  31.959  33.704  1.00  0.00     0.167 HD
ATOM     48  C   UNL A   1      40.685  28.584  31.004  1.00  0.00     0.031 A 
ATOM     49  C   UNL A   1      40.071  33.487  36.023  1.00  0.00     0.031 A 
ATOM     50  C   UNL A   1      41.659  28.513  32.055  1.00  0.00     0.049 A 
ATOM     51  C   UNL A   1      41.115  32.402  36.081  1.00  0.00     0.074 A 
ATOM     52  C   UNL A   1      42.715  27.631  32.188  1.00  0.00     0.029 A 
ATOM     53  N   UNL A   1      41.699  29.359  33.152  1.00  0.00    -0.354 N 
ATOM     54  N   UNL A   1      41.379  31.463  35.201  1.00  0.00    -0.248 NA
ATOM     55  C   UNL A   1      41.976  32.371  37.271  1.00  0.00     0.031 C 
ATOM     56  C   UNL A   1      43.355  27.902  33.399  1.00  0.00     0.029 A 
ATOM     57  C   UNL A   1      42.742  28.999  33.984  1.00  0.00     0.049 A 
ATOM     58  H   UNL A   1      41.077  30.105  33.314  1.00  0.00     0.167 HD
ATOM     59  C   UNL A   1      42.451  30.747  35.723  1.00  0.00     0.074 A 
ATOM     60  C   UNL A   1      42.807  31.381  36.975  1.00  0.00     0.031 C 
ATOM     61  C   UNL A   1      43.080  29.657  35.221  1.00  0.00     0.031 A 
BRANCH  48  62
ATOM     62  C   UNL A   1      40.764  27.586  29.881  1.00  0.00    -0.014 A 
ATOM     63  C   UNL A   1      39.675  26.746  29.585  1.00  0.00     0.010 A 
ATOM     64  C   UNL A   1      41.909  27.537  29.065  1.00  0.00     0.010 A 
ATOM     65  C   UNL A   1      39.733  25.868  28.502  1.00  0.00     0.020 A 
ATOM     66  C   UNL A   1      41.959  26.682  27.961  1.00  0.00     0.020 A 
ATOM     67  C   UNL A   1      40.870  25.850  27.690  1.00  0.00     0.054 A 
BRANCH  67  68
ATOM     68  S   UNL A   1      40.879  24.758  26.243  1.00  0.00     0.124 S 
ATOM     69  O   UNL A   1      41.004  25.713  25.145  1.00  0.00    -0.237 OA
ATOM     70  O   UNL A   1      42.052  23.922  26.485  1.00  0.00    -0.237 OA
ATOM     71  O   UNL A   1      39.596  24.065  26.322  1.00  0.00    -0.744 OA
ENDBRANCH  67  68
ENDBRANCH  48  62
BRANCH  49  72
ATOM     72  C   UNL A   1      39.924  34.465  37.137  1.00  0.00    -0.014 A 
ATOM     73  C   UNL A   1      39.100  34.185  38.243  1.00  0.00     0.010 A 
ATOM     74  C   UNL A   1      40.577  35.709  37.075  1.00  0.00     0.010 A 
ATOM     75  C   UNL A   1      38.893  35.147  39.236  1.00  0.00     0.020 A 
ATOM     76  C   UNL A   1      40.407  36.659  38.086  1.00  0.00     0.020 A 
ATOM     77  C   UNL A   1      39.546  36.380  39.149  1.00  0.00     0.054 A 
BRANCH  77  78
ATOM     78  S   UNL A   1      39.262  37.615  40.446  1.00  0.00     0.124 S 
ATOM     79  O   UNL A   1      38.930  36.779  41.594  1.00  0.00    -0.237 OA
ATOM     80  O   UNL A   1      40.550  38.301  40.511  1.00  0.00    -0.237 OA
ATOM     81  O   UNL A   1      38.161  38.418  39.916  1.00  0.00    -0.744 OA
ENDBRANCH  77  78
ENDBRANCH  49  72
BRANCH  61  82
ATOM     82  C   UNL A   1      44.231  29.096  36.010  1.00  0.00    -0.014 A 
ATOM     83  C   UNL A   1      45.520  29.647  35.902  1.00  0.00     0.010 A 
ATOM     84  C   UNL A   1      44.003  28.055  36.929  1.00  0.00     0.010 A 
ATOM     85  C   UNL A   1      46.566  29.150  36.681  1.00  0.00     0.020 A 
ATOM     86  C   UNL A   1      45.038  27.580  37.736  1.00  0.00     0.020 A 
ATOM     87  C   UNL A   1      46.316  28.124  37.599  1.00  0.00     0.054 A 
BRANCH  87  88
ATOM     88  S   UNL A   1      47.680  27.548  38.645  1.00  0.00     0.124 S 
ATOM     89  O   UNL A   1      47.436  26.109  38.698  1.00  0.00    -0.237 OA
ATOM     90  O   UNL A   1      48.858  27.958  37.883  1.00  0.00    -0.237 OA
ATOM     91  O   UNL A   1      47.479  28.261  39.904  1.00  0.00    -0.744 OA
ENDBRANCH  87  88
ENDBRANCH  61  82
ENDBRANCH  35  36
ENDBRANCH  27  30
ENDBRANCH  25  26
ENDBRANCH  24  25
ENDBRANCH   1  24
TORSDOF 18
ENDMDL
