MODEL 1
REMARK VINA RESULT:      -9.1      0.000      0.000
REMARK SMILES O=C(CCOCc1ccccc1)NCCCCCCNC(=O)c1ccc(-c2c3nc(c(-c4ccc(S(=O)(=O)[O-])cc4)c4ccc([nH]4)c(-c4ccc(S(=O)(=O)[O-])cc4)c4nc(c(-c5ccc(S(=O)(=O)[O-])cc5)c5ccc2[nH]5)C=C4)C=C3)cc1
REMARK SMILES IDX 16 1 15 2 14 3 13 4 1 5 2 6 3 8 4 9 5 10 6 11 7 12 8 13
REMARK SMILES IDX 12 14 9 15 11 16 10 17 17 18 18 19 19 20 20 21 21 22 22 24
REMARK SMILES IDX 23 25 24 26 82 27 25 28 81 29 26 30 27 31 28 32 75 33 29 34
REMARK SMILES IDX 80 35 74 36 76 37 30 38 79 39 73 40 72 41 31 43 61 44 42 45
REMARK SMILES IDX 60 46 43 47 46 48 59 49 77 50 44 51 45 52 58 54 78 55 47 56
REMARK SMILES IDX 32 57 33 58 41 59 34 60 40 61 35 62 36 63 37 64 38 65 39 66
REMARK SMILES IDX 62 67 63 68 71 69 64 70 70 71 65 72 66 73 67 74 68 75 69 76
REMARK SMILES IDX 48 77 49 78 57 79 50 80 56 81 51 82 52 83 53 84 54 85 55 86
REMARK H PARENT 13 7 20 23 76 42 46 53
REMARK Flexibility Score: inf
ROOT
ATOM      1  C   UNL A   1      31.267  26.844  26.360  1.00  0.00     0.002 C 
ENDROOT
BRANCH   1   2
ATOM      2  C   UNL A   1      30.278  25.798  25.821  1.00  0.00     0.021 C 
BRANCH   2   3
ATOM      3  C   UNL A   1      30.648  24.346  26.111  1.00  0.00     0.116 C 
BRANCH   3   4
ATOM      4  N   UNL A   1      31.373  23.743  25.015  1.00  0.00    -0.356 N 
ATOM      5  O   UNL A   1      33.090  22.912  26.290  1.00  0.00    -0.275 OA
ATOM      6  C   UNL A   1      32.505  22.990  25.217  1.00  0.00     0.222 C 
ATOM      7  H   UNL A   1      31.046  23.877  24.095  1.00  0.00     0.163 HD
BRANCH   6   8
ATOM      8  C   UNL A   1      32.928  22.206  23.997  1.00  0.00     0.128 C 
BRANCH   8   9
ATOM      9  C   UNL A   1      33.487  23.141  22.934  1.00  0.00     0.170 C 
BRANCH   9  10
ATOM     10  O   UNL A   1      32.509  23.990  22.322  1.00  0.00    -0.376 OA
BRANCH  10  11
ATOM     11  C   UNL A   1      33.006  25.134  21.618  1.00  0.00     0.195 C 
BRANCH  11  12
ATOM     12  C   UNL A   1      32.508  26.473  22.105  1.00  0.00    -0.022 A 
ATOM     13  C   UNL A   1      33.395  27.530  22.348  1.00  0.00     0.006 A 
ATOM     14  C   UNL A   1      31.142  26.669  22.360  1.00  0.00     0.006 A 
ATOM     15  C   UNL A   1      32.920  28.771  22.774  1.00  0.00     0.000 A 
ATOM     16  C   UNL A   1      30.668  27.908  22.796  1.00  0.00     0.000 A 
ATOM     17  C   UNL A   1      31.557  28.961  22.994  1.00  0.00     0.000 A 
ENDBRANCH  11  12
ENDBRANCH  10  11
ENDBRANCH   9  10
ENDBRANCH   8   9
ENDBRANCH   6   8
ENDBRANCH   3   4
ENDBRANCH   2   3
ENDBRANCH   1   2
BRANCH   1  18
ATOM     18  C   UNL A   1      32.719  26.702  25.894  1.00  0.00     0.002 C 
BRANCH  18  19
ATOM     19  C   UNL A   1      33.632  27.888  26.199  1.00  0.00     0.021 C 
BRANCH  19  20
ATOM     20  C   UNL A   1      33.522  28.446  27.612  1.00  0.00     0.116 C 
BRANCH  20  21
ATOM     21  N   UNL A   1      33.477  29.898  27.648  1.00  0.00    -0.352 N 
ATOM     22  C   UNL A   1      34.467  30.783  28.011  1.00  0.00     0.251 C 
ATOM     23  H   UNL A   1      32.623  30.304  27.375  1.00  0.00     0.163 HD
ATOM     24  O   UNL A   1      34.213  31.976  28.113  1.00  0.00    -0.269 OA
BRANCH  22  25
ATOM     25  C   UNL A   1      35.828  30.280  28.308  1.00  0.00     0.039 A 
ATOM     26  C   UNL A   1      36.765  30.218  27.273  1.00  0.00     0.014 A 
ATOM     27  C   UNL A   1      36.183  29.870  29.596  1.00  0.00     0.014 A 
ATOM     28  C   UNL A   1      38.070  29.796  27.543  1.00  0.00     0.010 A 
ATOM     29  C   UNL A   1      37.503  29.530  29.879  1.00  0.00     0.010 A 
ATOM     30  C   UNL A   1      38.459  29.474  28.854  1.00  0.00    -0.014 A 
BRANCH  30  31
ATOM     31  C   UNL A   1      39.846  29.039  29.162  1.00  0.00     0.031 A 
ATOM     32  C   UNL A   1      40.809  30.000  29.811  1.00  0.00     0.074 A 
ATOM     33  C   UNL A   1      40.254  27.796  28.830  1.00  0.00     0.049 A 
ATOM     34  N   UNL A   1      42.072  29.829  30.108  1.00  0.00    -0.248 NA
ATOM     35  C   UNL A   1      40.292  31.337  30.149  1.00  0.00     0.031 C 
ATOM     36  C   UNL A   1      39.433  26.782  28.164  1.00  0.00     0.029 A 
ATOM     37  N   UNL A   1      41.468  27.177  29.003  1.00  0.00    -0.354 N 
ATOM     38  C   UNL A   1      42.497  31.030  30.665  1.00  0.00     0.074 A 
ATOM     39  C   UNL A   1      41.380  31.946  30.598  1.00  0.00     0.031 C 
ATOM     40  C   UNL A   1      40.159  25.662  28.007  1.00  0.00     0.029 A 
ATOM     41  C   UNL A   1      41.506  25.888  28.521  1.00  0.00     0.049 A 
ATOM     42  H   UNL A   1      42.239  27.614  29.430  1.00  0.00     0.167 HD
ATOM     43  C   UNL A   1      43.696  31.339  31.214  1.00  0.00     0.031 A 
ATOM     44  C   UNL A   1      42.512  24.992  28.490  1.00  0.00     0.031 A 
ATOM     45  C   UNL A   1      44.806  30.427  31.286  1.00  0.00     0.049 A 
ATOM     46  C   UNL A   1      43.845  25.368  29.084  1.00  0.00     0.074 A 
ATOM     47  C   UNL A   1      46.059  30.637  31.837  1.00  0.00     0.029 A 
ATOM     48  N   UNL A   1      44.796  29.127  30.804  1.00  0.00    -0.354 N 
ATOM     49  N   UNL A   1      44.211  26.498  29.641  1.00  0.00    -0.248 NA
ATOM     50  C   UNL A   1      44.893  24.339  29.066  1.00  0.00     0.031 C 
ATOM     51  C   UNL A   1      46.820  29.480  31.649  1.00  0.00     0.029 A 
ATOM     52  C   UNL A   1      46.021  28.525  31.042  1.00  0.00     0.049 A 
ATOM     53  H   UNL A   1      44.031  28.695  30.359  1.00  0.00     0.167 HD
ATOM     54  C   UNL A   1      45.517  26.299  30.079  1.00  0.00     0.074 A 
ATOM     55  C   UNL A   1      45.869  24.937  29.735  1.00  0.00     0.031 C 
ATOM     56  C   UNL A   1      46.350  27.163  30.710  1.00  0.00     0.031 A 
BRANCH  43  57
ATOM     57  C   UNL A   1      43.863  32.716  31.800  1.00  0.00    -0.014 A 
ATOM     58  C   UNL A   1      43.599  32.954  33.163  1.00  0.00     0.010 A 
ATOM     59  C   UNL A   1      44.344  33.771  31.004  1.00  0.00     0.010 A 
ATOM     60  C   UNL A   1      43.784  34.225  33.710  1.00  0.00     0.020 A 
ATOM     61  C   UNL A   1      44.560  35.038  31.555  1.00  0.00     0.020 A 
ATOM     62  C   UNL A   1      44.267  35.259  32.903  1.00  0.00     0.054 A 
BRANCH  62  63
ATOM     63  S   UNL A   1      44.543  36.886  33.655  1.00  0.00     0.124 S 
ATOM     64  O   UNL A   1      43.777  37.761  32.771  1.00  0.00    -0.237 OA
ATOM     65  O   UNL A   1      43.993  36.714  34.997  1.00  0.00    -0.237 OA
ATOM     66  O   UNL A   1      45.993  37.055  33.595  1.00  0.00    -0.744 OA
ENDBRANCH  62  63
ENDBRANCH  43  57
BRANCH  44  67
ATOM     67  C   UNL A   1      42.309  23.650  27.874  1.00  0.00    -0.014 A 
ATOM     68  C   UNL A   1      41.889  22.554  28.650  1.00  0.00     0.010 A 
ATOM     69  C   UNL A   1      42.573  23.453  26.506  1.00  0.00     0.010 A 
ATOM     70  C   UNL A   1      41.787  21.280  28.082  1.00  0.00     0.020 A 
ATOM     71  C   UNL A   1      42.436  22.189  25.927  1.00  0.00     0.020 A 
ATOM     72  C   UNL A   1      42.067  21.104  26.725  1.00  0.00     0.054 A 
BRANCH  72  73
ATOM     73  S   UNL A   1      41.927  19.444  26.007  1.00  0.00     0.124 S 
ATOM     74  O   UNL A   1      40.501  19.365  25.705  1.00  0.00    -0.237 OA
ATOM     75  O   UNL A   1      42.816  19.523  24.852  1.00  0.00    -0.237 OA
ATOM     76  O   UNL A   1      42.389  18.568  27.081  1.00  0.00    -0.744 OA
ENDBRANCH  72  73
ENDBRANCH  44  67
BRANCH  56  77
ATOM     77  C   UNL A   1      47.698  26.643  31.139  1.00  0.00    -0.014 A 
ATOM     78  C   UNL A   1      48.823  26.723  30.301  1.00  0.00     0.010 A 
ATOM     79  C   UNL A   1      47.842  26.094  32.427  1.00  0.00     0.010 A 
ATOM     80  C   UNL A   1      50.057  26.221  30.725  1.00  0.00     0.020 A 
ATOM     81  C   UNL A   1      49.080  25.622  32.867  1.00  0.00     0.020 A 
ATOM     82  C   UNL A   1      50.176  25.671  32.006  1.00  0.00     0.054 A 
BRANCH  82  83
ATOM     83  S   UNL A   1      51.792  25.046  32.540  1.00  0.00     0.124 S 
ATOM     84  O   UNL A   1      52.699  25.718  31.614  1.00  0.00    -0.237 OA
ATOM     85  O   UNL A   1      51.866  25.494  33.929  1.00  0.00    -0.237 OA
ATOM     86  O   UNL A   1      51.681  23.600  32.364  1.00  0.00    -0.744 OA
ENDBRANCH  82  83
ENDBRANCH  56  77
ENDBRANCH  30  31
ENDBRANCH  22  25
ENDBRANCH  20  21
ENDBRANCH  19  20
ENDBRANCH  18  19
ENDBRANCH   1  18
TORSDOF 20
ENDMDL
MODEL 2
REMARK VINA RESULT:      -9.1      1.167      2.373
REMARK SMILES O=C(CCOCc1ccccc1)NCCCCCCNC(=O)c1ccc(-c2c3nc(c(-c4ccc(S(=O)(=O)[O-])cc4)c4ccc([nH]4)c(-c4ccc(S(=O)(=O)[O-])cc4)c4nc(c(-c5ccc(S(=O)(=O)[O-])cc5)c5ccc2[nH]5)C=C4)C=C3)cc1
REMARK SMILES IDX 16 1 15 2 14 3 13 4 1 5 2 6 3 8 4 9 5 10 6 11 7 12 8 13
REMARK SMILES IDX 12 14 9 15 11 16 10 17 17 18 18 19 19 20 20 21 21 22 22 24
REMARK SMILES IDX 23 25 24 26 82 27 25 28 81 29 26 30 27 31 28 32 75 33 29 34
REMARK SMILES IDX 80 35 74 36 76 37 30 38 79 39 73 40 72 41 31 43 61 44 42 45
REMARK SMILES IDX 60 46 43 47 46 48 59 49 77 50 44 51 45 52 58 54 78 55 47 56
REMARK SMILES IDX 32 57 33 58 41 59 34 60 40 61 35 62 36 63 37 64 38 65 39 66
REMARK SMILES IDX 62 67 63 68 71 69 64 70 70 71 65 72 66 73 67 74 68 75 69 76
REMARK SMILES IDX 48 77 49 78 57 79 50 80 56 81 51 82 52 83 53 84 54 85 55 86
REMARK H PARENT 13 7 20 23 76 42 46 53
REMARK Flexibility Score: inf
ROOT
ATOM      1  C   UNL A   1      31.706  27.768  24.887  1.00  0.00     0.002 C 
ENDROOT
BRANCH   1   2
ATOM      2  C   UNL A   1      30.652  26.925  24.152  1.00  0.00     0.021 C 
BRANCH   2   3
ATOM      3  C   UNL A   1      29.753  26.082  25.052  1.00  0.00     0.116 C 
BRANCH   3   4
ATOM      4  N   UNL A   1      30.117  24.683  25.022  1.00  0.00    -0.356 N 
ATOM      5  O   UNL A   1      31.301  24.700  26.987  1.00  0.00    -0.275 OA
ATOM      6  C   UNL A   1      30.796  24.084  26.056  1.00  0.00     0.222 C 
ATOM      7  H   UNL A   1      29.871  24.142  24.236  1.00  0.00     0.163 HD
BRANCH   6   8
ATOM      8  C   UNL A   1      30.807  22.576  25.972  1.00  0.00     0.128 C 
BRANCH   8   9
ATOM      9  C   UNL A   1      31.786  22.112  24.903  1.00  0.00     0.170 C 
BRANCH   9  10
ATOM     10  O   UNL A   1      32.244  23.153  24.030  1.00  0.00    -0.376 OA
BRANCH  10  11
ATOM     11  C   UNL A   1      33.444  22.889  23.296  1.00  0.00     0.195 C 
BRANCH  11  12
ATOM     12  C   UNL A   1      34.736  23.132  24.040  1.00  0.00    -0.022 A 
ATOM     13  C   UNL A   1      35.895  22.409  23.730  1.00  0.00     0.006 A 
ATOM     14  C   UNL A   1      34.784  24.067  25.085  1.00  0.00     0.006 A 
ATOM     15  C   UNL A   1      37.089  22.660  24.408  1.00  0.00     0.000 A 
ATOM     16  C   UNL A   1      35.976  24.311  25.770  1.00  0.00     0.000 A 
ATOM     17  C   UNL A   1      37.131  23.613  25.424  1.00  0.00     0.000 A 
ENDBRANCH  11  12
ENDBRANCH  10  11
ENDBRANCH   9  10
ENDBRANCH   8   9
ENDBRANCH   6   8
ENDBRANCH   3   4
ENDBRANCH   2   3
ENDBRANCH   1   2
BRANCH   1  18
ATOM     18  C   UNL A   1      33.168  27.382  24.647  1.00  0.00     0.002 C 
BRANCH  18  19
ATOM     19  C   UNL A   1      34.194  28.077  25.540  1.00  0.00     0.021 C 
BRANCH  19  20
ATOM     20  C   UNL A   1      33.781  28.236  26.998  1.00  0.00     0.116 C 
BRANCH  20  21
ATOM     21  N   UNL A   1      33.564  29.622  27.379  1.00  0.00    -0.352 N 
ATOM     22  C   UNL A   1      34.421  30.483  28.025  1.00  0.00     0.251 C 
ATOM     23  H   UNL A   1      32.685  29.996  27.141  1.00  0.00     0.163 HD
ATOM     24  O   UNL A   1      34.024  31.583  28.389  1.00  0.00    -0.269 OA
BRANCH  22  25
ATOM     25  C   UNL A   1      35.814  30.061  28.305  1.00  0.00     0.039 A 
ATOM     26  C   UNL A   1      36.755  30.116  27.275  1.00  0.00     0.014 A 
ATOM     27  C   UNL A   1      36.192  29.612  29.573  1.00  0.00     0.014 A 
ATOM     28  C   UNL A   1      38.085  29.772  27.532  1.00  0.00     0.010 A 
ATOM     29  C   UNL A   1      37.531  29.350  29.849  1.00  0.00     0.010 A 
ATOM     30  C   UNL A   1      38.492  29.412  28.827  1.00  0.00    -0.014 A 
BRANCH  30  31
ATOM     31  C   UNL A   1      39.905  29.058  29.123  1.00  0.00     0.031 A 
ATOM     32  C   UNL A   1      40.824  30.084  29.735  1.00  0.00     0.074 A 
ATOM     33  C   UNL A   1      40.374  27.832  28.812  1.00  0.00     0.049 A 
ATOM     34  N   UNL A   1      42.099  29.987  30.015  1.00  0.00    -0.248 NA
ATOM     35  C   UNL A   1      40.242  31.399  30.051  1.00  0.00     0.031 C 
ATOM     36  C   UNL A   1      39.598  26.760  28.182  1.00  0.00     0.029 A 
ATOM     37  N   UNL A   1      41.621  27.281  28.979  1.00  0.00    -0.354 N 
ATOM     38  C   UNL A   1      42.467  31.221  30.538  1.00  0.00     0.074 A 
ATOM     39  C   UNL A   1      41.302  32.075  30.469  1.00  0.00     0.031 C 
ATOM     40  C   UNL A   1      40.380  25.676  28.038  1.00  0.00     0.029 A 
ATOM     41  C   UNL A   1      41.720  25.986  28.526  1.00  0.00     0.049 A 
ATOM     42  H   UNL A   1      42.373  27.768  29.384  1.00  0.00     0.167 HD
ATOM     43  C   UNL A   1      43.656  31.606  31.060  1.00  0.00     0.031 A 
ATOM     44  C   UNL A   1      42.772  25.144  28.498  1.00  0.00     0.031 A 
ATOM     45  C   UNL A   1      44.815  30.756  31.134  1.00  0.00     0.049 A 
ATOM     46  C   UNL A   1      44.092  25.604  29.062  1.00  0.00     0.074 A 
ATOM     47  C   UNL A   1      46.063  31.045  31.660  1.00  0.00     0.029 A 
ATOM     48  N   UNL A   1      44.867  29.446  30.682  1.00  0.00    -0.354 N 
ATOM     49  N   UNL A   1      44.406  26.764  29.588  1.00  0.00    -0.248 NA
ATOM     50  C   UNL A   1      45.194  24.631  29.050  1.00  0.00     0.031 C 
ATOM     51  C   UNL A   1      46.881  29.926  31.486  1.00  0.00     0.029 A 
ATOM     52  C   UNL A   1      46.125  28.916  30.913  1.00  0.00     0.049 A 
ATOM     53  H   UNL A   1      44.119  28.965  30.259  1.00  0.00     0.167 HD
ATOM     54  C   UNL A   1      45.727  26.644  30.008  1.00  0.00     0.074 A 
ATOM     55  C   UNL A   1      46.146  25.295  29.688  1.00  0.00     0.031 C 
ATOM     56  C   UNL A   1      46.522  27.566  30.607  1.00  0.00     0.031 A 
BRANCH  43  57
ATOM     57  C   UNL A   1      43.758  33.002  31.613  1.00  0.00    -0.014 A 
ATOM     58  C   UNL A   1      44.165  34.073  30.794  1.00  0.00     0.010 A 
ATOM     59  C   UNL A   1      43.388  33.265  32.945  1.00  0.00     0.010 A 
ATOM     60  C   UNL A   1      44.228  35.371  31.302  1.00  0.00     0.020 A 
ATOM     61  C   UNL A   1      43.421  34.570  33.449  1.00  0.00     0.020 A 
ATOM     62  C   UNL A   1      43.853  35.613  32.626  1.00  0.00     0.054 A 
BRANCH  62  63
ATOM     63  S   UNL A   1      43.900  37.318  33.242  1.00  0.00     0.124 S 
ATOM     64  O   UNL A   1      45.207  37.368  33.892  1.00  0.00    -0.237 OA
ATOM     65  O   UNL A   1      43.779  38.102  32.015  1.00  0.00    -0.237 OA
ATOM     66  O   UNL A   1      42.753  37.394  34.143  1.00  0.00    -0.744 OA
ENDBRANCH  62  63
ENDBRANCH  43  57
BRANCH  44  67
ATOM     67  C   UNL A   1      42.632  23.779  27.915  1.00  0.00    -0.014 A 
ATOM     68  C   UNL A   1      42.858  23.551  26.546  1.00  0.00     0.010 A 
ATOM     69  C   UNL A   1      42.233  22.701  28.727  1.00  0.00     0.010 A 
ATOM     70  C   UNL A   1      42.639  22.286  25.991  1.00  0.00     0.020 A 
ATOM     71  C   UNL A   1      42.048  21.427  28.184  1.00  0.00     0.020 A 
ATOM     72  C   UNL A   1      42.229  21.233  26.813  1.00  0.00     0.054 A 
BRANCH  72  73
ATOM     73  S   UNL A   1      41.952  19.600  26.075  1.00  0.00     0.124 S 
ATOM     74  O   UNL A   1      42.820  19.646  24.903  1.00  0.00    -0.237 OA
ATOM     75  O   UNL A   1      42.373  18.695  27.140  1.00  0.00    -0.237 OA
ATOM     76  O   UNL A   1      40.518  19.592  25.792  1.00  0.00    -0.744 OA
ENDBRANCH  72  73
ENDBRANCH  44  67
BRANCH  56  77
ATOM     77  C   UNL A   1      47.902  27.128  31.025  1.00  0.00    -0.014 A 
ATOM     78  C   UNL A   1      48.126  26.437  32.228  1.00  0.00     0.010 A 
ATOM     79  C   UNL A   1      48.991  27.385  30.171  1.00  0.00     0.010 A 
ATOM     80  C   UNL A   1      49.420  26.054  32.592  1.00  0.00     0.020 A 
ATOM     81  C   UNL A   1      50.280  26.974  30.515  1.00  0.00     0.020 A 
ATOM     82  C   UNL A   1      50.490  26.328  31.733  1.00  0.00     0.054 A 
BRANCH  82  83
ATOM     83  S   UNL A   1      52.156  25.802  32.218  1.00  0.00     0.124 S 
ATOM     84  O   UNL A   1      51.902  24.487  32.800  1.00  0.00    -0.237 OA
ATOM     85  O   UNL A   1      52.873  25.798  30.945  1.00  0.00    -0.237 OA
ATOM     86  O   UNL A   1      52.583  26.830  33.164  1.00  0.00    -0.744 OA
ENDBRANCH  82  83
ENDBRANCH  56  77
ENDBRANCH  30  31
ENDBRANCH  22  25
ENDBRANCH  20  21
ENDBRANCH  19  20
ENDBRANCH  18  19
ENDBRANCH   1  18
TORSDOF 20
ENDMDL
MODEL 3
REMARK VINA RESULT:      -9.0      1.281      3.085
REMARK SMILES O=C(CCOCc1ccccc1)NCCCCCCNC(=O)c1ccc(-c2c3nc(c(-c4ccc(S(=O)(=O)[O-])cc4)c4ccc([nH]4)c(-c4ccc(S(=O)(=O)[O-])cc4)c4nc(c(-c5ccc(S(=O)(=O)[O-])cc5)c5ccc2[nH]5)C=C4)C=C3)cc1
REMARK SMILES IDX 16 1 15 2 14 3 13 4 1 5 2 6 3 8 4 9 5 10 6 11 7 12 8 13
REMARK SMILES IDX 12 14 9 15 11 16 10 17 17 18 18 19 19 20 20 21 21 22 22 24
REMARK SMILES IDX 23 25 24 26 82 27 25 28 81 29 26 30 27 31 28 32 75 33 29 34
REMARK SMILES IDX 80 35 74 36 76 37 30 38 79 39 73 40 72 41 31 43 61 44 42 45
REMARK SMILES IDX 60 46 43 47 46 48 59 49 77 50 44 51 45 52 58 54 78 55 47 56
REMARK SMILES IDX 32 57 33 58 41 59 34 60 40 61 35 62 36 63 37 64 38 65 39 66
REMARK SMILES IDX 62 67 63 68 71 69 64 70 70 71 65 72 66 73 67 74 68 75 69 76
REMARK SMILES IDX 48 77 49 78 57 79 50 80 56 81 51 82 52 83 53 84 54 85 55 86
REMARK H PARENT 13 7 20 23 76 42 46 53
REMARK Flexibility Score: inf
ROOT
ATOM      1  C   UNL A   1      31.251  27.782  24.427  1.00  0.00     0.002 C 
ENDROOT
BRANCH   1   2
ATOM      2  C   UNL A   1      32.107  28.579  23.429  1.00  0.00     0.021 C 
BRANCH   2   3
ATOM      3  C   UNL A   1      32.996  27.736  22.520  1.00  0.00     0.116 C 
BRANCH   3   4
ATOM      4  N   UNL A   1      32.881  26.323  22.808  1.00  0.00    -0.356 N 
ATOM      5  O   UNL A   1      33.221  25.609  20.654  1.00  0.00    -0.275 OA
ATOM      6  C   UNL A   1      33.095  25.364  21.848  1.00  0.00     0.222 C 
ATOM      7  H   UNL A   1      32.639  26.040  23.721  1.00  0.00     0.163 HD
BRANCH   6   8
ATOM      8  C   UNL A   1      33.228  23.970  22.414  1.00  0.00     0.128 C 
BRANCH   8   9
ATOM      9  C   UNL A   1      33.209  24.012  23.935  1.00  0.00     0.170 C 
BRANCH   9  10
ATOM     10  O   UNL A   1      33.437  22.745  24.565  1.00  0.00    -0.376 OA
BRANCH  10  11
ATOM     11  C   UNL A   1      32.297  21.891  24.713  1.00  0.00     0.195 C 
BRANCH  11  12
ATOM     12  C   UNL A   1      32.496  20.452  24.303  1.00  0.00    -0.022 A 
ATOM     13  C   UNL A   1      32.203  20.024  23.002  1.00  0.00     0.006 A 
ATOM     14  C   UNL A   1      32.944  19.506  25.238  1.00  0.00     0.006 A 
ATOM     15  C   UNL A   1      32.414  18.695  22.628  1.00  0.00     0.000 A 
ATOM     16  C   UNL A   1      33.145  18.175  24.867  1.00  0.00     0.000 A 
ATOM     17  C   UNL A   1      32.889  17.773  23.558  1.00  0.00     0.000 A 
ENDBRANCH  11  12
ENDBRANCH  10  11
ENDBRANCH   9  10
ENDBRANCH   8   9
ENDBRANCH   6   8
ENDBRANCH   3   4
ENDBRANCH   2   3
ENDBRANCH   1   2
BRANCH   1  18
ATOM     18  C   UNL A   1      31.548  28.019  25.910  1.00  0.00     0.002 C 
BRANCH  18  19
ATOM     19  C   UNL A   1      32.786  27.314  26.461  1.00  0.00     0.021 C 
BRANCH  19  20
ATOM     20  C   UNL A   1      34.033  28.183  26.566  1.00  0.00     0.116 C 
BRANCH  20  21
ATOM     21  N   UNL A   1      33.738  29.560  26.923  1.00  0.00    -0.352 N 
ATOM     22  C   UNL A   1      34.498  30.442  27.658  1.00  0.00     0.251 C 
ATOM     23  H   UNL A   1      32.879  29.910  26.595  1.00  0.00     0.163 HD
ATOM     24  O   UNL A   1      34.034  31.528  27.979  1.00  0.00    -0.269 OA
BRANCH  22  25
ATOM     25  C   UNL A   1      35.865  30.058  28.081  1.00  0.00     0.039 A 
ATOM     26  C   UNL A   1      36.056  29.564  29.374  1.00  0.00     0.014 A 
ATOM     27  C   UNL A   1      36.952  30.181  27.213  1.00  0.00     0.014 A 
ATOM     28  C   UNL A   1      37.329  29.148  29.776  1.00  0.00     0.010 A 
ATOM     29  C   UNL A   1      38.200  29.688  27.585  1.00  0.00     0.010 A 
ATOM     30  C   UNL A   1      38.407  29.179  28.876  1.00  0.00    -0.014 A 
BRANCH  30  31
ATOM     31  C   UNL A   1      39.763  28.725  29.280  1.00  0.00     0.031 A 
ATOM     32  C   UNL A   1      40.666  29.650  30.055  1.00  0.00     0.074 A 
ATOM     33  C   UNL A   1      40.199  27.499  28.922  1.00  0.00     0.049 A 
ATOM     34  N   UNL A   1      41.900  29.460  30.450  1.00  0.00    -0.248 NA
ATOM     35  C   UNL A   1      40.122  30.970  30.413  1.00  0.00     0.031 C 
ATOM     36  C   UNL A   1      39.438  26.521  28.139  1.00  0.00     0.029 A 
ATOM     37  N   UNL A   1      41.394  26.867  29.167  1.00  0.00    -0.354 N 
ATOM     38  C   UNL A   1      42.275  30.630  31.099  1.00  0.00     0.074 A 
ATOM     39  C   UNL A   1      41.167  31.553  30.983  1.00  0.00     0.031 C 
ATOM     40  C   UNL A   1      40.176  25.407  27.990  1.00  0.00     0.029 A 
ATOM     41  C   UNL A   1      41.474  25.604  28.628  1.00  0.00     0.049 A 
ATOM     42  H   UNL A   1      42.125  27.280  29.680  1.00  0.00     0.167 HD
ATOM     43  C   UNL A   1      43.422  30.908  31.763  1.00  0.00     0.031 A 
ATOM     44  C   UNL A   1      42.480  24.707  28.638  1.00  0.00     0.031 A 
ATOM     45  C   UNL A   1      44.523  29.989  31.884  1.00  0.00     0.049 A 
ATOM     46  C   UNL A   1      43.757  25.049  29.361  1.00  0.00     0.074 A 
ATOM     47  C   UNL A   1      45.724  30.168  32.549  1.00  0.00     0.029 A 
ATOM     48  N   UNL A   1      44.555  28.715  31.339  1.00  0.00    -0.354 N 
ATOM     49  N   UNL A   1      44.074  26.149  30.003  1.00  0.00    -0.248 NA
ATOM     50  C   UNL A   1      44.804  24.018  29.382  1.00  0.00     0.031 C 
ATOM     51  C   UNL A   1      46.499  29.019  32.370  1.00  0.00     0.029 A 
ATOM     52  C   UNL A   1      45.756  28.098  31.651  1.00  0.00     0.049 A 
ATOM     53  H   UNL A   1      43.831  28.308  30.810  1.00  0.00     0.167 HD
ATOM     54  C   UNL A   1      45.338  25.923  30.539  1.00  0.00     0.074 A 
ATOM     55  C   UNL A   1      45.719  24.579  30.159  1.00  0.00     0.031 C 
ATOM     56  C   UNL A   1      46.113  26.753  31.281  1.00  0.00     0.031 A 
BRANCH  43  57
ATOM     57  C   UNL A   1      43.537  32.253  32.428  1.00  0.00    -0.014 A 
ATOM     58  C   UNL A   1      44.180  33.324  31.779  1.00  0.00     0.010 A 
ATOM     59  C   UNL A   1      42.948  32.473  33.687  1.00  0.00     0.010 A 
ATOM     60  C   UNL A   1      44.258  34.579  32.387  1.00  0.00     0.020 A 
ATOM     61  C   UNL A   1      42.996  33.736  34.285  1.00  0.00     0.020 A 
ATOM     62  C   UNL A   1      43.663  34.778  33.635  1.00  0.00     0.054 A 
BRANCH  62  63
ATOM     63  S   UNL A   1      43.739  36.433  34.376  1.00  0.00     0.124 S 
ATOM     64  O   UNL A   1      44.878  37.023  33.677  1.00  0.00    -0.237 OA
ATOM     65  O   UNL A   1      42.434  36.994  34.034  1.00  0.00    -0.237 OA
ATOM     66  O   UNL A   1      43.948  36.168  35.797  1.00  0.00    -0.744 OA
ENDBRANCH  62  63
ENDBRANCH  43  57
BRANCH  44  67
ATOM     67  C   UNL A   1      42.331  23.397  27.941  1.00  0.00    -0.014 A 
ATOM     68  C   UNL A   1      41.614  22.341  28.532  1.00  0.00     0.010 A 
ATOM     69  C   UNL A   1      42.943  23.188  26.691  1.00  0.00     0.010 A 
ATOM     70  C   UNL A   1      41.555  21.089  27.912  1.00  0.00     0.020 A 
ATOM     71  C   UNL A   1      42.855  21.949  26.051  1.00  0.00     0.020 A 
ATOM     72  C   UNL A   1      42.181  20.899  26.677  1.00  0.00     0.054 A 
BRANCH  72  73
ATOM     73  S   UNL A   1      42.091  19.269  25.889  1.00  0.00     0.124 S 
ATOM     74  O   UNL A   1      40.661  19.140  25.624  1.00  0.00    -0.237 OA
ATOM     75  O   UNL A   1      42.940  19.438  24.714  1.00  0.00    -0.237 OA
ATOM     76  O   UNL A   1      42.622  18.367  26.908  1.00  0.00    -0.744 OA
ENDBRANCH  72  73
ENDBRANCH  44  67
BRANCH  56  77
ATOM     77  C   UNL A   1      47.420  26.207  31.797  1.00  0.00    -0.014 A 
ATOM     78  C   UNL A   1      47.515  25.573  33.048  1.00  0.00     0.010 A 
ATOM     79  C   UNL A   1      48.568  26.302  30.990  1.00  0.00     0.010 A 
ATOM     80  C   UNL A   1      48.745  25.087  33.501  1.00  0.00     0.020 A 
ATOM     81  C   UNL A   1      49.792  25.788  31.425  1.00  0.00     0.020 A 
ATOM     82  C   UNL A   1      49.876  25.201  32.687  1.00  0.00     0.054 A 
BRANCH  82  83
ATOM     83  S   UNL A   1      51.455  24.544  33.289  1.00  0.00     0.124 S 
ATOM     84  O   UNL A   1      51.763  23.527  32.287  1.00  0.00    -0.237 OA
ATOM     85  O   UNL A   1      52.319  25.722  33.275  1.00  0.00    -0.237 OA
ATOM     86  O   UNL A   1      51.133  24.031  34.619  1.00  0.00    -0.744 OA
ENDBRANCH  82  83
ENDBRANCH  56  77
ENDBRANCH  30  31
ENDBRANCH  22  25
ENDBRANCH  20  21
ENDBRANCH  19  20
ENDBRANCH  18  19
ENDBRANCH   1  18
TORSDOF 20
ENDMDL
