MODEL 1
REMARK VINA RESULT:      -9.5      0.000      0.000
REMARK SMILES Cc1cc(I)cc([C@H]([NH3+])C(=O)NCCCCCCNC(=O)c2ccc(-c3c4nc(c(-c5ccc(S(=O)(=O)[O-])cc5)c5ccc([nH]5)c(-c5ccc(S(=O)(=O)[O-])cc5)c5nc(c(-c6ccc(S(=O)(=O)[O-])cc6)c6ccc3[nH]6)C=C5)C=C4)cc2)c1O
REMARK SMILES IDX 16 1 15 2 14 3 13 4 12 5 10 6 11 7 8 9 7 10 1 11 2 12 3 13
REMARK SMILES IDX 82 14 4 15 5 16 6 17 83 18 9 20 17 24 18 25 19 26 20 27
REMARK SMILES IDX 21 29 22 30 23 31 81 32 24 33 80 34 25 35 26 36 27 37 74 38
REMARK SMILES IDX 28 39 79 40 73 41 75 42 29 43 78 44 72 45 71 46 30 48 60 49
REMARK SMILES IDX 41 50 59 51 42 52 45 53 58 54 76 55 43 56 44 57 57 59 77 60
REMARK SMILES IDX 46 61 31 62 32 63 40 64 33 65 39 66 34 67 35 68 36 69 37 70
REMARK SMILES IDX 38 71 61 72 62 73 70 74 63 75 69 76 64 77 65 78 66 79 67 80
REMARK SMILES IDX 68 81 47 82 48 83 56 84 49 85 55 86 50 87 51 88 52 89 53 90
REMARK SMILES IDX 54 91
REMARK H PARENT 12 8 83 19 9 21 9 22 9 23 19 28 75 47 45 58
REMARK Flexibility Score: inf
ROOT
ATOM      1  C   UNL A   1      32.189  27.768  26.668  1.00  0.00     0.002 C 
ENDROOT
BRANCH   1   2
ATOM      2  C   UNL A   1      31.020  27.919  25.687  1.00  0.00     0.002 C 
BRANCH   2   3
ATOM      3  C   UNL A   1      31.242  28.890  24.518  1.00  0.00     0.021 C 
BRANCH   3   4
ATOM      4  C   UNL A   1      31.091  28.270  23.133  1.00  0.00     0.116 C 
BRANCH   4   5
ATOM      5  N   UNL A   1      32.373  28.009  22.505  1.00  0.00    -0.351 N 
ATOM      6  C   UNL A   1      32.912  26.849  22.018  1.00  0.00     0.283 C 
ATOM      7  O   UNL A   1      33.937  26.964  21.332  1.00  0.00    -0.268 OA
ATOM      8  H   UNL A   1      32.953  28.800  22.415  1.00  0.00     0.163 HD
BRANCH   6   9
ATOM      9  C   UNL A   1      32.287  25.458  22.290  1.00  0.00     0.306 C 
BRANCH   9  10
ATOM     10  C   UNL A   1      32.633  24.795  23.625  1.00  0.00     0.062 A 
ATOM     11  C   UNL A   1      30.857  23.518  26.820  1.00  0.00     0.048 C 
ATOM     12  C   UNL A   1      31.895  23.859  25.787  1.00  0.00    -0.008 A 
ATOM     13  C   UNL A   1      33.235  23.612  26.120  1.00  0.00     0.022 A 
ATOM     14  C   UNL A   1      31.613  24.451  24.542  1.00  0.00     0.128 A 
ATOM     15  C   UNL A   1      34.256  23.972  25.248  1.00  0.00     0.014 A 
ATOM     16  I   UNL A   1      36.238  23.598  25.756  1.00  0.00    -0.044 I 
ATOM     17  C   UNL A   1      33.961  24.584  24.031  1.00  0.00     0.029 A 
BRANCH  14  18
ATOM     18  O   UNL A   1      30.324  24.732  24.166  1.00  0.00    -0.507 OA
ATOM     19  H   UNL A   1      29.858  25.432  24.578  1.00  0.00     0.293 HD
ENDBRANCH  14  18
ENDBRANCH   9  10
BRANCH   9  20
ATOM     20  N   UNL A   1      32.489  24.580  21.114  1.00  0.00    -0.343 N 
ATOM     21  H   UNL A   1      32.856  23.679  21.420  1.00  0.00     0.345 HD
ATOM     22  H   UNL A   1      33.152  25.016  20.473  1.00  0.00     0.345 HD
ATOM     23  H   UNL A   1      31.598  24.439  20.636  1.00  0.00     0.345 HD
ENDBRANCH   9  20
ENDBRANCH   6   9
ENDBRANCH   4   5
ENDBRANCH   3   4
ENDBRANCH   2   3
ENDBRANCH   1   2
BRANCH   1  24
ATOM     24  C   UNL A   1      33.573  27.607  26.037  1.00  0.00     0.021 C 
BRANCH  24  25
ATOM     25  C   UNL A   1      34.592  28.675  26.414  1.00  0.00     0.116 C 
BRANCH  25  26
ATOM     26  N   UNL A   1      33.999  29.982  26.648  1.00  0.00    -0.352 N 
ATOM     27  C   UNL A   1      34.375  30.946  27.555  1.00  0.00     0.251 C 
ATOM     28  H   UNL A   1      33.226  30.208  26.081  1.00  0.00     0.163 HD
ATOM     29  O   UNL A   1      33.703  31.962  27.695  1.00  0.00    -0.269 OA
BRANCH  27  30
ATOM     30  C   UNL A   1      35.573  30.721  28.395  1.00  0.00     0.039 A 
ATOM     31  C   UNL A   1      36.754  31.429  28.155  1.00  0.00     0.014 A 
ATOM     32  C   UNL A   1      35.527  29.751  29.400  1.00  0.00     0.014 A 
ATOM     33  C   UNL A   1      37.925  31.052  28.804  1.00  0.00     0.010 A 
ATOM     34  C   UNL A   1      36.689  29.427  30.106  1.00  0.00     0.010 A 
ATOM     35  C   UNL A   1      37.909  30.039  29.777  1.00  0.00    -0.014 A 
BRANCH  35  36
ATOM     36  C   UNL A   1      39.181  29.630  30.429  1.00  0.00     0.031 A 
ATOM     37  C   UNL A   1      40.029  28.533  29.839  1.00  0.00     0.074 A 
ATOM     38  C   UNL A   1      39.606  30.296  31.521  1.00  0.00     0.049 A 
ATOM     39  N   UNL A   1      41.180  28.071  30.260  1.00  0.00    -0.248 NA
ATOM     40  C   UNL A   1      39.529  27.870  28.624  1.00  0.00     0.031 C 
ATOM     41  C   UNL A   1      38.884  31.394  32.166  1.00  0.00     0.029 A 
ATOM     42  N   UNL A   1      40.756  30.172  32.260  1.00  0.00    -0.354 N 
ATOM     43  C   UNL A   1      41.535  27.064  29.371  1.00  0.00     0.074 A 
ATOM     44  C   UNL A   1      40.465  26.957  28.404  1.00  0.00     0.031 C 
ATOM     45  C   UNL A   1      39.633  31.883  33.165  1.00  0.00     0.029 A 
ATOM     46  C   UNL A   1      40.857  31.094  33.276  1.00  0.00     0.049 A 
ATOM     47  H   UNL A   1      41.442  29.490  32.081  1.00  0.00     0.167 HD
ATOM     48  C   UNL A   1      42.658  26.307  29.354  1.00  0.00     0.031 A 
ATOM     49  C   UNL A   1      41.818  31.285  34.201  1.00  0.00     0.031 A 
ATOM     50  C   UNL A   1      43.726  26.426  30.313  1.00  0.00     0.049 A 
ATOM     51  C   UNL A   1      43.030  30.401  34.194  1.00  0.00     0.074 A 
ATOM     52  C   UNL A   1      44.904  25.700  30.376  1.00  0.00     0.029 A 
ATOM     53  N   UNL A   1      43.755  27.324  31.368  1.00  0.00    -0.354 N 
ATOM     54  N   UNL A   1      43.340  29.443  33.352  1.00  0.00    -0.248 NA
ATOM     55  C   UNL A   1      44.021  30.613  35.258  1.00  0.00     0.031 C 
ATOM     56  C   UNL A   1      45.619  26.124  31.497  1.00  0.00     0.029 A 
ATOM     57  C   UNL A   1      44.919  27.157  32.098  1.00  0.00     0.049 A 
ATOM     58  H   UNL A   1      43.052  27.984  31.568  1.00  0.00     0.167 HD
ATOM     59  C   UNL A   1      44.561  28.942  33.782  1.00  0.00     0.074 A 
ATOM     60  C   UNL A   1      44.947  29.715  34.945  1.00  0.00     0.031 C 
ATOM     61  C   UNL A   1      45.291  27.926  33.260  1.00  0.00     0.031 A 
BRANCH  48  62
ATOM     62  C   UNL A   1      42.812  25.279  28.265  1.00  0.00    -0.014 A 
ATOM     63  C   UNL A   1      42.351  23.965  28.472  1.00  0.00     0.010 A 
ATOM     64  C   UNL A   1      43.518  25.577  27.086  1.00  0.00     0.010 A 
ATOM     65  C   UNL A   1      42.617  22.963  27.535  1.00  0.00     0.020 A 
ATOM     66  C   UNL A   1      43.764  24.583  26.135  1.00  0.00     0.020 A 
ATOM     67  C   UNL A   1      43.332  23.276  26.376  1.00  0.00     0.054 A 
BRANCH  67  68
ATOM     68  S   UNL A   1      43.687  21.960  25.179  1.00  0.00     0.124 S 
ATOM     69  O   UNL A   1      45.064  21.607  25.509  1.00  0.00    -0.237 OA
ATOM     70  O   UNL A   1      42.681  20.951  25.502  1.00  0.00    -0.237 OA
ATOM     71  O   UNL A   1      43.502  22.617  23.886  1.00  0.00    -0.744 OA
ENDBRANCH  67  68
ENDBRANCH  48  62
BRANCH  49  72
ATOM     72  C   UNL A   1      41.652  32.379  35.196  1.00  0.00    -0.014 A 
ATOM     73  C   UNL A   1      40.896  32.166  36.365  1.00  0.00     0.010 A 
ATOM     74  C   UNL A   1      42.156  33.664  34.932  1.00  0.00     0.010 A 
ATOM     75  C   UNL A   1      40.592  33.230  37.217  1.00  0.00     0.020 A 
ATOM     76  C   UNL A   1      41.879  34.726  35.799  1.00  0.00     0.020 A 
ATOM     77  C   UNL A   1      41.070  34.508  36.918  1.00  0.00     0.054 A 
BRANCH  77  78
ATOM     78  S   UNL A   1      40.611  35.889  38.001  1.00  0.00     0.124 S 
ATOM     79  O   UNL A   1      39.778  36.697  37.115  1.00  0.00    -0.237 OA
ATOM     80  O   UNL A   1      39.906  35.221  39.092  1.00  0.00    -0.237 OA
ATOM     81  O   UNL A   1      41.897  36.479  38.362  1.00  0.00    -0.744 OA
ENDBRANCH  77  78
ENDBRANCH  49  72
BRANCH  61  82
ATOM     82  C   UNL A   1      46.588  27.565  33.932  1.00  0.00    -0.014 A 
ATOM     83  C   UNL A   1      47.792  28.134  33.478  1.00  0.00     0.010 A 
ATOM     84  C   UNL A   1      46.629  26.562  34.916  1.00  0.00     0.010 A 
ATOM     85  C   UNL A   1      49.018  27.680  33.968  1.00  0.00     0.020 A 
ATOM     86  C   UNL A   1      47.855  26.123  35.427  1.00  0.00     0.020 A 
ATOM     87  C   UNL A   1      49.042  26.667  34.930  1.00  0.00     0.054 A 
BRANCH  87  88
ATOM     88  S   UNL A   1      50.645  26.061  35.525  1.00  0.00     0.124 S 
ATOM     89  O   UNL A   1      51.211  25.460  34.321  1.00  0.00    -0.237 OA
ATOM     90  O   UNL A   1      51.300  27.281  35.989  1.00  0.00    -0.237 OA
ATOM     91  O   UNL A   1      50.282  25.119  36.582  1.00  0.00    -0.744 OA
ENDBRANCH  87  88
ENDBRANCH  61  82
ENDBRANCH  35  36
ENDBRANCH  27  30
ENDBRANCH  25  26
ENDBRANCH  24  25
ENDBRANCH   1  24
TORSDOF 19
ENDMDL
MODEL 2
REMARK VINA RESULT:      -9.3      5.047      9.531
REMARK SMILES Cc1cc(I)cc([C@H]([NH3+])C(=O)NCCCCCCNC(=O)c2ccc(-c3c4nc(c(-c5ccc(S(=O)(=O)[O-])cc5)c5ccc([nH]5)c(-c5ccc(S(=O)(=O)[O-])cc5)c5nc(c(-c6ccc(S(=O)(=O)[O-])cc6)c6ccc3[nH]6)C=C5)C=C4)cc2)c1O
REMARK SMILES IDX 16 1 15 2 14 3 13 4 12 5 10 6 11 7 8 9 7 10 1 11 2 12 3 13
REMARK SMILES IDX 82 14 4 15 5 16 6 17 83 18 9 20 17 24 18 25 19 26 20 27
REMARK SMILES IDX 21 29 22 30 23 31 81 32 24 33 80 34 25 35 26 36 27 37 74 38
REMARK SMILES IDX 28 39 79 40 73 41 75 42 29 43 78 44 72 45 71 46 30 48 60 49
REMARK SMILES IDX 41 50 59 51 42 52 45 53 58 54 76 55 43 56 44 57 57 59 77 60
REMARK SMILES IDX 46 61 31 62 32 63 40 64 33 65 39 66 34 67 35 68 36 69 37 70
REMARK SMILES IDX 38 71 61 72 62 73 70 74 63 75 69 76 64 77 65 78 66 79 67 80
REMARK SMILES IDX 68 81 47 82 48 83 56 84 49 85 55 86 50 87 51 88 52 89 53 90
REMARK SMILES IDX 54 91
REMARK H PARENT 12 8 83 19 9 21 9 22 9 23 19 28 75 47 45 58
REMARK Flexibility Score: inf
ROOT
ATOM      1  C   UNL A   1      34.010  31.107  27.493  1.00  0.00     0.002 C 
ENDROOT
BRANCH   1   2
ATOM      2  C   UNL A   1      34.817  29.803  27.455  1.00  0.00     0.002 C 
BRANCH   2   3
ATOM      3  C   UNL A   1      34.142  28.613  26.759  1.00  0.00     0.021 C 
BRANCH   3   4
ATOM      4  C   UNL A   1      32.636  28.512  26.980  1.00  0.00     0.116 C 
BRANCH   4   5
ATOM      5  N   UNL A   1      31.930  28.107  25.779  1.00  0.00    -0.351 N 
ATOM      6  C   UNL A   1      31.464  26.882  25.384  1.00  0.00     0.283 C 
ATOM      7  O   UNL A   1      30.700  26.872  24.409  1.00  0.00    -0.268 OA
ATOM      8  H   UNL A   1      31.759  28.836  25.139  1.00  0.00     0.163 HD
BRANCH   6   9
ATOM      9  C   UNL A   1      31.850  25.567  26.108  1.00  0.00     0.306 C 
BRANCH   9  10
ATOM     10  C   UNL A   1      32.657  24.548  25.302  1.00  0.00     0.062 A 
ATOM     11  C   UNL A   1      32.080  21.738  22.700  1.00  0.00     0.048 C 
ATOM     12  C   UNL A   1      32.719  22.718  23.646  1.00  0.00    -0.008 A 
ATOM     13  C   UNL A   1      34.106  22.620  23.828  1.00  0.00     0.022 A 
ATOM     14  C   UNL A   1      32.012  23.681  24.389  1.00  0.00     0.128 A 
ATOM     15  C   UNL A   1      34.757  23.440  24.743  1.00  0.00     0.014 A 
ATOM     16  I   UNL A   1      36.814  23.284  25.001  1.00  0.00    -0.044 I 
ATOM     17  C   UNL A   1      34.037  24.369  25.493  1.00  0.00     0.029 A 
BRANCH  14  18
ATOM     18  O   UNL A   1      30.652  23.814  24.267  1.00  0.00    -0.507 OA
ATOM     19  H   UNL A   1      30.256  23.814  23.418  1.00  0.00     0.293 HD
ENDBRANCH  14  18
ENDBRANCH   9  10
BRANCH   9  20
ATOM     20  N   UNL A   1      30.658  24.996  26.777  1.00  0.00    -0.343 N 
ATOM     21  H   UNL A   1      30.318  24.196  26.242  1.00  0.00     0.345 HD
ATOM     22  H   UNL A   1      29.925  25.704  26.831  1.00  0.00     0.345 HD
ATOM     23  H   UNL A   1      30.908  24.693  27.718  1.00  0.00     0.345 HD
ENDBRANCH   9  20
ENDBRANCH   6   9
ENDBRANCH   4   5
ENDBRANCH   3   4
ENDBRANCH   2   3
ENDBRANCH   1   2
BRANCH   1  24
ATOM     24  C   UNL A   1      34.445  32.130  28.544  1.00  0.00     0.021 C 
BRANCH  24  25
ATOM     25  C   UNL A   1      35.789  31.854  29.208  1.00  0.00     0.116 C 
BRANCH  25  26
ATOM     26  N   UNL A   1      35.672  31.164  30.483  1.00  0.00    -0.352 N 
ATOM     27  C   UNL A   1      36.609  30.391  31.128  1.00  0.00     0.251 C 
ATOM     28  H   UNL A   1      34.809  31.265  30.945  1.00  0.00     0.163 HD
ATOM     29  O   UNL A   1      36.316  29.793  32.159  1.00  0.00    -0.269 OA
BRANCH  27  30
ATOM     30  C   UNL A   1      37.960  30.248  30.541  1.00  0.00     0.039 A 
ATOM     31  C   UNL A   1      38.124  30.080  29.164  1.00  0.00     0.014 A 
ATOM     32  C   UNL A   1      39.071  30.229  31.389  1.00  0.00     0.014 A 
ATOM     33  C   UNL A   1      39.371  29.729  28.657  1.00  0.00     0.010 A 
ATOM     34  C   UNL A   1      40.338  29.951  30.866  1.00  0.00     0.010 A 
ATOM     35  C   UNL A   1      40.490  29.648  29.503  1.00  0.00    -0.014 A 
BRANCH  35  36
ATOM     36  C   UNL A   1      41.802  29.235  28.944  1.00  0.00     0.031 A 
ATOM     37  C   UNL A   1      42.972  30.185  28.944  1.00  0.00     0.074 A 
ATOM     38  C   UNL A   1      41.959  27.975  28.492  1.00  0.00     0.049 A 
ATOM     39  N   UNL A   1      44.195  29.979  28.524  1.00  0.00    -0.248 NA
ATOM     40  C   UNL A   1      42.747  31.535  29.485  1.00  0.00     0.031 C 
ATOM     41  C   UNL A   1      40.907  26.957  28.467  1.00  0.00     0.029 A 
ATOM     42  N   UNL A   1      43.064  27.325  28.002  1.00  0.00    -0.354 N 
ATOM     43  C   UNL A   1      44.879  31.169  28.741  1.00  0.00     0.074 A 
ATOM     44  C   UNL A   1      43.931  32.106  29.301  1.00  0.00     0.031 C 
ATOM     45  C   UNL A   1      41.430  25.797  28.044  1.00  0.00     0.029 A 
ATOM     46  C   UNL A   1      42.836  26.002  27.705  1.00  0.00     0.049 A 
ATOM     47  H   UNL A   1      43.936  27.763  27.875  1.00  0.00     0.167 HD
ATOM     48  C   UNL A   1      46.183  31.450  28.508  1.00  0.00     0.031 A 
ATOM     49  C   UNL A   1      43.657  25.054  27.209  1.00  0.00     0.031 A 
ATOM     50  C   UNL A   1      47.126  30.510  27.960  1.00  0.00     0.049 A 
ATOM     51  C   UNL A   1      45.085  25.403  26.911  1.00  0.00     0.074 A 
ATOM     52  C   UNL A   1      48.470  30.707  27.688  1.00  0.00     0.029 A 
ATOM     53  N   UNL A   1      46.836  29.202  27.607  1.00  0.00    -0.354 N 
ATOM     54  N   UNL A   1      45.708  26.541  27.110  1.00  0.00    -0.248 NA
ATOM     55  C   UNL A   1      45.922  24.352  26.318  1.00  0.00     0.031 C 
ATOM     56  C   UNL A   1      48.978  29.535  27.125  1.00  0.00     0.029 A 
ATOM     57  C   UNL A   1      47.968  28.586  27.102  1.00  0.00     0.049 A 
ATOM     58  H   UNL A   1      45.955  28.773  27.703  1.00  0.00     0.167 HD
ATOM     59  C   UNL A   1      47.011  26.341  26.672  1.00  0.00     0.074 A 
ATOM     60  C   UNL A   1      47.095  24.968  26.217  1.00  0.00     0.031 C 
ATOM     61  C   UNL A   1      48.040  27.221  26.644  1.00  0.00     0.031 A 
BRANCH  48  62
ATOM     62  C   UNL A   1      46.689  32.828  28.845  1.00  0.00    -0.014 A 
ATOM     63  C   UNL A   1      46.694  33.833  27.858  1.00  0.00     0.010 A 
ATOM     64  C   UNL A   1      47.271  33.097  30.096  1.00  0.00     0.010 A 
ATOM     65  C   UNL A   1      47.295  35.070  28.108  1.00  0.00     0.020 A 
ATOM     66  C   UNL A   1      47.851  34.341  30.357  1.00  0.00     0.020 A 
ATOM     67  C   UNL A   1      47.879  35.313  29.353  1.00  0.00     0.054 A 
BRANCH  67  68
ATOM     68  S   UNL A   1      48.673  36.916  29.655  1.00  0.00     0.124 S 
ATOM     69  O   UNL A   1      49.852  36.536  30.426  1.00  0.00    -0.237 OA
ATOM     70  O   UNL A   1      48.933  37.405  28.303  1.00  0.00    -0.237 OA
ATOM     71  O   UNL A   1      47.658  37.665  30.393  1.00  0.00    -0.744 OA
ENDBRANCH  67  68
ENDBRANCH  48  62
BRANCH  49  72
ATOM     72  C   UNL A   1      43.122  23.684  26.984  1.00  0.00    -0.014 A 
ATOM     73  C   UNL A   1      43.115  22.745  28.034  1.00  0.00     0.010 A 
ATOM     74  C   UNL A   1      42.717  23.279  25.701  1.00  0.00     0.010 A 
ATOM     75  C   UNL A   1      42.775  21.412  27.791  1.00  0.00     0.020 A 
ATOM     76  C   UNL A   1      42.347  21.951  25.461  1.00  0.00     0.020 A 
ATOM     77  C   UNL A   1      42.412  21.020  26.501  1.00  0.00     0.054 A 
BRANCH  77  78
ATOM     78  S   UNL A   1      42.039  19.272  26.191  1.00  0.00     0.124 S 
ATOM     79  O   UNL A   1      42.883  18.988  25.034  1.00  0.00    -0.237 OA
ATOM     80  O   UNL A   1      42.445  18.631  27.439  1.00  0.00    -0.237 OA
ATOM     81  O   UNL A   1      40.601  19.273  25.933  1.00  0.00    -0.744 OA
ENDBRANCH  77  78
ENDBRANCH  49  72
BRANCH  61  82
ATOM     82  C   UNL A   1      49.362  26.752  26.098  1.00  0.00    -0.014 A 
ATOM     83  C   UNL A   1      50.325  26.211  26.969  1.00  0.00     0.010 A 
ATOM     84  C   UNL A   1      49.700  26.975  24.752  1.00  0.00     0.010 A 
ATOM     85  C   UNL A   1      51.616  25.936  26.514  1.00  0.00     0.020 A 
ATOM     86  C   UNL A   1      50.985  26.677  24.287  1.00  0.00     0.020 A 
ATOM     87  C   UNL A   1      51.941  26.185  25.178  1.00  0.00     0.054 A 
BRANCH  87  88
ATOM     88  S   UNL A   1      53.635  25.860  24.613  1.00  0.00     0.124 S 
ATOM     89  O   UNL A   1      54.428  26.297  25.758  1.00  0.00    -0.237 OA
ATOM     90  O   UNL A   1      53.623  24.420  24.367  1.00  0.00    -0.237 OA
ATOM     91  O   UNL A   1      53.759  26.687  23.414  1.00  0.00    -0.744 OA
ENDBRANCH  87  88
ENDBRANCH  61  82
ENDBRANCH  35  36
ENDBRANCH  27  30
ENDBRANCH  25  26
ENDBRANCH  24  25
ENDBRANCH   1  24
TORSDOF 19
ENDMDL
MODEL 3
REMARK VINA RESULT:      -9.2      0.729      8.374
REMARK SMILES Cc1cc(I)cc([C@H]([NH3+])C(=O)NCCCCCCNC(=O)c2ccc(-c3c4nc(c(-c5ccc(S(=O)(=O)[O-])cc5)c5ccc([nH]5)c(-c5ccc(S(=O)(=O)[O-])cc5)c5nc(c(-c6ccc(S(=O)(=O)[O-])cc6)c6ccc3[nH]6)C=C5)C=C4)cc2)c1O
REMARK SMILES IDX 16 1 15 2 14 3 13 4 12 5 10 6 11 7 8 9 7 10 1 11 2 12 3 13
REMARK SMILES IDX 82 14 4 15 5 16 6 17 83 18 9 20 17 24 18 25 19 26 20 27
REMARK SMILES IDX 21 29 22 30 23 31 81 32 24 33 80 34 25 35 26 36 27 37 74 38
REMARK SMILES IDX 28 39 79 40 73 41 75 42 29 43 78 44 72 45 71 46 30 48 60 49
REMARK SMILES IDX 41 50 59 51 42 52 45 53 58 54 76 55 43 56 44 57 57 59 77 60
REMARK SMILES IDX 46 61 31 62 32 63 40 64 33 65 39 66 34 67 35 68 36 69 37 70
REMARK SMILES IDX 38 71 61 72 62 73 70 74 63 75 69 76 64 77 65 78 66 79 67 80
REMARK SMILES IDX 68 81 47 82 48 83 56 84 49 85 55 86 50 87 51 88 52 89 53 90
REMARK SMILES IDX 54 91
REMARK H PARENT 12 8 83 19 9 21 9 22 9 23 19 28 75 47 45 58
REMARK Flexibility Score: inf
ROOT
ATOM      1  C   UNL A   1      32.416  27.149  26.589  1.00  0.00     0.002 C 
ENDROOT
BRANCH   1   2
ATOM      2  C   UNL A   1      31.095  27.142  25.809  1.00  0.00     0.002 C 
BRANCH   2   3
ATOM      3  C   UNL A   1      31.029  28.072  24.589  1.00  0.00     0.021 C 
BRANCH   3   4
ATOM      4  C   UNL A   1      30.864  27.359  23.250  1.00  0.00     0.116 C 
BRANCH   4   5
ATOM      5  N   UNL A   1      32.112  27.279  22.514  1.00  0.00    -0.351 N 
ATOM      6  C   UNL A   1      32.790  26.200  22.014  1.00  0.00     0.283 C 
ATOM      7  O   UNL A   1      33.717  26.447  21.232  1.00  0.00    -0.268 OA
ATOM      8  H   UNL A   1      32.545  28.148  22.346  1.00  0.00     0.163 HD
BRANCH   6   9
ATOM      9  C   UNL A   1      32.426  24.740  22.384  1.00  0.00     0.306 C 
BRANCH   9  10
ATOM     10  C   UNL A   1      32.913  24.233  23.743  1.00  0.00     0.062 A 
ATOM     11  C   UNL A   1      31.458  23.044  27.129  1.00  0.00     0.048 C 
ATOM     12  C   UNL A   1      32.397  23.407  26.012  1.00  0.00    -0.008 A 
ATOM     13  C   UNL A   1      33.772  23.334  26.282  1.00  0.00     0.022 A 
ATOM     14  C   UNL A   1      31.986  23.859  24.744  1.00  0.00     0.128 A 
ATOM     15  C   UNL A   1      34.700  23.727  25.324  1.00  0.00     0.014 A 
ATOM     16  I   UNL A   1      36.734  23.612  25.739  1.00  0.00    -0.044 I 
ATOM     17  C   UNL A   1      34.276  24.200  24.083  1.00  0.00     0.029 A 
BRANCH  14  18
ATOM     18  O   UNL A   1      30.656  23.967  24.426  1.00  0.00    -0.507 OA
ATOM     19  H   UNL A   1      30.153  23.197  24.250  1.00  0.00     0.293 HD
ENDBRANCH  14  18
ENDBRANCH   9  10
BRANCH   9  20
ATOM     20  N   UNL A   1      32.756  23.840  21.254  1.00  0.00    -0.343 N 
ATOM     21  H   UNL A   1      33.054  24.395  20.452  1.00  0.00     0.345 HD
ATOM     22  H   UNL A   1      31.931  23.294  21.002  1.00  0.00     0.345 HD
ATOM     23  H   UNL A   1      33.509  23.209  21.530  1.00  0.00     0.345 HD
ENDBRANCH   9  20
ENDBRANCH   6   9
ENDBRANCH   4   5
ENDBRANCH   3   4
ENDBRANCH   2   3
ENDBRANCH   1   2
BRANCH   1  24
ATOM     24  C   UNL A   1      33.661  27.533  25.787  1.00  0.00     0.021 C 
BRANCH  24  25
ATOM     25  C   UNL A   1      34.554  28.587  26.432  1.00  0.00     0.116 C 
BRANCH  25  26
ATOM     26  N   UNL A   1      33.888  29.863  26.633  1.00  0.00    -0.352 N 
ATOM     27  C   UNL A   1      34.227  30.882  27.494  1.00  0.00     0.251 C 
ATOM     28  H   UNL A   1      33.090  30.020  26.079  1.00  0.00     0.163 HD
ATOM     29  O   UNL A   1      33.497  31.861  27.614  1.00  0.00    -0.269 OA
BRANCH  27  30
ATOM     30  C   UNL A   1      35.455  30.762  28.310  1.00  0.00     0.039 A 
ATOM     31  C   UNL A   1      36.524  31.643  28.122  1.00  0.00     0.014 A 
ATOM     32  C   UNL A   1      35.557  29.722  29.237  1.00  0.00     0.014 A 
ATOM     33  C   UNL A   1      37.745  31.383  28.735  1.00  0.00     0.010 A 
ATOM     34  C   UNL A   1      36.762  29.509  29.912  1.00  0.00     0.010 A 
ATOM     35  C   UNL A   1      37.882  30.306  29.628  1.00  0.00    -0.014 A 
BRANCH  35  36
ATOM     36  C   UNL A   1      39.207  30.029  30.241  1.00  0.00     0.031 A 
ATOM     37  C   UNL A   1      39.677  30.808  31.442  1.00  0.00     0.074 A 
ATOM     38  C   UNL A   1      39.962  29.024  29.753  1.00  0.00     0.049 A 
ATOM     39  N   UNL A   1      40.789  30.676  32.120  1.00  0.00    -0.248 NA
ATOM     40  C   UNL A   1      38.791  31.867  31.951  1.00  0.00     0.031 C 
ATOM     41  C   UNL A   1      39.599  28.182  28.612  1.00  0.00     0.029 A 
ATOM     42  N   UNL A   1      41.168  28.519  30.171  1.00  0.00    -0.354 N 
ATOM     43  C   UNL A   1      40.740  31.635  33.125  1.00  0.00     0.074 A 
ATOM     44  C   UNL A   1      39.504  32.365  32.952  1.00  0.00     0.031 C 
ATOM     45  C   UNL A   1      40.529  27.229  28.458  1.00  0.00     0.029 A 
ATOM     46  C   UNL A   1      41.588  27.430  29.444  1.00  0.00     0.049 A 
ATOM     47  H   UNL A   1      41.682  28.899  30.918  1.00  0.00     0.167 HD
ATOM     48  C   UNL A   1      41.638  31.875  34.110  1.00  0.00     0.031 A 
ATOM     49  C   UNL A   1      42.701  26.676  29.547  1.00  0.00     0.031 A 
ATOM     50  C   UNL A   1      42.862  31.137  34.284  1.00  0.00     0.049 A 
ATOM     51  C   UNL A   1      43.705  26.993  30.615  1.00  0.00     0.074 A 
ATOM     52  C   UNL A   1      43.834  31.310  35.256  1.00  0.00     0.029 A 
ATOM     53  N   UNL A   1      43.282  30.088  33.482  1.00  0.00    -0.354 N 
ATOM     54  N   UNL A   1      43.646  27.915  31.547  1.00  0.00    -0.248 NA
ATOM     55  C   UNL A   1      44.927  26.178  30.649  1.00  0.00     0.031 C 
ATOM     56  C   UNL A   1      44.864  30.401  35.010  1.00  0.00     0.029 A 
ATOM     57  C   UNL A   1      44.507  29.618  33.924  1.00  0.00     0.049 A 
ATOM     58  H   UNL A   1      42.783  29.729  32.713  1.00  0.00     0.167 HD
ATOM     59  C   UNL A   1      44.818  27.789  32.280  1.00  0.00     0.074 A 
ATOM     60  C   UNL A   1      45.560  26.688  31.700  1.00  0.00     0.031 C 
ATOM     61  C   UNL A   1      45.242  28.526  33.335  1.00  0.00     0.031 A 
BRANCH  48  62
ATOM     62  C   UNL A   1      41.342  32.976  35.094  1.00  0.00    -0.014 A 
ATOM     63  C   UNL A   1      41.860  34.268  34.875  1.00  0.00     0.010 A 
ATOM     64  C   UNL A   1      40.658  32.709  36.292  1.00  0.00     0.010 A 
ATOM     65  C   UNL A   1      41.722  35.261  35.848  1.00  0.00     0.020 A 
ATOM     66  C   UNL A   1      40.497  33.707  37.257  1.00  0.00     0.020 A 
ATOM     67  C   UNL A   1      41.050  34.972  37.038  1.00  0.00     0.054 A 
BRANCH  67  68
ATOM     68  S   UNL A   1      40.898  36.267  38.300  1.00  0.00     0.124 S 
ATOM     69  O   UNL A   1      39.652  36.924  37.918  1.00  0.00    -0.237 OA
ATOM     70  O   UNL A   1      40.854  35.501  39.543  1.00  0.00    -0.237 OA
ATOM     71  O   UNL A   1      42.109  37.065  38.115  1.00  0.00    -0.744 OA
ENDBRANCH  67  68
ENDBRANCH  48  62
BRANCH  49  72
ATOM     72  C   UNL A   1      42.892  25.542  28.603  1.00  0.00    -0.014 A 
ATOM     73  C   UNL A   1      43.311  25.783  27.280  1.00  0.00     0.010 A 
ATOM     74  C   UNL A   1      42.556  24.232  28.986  1.00  0.00     0.010 A 
ATOM     75  C   UNL A   1      43.328  24.749  26.342  1.00  0.00     0.020 A 
ATOM     76  C   UNL A   1      42.602  23.188  28.056  1.00  0.00     0.020 A 
ATOM     77  C   UNL A   1      42.955  23.461  26.732  1.00  0.00     0.054 A 
BRANCH  77  78
ATOM     78  S   UNL A   1      42.921  22.145  25.485  1.00  0.00     0.124 S 
ATOM     79  O   UNL A   1      43.841  21.166  26.059  1.00  0.00    -0.237 OA
ATOM     80  O   UNL A   1      41.515  21.752  25.470  1.00  0.00    -0.237 OA
ATOM     81  O   UNL A   1      43.392  22.812  24.274  1.00  0.00    -0.744 OA
ENDBRANCH  77  78
ENDBRANCH  49  72
BRANCH  61  82
ATOM     82  C   UNL A   1      46.576  28.191  33.946  1.00  0.00    -0.014 A 
ATOM     83  C   UNL A   1      46.637  27.341  35.065  1.00  0.00     0.010 A 
ATOM     84  C   UNL A   1      47.748  28.827  33.500  1.00  0.00     0.010 A 
ATOM     85  C   UNL A   1      47.840  27.160  35.752  1.00  0.00     0.020 A 
ATOM     86  C   UNL A   1      48.959  28.628  34.171  1.00  0.00     0.020 A 
ATOM     87  C   UNL A   1      48.990  27.817  35.308  1.00  0.00     0.054 A 
BRANCH  87  88
ATOM     88  S   UNL A   1      50.535  27.603  36.236  1.00  0.00     0.124 S 
ATOM     89  O   UNL A   1      51.373  28.663  35.683  1.00  0.00    -0.237 OA
ATOM     90  O   UNL A   1      50.109  27.794  37.620  1.00  0.00    -0.237 OA
ATOM     91  O   UNL A   1      50.948  26.242  35.902  1.00  0.00    -0.744 OA
ENDBRANCH  87  88
ENDBRANCH  61  82
ENDBRANCH  35  36
ENDBRANCH  27  30
ENDBRANCH  25  26
ENDBRANCH  24  25
ENDBRANCH   1  24
TORSDOF 19
ENDMDL
