MODEL 1
REMARK VINA RESULT:     -11.4      0.000      0.000
REMARK SMILES O=C(Cc1ccccc1C(=O)NCCCCCCNC(=O)c1ccc(-c2c3nc(c(-c4ccc(S(=O)(=O)[O-])cc4)c4ccc([nH]4)c(-c4ccc(S(=O)(=O)[O-])cc4)c4nc(c(-c5ccc(S(=O)(=O)[O-])cc5)c5ccc2[nH]5)C=C4)C=C3)cc1)Nc1cccc(OC[C@@H]2CCCO2)c1
REMARK SMILES IDX 14 1 13 2 12 3 10 4 11 5 9 7 4 8 5 9 6 10 8 11 7 12 3 13
REMARK SMILES IDX 2 14 1 15 82 16 83 18 84 19 95 20 85 21 87 22 86 23 88 24
REMARK SMILES IDX 89 25 90 26 91 27 94 28 92 29 93 30 15 31 16 32 17 33 18 34
REMARK SMILES IDX 19 35 20 36 21 38 22 39 23 40 81 41 24 42 80 43 25 44 26 45
REMARK SMILES IDX 27 46 74 47 28 48 79 49 73 50 75 51 29 52 78 53 72 54 71 55
REMARK SMILES IDX 30 57 60 58 41 59 59 60 42 61 45 62 58 63 76 64 43 65 44 66
REMARK SMILES IDX 57 68 77 69 46 70 31 71 32 72 40 73 33 74 39 75 34 76 35 77
REMARK SMILES IDX 36 78 37 79 38 80 61 81 62 82 70 83 63 84 69 85 64 86 65 87
REMARK SMILES IDX 66 88 67 89 68 90 47 91 48 92 56 93 49 94 55 95 50 96 51 97
REMARK SMILES IDX 52 98 53 99 54 100
REMARK H PARENT 12 6 82 17 19 37 75 56 45 67
REMARK Flexibility Score: inf
ROOT
ATOM      1  C   UNL A   1      34.087  24.763  24.128  1.00  0.00     0.021 C 
ENDROOT
BRANCH   1   2
ATOM      2  C   UNL A   1      33.977  26.174  23.542  1.00  0.00     0.116 C 
BRANCH   2   3
ATOM      3  N   UNL A   1      32.687  26.460  22.926  1.00  0.00    -0.352 N 
ATOM      4  C   UNL A   1      31.640  27.244  23.327  1.00  0.00     0.251 C 
ATOM      5  O   UNL A   1      30.700  27.480  22.574  1.00  0.00    -0.269 OA
ATOM      6  H   UNL A   1      32.543  26.006  22.065  1.00  0.00     0.163 HD
BRANCH   4   7
ATOM      7  C   UNL A   1      31.667  27.890  24.647  1.00  0.00     0.043 A 
ATOM      8  C   UNL A   1      31.130  27.330  25.815  1.00  0.00    -0.026 A 
ATOM      9  C   UNL A   1      31.385  28.013  27.026  1.00  0.00     0.005 A 
ATOM     10  C   UNL A   1      32.016  29.260  27.052  1.00  0.00     0.000 A 
ATOM     11  C   UNL A   1      32.240  29.175  24.665  1.00  0.00     0.014 A 
ATOM     12  C   UNL A   1      32.399  29.866  25.864  1.00  0.00     0.001 A 
BRANCH   8  13
ATOM     13  C   UNL A   1      30.282  26.080  25.940  1.00  0.00     0.136 C 
BRANCH  13  14
ATOM     14  C   UNL A   1      30.825  24.720  25.533  1.00  0.00     0.228 C 
ATOM     15  O   UNL A   1      30.639  24.308  24.391  1.00  0.00    -0.274 OA
ATOM     16  N   UNL A   1      31.637  24.105  26.466  1.00  0.00    -0.326 N 
ATOM     17  H   UNL A   1      31.805  24.597  27.302  1.00  0.00     0.169 HD
BRANCH  16  18
ATOM     18  C   UNL A   1      32.253  22.833  26.335  1.00  0.00     0.044 A 
ATOM     19  C   UNL A   1      33.393  22.594  27.109  1.00  0.00     0.026 A 
ATOM     20  C   UNL A   1      31.776  21.812  25.496  1.00  0.00     0.072 A 
ATOM     21  C   UNL A   1      34.060  21.371  27.027  1.00  0.00     0.006 A 
ATOM     22  C   UNL A   1      32.439  20.579  25.409  1.00  0.00     0.121 A 
ATOM     23  C   UNL A   1      33.584  20.373  26.180  1.00  0.00     0.046 A 
BRANCH  22  24
ATOM     24  O   UNL A   1      32.102  19.502  24.629  1.00  0.00    -0.491 OA
BRANCH  24  25
ATOM     25  C   UNL A   1      33.129  18.837  23.898  1.00  0.00     0.261 C 
BRANCH  25  26
ATOM     26  C   UNL A   1      33.032  17.301  23.993  1.00  0.00     0.156 C 
ATOM     27  C   UNL A   1      32.459  16.866  25.332  1.00  0.00     0.038 C 
ATOM     28  O   UNL A   1      34.305  16.644  23.858  1.00  0.00    -0.375 OA
ATOM     29  C   UNL A   1      33.220  15.609  25.666  1.00  0.00     0.031 C 
ATOM     30  C   UNL A   1      34.566  15.888  25.040  1.00  0.00     0.161 C 
ENDBRANCH  25  26
ENDBRANCH  24  25
ENDBRANCH  22  24
ENDBRANCH  16  18
ENDBRANCH  13  14
ENDBRANCH   8  13
ENDBRANCH   4   7
ENDBRANCH   2   3
ENDBRANCH   1   2
BRANCH   1  31
ATOM     31  C   UNL A   1      34.509  23.680  23.128  1.00  0.00     0.002 C 
BRANCH  31  32
ATOM     32  C   UNL A   1      35.987  23.294  23.176  1.00  0.00     0.002 C 
BRANCH  32  33
ATOM     33  C   UNL A   1      36.355  22.395  24.349  1.00  0.00     0.021 C 
BRANCH  33  34
ATOM     34  C   UNL A   1      37.240  23.064  25.401  1.00  0.00     0.116 C 
BRANCH  34  35
ATOM     35  N   UNL A   1      38.529  22.409  25.595  1.00  0.00    -0.352 N 
ATOM     36  C   UNL A   1      39.679  22.910  26.192  1.00  0.00     0.251 C 
ATOM     37  H   UNL A   1      38.593  21.486  25.258  1.00  0.00     0.163 HD
ATOM     38  O   UNL A   1      40.717  22.284  26.208  1.00  0.00    -0.269 OA
BRANCH  36  39
ATOM     39  C   UNL A   1      39.590  24.265  26.773  1.00  0.00     0.039 A 
ATOM     40  C   UNL A   1      39.027  24.426  28.038  1.00  0.00     0.014 A 
ATOM     41  C   UNL A   1      40.261  25.309  26.141  1.00  0.00     0.014 A 
ATOM     42  C   UNL A   1      39.252  25.618  28.731  1.00  0.00     0.010 A 
ATOM     43  C   UNL A   1      40.588  26.435  26.882  1.00  0.00     0.010 A 
ATOM     44  C   UNL A   1      40.095  26.602  28.187  1.00  0.00    -0.014 A 
BRANCH  44  45
ATOM     45  C   UNL A   1      40.484  27.816  28.952  1.00  0.00     0.031 A 
ATOM     46  C   UNL A   1      41.818  27.848  29.651  1.00  0.00     0.074 A 
ATOM     47  C   UNL A   1      39.612  28.834  29.108  1.00  0.00     0.049 A 
ATOM     48  N   UNL A   1      42.295  28.738  30.480  1.00  0.00    -0.248 NA
ATOM     49  C   UNL A   1      42.708  26.695  29.434  1.00  0.00     0.031 C 
ATOM     50  C   UNL A   1      38.256  28.895  28.551  1.00  0.00     0.029 A 
ATOM     51  N   UNL A   1      39.734  30.018  29.793  1.00  0.00    -0.354 N 
ATOM     52  C   UNL A   1      43.510  28.225  30.920  1.00  0.00     0.074 A 
ATOM     53  C   UNL A   1      43.662  26.920  30.321  1.00  0.00     0.031 C 
ATOM     54  C   UNL A   1      37.695  30.072  28.876  1.00  0.00     0.029 A 
ATOM     55  C   UNL A   1      38.629  30.833  29.697  1.00  0.00     0.049 A 
ATOM     56  H   UNL A   1      40.538  30.262  30.305  1.00  0.00     0.167 HD
ATOM     57  C   UNL A   1      44.437  28.802  31.719  1.00  0.00     0.031 A 
ATOM     58  C   UNL A   1      38.399  32.059  30.209  1.00  0.00     0.031 A 
ATOM     59  C   UNL A   1      44.313  30.130  32.253  1.00  0.00     0.049 A 
ATOM     60  C   UNL A   1      39.476  32.718  31.029  1.00  0.00     0.074 A 
ATOM     61  C   UNL A   1      45.228  30.847  33.001  1.00  0.00     0.029 A 
ATOM     62  N   UNL A   1      43.207  30.948  32.071  1.00  0.00    -0.354 N 
ATOM     63  N   UNL A   1      40.647  32.242  31.382  1.00  0.00    -0.248 NA
ATOM     64  C   UNL A   1      39.208  34.081  31.508  1.00  0.00     0.031 C 
ATOM     65  C   UNL A   1      44.664  32.094  33.294  1.00  0.00     0.029 A 
ATOM     66  C   UNL A   1      43.417  32.165  32.693  1.00  0.00     0.049 A 
ATOM     67  H   UNL A   1      42.395  30.699  31.573  1.00  0.00     0.167 HD
ATOM     68  C   UNL A   1      41.268  33.259  32.098  1.00  0.00     0.074 A 
ATOM     69  C   UNL A   1      40.347  34.378  32.120  1.00  0.00     0.031 C 
ATOM     70  C   UNL A   1      42.489  33.267  32.686  1.00  0.00     0.031 A 
BRANCH  57  71
ATOM     71  C   UNL A   1      45.669  27.998  32.037  1.00  0.00    -0.014 A 
ATOM     72  C   UNL A   1      45.742  27.214  33.204  1.00  0.00     0.010 A 
ATOM     73  C   UNL A   1      46.772  28.031  31.167  1.00  0.00     0.010 A 
ATOM     74  C   UNL A   1      46.915  26.530  33.527  1.00  0.00     0.020 A 
ATOM     75  C   UNL A   1      47.938  27.320  31.469  1.00  0.00     0.020 A 
ATOM     76  C   UNL A   1      48.010  26.593  32.660  1.00  0.00     0.054 A 
BRANCH  76  77
ATOM     77  S   UNL A   1      49.521  25.694  33.101  1.00  0.00     0.124 S 
ATOM     78  O   UNL A   1      50.103  26.566  34.119  1.00  0.00    -0.237 OA
ATOM     79  O   UNL A   1      49.005  24.418  33.590  1.00  0.00    -0.237 OA
ATOM     80  O   UNL A   1      50.260  25.623  31.844  1.00  0.00    -0.744 OA
ENDBRANCH  76  77
ENDBRANCH  57  71
BRANCH  58  81
ATOM     81  C   UNL A   1      37.120  32.765  29.918  1.00  0.00    -0.014 A 
ATOM     82  C   UNL A   1      36.002  32.579  30.753  1.00  0.00     0.010 A 
ATOM     83  C   UNL A   1      37.011  33.636  28.819  1.00  0.00     0.010 A 
ATOM     84  C   UNL A   1      34.797  33.236  30.486  1.00  0.00     0.020 A 
ATOM     85  C   UNL A   1      35.814  34.314  28.562  1.00  0.00     0.020 A 
ATOM     86  C   UNL A   1      34.711  34.100  29.392  1.00  0.00     0.054 A 
BRANCH  86  87
ATOM     87  S   UNL A   1      33.154  34.986  29.096  1.00  0.00     0.124 S 
ATOM     88  O   UNL A   1      33.626  36.270  28.587  1.00  0.00    -0.237 OA
ATOM     89  O   UNL A   1      32.481  34.128  28.123  1.00  0.00    -0.237 OA
ATOM     90  O   UNL A   1      32.528  35.025  30.416  1.00  0.00    -0.744 OA
ENDBRANCH  86  87
ENDBRANCH  58  81
BRANCH  70  91
ATOM     91  C   UNL A   1      42.923  34.535  33.367  1.00  0.00    -0.014 A 
ATOM     92  C   UNL A   1      42.737  34.717  34.747  1.00  0.00     0.010 A 
ATOM     93  C   UNL A   1      43.599  35.520  32.625  1.00  0.00     0.010 A 
ATOM     94  C   UNL A   1      43.203  35.876  35.372  1.00  0.00     0.020 A 
ATOM     95  C   UNL A   1      44.087  36.669  33.250  1.00  0.00     0.020 A 
ATOM     96  C   UNL A   1      43.875  36.844  34.619  1.00  0.00     0.054 A 
BRANCH  96  97
ATOM     97  S   UNL A   1      44.526  38.311  35.464  1.00  0.00     0.124 S 
ATOM     98  O   UNL A   1      43.940  38.178  36.795  1.00  0.00    -0.237 OA
ATOM     99  O   UNL A   1      45.971  38.112  35.389  1.00  0.00    -0.237 OA
ATOM    100  O   UNL A   1      44.015  39.424  34.667  1.00  0.00    -0.744 OA
ENDBRANCH  96  97
ENDBRANCH  70  91
ENDBRANCH  44  45
ENDBRANCH  36  39
ENDBRANCH  34  35
ENDBRANCH  33  34
ENDBRANCH  32  33
ENDBRANCH  31  32
ENDBRANCH   1  31
TORSDOF 22
ENDMDL
MODEL 2
REMARK VINA RESULT:     -10.8      3.149      6.152
REMARK SMILES O=C(Cc1ccccc1C(=O)NCCCCCCNC(=O)c1ccc(-c2c3nc(c(-c4ccc(S(=O)(=O)[O-])cc4)c4ccc([nH]4)c(-c4ccc(S(=O)(=O)[O-])cc4)c4nc(c(-c5ccc(S(=O)(=O)[O-])cc5)c5ccc2[nH]5)C=C4)C=C3)cc1)Nc1cccc(OC[C@@H]2CCCO2)c1
REMARK SMILES IDX 14 1 13 2 12 3 10 4 11 5 9 7 4 8 5 9 6 10 8 11 7 12 3 13
REMARK SMILES IDX 2 14 1 15 82 16 83 18 84 19 95 20 85 21 87 22 86 23 88 24
REMARK SMILES IDX 89 25 90 26 91 27 94 28 92 29 93 30 15 31 16 32 17 33 18 34
REMARK SMILES IDX 19 35 20 36 21 38 22 39 23 40 81 41 24 42 80 43 25 44 26 45
REMARK SMILES IDX 27 46 74 47 28 48 79 49 73 50 75 51 29 52 78 53 72 54 71 55
REMARK SMILES IDX 30 57 60 58 41 59 59 60 42 61 45 62 58 63 76 64 43 65 44 66
REMARK SMILES IDX 57 68 77 69 46 70 31 71 32 72 40 73 33 74 39 75 34 76 35 77
REMARK SMILES IDX 36 78 37 79 38 80 61 81 62 82 70 83 63 84 69 85 64 86 65 87
REMARK SMILES IDX 66 88 67 89 68 90 47 91 48 92 56 93 49 94 55 95 50 96 51 97
REMARK SMILES IDX 52 98 53 99 54 100
REMARK H PARENT 12 6 82 17 19 37 75 56 45 67
REMARK Flexibility Score: inf
ROOT
ATOM      1  C   UNL A   1      37.274  22.641  26.022  1.00  0.00     0.021 C 
ENDROOT
BRANCH   1   2
ATOM      2  C   UNL A   1      37.166  21.976  24.647  1.00  0.00     0.116 C 
BRANCH   2   3
ATOM      3  N   UNL A   1      36.469  22.782  23.653  1.00  0.00    -0.352 N 
ATOM      4  C   UNL A   1      35.137  22.998  23.426  1.00  0.00     0.251 C 
ATOM      5  O   UNL A   1      34.761  23.851  22.629  1.00  0.00    -0.269 OA
ATOM      6  H   UNL A   1      37.065  23.257  23.030  1.00  0.00     0.163 HD
BRANCH   4   7
ATOM      7  C   UNL A   1      34.129  22.263  24.202  1.00  0.00     0.043 A 
ATOM      8  C   UNL A   1      33.447  22.783  25.311  1.00  0.00    -0.026 A 
ATOM      9  C   UNL A   1      32.396  22.000  25.840  1.00  0.00     0.005 A 
ATOM     10  C   UNL A   1      32.135  20.706  25.380  1.00  0.00     0.000 A 
ATOM     11  C   UNL A   1      33.912  20.937  23.784  1.00  0.00     0.014 A 
ATOM     12  C   UNL A   1      32.928  20.155  24.383  1.00  0.00     0.001 A 
BRANCH   8  13
ATOM     13  C   UNL A   1      33.714  24.088  26.036  1.00  0.00     0.136 C 
BRANCH  13  14
ATOM     14  C   UNL A   1      32.967  25.358  25.665  1.00  0.00     0.228 C 
ATOM     15  O   UNL A   1      32.368  25.987  26.533  1.00  0.00    -0.274 OA
ATOM     16  N   UNL A   1      33.154  25.796  24.368  1.00  0.00    -0.326 N 
ATOM     17  H   UNL A   1      33.757  25.262  23.802  1.00  0.00     0.169 HD
BRANCH  16  18
ATOM     18  C   UNL A   1      32.561  26.940  23.773  1.00  0.00     0.044 A 
ATOM     19  C   UNL A   1      33.421  27.855  23.157  1.00  0.00     0.026 A 
ATOM     20  C   UNL A   1      31.179  27.191  23.758  1.00  0.00     0.072 A 
ATOM     21  C   UNL A   1      32.914  29.011  22.560  1.00  0.00     0.006 A 
ATOM     22  C   UNL A   1      30.661  28.347  23.159  1.00  0.00     0.121 A 
ATOM     23  C   UNL A   1      31.542  29.252  22.565  1.00  0.00     0.046 A 
BRANCH  22  24
ATOM     24  O   UNL A   1      29.346  28.730  23.079  1.00  0.00    -0.491 OA
BRANCH  24  25
ATOM     25  C   UNL A   1      28.990  30.050  23.482  1.00  0.00     0.261 C 
BRANCH  25  26
ATOM     26  C   UNL A   1      27.950  30.701  22.549  1.00  0.00     0.156 C 
ATOM     27  C   UNL A   1      28.399  30.645  21.097  1.00  0.00     0.038 C 
ATOM     28  O   UNL A   1      27.708  32.087  22.850  1.00  0.00    -0.375 OA
ATOM     29  C   UNL A   1      27.924  31.950  20.515  1.00  0.00     0.031 C 
ATOM     30  C   UNL A   1      28.029  32.875  21.704  1.00  0.00     0.161 C 
ENDBRANCH  25  26
ENDBRANCH  24  25
ENDBRANCH  22  24
ENDBRANCH  16  18
ENDBRANCH  13  14
ENDBRANCH   8  13
ENDBRANCH   4   7
ENDBRANCH   2   3
ENDBRANCH   1   2
BRANCH   1  31
ATOM     31  C   UNL A   1      38.676  23.147  26.384  1.00  0.00     0.002 C 
BRANCH  31  32
ATOM     32  C   UNL A   1      39.767  22.078  26.405  1.00  0.00     0.002 C 
BRANCH  32  33
ATOM     33  C   UNL A   1      40.814  22.281  27.493  1.00  0.00     0.021 C 
BRANCH  33  34
ATOM     34  C   UNL A   1      42.075  23.008  27.025  1.00  0.00     0.116 C 
BRANCH  34  35
ATOM     35  N   UNL A   1      41.842  23.975  25.958  1.00  0.00    -0.352 N 
ATOM     36  C   UNL A   1      41.586  25.337  26.058  1.00  0.00     0.251 C 
ATOM     37  H   UNL A   1      41.870  23.614  25.043  1.00  0.00     0.163 HD
ATOM     38  O   UNL A   1      41.322  26.012  25.087  1.00  0.00    -0.269 OA
BRANCH  36  39
ATOM     39  C   UNL A   1      41.612  25.920  27.415  1.00  0.00     0.039 A 
ATOM     40  C   UNL A   1      42.695  26.713  27.794  1.00  0.00     0.014 A 
ATOM     41  C   UNL A   1      40.462  25.843  28.198  1.00  0.00     0.014 A 
ATOM     42  C   UNL A   1      42.568  27.538  28.914  1.00  0.00     0.010 A 
ATOM     43  C   UNL A   1      40.296  26.755  29.229  1.00  0.00     0.010 A 
ATOM     44  C   UNL A   1      41.342  27.619  29.596  1.00  0.00    -0.014 A 
BRANCH  44  45
ATOM     45  C   UNL A   1      41.116  28.593  30.696  1.00  0.00     0.031 A 
ATOM     46  C   UNL A   1      41.968  28.513  31.936  1.00  0.00     0.074 A 
ATOM     47  C   UNL A   1      40.091  29.469  30.633  1.00  0.00     0.049 A 
ATOM     48  N   UNL A   1      41.851  29.165  33.062  1.00  0.00    -0.248 NA
ATOM     49  C   UNL A   1      43.061  27.527  31.926  1.00  0.00     0.031 C 
ATOM     50  C   UNL A   1      39.139  29.597  29.525  1.00  0.00     0.029 A 
ATOM     51  N   UNL A   1      39.671  30.419  31.532  1.00  0.00    -0.354 N 
ATOM     52  C   UNL A   1      42.818  28.628  33.906  1.00  0.00     0.074 A 
ATOM     53  C   UNL A   1      43.462  27.555  33.186  1.00  0.00     0.031 C 
ATOM     54  C   UNL A   1      38.281  30.597  29.789  1.00  0.00     0.029 A 
ATOM     55  C   UNL A   1      38.592  31.157  31.099  1.00  0.00     0.049 A 
ATOM     56  H   UNL A   1      40.103  30.561  32.405  1.00  0.00     0.167 HD
ATOM     57  C   UNL A   1      43.166  29.017  35.154  1.00  0.00     0.031 A 
ATOM     58  C   UNL A   1      37.933  32.173  31.690  1.00  0.00     0.031 A 
ATOM     59  C   UNL A   1      42.571  30.131  35.837  1.00  0.00     0.049 A 
ATOM     60  C   UNL A   1      38.389  32.643  33.046  1.00  0.00     0.074 A 
ATOM     61  C   UNL A   1      42.906  30.667  37.067  1.00  0.00     0.029 A 
ATOM     62  N   UNL A   1      41.529  30.895  35.332  1.00  0.00    -0.354 N 
ATOM     63  N   UNL A   1      39.348  32.164  33.802  1.00  0.00    -0.248 NA
ATOM     64  C   UNL A   1      37.686  33.798  33.621  1.00  0.00     0.031 C 
ATOM     65  C   UNL A   1      42.048  31.744  37.317  1.00  0.00     0.029 A 
ATOM     66  C   UNL A   1      41.208  31.900  36.225  1.00  0.00     0.049 A 
ATOM     67  H   UNL A   1      41.085  30.744  34.466  1.00  0.00     0.167 HD
ATOM     68  C   UNL A   1      39.383  32.977  34.930  1.00  0.00     0.074 A 
ATOM     69  C   UNL A   1      38.356  33.984  34.751  1.00  0.00     0.031 C 
ATOM     70  C   UNL A   1      40.190  32.898  36.015  1.00  0.00     0.031 A 
BRANCH  57  71
ATOM     71  C   UNL A   1      44.256  28.236  35.839  1.00  0.00    -0.014 A 
ATOM     72  C   UNL A   1      45.601  28.646  35.759  1.00  0.00     0.010 A 
ATOM     73  C   UNL A   1      43.938  27.076  36.566  1.00  0.00     0.010 A 
ATOM     74  C   UNL A   1      46.613  27.876  36.337  1.00  0.00     0.020 A 
ATOM     75  C   UNL A   1      44.945  26.320  37.175  1.00  0.00     0.020 A 
ATOM     76  C   UNL A   1      46.278  26.713  37.035  1.00  0.00     0.054 A 
BRANCH  76  77
ATOM     77  S   UNL A   1      47.610  25.732  37.778  1.00  0.00     0.124 S 
ATOM     78  O   UNL A   1      48.755  26.629  37.642  1.00  0.00    -0.237 OA
ATOM     79  O   UNL A   1      47.134  25.527  39.144  1.00  0.00    -0.237 OA
ATOM     80  O   UNL A   1      47.656  24.530  36.951  1.00  0.00    -0.744 OA
ENDBRANCH  76  77
ENDBRANCH  57  71
BRANCH  58  81
ATOM     81  C   UNL A   1      36.809  32.849  30.985  1.00  0.00    -0.014 A 
ATOM     82  C   UNL A   1      35.476  32.535  31.312  1.00  0.00     0.010 A 
ATOM     83  C   UNL A   1      37.056  33.818  29.996  1.00  0.00     0.010 A 
ATOM     84  C   UNL A   1      34.415  33.162  30.653  1.00  0.00     0.020 A 
ATOM     85  C   UNL A   1      35.997  34.466  29.351  1.00  0.00     0.020 A 
ATOM     86  C   UNL A   1      34.682  34.125  29.676  1.00  0.00     0.054 A 
BRANCH  86  87
ATOM     87  S   UNL A   1      33.289  34.968  28.872  1.00  0.00     0.124 S 
ATOM     88  O   UNL A   1      32.756  33.919  28.009  1.00  0.00    -0.237 OA
ATOM     89  O   UNL A   1      32.448  35.343  30.007  1.00  0.00    -0.237 OA
ATOM     90  O   UNL A   1      33.924  36.089  28.182  1.00  0.00    -0.744 OA
ENDBRANCH  86  87
ENDBRANCH  58  81
BRANCH  70  91
ATOM     91  C   UNL A   1      40.030  33.950  37.077  1.00  0.00    -0.014 A 
ATOM     92  C   UNL A   1      40.645  35.208  36.949  1.00  0.00     0.010 A 
ATOM     93  C   UNL A   1      39.188  33.701  38.175  1.00  0.00     0.010 A 
ATOM     94  C   UNL A   1      40.434  36.193  37.916  1.00  0.00     0.020 A 
ATOM     95  C   UNL A   1      38.956  34.692  39.130  1.00  0.00     0.020 A 
ATOM     96  C   UNL A   1      39.590  35.929  39.000  1.00  0.00     0.054 A 
BRANCH  96  97
ATOM     97  S   UNL A   1      39.282  37.246  40.208  1.00  0.00     0.124 S 
ATOM     98  O   UNL A   1      38.490  36.550  41.219  1.00  0.00    -0.237 OA
ATOM     99  O   UNL A   1      40.631  37.627  40.619  1.00  0.00    -0.237 OA
ATOM    100  O   UNL A   1      38.562  38.259  39.440  1.00  0.00    -0.744 OA
ENDBRANCH  96  97
ENDBRANCH  70  91
ENDBRANCH  44  45
ENDBRANCH  36  39
ENDBRANCH  34  35
ENDBRANCH  33  34
ENDBRANCH  32  33
ENDBRANCH  31  32
ENDBRANCH   1  31
TORSDOF 22
ENDMDL
MODEL 3
REMARK VINA RESULT:     -10.8      2.451      2.939
REMARK SMILES O=C(Cc1ccccc1C(=O)NCCCCCCNC(=O)c1ccc(-c2c3nc(c(-c4ccc(S(=O)(=O)[O-])cc4)c4ccc([nH]4)c(-c4ccc(S(=O)(=O)[O-])cc4)c4nc(c(-c5ccc(S(=O)(=O)[O-])cc5)c5ccc2[nH]5)C=C4)C=C3)cc1)Nc1cccc(OC[C@@H]2CCCO2)c1
REMARK SMILES IDX 14 1 13 2 12 3 10 4 11 5 9 7 4 8 5 9 6 10 8 11 7 12 3 13
REMARK SMILES IDX 2 14 1 15 82 16 83 18 84 19 95 20 85 21 87 22 86 23 88 24
REMARK SMILES IDX 89 25 90 26 91 27 94 28 92 29 93 30 15 31 16 32 17 33 18 34
REMARK SMILES IDX 19 35 20 36 21 38 22 39 23 40 81 41 24 42 80 43 25 44 26 45
REMARK SMILES IDX 27 46 74 47 28 48 79 49 73 50 75 51 29 52 78 53 72 54 71 55
REMARK SMILES IDX 30 57 60 58 41 59 59 60 42 61 45 62 58 63 76 64 43 65 44 66
REMARK SMILES IDX 57 68 77 69 46 70 31 71 32 72 40 73 33 74 39 75 34 76 35 77
REMARK SMILES IDX 36 78 37 79 38 80 61 81 62 82 70 83 63 84 69 85 64 86 65 87
REMARK SMILES IDX 66 88 67 89 68 90 47 91 48 92 56 93 49 94 55 95 50 96 51 97
REMARK SMILES IDX 52 98 53 99 54 100
REMARK H PARENT 12 6 82 17 19 37 75 56 45 67
REMARK Flexibility Score: inf
ROOT
ATOM      1  C   UNL A   1      34.157  24.856  23.862  1.00  0.00     0.021 C 
ENDROOT
BRANCH   1   2
ATOM      2  C   UNL A   1      33.913  26.071  22.962  1.00  0.00     0.116 C 
BRANCH   2   3
ATOM      3  N   UNL A   1      32.518  26.257  22.584  1.00  0.00    -0.352 N 
ATOM      4  C   UNL A   1      31.495  26.941  23.181  1.00  0.00     0.251 C 
ATOM      5  O   UNL A   1      30.423  27.108  22.606  1.00  0.00    -0.269 OA
ATOM      6  H   UNL A   1      32.265  25.806  21.746  1.00  0.00     0.163 HD
BRANCH   4   7
ATOM      7  C   UNL A   1      31.694  27.564  24.497  1.00  0.00     0.043 A 
ATOM      8  C   UNL A   1      31.163  27.072  25.697  1.00  0.00    -0.026 A 
ATOM      9  C   UNL A   1      31.587  27.702  26.889  1.00  0.00     0.005 A 
ATOM     10  C   UNL A   1      32.383  28.851  26.875  1.00  0.00     0.000 A 
ATOM     11  C   UNL A   1      32.438  28.759  24.478  1.00  0.00     0.014 A 
ATOM     12  C   UNL A   1      32.768  29.410  25.664  1.00  0.00     0.001 A 
BRANCH   8  13
ATOM     13  C   UNL A   1      30.162  25.948  25.876  1.00  0.00     0.136 C 
BRANCH  13  14
ATOM     14  C   UNL A   1      30.607  24.564  26.318  1.00  0.00     0.228 C 
ATOM     15  O   UNL A   1      30.009  23.992  27.225  1.00  0.00    -0.274 OA
ATOM     16  N   UNL A   1      31.587  23.981  25.537  1.00  0.00    -0.326 N 
ATOM     17  H   UNL A   1      31.903  24.499  24.761  1.00  0.00     0.169 HD
BRANCH  16  18
ATOM     18  C   UNL A   1      32.180  22.709  25.744  1.00  0.00     0.044 A 
ATOM     19  C   UNL A   1      33.210  22.632  26.687  1.00  0.00     0.026 A 
ATOM     20  C   UNL A   1      31.785  21.538  25.075  1.00  0.00     0.072 A 
ATOM     21  C   UNL A   1      33.850  21.418  26.939  1.00  0.00     0.006 A 
ATOM     22  C   UNL A   1      32.420  20.314  25.323  1.00  0.00     0.121 A 
ATOM     23  C   UNL A   1      33.456  20.268  26.257  1.00  0.00     0.046 A 
BRANCH  22  24
ATOM     24  O   UNL A   1      32.154  19.101  24.741  1.00  0.00    -0.491 OA
BRANCH  24  25
ATOM     25  C   UNL A   1      33.087  18.570  23.804  1.00  0.00     0.261 C 
BRANCH  25  26
ATOM     26  C   UNL A   1      33.200  17.034  23.876  1.00  0.00     0.156 C 
ATOM     27  C   UNL A   1      32.533  16.489  25.129  1.00  0.00     0.038 C 
ATOM     28  O   UNL A   1      34.562  16.567  23.901  1.00  0.00    -0.375 OA
ATOM     29  C   UNL A   1      33.418  15.346  25.550  1.00  0.00     0.031 C 
ATOM     30  C   UNL A   1      34.778  15.826  25.102  1.00  0.00     0.161 C 
ENDBRANCH  25  26
ENDBRANCH  24  25
ENDBRANCH  22  24
ENDBRANCH  16  18
ENDBRANCH  13  14
ENDBRANCH   8  13
ENDBRANCH   4   7
ENDBRANCH   2   3
ENDBRANCH   1   2
BRANCH   1  31
ATOM     31  C   UNL A   1      34.760  23.638  23.151  1.00  0.00     0.002 C 
BRANCH  31  32
ATOM     32  C   UNL A   1      36.228  23.362  23.471  1.00  0.00     0.002 C 
BRANCH  32  33
ATOM     33  C   UNL A   1      36.442  22.252  24.492  1.00  0.00     0.021 C 
BRANCH  33  34
ATOM     34  C   UNL A   1      37.425  22.604  25.609  1.00  0.00     0.116 C 
BRANCH  34  35
ATOM     35  N   UNL A   1      38.625  21.775  25.625  1.00  0.00    -0.352 N 
ATOM     36  C   UNL A   1      39.879  22.069  26.147  1.00  0.00     0.251 C 
ATOM     37  H   UNL A   1      38.535  20.887  25.211  1.00  0.00     0.163 HD
ATOM     38  O   UNL A   1      40.820  21.317  26.014  1.00  0.00    -0.269 OA
BRANCH  36  39
ATOM     39  C   UNL A   1      40.022  23.365  26.840  1.00  0.00     0.039 A 
ATOM     40  C   UNL A   1      40.744  23.422  28.032  1.00  0.00     0.014 A 
ATOM     41  C   UNL A   1      39.623  24.525  26.179  1.00  0.00     0.014 A 
ATOM     42  C   UNL A   1      41.178  24.664  28.500  1.00  0.00     0.010 A 
ATOM     43  C   UNL A   1      40.165  25.738  26.578  1.00  0.00     0.010 A 
ATOM     44  C   UNL A   1      40.954  25.823  27.738  1.00  0.00    -0.014 A 
BRANCH  44  45
ATOM     45  C   UNL A   1      41.528  27.141  28.119  1.00  0.00     0.031 A 
ATOM     46  C   UNL A   1      43.019  27.341  28.045  1.00  0.00     0.074 A 
ATOM     47  C   UNL A   1      40.737  28.109  28.627  1.00  0.00     0.049 A 
ATOM     48  N   UNL A   1      43.738  28.351  28.459  1.00  0.00    -0.248 NA
ATOM     49  C   UNL A   1      43.810  26.233  27.485  1.00  0.00     0.031 C 
ATOM     50  C   UNL A   1      39.288  28.016  28.829  1.00  0.00     0.029 A 
ATOM     51  N   UNL A   1      41.046  29.370  29.077  1.00  0.00    -0.354 N 
ATOM     52  C   UNL A   1      45.062  27.974  28.257  1.00  0.00     0.074 A 
ATOM     53  C   UNL A   1      45.046  26.622  27.751  1.00  0.00     0.031 C 
ATOM     54  C   UNL A   1      38.831  29.182  29.315  1.00  0.00     0.029 A 
ATOM     55  C   UNL A   1      39.954  30.093  29.500  1.00  0.00     0.049 A 
ATOM     56  H   UNL A   1      41.964  29.724  29.096  1.00  0.00     0.167 HD
ATOM     57  C   UNL A   1      46.189  28.700  28.439  1.00  0.00     0.031 A 
ATOM     58  C   UNL A   1      39.868  31.352  29.975  1.00  0.00     0.031 A 
ATOM     59  C   UNL A   1      46.194  30.068  28.874  1.00  0.00     0.049 A 
ATOM     60  C   UNL A   1      41.126  32.170  30.094  1.00  0.00     0.074 A 
ATOM     61  C   UNL A   1      47.270  30.926  29.008  1.00  0.00     0.029 A 
ATOM     62  N   UNL A   1      45.058  30.785  29.222  1.00  0.00    -0.354 N 
ATOM     63  N   UNL A   1      42.363  31.818  29.838  1.00  0.00    -0.248 NA
ATOM     64  C   UNL A   1      40.976  33.559  30.551  1.00  0.00     0.031 C 
ATOM     65  C   UNL A   1      46.786  32.158  29.463  1.00  0.00     0.029 A 
ATOM     66  C   UNL A   1      45.406  32.076  29.571  1.00  0.00     0.049 A 
ATOM     67  H   UNL A   1      44.141  30.427  29.221  1.00  0.00     0.167 HD
ATOM     68  C   UNL A   1      43.136  32.949  30.073  1.00  0.00     0.074 A 
ATOM     69  C   UNL A   1      42.225  33.999  30.484  1.00  0.00     0.031 C 
ATOM     70  C   UNL A   1      44.477  33.106  29.962  1.00  0.00     0.031 A 
BRANCH  57  71
ATOM     71  C   UNL A   1      47.500  28.022  28.143  1.00  0.00    -0.014 A 
ATOM     72  C   UNL A   1      48.230  27.380  29.161  1.00  0.00     0.010 A 
ATOM     73  C   UNL A   1      48.015  28.031  26.836  1.00  0.00     0.010 A 
ATOM     74  C   UNL A   1      49.479  26.817  28.892  1.00  0.00     0.020 A 
ATOM     75  C   UNL A   1      49.251  27.439  26.554  1.00  0.00     0.020 A 
ATOM     76  C   UNL A   1      49.985  26.857  27.590  1.00  0.00     0.054 A 
BRANCH  76  77
ATOM     77  S   UNL A   1      51.609  26.117  27.265  1.00  0.00     0.124 S 
ATOM     78  O   UNL A   1      52.260  26.242  28.566  1.00  0.00    -0.237 OA
ATOM     79  O   UNL A   1      51.267  24.755  26.863  1.00  0.00    -0.237 OA
ATOM     80  O   UNL A   1      52.164  26.955  26.206  1.00  0.00    -0.744 OA
ENDBRANCH  76  77
ENDBRANCH  57  71
BRANCH  58  81
ATOM     81  C   UNL A   1      38.542  31.932  30.325  1.00  0.00    -0.014 A 
ATOM     82  C   UNL A   1      37.868  31.513  31.487  1.00  0.00     0.010 A 
ATOM     83  C   UNL A   1      37.948  32.916  29.513  1.00  0.00     0.010 A 
ATOM     84  C   UNL A   1      36.622  32.051  31.822  1.00  0.00     0.020 A 
ATOM     85  C   UNL A   1      36.712  33.475  29.856  1.00  0.00     0.020 A 
ATOM     86  C   UNL A   1      36.052  33.029  31.004  1.00  0.00     0.054 A 
BRANCH  86  87
ATOM     87  S   UNL A   1      34.459  33.756  31.486  1.00  0.00     0.124 S 
ATOM     88  O   UNL A   1      33.933  32.752  32.406  1.00  0.00    -0.237 OA
ATOM     89  O   UNL A   1      34.859  35.023  32.093  1.00  0.00    -0.237 OA
ATOM     90  O   UNL A   1      33.744  33.881  30.217  1.00  0.00    -0.744 OA
ENDBRANCH  86  87
ENDBRANCH  58  81
BRANCH  70  91
ATOM     91  C   UNL A   1      45.042  34.470  30.245  1.00  0.00    -0.014 A 
ATOM     92  C   UNL A   1      45.496  34.814  31.529  1.00  0.00     0.010 A 
ATOM     93  C   UNL A   1      45.193  35.388  29.190  1.00  0.00     0.010 A 
ATOM     94  C   UNL A   1      46.075  36.065  31.758  1.00  0.00     0.020 A 
ATOM     95  C   UNL A   1      45.792  36.629  29.410  1.00  0.00     0.020 A 
ATOM     96  C   UNL A   1      46.219  36.964  30.696  1.00  0.00     0.054 A 
BRANCH  96  97
ATOM     97  S   UNL A   1      47.030  38.557  31.004  1.00  0.00     0.124 S 
ATOM     98  O   UNL A   1      46.776  38.755  32.429  1.00  0.00    -0.237 OA
ATOM     99  O   UNL A   1      48.419  38.286  30.644  1.00  0.00    -0.237 OA
ATOM    100  O   UNL A   1      46.331  39.479  30.112  1.00  0.00    -0.744 OA
ENDBRANCH  96  97
ENDBRANCH  70  91
ENDBRANCH  44  45
ENDBRANCH  36  39
ENDBRANCH  34  35
ENDBRANCH  33  34
ENDBRANCH  32  33
ENDBRANCH  31  32
ENDBRANCH   1  31
TORSDOF 22
ENDMDL
