MODEL 1
REMARK VINA RESULT:     -11.4      0.000      0.000
REMARK SMILES COc1cc(/C=C2/SC(=O)N(c3ccc(C)c(C)c3)C2=O)ccc1OCCC(=O)NCCCCCCNC(=O)c1ccc(-c2c3nc(c(-c4ccc(S(=O)(=O)[O-])cc4)c4ccc([nH]4)c(-c4ccc(S(=O)(=O)[O-])cc4)c4nc(c(-c5ccc(S(=O)(=O)[O-])cc5)c5ccc2[nH]5)C=C4)C=C3)cc1
REMARK SMILES IDX 32 1 31 2 30 3 28 4 29 5 27 7 26 8 25 9 24 10 3 11 4 12 5 13
REMARK SMILES IDX 23 14 22 15 2 16 1 17 6 18 7 19 8 20 20 21 9 22 11 23 21 24
REMARK SMILES IDX 10 25 12 26 13 27 19 28 14 29 17 30 15 31 18 32 16 33 33 34
REMARK SMILES IDX 34 35 35 36 36 37 37 38 38 39 39 41 40 42 41 43 99 44 42 45
REMARK SMILES IDX 98 46 43 47 44 48 45 49 92 50 46 51 97 52 91 53 93 54 47 55
REMARK SMILES IDX 96 56 90 57 89 58 48 60 78 61 59 62 77 63 60 64 63 65 76 66
REMARK SMILES IDX 94 67 61 68 62 69 75 71 95 72 64 73 49 74 50 75 58 76 51 77
REMARK SMILES IDX 57 78 52 79 53 80 54 81 55 82 56 83 79 84 80 85 88 86 81 87
REMARK SMILES IDX 87 88 82 89 83 90 84 91 85 92 86 93 65 94 66 95 74 96 67 97
REMARK SMILES IDX 73 98 68 99 69 100 70 101 71 102 72 103
REMARK H PARENT 30 6 37 40 93 59 63 70
REMARK Flexibility Score: inf
ROOT
ATOM      1  C   UNL A   1      32.682  28.352  25.541  1.00  0.00     0.021 C 
ENDROOT
BRANCH   1   2
ATOM      2  C   UNL A   1      32.521  28.666  24.060  1.00  0.00     0.116 C 
BRANCH   2   3
ATOM      3  N   UNL A   1      31.336  29.456  23.771  1.00  0.00    -0.356 N 
ATOM      4  C   UNL A   1      30.087  29.046  23.409  1.00  0.00     0.223 C 
ATOM      5  O   UNL A   1      29.170  29.868  23.424  1.00  0.00    -0.275 OA
ATOM      6  H   UNL A   1      31.451  30.430  23.849  1.00  0.00     0.163 HD
BRANCH   4   7
ATOM      7  C   UNL A   1      29.832  27.587  23.112  1.00  0.00     0.141 C 
BRANCH   7   8
ATOM      8  C   UNL A   1      29.242  26.704  24.208  1.00  0.00     0.239 C 
BRANCH   8   9
ATOM      9  O   UNL A   1      29.783  25.420  24.461  1.00  0.00    -0.489 OA
BRANCH   9  10
ATOM     10  C   UNL A   1      31.097  25.071  24.425  1.00  0.00     0.161 A 
ATOM     11  C   UNL A   1      32.027  25.065  23.385  1.00  0.00     0.161 A 
ATOM     12  C   UNL A   1      33.410  25.039  23.682  1.00  0.00     0.058 A 
ATOM     13  C   UNL A   1      33.867  24.903  24.991  1.00  0.00    -0.020 A 
ATOM     14  C   UNL A   1      31.561  24.777  25.717  1.00  0.00     0.051 A 
ATOM     15  C   UNL A   1      32.924  24.695  26.002  1.00  0.00     0.012 A 
BRANCH  11  16
ATOM     16  O   UNL A   1      31.771  25.201  22.054  1.00  0.00    -0.493 OA
ATOM     17  C   UNL A   1      32.749  25.900  21.295  1.00  0.00     0.278 C 
ENDBRANCH  11  16
BRANCH  13  18
ATOM     18  C   UNL A   1      35.285  25.088  25.354  1.00  0.00     0.029 C 
ATOM     19  C   UNL A   1      36.209  24.151  25.107  1.00  0.00     0.083 C 
ATOM     20  S   UNL A   1      37.662  23.903  25.978  1.00  0.00    -0.022 SA
ATOM     21  C   UNL A   1      35.934  22.946  24.301  1.00  0.00     0.272 C 
ATOM     22  C   UNL A   1      37.479  22.138  25.798  1.00  0.00     0.298 C 
ATOM     23  N   UNL A   1      36.384  21.853  25.011  1.00  0.00    -0.236 N 
ATOM     24  O   UNL A   1      35.438  23.016  23.188  1.00  0.00    -0.268 OA
ATOM     25  O   UNL A   1      38.300  21.375  26.295  1.00  0.00    -0.260 OA
BRANCH  23  26
ATOM     26  C   UNL A   1      35.768  20.566  24.889  1.00  0.00     0.053 A 
ATOM     27  C   UNL A   1      36.540  19.400  24.785  1.00  0.00     0.027 A 
ATOM     28  C   UNL A   1      34.381  20.424  24.731  1.00  0.00     0.030 A 
ATOM     29  C   UNL A   1      35.957  18.146  24.593  1.00  0.00     0.006 A 
ATOM     30  C   UNL A   1      33.779  19.168  24.494  1.00  0.00    -0.046 A 
ATOM     31  C   UNL A   1      34.574  18.012  24.466  1.00  0.00    -0.048 A 
ATOM     32  C   UNL A   1      32.291  19.105  24.272  1.00  0.00     0.044 C 
ATOM     33  C   UNL A   1      34.027  16.622  24.299  1.00  0.00     0.044 C 
ENDBRANCH  23  26
ENDBRANCH  13  18
ENDBRANCH   9  10
ENDBRANCH   8   9
ENDBRANCH   7   8
ENDBRANCH   4   7
ENDBRANCH   2   3
ENDBRANCH   1   2
BRANCH   1  34
ATOM     34  C   UNL A   1      33.480  29.416  26.298  1.00  0.00     0.002 C 
BRANCH  34  35
ATOM     35  C   UNL A   1      34.308  28.920  27.479  1.00  0.00     0.002 C 
BRANCH  35  36
ATOM     36  C   UNL A   1      35.760  29.407  27.460  1.00  0.00     0.021 C 
BRANCH  36  37
ATOM     37  C   UNL A   1      36.010  30.728  28.190  1.00  0.00     0.116 C 
BRANCH  37  38
ATOM     38  N   UNL A   1      35.702  30.647  29.612  1.00  0.00    -0.352 N 
ATOM     39  C   UNL A   1      36.521  30.241  30.640  1.00  0.00     0.251 C 
ATOM     40  H   UNL A   1      34.791  30.919  29.869  1.00  0.00     0.163 HD
ATOM     41  O   UNL A   1      36.063  30.057  31.762  1.00  0.00    -0.269 OA
BRANCH  39  42
ATOM     42  C   UNL A   1      37.953  29.997  30.365  1.00  0.00     0.039 A 
ATOM     43  C   UNL A   1      38.616  28.986  31.063  1.00  0.00     0.014 A 
ATOM     44  C   UNL A   1      38.619  30.728  29.377  1.00  0.00     0.014 A 
ATOM     45  C   UNL A   1      39.928  28.656  30.716  1.00  0.00     0.010 A 
ATOM     46  C   UNL A   1      39.903  30.350  28.986  1.00  0.00     0.010 A 
ATOM     47  C   UNL A   1      40.570  29.306  29.646  1.00  0.00    -0.014 A 
BRANCH  47  48
ATOM     48  C   UNL A   1      41.926  28.887  29.195  1.00  0.00     0.031 A 
ATOM     49  C   UNL A   1      43.059  29.877  29.174  1.00  0.00     0.074 A 
ATOM     50  C   UNL A   1      42.124  27.627  28.752  1.00  0.00     0.049 A 
ATOM     51  N   UNL A   1      44.295  29.705  28.778  1.00  0.00    -0.248 NA
ATOM     52  C   UNL A   1      42.766  31.242  29.642  1.00  0.00     0.031 C 
ATOM     53  C   UNL A   1      41.101  26.580  28.682  1.00  0.00     0.029 A 
ATOM     54  N   UNL A   1      43.255  27.011  28.271  1.00  0.00    -0.354 N 
ATOM     55  C   UNL A   1      44.920  30.937  28.935  1.00  0.00     0.074 A 
ATOM     56  C   UNL A   1      43.917  31.860  29.419  1.00  0.00     0.031 C 
ATOM     57  C   UNL A   1      41.656  25.449  28.216  1.00  0.00     0.029 A 
ATOM     58  C   UNL A   1      43.061  25.697  27.908  1.00  0.00     0.049 A 
ATOM     59  H   UNL A   1      44.124  27.468  28.194  1.00  0.00     0.167 HD
ATOM     60  C   UNL A   1      46.214  31.266  28.711  1.00  0.00     0.031 A 
ATOM     61  C   UNL A   1      43.911  24.796  27.376  1.00  0.00     0.031 A 
ATOM     62  C   UNL A   1      47.214  30.343  28.243  1.00  0.00     0.049 A 
ATOM     63  C   UNL A   1      45.340  25.198  27.119  1.00  0.00     0.074 A 
ATOM     64  C   UNL A   1      48.566  30.571  28.048  1.00  0.00     0.029 A 
ATOM     65  N   UNL A   1      46.978  29.024  27.892  1.00  0.00    -0.354 N 
ATOM     66  N   UNL A   1      45.928  26.348  27.350  1.00  0.00    -0.248 NA
ATOM     67  C   UNL A   1      46.225  24.177  26.540  1.00  0.00     0.031 C 
ATOM     68  C   UNL A   1      49.133  29.411  27.513  1.00  0.00     0.029 A 
ATOM     69  C   UNL A   1      48.151  28.436  27.449  1.00  0.00     0.049 A 
ATOM     70  H   UNL A   1      46.105  28.571  27.948  1.00  0.00     0.167 HD
ATOM     71  C   UNL A   1      47.258  26.175  26.979  1.00  0.00     0.074 A 
ATOM     72  C   UNL A   1      47.392  24.807  26.526  1.00  0.00     0.031 C 
ATOM     73  C   UNL A   1      48.277  27.069  27.010  1.00  0.00     0.031 A 
BRANCH  60  74
ATOM     74  C   UNL A   1      46.638  32.690  28.965  1.00  0.00    -0.014 A 
ATOM     75  C   UNL A   1      46.898  33.573  27.902  1.00  0.00     0.010 A 
ATOM     76  C   UNL A   1      46.687  33.175  30.285  1.00  0.00     0.010 A 
ATOM     77  C   UNL A   1      47.217  34.910  28.155  1.00  0.00     0.020 A 
ATOM     78  C   UNL A   1      46.976  34.518  30.541  1.00  0.00     0.020 A 
ATOM     79  C   UNL A   1      47.247  35.376  29.473  1.00  0.00     0.054 A 
BRANCH  79  80
ATOM     80  S   UNL A   1      47.601  37.130  29.765  1.00  0.00     0.124 S 
ATOM     81  O   UNL A   1      46.266  37.721  29.709  1.00  0.00    -0.237 OA
ATOM     82  O   UNL A   1      48.224  37.113  31.086  1.00  0.00    -0.237 OA
ATOM     83  O   UNL A   1      48.489  37.494  28.664  1.00  0.00    -0.744 OA
ENDBRANCH  79  80
ENDBRANCH  60  74
BRANCH  61  84
ATOM     84  C   UNL A   1      43.441  23.422  27.035  1.00  0.00    -0.014 A 
ATOM     85  C   UNL A   1      42.809  22.615  27.999  1.00  0.00     0.010 A 
ATOM     86  C   UNL A   1      43.660  22.897  25.748  1.00  0.00     0.010 A 
ATOM     87  C   UNL A   1      42.444  21.299  27.696  1.00  0.00     0.020 A 
ATOM     88  C   UNL A   1      43.264  21.595  25.430  1.00  0.00     0.020 A 
ATOM     89  C   UNL A   1      42.676  20.798  26.412  1.00  0.00     0.054 A 
BRANCH  89  90
ATOM     90  S   UNL A   1      42.186  19.092  26.036  1.00  0.00     0.124 S 
ATOM     91  O   UNL A   1      42.903  18.837  24.791  1.00  0.00    -0.237 OA
ATOM     92  O   UNL A   1      42.668  18.361  27.206  1.00  0.00    -0.237 OA
ATOM     93  O   UNL A   1      40.731  19.172  25.917  1.00  0.00    -0.744 OA
ENDBRANCH  89  90
ENDBRANCH  61  84
BRANCH  73  94
ATOM     94  C   UNL A   1      49.642  26.589  26.591  1.00  0.00    -0.014 A 
ATOM     95  C   UNL A   1      50.104  26.746  25.272  1.00  0.00     0.010 A 
ATOM     96  C   UNL A   1      50.499  26.022  27.553  1.00  0.00     0.010 A 
ATOM     97  C   UNL A   1      51.384  26.312  24.916  1.00  0.00     0.020 A 
ATOM     98  C   UNL A   1      51.791  25.619  27.209  1.00  0.00     0.020 A 
ATOM     99  C   UNL A   1      52.221  25.754  25.888  1.00  0.00     0.054 A 
BRANCH  99 100
ATOM    100  S   UNL A   1      53.893  25.239  25.409  1.00  0.00     0.124 S 
ATOM    101  O   UNL A   1      54.332  26.360  24.583  1.00  0.00    -0.237 OA
ATOM    102  O   UNL A   1      54.566  25.106  26.700  1.00  0.00    -0.237 OA
ATOM    103  O   UNL A   1      53.679  23.984  24.693  1.00  0.00    -0.744 OA
ENDBRANCH  99 100
ENDBRANCH  73  94
ENDBRANCH  47  48
ENDBRANCH  39  42
ENDBRANCH  37  38
ENDBRANCH  36  37
ENDBRANCH  35  36
ENDBRANCH  34  35
ENDBRANCH   1  34
TORSDOF 22
ENDMDL
MODEL 2
REMARK VINA RESULT:     -11.0      1.421      7.793
REMARK SMILES COc1cc(/C=C2/SC(=O)N(c3ccc(C)c(C)c3)C2=O)ccc1OCCC(=O)NCCCCCCNC(=O)c1ccc(-c2c3nc(c(-c4ccc(S(=O)(=O)[O-])cc4)c4ccc([nH]4)c(-c4ccc(S(=O)(=O)[O-])cc4)c4nc(c(-c5ccc(S(=O)(=O)[O-])cc5)c5ccc2[nH]5)C=C4)C=C3)cc1
REMARK SMILES IDX 32 1 31 2 30 3 28 4 29 5 27 7 26 8 25 9 24 10 3 11 4 12 5 13
REMARK SMILES IDX 23 14 22 15 2 16 1 17 6 18 7 19 8 20 20 21 9 22 11 23 21 24
REMARK SMILES IDX 10 25 12 26 13 27 19 28 14 29 17 30 15 31 18 32 16 33 33 34
REMARK SMILES IDX 34 35 35 36 36 37 37 38 38 39 39 41 40 42 41 43 99 44 42 45
REMARK SMILES IDX 98 46 43 47 44 48 45 49 92 50 46 51 97 52 91 53 93 54 47 55
REMARK SMILES IDX 96 56 90 57 89 58 48 60 78 61 59 62 77 63 60 64 63 65 76 66
REMARK SMILES IDX 94 67 61 68 62 69 75 71 95 72 64 73 49 74 50 75 58 76 51 77
REMARK SMILES IDX 57 78 52 79 53 80 54 81 55 82 56 83 79 84 80 85 88 86 81 87
REMARK SMILES IDX 87 88 82 89 83 90 84 91 85 92 86 93 65 94 66 95 74 96 67 97
REMARK SMILES IDX 73 98 68 99 69 100 70 101 71 102 72 103
REMARK H PARENT 30 6 37 40 93 59 63 70
REMARK Flexibility Score: inf
ROOT
ATOM      1  C   UNL A   1      31.781  28.535  25.996  1.00  0.00     0.021 C 
ENDROOT
BRANCH   1   2
ATOM      2  C   UNL A   1      31.854  29.010  24.552  1.00  0.00     0.116 C 
BRANCH   2   3
ATOM      3  N   UNL A   1      30.895  30.060  24.250  1.00  0.00    -0.356 N 
ATOM      4  C   UNL A   1      29.720  29.991  23.560  1.00  0.00     0.223 C 
ATOM      5  O   UNL A   1      28.953  30.953  23.607  1.00  0.00    -0.275 OA
ATOM      6  H   UNL A   1      31.127  30.952  24.594  1.00  0.00     0.163 HD
BRANCH   4   7
ATOM      7  C   UNL A   1      29.337  28.709  22.857  1.00  0.00     0.141 C 
BRANCH   7   8
ATOM      8  C   UNL A   1      28.759  27.563  23.680  1.00  0.00     0.239 C 
BRANCH   8   9
ATOM      9  O   UNL A   1      29.208  26.235  23.472  1.00  0.00    -0.489 OA
BRANCH   9  10
ATOM     10  C   UNL A   1      30.496  25.801  23.494  1.00  0.00     0.161 A 
ATOM     11  C   UNL A   1      31.522  25.892  22.551  1.00  0.00     0.161 A 
ATOM     12  C   UNL A   1      32.864  25.718  22.959  1.00  0.00     0.058 A 
ATOM     13  C   UNL A   1      33.183  25.343  24.262  1.00  0.00    -0.020 A 
ATOM     14  C   UNL A   1      30.813  25.272  24.754  1.00  0.00     0.051 A 
ATOM     15  C   UNL A   1      32.135  25.046  25.139  1.00  0.00     0.012 A 
BRANCH  11  16
ATOM     16  O   UNL A   1      31.405  26.256  21.244  1.00  0.00    -0.493 OA
ATOM     17  C   UNL A   1      32.327  25.660  20.342  1.00  0.00     0.278 C 
ENDBRANCH  11  16
BRANCH  13  18
ATOM     18  C   UNL A   1      34.568  25.363  24.772  1.00  0.00     0.029 C 
ATOM     19  C   UNL A   1      35.372  24.296  24.685  1.00  0.00     0.083 C 
ATOM     20  S   UNL A   1      36.676  23.920  25.728  1.00  0.00    -0.022 SA
ATOM     21  C   UNL A   1      35.017  23.084  23.923  1.00  0.00     0.272 C 
ATOM     22  C   UNL A   1      36.269  22.188  25.629  1.00  0.00     0.298 C 
ATOM     23  N   UNL A   1      35.233  21.994  24.740  1.00  0.00    -0.236 N 
ATOM     24  O   UNL A   1      34.654  23.139  22.759  1.00  0.00    -0.268 OA
ATOM     25  O   UNL A   1      36.919  21.359  26.258  1.00  0.00    -0.260 OA
BRANCH  23  26
ATOM     26  C   UNL A   1      34.459  20.795  24.623  1.00  0.00     0.053 A 
ATOM     27  C   UNL A   1      33.059  20.825  24.693  1.00  0.00     0.027 A 
ATOM     28  C   UNL A   1      35.065  19.530  24.573  1.00  0.00     0.030 A 
ATOM     29  C   UNL A   1      32.295  19.657  24.653  1.00  0.00     0.006 A 
ATOM     30  C   UNL A   1      34.307  18.337  24.574  1.00  0.00    -0.046 A 
ATOM     31  C   UNL A   1      32.905  18.405  24.573  1.00  0.00    -0.048 A 
ATOM     32  C   UNL A   1      35.031  17.016  24.582  1.00  0.00     0.044 C 
ATOM     33  C   UNL A   1      32.008  17.202  24.498  1.00  0.00     0.044 C 
ENDBRANCH  23  26
ENDBRANCH  13  18
ENDBRANCH   9  10
ENDBRANCH   8   9
ENDBRANCH   7   8
ENDBRANCH   4   7
ENDBRANCH   2   3
ENDBRANCH   1   2
BRANCH   1  34
ATOM     34  C   UNL A   1      32.614  29.390  26.953  1.00  0.00     0.002 C 
BRANCH  34  35
ATOM     35  C   UNL A   1      34.126  29.214  26.871  1.00  0.00     0.002 C 
BRANCH  35  36
ATOM     36  C   UNL A   1      34.915  30.447  27.322  1.00  0.00     0.021 C 
BRANCH  36  37
ATOM     37  C   UNL A   1      36.301  30.154  27.898  1.00  0.00     0.116 C 
BRANCH  37  38
ATOM     38  N   UNL A   1      36.248  29.715  29.286  1.00  0.00    -0.352 N 
ATOM     39  C   UNL A   1      37.279  29.268  30.079  1.00  0.00     0.251 C 
ATOM     40  H   UNL A   1      35.359  29.743  29.711  1.00  0.00     0.163 HD
ATOM     41  O   UNL A   1      37.047  28.764  31.173  1.00  0.00    -0.269 OA
BRANCH  39  42
ATOM     42  C   UNL A   1      38.667  29.372  29.581  1.00  0.00     0.039 A 
ATOM     43  C   UNL A   1      39.700  29.604  30.491  1.00  0.00     0.014 A 
ATOM     44  C   UNL A   1      38.948  29.181  28.224  1.00  0.00     0.014 A 
ATOM     45  C   UNL A   1      41.025  29.568  30.051  1.00  0.00     0.010 A 
ATOM     46  C   UNL A   1      40.273  29.077  27.802  1.00  0.00     0.010 A 
ATOM     47  C   UNL A   1      41.327  29.262  28.711  1.00  0.00    -0.014 A 
BRANCH  47  48
ATOM     48  C   UNL A   1      42.737  29.111  28.257  1.00  0.00     0.031 A 
ATOM     49  C   UNL A   1      43.209  27.809  27.665  1.00  0.00     0.074 A 
ATOM     50  C   UNL A   1      43.607  30.129  28.426  1.00  0.00     0.049 A 
ATOM     51  N   UNL A   1      44.406  27.481  27.250  1.00  0.00    -0.248 NA
ATOM     52  C   UNL A   1      42.215  26.730  27.537  1.00  0.00     0.031 C 
ATOM     53  C   UNL A   1      43.289  31.428  29.023  1.00  0.00     0.029 A 
ATOM     54  N   UNL A   1      44.943  30.230  28.116  1.00  0.00    -0.354 N 
ATOM     55  C   UNL A   1      44.313  26.159  26.828  1.00  0.00     0.074 A 
ATOM     56  C   UNL A   1      42.954  25.731  27.077  1.00  0.00     0.031 C 
ATOM     57  C   UNL A   1      44.386  32.203  29.009  1.00  0.00     0.029 A 
ATOM     58  C   UNL A   1      45.500  31.444  28.448  1.00  0.00     0.049 A 
ATOM     59  H   UNL A   1      45.454  29.501  27.695  1.00  0.00     0.167 HD
ATOM     60  C   UNL A   1      45.267  25.379  26.268  1.00  0.00     0.031 A 
ATOM     61  C   UNL A   1      46.764  31.895  28.328  1.00  0.00     0.031 A 
ATOM     62  C   UNL A   1      46.615  25.811  26.007  1.00  0.00     0.049 A 
ATOM     63  C   UNL A   1      47.810  30.996  27.720  1.00  0.00     0.074 A 
ATOM     64  C   UNL A   1      47.634  25.109  25.385  1.00  0.00     0.029 A 
ATOM     65  N   UNL A   1      47.137  27.047  26.354  1.00  0.00    -0.354 N 
ATOM     66  N   UNL A   1      47.679  29.776  27.254  1.00  0.00    -0.248 NA
ATOM     67  C   UNL A   1      49.172  31.537  27.611  1.00  0.00     0.031 C 
ATOM     68  C   UNL A   1      48.790  25.894  25.418  1.00  0.00     0.029 A 
ATOM     69  C   UNL A   1      48.471  27.115  25.990  1.00  0.00     0.049 A 
ATOM     70  H   UNL A   1      46.633  27.770  26.794  1.00  0.00     0.167 HD
ATOM     71  C   UNL A   1      48.931  29.421  26.765  1.00  0.00     0.074 A 
ATOM     72  C   UNL A   1      49.801  30.559  26.973  1.00  0.00     0.031 C 
ATOM     73  C   UNL A   1      49.326  28.256  26.193  1.00  0.00     0.031 A 
BRANCH  60  74
ATOM     74  C   UNL A   1      44.899  23.966  25.895  1.00  0.00    -0.014 A 
ATOM     75  C   UNL A   1      44.453  23.646  24.601  1.00  0.00     0.010 A 
ATOM     76  C   UNL A   1      45.092  22.929  26.828  1.00  0.00     0.010 A 
ATOM     77  C   UNL A   1      44.188  22.319  24.251  1.00  0.00     0.020 A 
ATOM     78  C   UNL A   1      44.857  21.598  26.473  1.00  0.00     0.020 A 
ATOM     79  C   UNL A   1      44.399  21.302  25.188  1.00  0.00     0.054 A 
BRANCH  79  80
ATOM     80  S   UNL A   1      44.108  19.585  24.684  1.00  0.00     0.124 S 
ATOM     81  O   UNL A   1      45.146  18.873  25.425  1.00  0.00    -0.237 OA
ATOM     82  O   UNL A   1      42.739  19.348  25.137  1.00  0.00    -0.237 OA
ATOM     83  O   UNL A   1      44.287  19.613  23.235  1.00  0.00    -0.744 OA
ENDBRANCH  79  80
ENDBRANCH  60  74
BRANCH  61  84
ATOM     84  C   UNL A   1      47.129  33.262  28.800  1.00  0.00    -0.014 A 
ATOM     85  C   UNL A   1      46.777  34.402  28.054  1.00  0.00     0.010 A 
ATOM     86  C   UNL A   1      47.868  33.429  29.986  1.00  0.00     0.010 A 
ATOM     87  C   UNL A   1      47.191  35.674  28.461  1.00  0.00     0.020 A 
ATOM     88  C   UNL A   1      48.253  34.702  30.416  1.00  0.00     0.020 A 
ATOM     89  C   UNL A   1      47.929  35.815  29.639  1.00  0.00     0.054 A 
BRANCH  89  90
ATOM     90  S   UNL A   1      48.449  37.475  30.155  1.00  0.00     0.124 S 
ATOM     91  O   UNL A   1      47.190  38.212  30.122  1.00  0.00    -0.237 OA
ATOM     92  O   UNL A   1      49.005  37.231  31.484  1.00  0.00    -0.237 OA
ATOM     93  O   UNL A   1      49.428  37.858  29.140  1.00  0.00    -0.744 OA
ENDBRANCH  89  90
ENDBRANCH  61  84
BRANCH  73  94
ATOM     94  C   UNL A   1      50.748  28.165  25.703  1.00  0.00    -0.014 A 
ATOM     95  C   UNL A   1      51.094  28.494  24.381  1.00  0.00     0.010 A 
ATOM     96  C   UNL A   1      51.766  27.800  26.605  1.00  0.00     0.010 A 
ATOM     97  C   UNL A   1      52.424  28.423  23.960  1.00  0.00     0.020 A 
ATOM     98  C   UNL A   1      53.101  27.761  26.198  1.00  0.00     0.020 A 
ATOM     99  C   UNL A   1      53.421  28.060  24.872  1.00  0.00     0.054 A 
BRANCH  99 100
ATOM    100  S   UNL A   1      55.145  28.018  24.311  1.00  0.00     0.124 S 
ATOM    101  O   UNL A   1      55.197  26.754  23.582  1.00  0.00    -0.237 OA
ATOM    102  O   UNL A   1      55.241  29.223  23.489  1.00  0.00    -0.237 OA
ATOM    103  O   UNL A   1      55.915  28.055  25.552  1.00  0.00    -0.744 OA
ENDBRANCH  99 100
ENDBRANCH  73  94
ENDBRANCH  47  48
ENDBRANCH  39  42
ENDBRANCH  37  38
ENDBRANCH  36  37
ENDBRANCH  35  36
ENDBRANCH  34  35
ENDBRANCH   1  34
TORSDOF 22
ENDMDL
MODEL 3
REMARK VINA RESULT:     -10.7      4.921     14.027
REMARK SMILES COc1cc(/C=C2/SC(=O)N(c3ccc(C)c(C)c3)C2=O)ccc1OCCC(=O)NCCCCCCNC(=O)c1ccc(-c2c3nc(c(-c4ccc(S(=O)(=O)[O-])cc4)c4ccc([nH]4)c(-c4ccc(S(=O)(=O)[O-])cc4)c4nc(c(-c5ccc(S(=O)(=O)[O-])cc5)c5ccc2[nH]5)C=C4)C=C3)cc1
REMARK SMILES IDX 32 1 31 2 30 3 28 4 29 5 27 7 26 8 25 9 24 10 3 11 4 12 5 13
REMARK SMILES IDX 23 14 22 15 2 16 1 17 6 18 7 19 8 20 20 21 9 22 11 23 21 24
REMARK SMILES IDX 10 25 12 26 13 27 19 28 14 29 17 30 15 31 18 32 16 33 33 34
REMARK SMILES IDX 34 35 35 36 36 37 37 38 38 39 39 41 40 42 41 43 99 44 42 45
REMARK SMILES IDX 98 46 43 47 44 48 45 49 92 50 46 51 97 52 91 53 93 54 47 55
REMARK SMILES IDX 96 56 90 57 89 58 48 60 78 61 59 62 77 63 60 64 63 65 76 66
REMARK SMILES IDX 94 67 61 68 62 69 75 71 95 72 64 73 49 74 50 75 58 76 51 77
REMARK SMILES IDX 57 78 52 79 53 80 54 81 55 82 56 83 79 84 80 85 88 86 81 87
REMARK SMILES IDX 87 88 82 89 83 90 84 91 85 92 86 93 65 94 66 95 74 96 67 97
REMARK SMILES IDX 73 98 68 99 69 100 70 101 71 102 72 103
REMARK H PARENT 30 6 37 40 93 59 63 70
REMARK Flexibility Score: inf
ROOT
ATOM      1  C   UNL A   1      43.895  25.197  25.022  1.00  0.00     0.021 C 
ENDROOT
BRANCH   1   2
ATOM      2  C   UNL A   1      45.060  25.541  25.939  1.00  0.00     0.116 C 
BRANCH   2   3
ATOM      3  N   UNL A   1      45.970  26.515  25.360  1.00  0.00    -0.356 N 
ATOM      4  C   UNL A   1      45.948  27.877  25.437  1.00  0.00     0.223 C 
ATOM      5  O   UNL A   1      46.937  28.504  25.056  1.00  0.00    -0.275 OA
ATOM      6  H   UNL A   1      46.711  26.137  24.836  1.00  0.00     0.163 HD
BRANCH   4   7
ATOM      7  C   UNL A   1      44.775  28.574  26.087  1.00  0.00     0.141 C 
BRANCH   7   8
ATOM      8  C   UNL A   1      45.019  29.877  26.841  1.00  0.00     0.239 C 
BRANCH   8   9
ATOM      9  O   UNL A   1      45.137  31.100  26.137  1.00  0.00    -0.489 OA
BRANCH   9  10
ATOM     10  C   UNL A   1      45.597  32.280  26.632  1.00  0.00     0.161 A 
ATOM     11  C   UNL A   1      44.976  33.518  26.807  1.00  0.00     0.161 A 
ATOM     12  C   UNL A   1      45.538  34.464  27.695  1.00  0.00     0.058 A 
ATOM     13  C   UNL A   1      46.763  34.235  28.318  1.00  0.00    -0.020 A 
ATOM     14  C   UNL A   1      46.897  32.126  27.137  1.00  0.00     0.051 A 
ATOM     15  C   UNL A   1      47.477  33.084  27.969  1.00  0.00     0.012 A 
BRANCH  11  16
ATOM     16  O   UNL A   1      43.779  33.916  26.293  1.00  0.00    -0.493 OA
ATOM     17  C   UNL A   1      43.779  34.300  24.925  1.00  0.00     0.278 C 
ENDBRANCH  11  16
BRANCH  13  18
ATOM     18  C   UNL A   1      47.268  35.095  29.405  1.00  0.00     0.029 C 
ATOM     19  C   UNL A   1      48.160  36.069  29.184  1.00  0.00     0.083 C 
ATOM     20  S   UNL A   1      49.287  36.689  30.313  1.00  0.00    -0.022 SA
ATOM     21  C   UNL A   1      48.575  36.484  27.831  1.00  0.00     0.272 C 
ATOM     22  C   UNL A   1      50.506  36.850  29.022  1.00  0.00     0.298 C 
ATOM     23  N   UNL A   1      49.954  36.514  27.804  1.00  0.00    -0.236 N 
ATOM     24  O   UNL A   1      47.762  36.777  26.970  1.00  0.00    -0.268 OA
ATOM     25  O   UNL A   1      51.631  37.265  29.278  1.00  0.00    -0.260 OA
BRANCH  23  26
ATOM     26  C   UNL A   1      50.694  36.250  26.607  1.00  0.00     0.053 A 
ATOM     27  C   UNL A   1      50.731  34.965  26.046  1.00  0.00     0.027 A 
ATOM     28  C   UNL A   1      51.522  37.221  26.024  1.00  0.00     0.030 A 
ATOM     29  C   UNL A   1      51.506  34.676  24.922  1.00  0.00     0.006 A 
ATOM     30  C   UNL A   1      52.344  36.933  24.911  1.00  0.00    -0.046 A 
ATOM     31  C   UNL A   1      52.304  35.656  24.330  1.00  0.00    -0.048 A 
ATOM     32  C   UNL A   1      53.252  38.011  24.379  1.00  0.00     0.044 C 
ATOM     33  C   UNL A   1      53.077  35.269  23.101  1.00  0.00     0.044 C 
ENDBRANCH  23  26
ENDBRANCH  13  18
ENDBRANCH   9  10
ENDBRANCH   8   9
ENDBRANCH   7   8
ENDBRANCH   4   7
ENDBRANCH   2   3
ENDBRANCH   1   2
BRANCH   1  34
ATOM     34  C   UNL A   1      43.419  23.750  25.170  1.00  0.00     0.002 C 
BRANCH  34  35
ATOM     35  C   UNL A   1      42.936  23.340  26.557  1.00  0.00     0.002 C 
BRANCH  35  36
ATOM     36  C   UNL A   1      42.340  21.930  26.609  1.00  0.00     0.021 C 
BRANCH  36  37
ATOM     37  C   UNL A   1      41.047  21.803  27.416  1.00  0.00     0.116 C 
BRANCH  37  38
ATOM     38  N   UNL A   1      39.860  21.797  26.572  1.00  0.00    -0.352 N 
ATOM     39  C   UNL A   1      38.968  22.820  26.348  1.00  0.00     0.251 C 
ATOM     40  H   UNL A   1      39.672  20.952  26.103  1.00  0.00     0.163 HD
ATOM     41  O   UNL A   1      37.917  22.608  25.752  1.00  0.00    -0.269 OA
BRANCH  39  42
ATOM     42  C   UNL A   1      39.278  24.170  26.863  1.00  0.00     0.039 A 
ATOM     43  C   UNL A   1      38.948  24.486  28.182  1.00  0.00     0.014 A 
ATOM     44  C   UNL A   1      39.948  25.099  26.060  1.00  0.00     0.014 A 
ATOM     45  C   UNL A   1      39.357  25.708  28.721  1.00  0.00     0.010 A 
ATOM     46  C   UNL A   1      40.416  26.286  26.621  1.00  0.00     0.010 A 
ATOM     47  C   UNL A   1      40.133  26.602  27.959  1.00  0.00    -0.014 A 
BRANCH  47  48
ATOM     48  C   UNL A   1      40.669  27.855  28.558  1.00  0.00     0.031 A 
ATOM     49  C   UNL A   1      42.103  27.927  29.011  1.00  0.00     0.074 A 
ATOM     50  C   UNL A   1      39.851  28.913  28.742  1.00  0.00     0.049 A 
ATOM     51  N   UNL A   1      42.735  28.918  29.588  1.00  0.00    -0.248 NA
ATOM     52  C   UNL A   1      42.933  26.728  28.807  1.00  0.00     0.031 C 
ATOM     53  C   UNL A   1      38.431  28.960  28.385  1.00  0.00     0.029 A 
ATOM     54  N   UNL A   1      40.093  30.153  29.284  1.00  0.00    -0.354 N 
ATOM     55  C   UNL A   1      44.025  28.459  29.828  1.00  0.00     0.074 A 
ATOM     56  C   UNL A   1      44.075  27.086  29.375  1.00  0.00     0.031 C 
ATOM     57  C   UNL A   1      37.938  30.172  28.689  1.00  0.00     0.029 A 
ATOM     58  C   UNL A   1      38.989  30.975  29.306  1.00  0.00     0.049 A 
ATOM     59  H   UNL A   1      40.976  30.428  29.624  1.00  0.00     0.167 HD
ATOM     60  C   UNL A   1      45.077  29.124  30.360  1.00  0.00     0.031 A 
ATOM     61  C   UNL A   1      38.833  32.227  29.779  1.00  0.00     0.031 A 
ATOM     62  C   UNL A   1      45.030  30.495  30.797  1.00  0.00     0.049 A 
ATOM     63  C   UNL A   1      40.017  32.935  30.386  1.00  0.00     0.074 A 
ATOM     64  C   UNL A   1      46.063  31.273  31.292  1.00  0.00     0.029 A 
ATOM     65  N   UNL A   1      43.896  31.292  30.798  1.00  0.00    -0.354 N 
ATOM     66  N   UNL A   1      41.249  32.507  30.530  1.00  0.00    -0.248 NA
ATOM     67  C   UNL A   1      39.793  34.300  30.885  1.00  0.00     0.031 C 
ATOM     68  C   UNL A   1      45.539  32.516  31.657  1.00  0.00     0.029 A 
ATOM     69  C   UNL A   1      44.197  32.540  31.317  1.00  0.00     0.049 A 
ATOM     70  H   UNL A   1      43.007  31.012  30.478  1.00  0.00     0.167 HD
ATOM     71  C   UNL A   1      41.952  33.563  31.100  1.00  0.00     0.074 A 
ATOM     72  C   UNL A   1      41.015  34.655  31.259  1.00  0.00     0.031 C 
ATOM     73  C   UNL A   1      43.259  33.624  31.461  1.00  0.00     0.031 A 
BRANCH  60  74
ATOM     74  C   UNL A   1      46.381  28.385  30.511  1.00  0.00    -0.014 A 
ATOM     75  C   UNL A   1      46.600  27.504  31.585  1.00  0.00     0.010 A 
ATOM     76  C   UNL A   1      47.366  28.504  29.513  1.00  0.00     0.010 A 
ATOM     77  C   UNL A   1      47.787  26.771  31.668  1.00  0.00     0.020 A 
ATOM     78  C   UNL A   1      48.541  27.750  29.576  1.00  0.00     0.020 A 
ATOM     79  C   UNL A   1      48.747  26.893  30.659  1.00  0.00     0.054 A 
BRANCH  79  80
ATOM     80  S   UNL A   1      50.247  25.880  30.761  1.00  0.00     0.124 S 
ATOM     81  O   UNL A   1      49.808  24.775  31.609  1.00  0.00    -0.237 OA
ATOM     82  O   UNL A   1      50.496  25.538  29.363  1.00  0.00    -0.237 OA
ATOM     83  O   UNL A   1      51.231  26.775  31.366  1.00  0.00    -0.744 OA
ENDBRANCH  79  80
ENDBRANCH  60  74
BRANCH  61  84
ATOM     84  C   UNL A   1      37.504  32.902  29.715  1.00  0.00    -0.014 A 
ATOM     85  C   UNL A   1      36.652  32.927  30.834  1.00  0.00     0.010 A 
ATOM     86  C   UNL A   1      37.066  33.492  28.515  1.00  0.00     0.010 A 
ATOM     87  C   UNL A   1      35.375  33.490  30.743  1.00  0.00     0.020 A 
ATOM     88  C   UNL A   1      35.806  34.088  28.429  1.00  0.00     0.020 A 
ATOM     89  C   UNL A   1      34.960  34.066  29.539  1.00  0.00     0.054 A 
BRANCH  89  90
ATOM     90  S   UNL A   1      33.303  34.800  29.444  1.00  0.00     0.124 S 
ATOM     91  O   UNL A   1      32.954  34.946  30.853  1.00  0.00    -0.237 OA
ATOM     92  O   UNL A   1      33.553  36.045  28.720  1.00  0.00    -0.237 OA
ATOM     93  O   UNL A   1      32.530  33.804  28.705  1.00  0.00    -0.744 OA
ENDBRANCH  89  90
ENDBRANCH  61  84
BRANCH  73  94
ATOM     94  C   UNL A   1      43.770  34.927  32.017  1.00  0.00    -0.014 A 
ATOM     95  C   UNL A   1      43.881  35.143  33.402  1.00  0.00     0.010 A 
ATOM     96  C   UNL A   1      44.204  35.932  31.132  1.00  0.00     0.010 A 
ATOM     97  C   UNL A   1      44.382  36.353  33.890  1.00  0.00     0.020 A 
ATOM     98  C   UNL A   1      44.736  37.129  31.615  1.00  0.00     0.020 A 
ATOM     99  C   UNL A   1      44.809  37.338  32.993  1.00  0.00     0.054 A 
BRANCH  99 100
ATOM    100  S   UNL A   1      45.495  38.882  33.654  1.00  0.00     0.124 S 
ATOM    101  O   UNL A   1      45.485  39.747  32.477  1.00  0.00    -0.237 OA
ATOM    102  O   UNL A   1      44.537  39.233  34.700  1.00  0.00    -0.237 OA
ATOM    103  O   UNL A   1      46.820  38.497  34.133  1.00  0.00    -0.744 OA
ENDBRANCH  99 100
ENDBRANCH  73  94
ENDBRANCH  47  48
ENDBRANCH  39  42
ENDBRANCH  37  38
ENDBRANCH  36  37
ENDBRANCH  35  36
ENDBRANCH  34  35
ENDBRANCH   1  34
TORSDOF 22
ENDMDL
