MODEL 1
REMARK VINA RESULT:      -8.8      0.000      0.000
REMARK SMILES CCOc1cc2c(cc1OCC)[C@H](C(=O)NCCCCCCNC(=O)c1ccc(-c3c4nc(c(-c5ccc(S(=O)(=O)[O-])cc5)c5ccc([nH]5)c(-c5ccc(S(=O)(=O)[O-])cc5)c5nc(c(-c6ccc(S(=O)(=O)[O-])cc6)c6ccc3[nH]6)C=C5)C=C4)cc1)[C@H](c1ccc(OC)c(O)c1)N(C)C2=O
REMARK SMILES IDX 20 1 19 2 18 3 17 4 16 5 14 6 15 7 13 9 4 10 5 11 9 12 6 13
REMARK SMILES IDX 8 14 7 15 98 16 96 17 99 18 86 19 97 20 3 21 2 22 1 23 10 24
REMARK SMILES IDX 11 25 12 26 87 27 88 28 95 29 89 30 93 31 90 32 94 33 91 35
REMARK SMILES IDX 92 36 21 37 22 38 23 39 24 40 25 42 26 43 27 44 85 45 28 46
REMARK SMILES IDX 84 47 29 48 30 49 31 50 78 51 32 52 83 53 77 54 79 55 33 56
REMARK SMILES IDX 82 57 76 58 75 59 34 61 64 62 45 63 63 64 46 65 49 66 62 67
REMARK SMILES IDX 80 68 47 69 48 70 61 72 81 73 50 74 35 75 36 76 44 77 37 78
REMARK SMILES IDX 43 79 38 80 39 81 40 82 41 83 42 84 65 85 66 86 74 87 67 88
REMARK SMILES IDX 73 89 68 90 69 91 70 92 71 93 72 94 51 95 52 96 60 97 53 98
REMARK SMILES IDX 59 99 54 100 55 101 56 102 57 103 58 104
REMARK H PARENT 16 8 94 34 23 41 79 60 49 71
REMARK Flexibility Score: inf
ROOT
ATOM      1  C   UNL A   1      36.080  33.370  31.337  1.00  0.00     0.002 C 
ENDROOT
BRANCH   1   2
ATOM      2  C   UNL A   1      37.434  32.671  31.177  1.00  0.00     0.002 C 
BRANCH   2   3
ATOM      3  C   UNL A   1      38.003  32.045  32.458  1.00  0.00     0.021 C 
BRANCH   3   4
ATOM      4  C   UNL A   1      37.005  31.951  33.615  1.00  0.00     0.116 C 
BRANCH   4   5
ATOM      5  N   UNL A   1      37.526  31.098  34.665  1.00  0.00    -0.355 N 
ATOM      6  C   UNL A   1      38.282  31.390  35.757  1.00  0.00     0.230 C 
ATOM      7  O   UNL A   1      38.701  30.427  36.400  1.00  0.00    -0.274 OA
ATOM      8  H   UNL A   1      37.292  30.146  34.573  1.00  0.00     0.163 HD
BRANCH   6   9
ATOM      9  C   UNL A   1      38.561  32.845  36.116  1.00  0.00     0.136 C 
ATOM     10  C   UNL A   1      38.342  33.980  40.299  1.00  0.00     0.161 A 
ATOM     11  C   UNL A   1      38.954  34.800  39.343  1.00  0.00     0.064 A 
ATOM     12  C   UNL A   1      37.721  32.794  39.895  1.00  0.00     0.161 A 
ATOM     13  C   UNL A   1      38.963  34.445  37.993  1.00  0.00     0.048 A 
ATOM     14  C   UNL A   1      37.735  32.452  38.532  1.00  0.00     0.056 A 
ATOM     15  C   UNL A   1      38.404  33.230  37.579  1.00  0.00    -0.016 A 
ATOM     16  C   UNL A   1      39.619  35.358  37.011  1.00  0.00     0.254 C 
ATOM     17  N   UNL A   1      40.008  34.793  35.797  1.00  0.00    -0.333 N 
ATOM     18  O   UNL A   1      39.827  36.531  37.311  1.00  0.00    -0.269 OA
ATOM     19  C   UNL A   1      39.958  33.326  35.611  1.00  0.00     0.132 C 
ATOM     20  C   UNL A   1      40.709  35.621  34.831  1.00  0.00     0.147 C 
BRANCH  10  21
ATOM     21  O   UNL A   1      38.498  34.296  41.621  1.00  0.00    -0.490 OA
BRANCH  21  22
ATOM     22  C   UNL A   1      39.300  33.369  42.361  1.00  0.00     0.226 C 
ATOM     23  C   UNL A   1      38.589  32.890  43.616  1.00  0.00     0.049 C 
ENDBRANCH  21  22
ENDBRANCH  10  21
BRANCH  12  24
ATOM     24  O   UNL A   1      37.083  31.844  40.643  1.00  0.00    -0.490 OA
BRANCH  24  25
ATOM     25  C   UNL A   1      35.675  31.672  40.571  1.00  0.00     0.226 C 
ATOM     26  C   UNL A   1      34.940  32.838  41.208  1.00  0.00     0.049 C 
ENDBRANCH  24  25
ENDBRANCH  12  24
BRANCH  19  27
ATOM     27  C   UNL A   1      41.173  32.618  36.236  1.00  0.00    -0.020 A 
ATOM     28  C   UNL A   1      42.182  33.364  36.858  1.00  0.00     0.010 A 
ATOM     29  C   UNL A   1      41.343  31.221  36.205  1.00  0.00     0.056 A 
ATOM     30  C   UNL A   1      43.347  32.751  37.332  1.00  0.00     0.051 A 
ATOM     31  C   UNL A   1      42.503  30.602  36.697  1.00  0.00     0.157 A 
ATOM     32  C   UNL A   1      43.529  31.368  37.248  1.00  0.00     0.160 A 
BRANCH  31  33
ATOM     33  O   UNL A   1      42.589  29.240  36.605  1.00  0.00    -0.504 OA
ATOM     34  H   UNL A   1      43.253  28.779  37.078  1.00  0.00     0.293 HD
ENDBRANCH  31  33
BRANCH  32  35
ATOM     35  O   UNL A   1      44.737  30.954  37.735  1.00  0.00    -0.493 OA
ATOM     36  C   UNL A   1      45.463  31.847  38.565  1.00  0.00     0.278 C 
ENDBRANCH  32  35
ENDBRANCH  19  27
ENDBRANCH   6   9
ENDBRANCH   4   5
ENDBRANCH   3   4
ENDBRANCH   2   3
ENDBRANCH   1   2
BRANCH   1  37
ATOM     37  C   UNL A   1      34.907  32.662  30.660  1.00  0.00     0.021 C 
BRANCH  37  38
ATOM     38  C   UNL A   1      34.970  32.647  29.138  1.00  0.00     0.116 C 
BRANCH  38  39
ATOM     39  N   UNL A   1      34.216  31.544  28.568  1.00  0.00    -0.352 N 
ATOM     40  C   UNL A   1      34.669  30.327  28.126  1.00  0.00     0.251 C 
ATOM     41  H   UNL A   1      33.246  31.690  28.487  1.00  0.00     0.163 HD
ATOM     42  O   UNL A   1      33.916  29.586  27.497  1.00  0.00    -0.269 OA
BRANCH  40  43
ATOM     43  C   UNL A   1      36.066  29.917  28.392  1.00  0.00     0.039 A 
ATOM     44  C   UNL A   1      37.013  30.051  27.375  1.00  0.00     0.014 A 
ATOM     45  C   UNL A   1      36.437  29.390  29.632  1.00  0.00     0.014 A 
ATOM     46  C   UNL A   1      38.341  29.690  27.616  1.00  0.00     0.010 A 
ATOM     47  C   UNL A   1      37.775  29.114  29.897  1.00  0.00     0.010 A 
ATOM     48  C   UNL A   1      38.738  29.237  28.886  1.00  0.00    -0.014 A 
BRANCH  48  49
ATOM     49  C   UNL A   1      40.147  28.851  29.156  1.00  0.00     0.031 A 
ATOM     50  C   UNL A   1      41.082  29.829  29.820  1.00  0.00     0.074 A 
ATOM     51  C   UNL A   1      40.597  27.639  28.776  1.00  0.00     0.049 A 
ATOM     52  N   UNL A   1      42.346  29.684  30.128  1.00  0.00    -0.248 NA
ATOM     53  C   UNL A   1      40.534  31.153  30.160  1.00  0.00     0.031 C 
ATOM     54  C   UNL A   1      39.802  26.617  28.090  1.00  0.00     0.029 A 
ATOM     55  N   UNL A   1      41.832  27.058  28.918  1.00  0.00    -0.354 N 
ATOM     56  C   UNL A   1      42.744  30.894  30.682  1.00  0.00     0.074 A 
ATOM     57  C   UNL A   1      41.607  31.786  30.609  1.00  0.00     0.031 C 
ATOM     58  C   UNL A   1      40.559  25.523  27.906  1.00  0.00     0.029 A 
ATOM     59  C   UNL A   1      41.900  25.776  28.424  1.00  0.00     0.049 A 
ATOM     60  H   UNL A   1      42.597  27.516  29.335  1.00  0.00     0.167 HD
ATOM     61  C   UNL A   1      43.937  31.231  31.228  1.00  0.00     0.031 A 
ATOM     62  C   UNL A   1      42.924  24.902  28.394  1.00  0.00     0.031 A 
ATOM     63  C   UNL A   1      45.064  30.339  31.307  1.00  0.00     0.049 A 
ATOM     64  C   UNL A   1      44.244  25.300  28.998  1.00  0.00     0.074 A 
ATOM     65  C   UNL A   1      46.302  30.567  31.881  1.00  0.00     0.029 A 
ATOM     66  N   UNL A   1      45.090  29.051  30.798  1.00  0.00    -0.354 N 
ATOM     67  N   UNL A   1      44.582  26.431  29.571  1.00  0.00    -0.248 NA
ATOM     68  C   UNL A   1      45.313  24.294  28.971  1.00  0.00     0.031 C 
ATOM     69  C   UNL A   1      47.096  29.435  31.668  1.00  0.00     0.029 A 
ATOM     70  C   UNL A   1      46.330  28.476  31.025  1.00  0.00     0.049 A 
ATOM     71  H   UNL A   1      44.338  28.608  30.341  1.00  0.00     0.167 HD
ATOM     72  C   UNL A   1      45.892  26.258  30.006  1.00  0.00     0.074 A 
ATOM     73  C   UNL A   1      46.277  24.910  29.641  1.00  0.00     0.031 C 
ATOM     74  C   UNL A   1      46.700  27.133  30.655  1.00  0.00     0.031 A 
BRANCH  61  75
ATOM     75  C   UNL A   1      44.082  32.629  31.777  1.00  0.00    -0.014 A 
ATOM     76  C   UNL A   1      43.777  32.921  33.119  1.00  0.00     0.010 A 
ATOM     77  C   UNL A   1      44.556  33.660  30.945  1.00  0.00     0.010 A 
ATOM     78  C   UNL A   1      43.893  34.225  33.606  1.00  0.00     0.020 A 
ATOM     79  C   UNL A   1      44.706  34.960  31.438  1.00  0.00     0.020 A 
ATOM     80  C   UNL A   1      44.354  35.238  32.761  1.00  0.00     0.054 A 
BRANCH  80  81
ATOM     81  S   UNL A   1      44.509  36.919  33.424  1.00  0.00     0.124 S 
ATOM     82  O   UNL A   1      44.927  36.661  34.801  1.00  0.00    -0.237 OA
ATOM     83  O   UNL A   1      45.527  37.511  32.560  1.00  0.00    -0.237 OA
ATOM     84  O   UNL A   1      43.168  37.477  33.275  1.00  0.00    -0.744 OA
ENDBRANCH  80  81
ENDBRANCH  61  75
BRANCH  62  85
ATOM     85  C   UNL A   1      42.733  23.552  27.796  1.00  0.00    -0.014 A 
ATOM     86  C   UNL A   1      43.008  23.326  26.435  1.00  0.00     0.010 A 
ATOM     87  C   UNL A   1      42.284  22.479  28.588  1.00  0.00     0.010 A 
ATOM     88  C   UNL A   1      42.816  22.060  25.874  1.00  0.00     0.020 A 
ATOM     89  C   UNL A   1      42.121  21.205  28.037  1.00  0.00     0.020 A 
ATOM     90  C   UNL A   1      42.377  21.007  26.679  1.00  0.00     0.054 A 
BRANCH  90  91
ATOM     91  S   UNL A   1      42.183  19.362  25.939  1.00  0.00     0.124 S 
ATOM     92  O   UNL A   1      40.739  19.286  25.739  1.00  0.00    -0.237 OA
ATOM     93  O   UNL A   1      42.987  19.467  24.723  1.00  0.00    -0.237 OA
ATOM     94  O   UNL A   1      42.723  18.463  26.957  1.00  0.00    -0.744 OA
ENDBRANCH  90  91
ENDBRANCH  62  85
BRANCH  74  95
ATOM     95  C   UNL A   1      48.067  26.644  31.059  1.00  0.00    -0.014 A 
ATOM     96  C   UNL A   1      48.266  25.897  32.234  1.00  0.00     0.010 A 
ATOM     97  C   UNL A   1      49.169  26.916  30.227  1.00  0.00     0.010 A 
ATOM     98  C   UNL A   1      49.549  25.475  32.593  1.00  0.00     0.020 A 
ATOM     99  C   UNL A   1      50.447  26.466  30.564  1.00  0.00     0.020 A 
ATOM    100  C   UNL A   1      50.632  25.765  31.758  1.00  0.00     0.054 A 
BRANCH 100 101
ATOM    101  S   UNL A   1      52.284  25.191  32.237  1.00  0.00     0.124 S 
ATOM    102  O   UNL A   1      53.093  25.609  31.095  1.00  0.00    -0.237 OA
ATOM    103  O   UNL A   1      52.528  25.919  33.480  1.00  0.00    -0.237 OA
ATOM    104  O   UNL A   1      52.120  23.747  32.388  1.00  0.00    -0.744 OA
ENDBRANCH 100 101
ENDBRANCH  74  95
ENDBRANCH  48  49
ENDBRANCH  40  43
ENDBRANCH  38  39
ENDBRANCH  37  38
ENDBRANCH   1  37
TORSDOF 23
ENDMDL
MODEL 2
REMARK VINA RESULT:      -8.8      4.675     13.229
REMARK SMILES CCOc1cc2c(cc1OCC)[C@H](C(=O)NCCCCCCNC(=O)c1ccc(-c3c4nc(c(-c5ccc(S(=O)(=O)[O-])cc5)c5ccc([nH]5)c(-c5ccc(S(=O)(=O)[O-])cc5)c5nc(c(-c6ccc(S(=O)(=O)[O-])cc6)c6ccc3[nH]6)C=C5)C=C4)cc1)[C@H](c1ccc(OC)c(O)c1)N(C)C2=O
REMARK SMILES IDX 20 1 19 2 18 3 17 4 16 5 14 6 15 7 13 9 4 10 5 11 9 12 6 13
REMARK SMILES IDX 8 14 7 15 98 16 96 17 99 18 86 19 97 20 3 21 2 22 1 23 10 24
REMARK SMILES IDX 11 25 12 26 87 27 88 28 95 29 89 30 93 31 90 32 94 33 91 35
REMARK SMILES IDX 92 36 21 37 22 38 23 39 24 40 25 42 26 43 27 44 85 45 28 46
REMARK SMILES IDX 84 47 29 48 30 49 31 50 78 51 32 52 83 53 77 54 79 55 33 56
REMARK SMILES IDX 82 57 76 58 75 59 34 61 64 62 45 63 63 64 46 65 49 66 62 67
REMARK SMILES IDX 80 68 47 69 48 70 61 72 81 73 50 74 35 75 36 76 44 77 37 78
REMARK SMILES IDX 43 79 38 80 39 81 40 82 41 83 42 84 65 85 66 86 74 87 67 88
REMARK SMILES IDX 73 89 68 90 69 91 70 92 71 93 72 94 51 95 52 96 60 97 53 98
REMARK SMILES IDX 59 99 54 100 55 101 56 102 57 103 58 104
REMARK H PARENT 16 8 94 34 23 41 79 60 49 71
REMARK Flexibility Score: inf
ROOT
ATOM      1  C   UNL A   1      35.877  33.127  28.059  1.00  0.00     0.002 C 
ENDROOT
BRANCH   1   2
ATOM      2  C   UNL A   1      35.398  31.762  28.563  1.00  0.00     0.002 C 
BRANCH   2   3
ATOM      3  C   UNL A   1      34.573  30.946  27.558  1.00  0.00     0.021 C 
BRANCH   3   4
ATOM      4  C   UNL A   1      34.743  29.430  27.681  1.00  0.00     0.116 C 
BRANCH   4   5
ATOM      5  N   UNL A   1      33.454  28.787  27.841  1.00  0.00    -0.355 N 
ATOM      6  C   UNL A   1      32.764  27.956  27.013  1.00  0.00     0.230 C 
ATOM      7  O   UNL A   1      31.614  27.680  27.358  1.00  0.00    -0.274 OA
ATOM      8  H   UNL A   1      33.000  28.984  28.692  1.00  0.00     0.163 HD
BRANCH   6   9
ATOM      9  C   UNL A   1      33.429  27.427  25.748  1.00  0.00     0.136 C 
ATOM     10  C   UNL A   1      32.871  23.237  24.764  1.00  0.00     0.161 A 
ATOM     11  C   UNL A   1      33.351  24.158  23.825  1.00  0.00     0.064 A 
ATOM     12  C   UNL A   1      32.626  23.653  26.076  1.00  0.00     0.161 A 
ATOM     13  C   UNL A   1      33.580  25.489  24.178  1.00  0.00     0.048 A 
ATOM     14  C   UNL A   1      32.864  24.996  26.417  1.00  0.00     0.056 A 
ATOM     15  C   UNL A   1      33.278  25.940  25.468  1.00  0.00    -0.016 A 
ATOM     16  C   UNL A   1      34.103  26.430  23.144  1.00  0.00     0.254 C 
ATOM     17  N   UNL A   1      33.894  27.789  23.373  1.00  0.00    -0.333 N 
ATOM     18  O   UNL A   1      34.646  25.988  22.134  1.00  0.00    -0.269 OA
ATOM     19  C   UNL A   1      33.011  28.228  24.475  1.00  0.00     0.132 C 
ATOM     20  C   UNL A   1      34.325  28.744  22.368  1.00  0.00     0.147 C 
BRANCH  10  21
ATOM     21  O   UNL A   1      32.518  21.989  24.328  1.00  0.00    -0.490 OA
BRANCH  21  22
ATOM     22  C   UNL A   1      31.670  21.982  23.174  1.00  0.00     0.226 C 
ATOM     23  C   UNL A   1      30.727  23.173  23.162  1.00  0.00     0.049 C 
ENDBRANCH  21  22
ENDBRANCH  10  21
BRANCH  12  24
ATOM     24  O   UNL A   1      32.148  22.943  27.142  1.00  0.00    -0.490 OA
BRANCH  24  25
ATOM     25  C   UNL A   1      33.025  22.392  28.114  1.00  0.00     0.226 C 
ATOM     26  C   UNL A   1      34.246  21.762  27.465  1.00  0.00     0.049 C 
ENDBRANCH  24  25
ENDBRANCH  12  24
BRANCH  19  27
ATOM     27  C   UNL A   1      31.521  28.147  24.096  1.00  0.00    -0.020 A 
ATOM     28  C   UNL A   1      30.837  29.295  23.675  1.00  0.00     0.010 A 
ATOM     29  C   UNL A   1      30.779  26.953  24.163  1.00  0.00     0.056 A 
ATOM     30  C   UNL A   1      29.459  29.267  23.434  1.00  0.00     0.051 A 
ATOM     31  C   UNL A   1      29.400  26.920  23.904  1.00  0.00     0.157 A 
ATOM     32  C   UNL A   1      28.721  28.087  23.556  1.00  0.00     0.160 A 
BRANCH  31  33
ATOM     33  O   UNL A   1      28.757  25.717  24.015  1.00  0.00    -0.504 OA
ATOM     34  H   UNL A   1      27.894  25.678  24.376  1.00  0.00     0.293 HD
ENDBRANCH  31  33
BRANCH  32  35
ATOM     35  O   UNL A   1      27.387  28.258  23.309  1.00  0.00    -0.493 OA
ATOM     36  C   UNL A   1      26.999  29.323  22.457  1.00  0.00     0.278 C 
ENDBRANCH  32  35
ENDBRANCH  19  27
ENDBRANCH   6   9
ENDBRANCH   4   5
ENDBRANCH   3   4
ENDBRANCH   2   3
ENDBRANCH   1   2
BRANCH   1  37
ATOM     37  C   UNL A   1      34.807  34.218  28.044  1.00  0.00     0.021 C 
BRANCH  37  38
ATOM     38  C   UNL A   1      33.448  33.779  28.574  1.00  0.00     0.116 C 
BRANCH  38  39
ATOM     39  N   UNL A   1      32.883  34.744  29.501  1.00  0.00    -0.352 N 
ATOM     40  C   UNL A   1      33.212  34.976  30.812  1.00  0.00     0.251 C 
ATOM     41  H   UNL A   1      32.163  35.310  29.138  1.00  0.00     0.163 HD
ATOM     42  O   UNL A   1      32.499  35.702  31.502  1.00  0.00    -0.269 OA
BRANCH  40  43
ATOM     43  C   UNL A   1      34.411  34.338  31.397  1.00  0.00     0.039 A 
ATOM     44  C   UNL A   1      34.278  33.098  32.026  1.00  0.00     0.014 A 
ATOM     45  C   UNL A   1      35.660  34.963  31.338  1.00  0.00     0.014 A 
ATOM     46  C   UNL A   1      35.404  32.471  32.565  1.00  0.00     0.010 A 
ATOM     47  C   UNL A   1      36.793  34.298  31.797  1.00  0.00     0.010 A 
ATOM     48  C   UNL A   1      36.675  33.056  32.436  1.00  0.00    -0.014 A 
BRANCH  48  49
ATOM     49  C   UNL A   1      37.882  32.399  33.002  1.00  0.00     0.031 A 
ATOM     50  C   UNL A   1      38.566  31.295  32.239  1.00  0.00     0.074 A 
ATOM     51  C   UNL A   1      38.343  32.769  34.214  1.00  0.00     0.049 A 
ATOM     52  N   UNL A   1      39.621  30.593  32.571  1.00  0.00    -0.248 NA
ATOM     53  C   UNL A   1      37.976  30.909  30.947  1.00  0.00     0.031 C 
ATOM     54  C   UNL A   1      37.746  33.798  35.069  1.00  0.00     0.029 A 
ATOM     55  N   UNL A   1      39.423  32.325  34.933  1.00  0.00    -0.354 N 
ATOM     56  C   UNL A   1      39.809  29.681  31.539  1.00  0.00     0.074 A 
ATOM     57  C   UNL A   1      38.724  29.872  30.603  1.00  0.00     0.031 C 
ATOM     58  C   UNL A   1      38.491  33.932  36.179  1.00  0.00     0.029 A 
ATOM     59  C   UNL A   1      39.593  32.975  36.134  1.00  0.00     0.049 A 
ATOM     60  H   UNL A   1      40.022  31.609  34.620  1.00  0.00     0.167 HD
ATOM     61  C   UNL A   1      40.808  28.781  31.369  1.00  0.00     0.031 A 
ATOM     62  C   UNL A   1      40.530  32.821  37.088  1.00  0.00     0.031 A 
ATOM     63  C   UNL A   1      41.891  28.597  32.299  1.00  0.00     0.049 A 
ATOM     64  C   UNL A   1      41.625  31.810  36.883  1.00  0.00     0.074 A 
ATOM     65  C   UNL A   1      42.976  27.746  32.198  1.00  0.00     0.029 A 
ATOM     66  N   UNL A   1      42.026  29.277  33.500  1.00  0.00    -0.354 N 
ATOM     67  N   UNL A   1      41.819  30.997  35.871  1.00  0.00    -0.248 NA
ATOM     68  C   UNL A   1      42.641  31.711  37.939  1.00  0.00     0.031 C 
ATOM     69  C   UNL A   1      43.738  27.870  33.365  1.00  0.00     0.029 A 
ATOM     70  C   UNL A   1      43.166  28.850  34.160  1.00  0.00     0.049 A 
ATOM     71  H   UNL A   1      41.403  29.963  33.834  1.00  0.00     0.167 HD
ATOM     72  C   UNL A   1      43.000  30.317  36.153  1.00  0.00     0.074 A 
ATOM     73  C   UNL A   1      43.480  30.825  37.421  1.00  0.00     0.031 C 
ATOM     74  C   UNL A   1      43.632  29.363  35.424  1.00  0.00     0.031 A 
BRANCH  61  75
ATOM     75  C   UNL A   1      40.766  27.921  30.130  1.00  0.00    -0.014 A 
ATOM     76  C   UNL A   1      39.753  26.962  29.941  1.00  0.00     0.010 A 
ATOM     77  C   UNL A   1      41.739  28.092  29.128  1.00  0.00     0.010 A 
ATOM     78  C   UNL A   1      39.742  26.157  28.799  1.00  0.00     0.020 A 
ATOM     79  C   UNL A   1      41.711  27.313  27.968  1.00  0.00     0.020 A 
ATOM     80  C   UNL A   1      40.724  26.335  27.821  1.00  0.00     0.054 A 
BRANCH  80  81
ATOM     81  S   UNL A   1      40.676  25.286  26.342  1.00  0.00     0.124 S 
ATOM     82  O   UNL A   1      41.019  26.240  25.288  1.00  0.00    -0.237 OA
ATOM     83  O   UNL A   1      41.694  24.279  26.631  1.00  0.00    -0.237 OA
ATOM     84  O   UNL A   1      39.303  24.791  26.311  1.00  0.00    -0.744 OA
ENDBRANCH  80  81
ENDBRANCH  61  75
BRANCH  62  85
ATOM     85  C   UNL A   1      40.492  33.667  38.313  1.00  0.00    -0.014 A 
ATOM     86  C   UNL A   1      39.817  33.227  39.467  1.00  0.00     0.010 A 
ATOM     87  C   UNL A   1      41.139  34.916  38.336  1.00  0.00     0.010 A 
ATOM     88  C   UNL A   1      39.772  34.029  40.611  1.00  0.00     0.020 A 
ATOM     89  C   UNL A   1      41.122  35.707  39.489  1.00  0.00     0.020 A 
ATOM     90  C   UNL A   1      40.427  35.263  40.616  1.00  0.00     0.054 A 
BRANCH  90  91
ATOM     91  S   UNL A   1      40.396  36.264  42.129  1.00  0.00     0.124 S 
ATOM     92  O   UNL A   1      41.301  37.358  41.788  1.00  0.00    -0.237 OA
ATOM     93  O   UNL A   1      38.983  36.621  42.240  1.00  0.00    -0.237 OA
ATOM     94  O   UNL A   1      40.881  35.346  43.156  1.00  0.00    -0.744 OA
ENDBRANCH  90  91
ENDBRANCH  62  85
BRANCH  74  95
ATOM     95  C   UNL A   1      44.943  28.842  35.954  1.00  0.00    -0.014 A 
ATOM     96  C   UNL A   1      45.004  27.714  36.792  1.00  0.00     0.010 A 
ATOM     97  C   UNL A   1      46.140  29.481  35.579  1.00  0.00     0.010 A 
ATOM     98  C   UNL A   1      46.233  27.266  37.284  1.00  0.00     0.020 A 
ATOM     99  C   UNL A   1      47.373  29.015  36.040  1.00  0.00     0.020 A 
ATOM    100  C   UNL A   1      47.410  27.922  36.908  1.00  0.00     0.054 A 
BRANCH 100 101
ATOM    101  S   UNL A   1      48.993  27.311  37.545  1.00  0.00     0.124 S 
ATOM    102  O   UNL A   1      48.660  25.941  37.925  1.00  0.00    -0.237 OA
ATOM    103  O   UNL A   1      49.877  27.445  36.389  1.00  0.00    -0.237 OA
ATOM    104  O   UNL A   1      49.291  28.211  38.657  1.00  0.00    -0.744 OA
ENDBRANCH 100 101
ENDBRANCH  74  95
ENDBRANCH  48  49
ENDBRANCH  40  43
ENDBRANCH  38  39
ENDBRANCH  37  38
ENDBRANCH   1  37
TORSDOF 23
ENDMDL
MODEL 3
REMARK VINA RESULT:      -8.6      5.328     14.214
REMARK SMILES CCOc1cc2c(cc1OCC)[C@H](C(=O)NCCCCCCNC(=O)c1ccc(-c3c4nc(c(-c5ccc(S(=O)(=O)[O-])cc5)c5ccc([nH]5)c(-c5ccc(S(=O)(=O)[O-])cc5)c5nc(c(-c6ccc(S(=O)(=O)[O-])cc6)c6ccc3[nH]6)C=C5)C=C4)cc1)[C@H](c1ccc(OC)c(O)c1)N(C)C2=O
REMARK SMILES IDX 20 1 19 2 18 3 17 4 16 5 14 6 15 7 13 9 4 10 5 11 9 12 6 13
REMARK SMILES IDX 8 14 7 15 98 16 96 17 99 18 86 19 97 20 3 21 2 22 1 23 10 24
REMARK SMILES IDX 11 25 12 26 87 27 88 28 95 29 89 30 93 31 90 32 94 33 91 35
REMARK SMILES IDX 92 36 21 37 22 38 23 39 24 40 25 42 26 43 27 44 85 45 28 46
REMARK SMILES IDX 84 47 29 48 30 49 31 50 78 51 32 52 83 53 77 54 79 55 33 56
REMARK SMILES IDX 82 57 76 58 75 59 34 61 64 62 45 63 63 64 46 65 49 66 62 67
REMARK SMILES IDX 80 68 47 69 48 70 61 72 81 73 50 74 35 75 36 76 44 77 37 78
REMARK SMILES IDX 43 79 38 80 39 81 40 82 41 83 42 84 65 85 66 86 74 87 67 88
REMARK SMILES IDX 73 89 68 90 69 91 70 92 71 93 72 94 51 95 52 96 60 97 53 98
REMARK SMILES IDX 59 99 54 100 55 101 56 102 57 103 58 104
REMARK H PARENT 16 8 94 34 23 41 79 60 49 71
REMARK Flexibility Score: inf
ROOT
ATOM      1  C   UNL A   1      40.433  24.945  26.711  1.00  0.00     0.002 C 
ENDROOT
BRANCH   1   2
ATOM      2  C   UNL A   1      40.381  23.416  26.777  1.00  0.00     0.002 C 
BRANCH   2   3
ATOM      3  C   UNL A   1      39.030  22.790  26.400  1.00  0.00     0.021 C 
BRANCH   3   4
ATOM      4  C   UNL A   1      37.966  23.798  25.961  1.00  0.00     0.116 C 
BRANCH   4   5
ATOM      5  N   UNL A   1      37.471  23.468  24.639  1.00  0.00    -0.355 N 
ATOM      6  C   UNL A   1      36.200  23.370  24.162  1.00  0.00     0.230 C 
ATOM      7  O   UNL A   1      36.083  22.924  23.020  1.00  0.00    -0.274 OA
ATOM      8  H   UNL A   1      38.172  23.284  23.973  1.00  0.00     0.163 HD
BRANCH   6   9
ATOM      9  C   UNL A   1      35.029  23.804  25.036  1.00  0.00     0.136 C 
ATOM     10  C   UNL A   1      31.666  25.747  23.101  1.00  0.00     0.161 A 
ATOM     11  C   UNL A   1      31.574  25.233  24.400  1.00  0.00     0.064 A 
ATOM     12  C   UNL A   1      32.889  25.700  22.425  1.00  0.00     0.161 A 
ATOM     13  C   UNL A   1      32.684  24.665  25.027  1.00  0.00     0.048 A 
ATOM     14  C   UNL A   1      33.998  25.127  23.070  1.00  0.00     0.056 A 
ATOM     15  C   UNL A   1      33.899  24.549  24.342  1.00  0.00    -0.016 A 
ATOM     16  C   UNL A   1      32.537  24.141  26.417  1.00  0.00     0.254 C 
ATOM     17  N   UNL A   1      33.481  23.204  26.834  1.00  0.00    -0.333 N 
ATOM     18  O   UNL A   1      31.594  24.509  27.114  1.00  0.00    -0.269 OA
ATOM     19  C   UNL A   1      34.429  22.621  25.858  1.00  0.00     0.132 C 
ATOM     20  C   UNL A   1      33.348  22.614  28.154  1.00  0.00     0.147 C 
BRANCH  10  21
ATOM     21  O   UNL A   1      30.516  26.149  22.478  1.00  0.00    -0.490 OA
BRANCH  21  22
ATOM     22  C   UNL A   1      30.343  27.568  22.409  1.00  0.00     0.226 C 
ATOM     23  C   UNL A   1      29.186  28.036  23.277  1.00  0.00     0.049 C 
ENDBRANCH  21  22
ENDBRANCH  10  21
BRANCH  12  24
ATOM     24  O   UNL A   1      33.206  26.119  21.163  1.00  0.00    -0.490 OA
BRANCH  24  25
ATOM     25  C   UNL A   1      33.082  25.252  20.045  1.00  0.00     0.226 C 
ATOM     26  C   UNL A   1      31.889  25.626  19.182  1.00  0.00     0.049 C 
ENDBRANCH  24  25
ENDBRANCH  12  24
BRANCH  19  27
ATOM     27  C   UNL A   1      33.792  21.489  25.032  1.00  0.00    -0.020 A 
ATOM     28  C   UNL A   1      34.095  20.152  25.316  1.00  0.00     0.010 A 
ATOM     29  C   UNL A   1      32.906  21.728  23.965  1.00  0.00     0.056 A 
ATOM     30  C   UNL A   1      33.616  19.115  24.508  1.00  0.00     0.051 A 
ATOM     31  C   UNL A   1      32.410  20.687  23.164  1.00  0.00     0.157 A 
ATOM     32  C   UNL A   1      32.780  19.367  23.417  1.00  0.00     0.160 A 
BRANCH  31  33
ATOM     33  O   UNL A   1      31.571  21.017  22.135  1.00  0.00    -0.504 OA
ATOM     34  H   UNL A   1      31.894  21.038  21.256  1.00  0.00     0.293 HD
ENDBRANCH  31  33
BRANCH  32  35
ATOM     35  O   UNL A   1      32.436  18.237  22.729  1.00  0.00    -0.493 OA
ATOM     36  C   UNL A   1      33.119  17.033  23.042  1.00  0.00     0.278 C 
ENDBRANCH  32  35
ENDBRANCH  19  27
ENDBRANCH   6   9
ENDBRANCH   4   5
ENDBRANCH   3   4
ENDBRANCH   2   3
ENDBRANCH   1   2
BRANCH   1  37
ATOM     37  C   UNL A   1      40.918  25.515  25.379  1.00  0.00     0.021 C 
BRANCH  37  38
ATOM     38  C   UNL A   1      42.175  26.371  25.476  1.00  0.00     0.116 C 
BRANCH  38  39
ATOM     39  N   UNL A   1      43.348  25.586  25.823  1.00  0.00    -0.352 N 
ATOM     40  C   UNL A   1      44.150  25.678  26.932  1.00  0.00     0.251 C 
ATOM     41  H   UNL A   1      43.602  24.893  25.171  1.00  0.00     0.163 HD
ATOM     42  O   UNL A   1      45.212  25.061  26.970  1.00  0.00    -0.269 OA
BRANCH  40  43
ATOM     43  C   UNL A   1      43.744  26.532  28.069  1.00  0.00     0.039 A 
ATOM     44  C   UNL A   1      42.961  25.979  29.084  1.00  0.00     0.014 A 
ATOM     45  C   UNL A   1      44.120  27.877  28.129  1.00  0.00     0.014 A 
ATOM     46  C   UNL A   1      42.587  26.765  30.177  1.00  0.00     0.010 A 
ATOM     47  C   UNL A   1      43.821  28.634  29.258  1.00  0.00     0.010 A 
ATOM     48  C   UNL A   1      43.032  28.094  30.283  1.00  0.00    -0.014 A 
BRANCH  48  49
ATOM     49  C   UNL A   1      42.643  28.941  31.440  1.00  0.00     0.031 A 
ATOM     50  C   UNL A   1      41.399  29.790  31.369  1.00  0.00     0.074 A 
ATOM     51  C   UNL A   1      43.422  28.977  32.539  1.00  0.00     0.049 A 
ATOM     52  N   UNL A   1      40.901  30.602  32.267  1.00  0.00    -0.248 NA
ATOM     53  C   UNL A   1      40.626  29.739  30.116  1.00  0.00     0.031 C 
ATOM     54  C   UNL A   1      44.671  28.233  32.717  1.00  0.00     0.029 A 
ATOM     55  N   UNL A   1      43.275  29.663  33.719  1.00  0.00    -0.354 N 
ATOM     56  C   UNL A   1      39.772  31.165  31.685  1.00  0.00     0.074 A 
ATOM     57  C   UNL A   1      39.693  30.653  30.335  1.00  0.00     0.031 C 
ATOM     58  C   UNL A   1      45.155  28.473  33.947  1.00  0.00     0.029 A 
ATOM     59  C   UNL A   1      44.274  29.416  34.630  1.00  0.00     0.049 A 
ATOM     60  H   UNL A   1      42.523  30.274  33.896  1.00  0.00     0.167 HD
ATOM     61  C   UNL A   1      38.864  32.011  32.229  1.00  0.00     0.031 A 
ATOM     62  C   UNL A   1      44.460  29.891  35.877  1.00  0.00     0.031 A 
ATOM     63  C   UNL A   1      38.941  32.513  33.576  1.00  0.00     0.049 A 
ATOM     64  C   UNL A   1      43.445  30.837  36.459  1.00  0.00     0.074 A 
ATOM     65  C   UNL A   1      38.050  33.338  34.238  1.00  0.00     0.029 A 
ATOM     66  N   UNL A   1      39.967  32.237  34.466  1.00  0.00    -0.354 N 
ATOM     67  N   UNL A   1      42.350  31.312  35.912  1.00  0.00    -0.248 NA
ATOM     68  C   UNL A   1      43.679  31.294  37.835  1.00  0.00     0.031 C 
ATOM     69  C   UNL A   1      38.567  33.606  35.510  1.00  0.00     0.029 A 
ATOM     70  C   UNL A   1      39.743  32.891  35.665  1.00  0.00     0.049 A 
ATOM     71  H   UNL A   1      40.742  31.660  34.273  1.00  0.00     0.167 HD
ATOM     72  C   UNL A   1      41.746  32.094  36.892  1.00  0.00     0.074 A 
ATOM     73  C   UNL A   1      42.590  32.016  38.066  1.00  0.00     0.031 C 
ATOM     74  C   UNL A   1      40.594  32.806  36.826  1.00  0.00     0.031 A 
BRANCH  61  75
ATOM     75  C   UNL A   1      37.714  32.451  31.358  1.00  0.00    -0.014 A 
ATOM     76  C   UNL A   1      37.839  33.545  30.481  1.00  0.00     0.010 A 
ATOM     77  C   UNL A   1      36.497  31.745  31.398  1.00  0.00     0.010 A 
ATOM     78  C   UNL A   1      36.757  33.955  29.699  1.00  0.00     0.020 A 
ATOM     79  C   UNL A   1      35.422  32.131  30.592  1.00  0.00     0.020 A 
ATOM     80  C   UNL A   1      35.553  33.247  29.762  1.00  0.00     0.054 A 
BRANCH  80  81
ATOM     81  S   UNL A   1      34.169  33.793  28.725  1.00  0.00     0.124 S 
ATOM     82  O   UNL A   1      33.736  32.535  28.118  1.00  0.00    -0.237 OA
ATOM     83  O   UNL A   1      33.247  34.370  29.699  1.00  0.00    -0.237 OA
ATOM     84  O   UNL A   1      34.780  34.749  27.805  1.00  0.00    -0.744 OA
ENDBRANCH  80  81
ENDBRANCH  61  75
BRANCH  62  85
ATOM     85  C   UNL A   1      45.642  29.456  36.671  1.00  0.00    -0.014 A 
ATOM     86  C   UNL A   1      45.574  28.314  37.490  1.00  0.00     0.010 A 
ATOM     87  C   UNL A   1      46.849  30.176  36.605  1.00  0.00     0.010 A 
ATOM     88  C   UNL A   1      46.681  27.915  38.244  1.00  0.00     0.020 A 
ATOM     89  C   UNL A   1      47.968  29.762  37.333  1.00  0.00     0.020 A 
ATOM     90  C   UNL A   1      47.872  28.640  38.159  1.00  0.00     0.054 A 
BRANCH  90  91
ATOM     91  S   UNL A   1      49.311  28.074  39.108  1.00  0.00     0.124 S 
ATOM     92  O   UNL A   1      50.314  27.893  38.063  1.00  0.00    -0.237 OA
ATOM     93  O   UNL A   1      49.542  29.190  40.023  1.00  0.00    -0.237 OA
ATOM     94  O   UNL A   1      48.840  26.846  39.744  1.00  0.00    -0.744 OA
ENDBRANCH  90  91
ENDBRANCH  62  85
BRANCH  74  95
ATOM     95  C   UNL A   1      40.148  33.518  38.078  1.00  0.00    -0.014 A 
ATOM     96  C   UNL A   1      39.040  33.078  38.823  1.00  0.00     0.010 A 
ATOM     97  C   UNL A   1      40.876  34.635  38.530  1.00  0.00     0.010 A 
ATOM     98  C   UNL A   1      38.639  33.771  39.968  1.00  0.00     0.020 A 
ATOM     99  C   UNL A   1      40.500  35.309  39.693  1.00  0.00     0.020 A 
ATOM    100  C   UNL A   1      39.369  34.884  40.394  1.00  0.00     0.054 A 
BRANCH 100 101
ATOM    101  S   UNL A   1      38.839  35.757  41.893  1.00  0.00     0.124 S 
ATOM    102  O   UNL A   1      37.481  35.251  42.074  1.00  0.00    -0.237 OA
ATOM    103  O   UNL A   1      39.814  35.309  42.885  1.00  0.00    -0.237 OA
ATOM    104  O   UNL A   1      38.935  37.168  41.525  1.00  0.00    -0.744 OA
ENDBRANCH 100 101
ENDBRANCH  74  95
ENDBRANCH  48  49
ENDBRANCH  40  43
ENDBRANCH  38  39
ENDBRANCH  37  38
ENDBRANCH   1  37
TORSDOF 23
ENDMDL
