MODEL 1
REMARK VINA RESULT:     -12.7      0.000      0.000
REMARK SMILES Cc1cc(S(=O)(=O)Nc2ccc(Cl)cc2F)ccc1OCC(=O)NCCCCCCNC(=O)c1ccc(-c2c3nc(c(-c4ccc(S(=O)(=O)[O-])cc4)c4ccc([nH]4)c(-c4ccc(S(=O)(=O)[O-])cc4)c4nc(c(-c5ccc(S(=O)(=O)[O-])cc5)c5ccc2[nH]5)C=C4)C=C3)cc1
REMARK SMILES IDX 26 1 25 2 24 3 22 4 23 5 21 7 20 8 19 9 1 10 2 11 3 12 4 13
REMARK SMILES IDX 18 14 17 15 5 16 6 17 7 18 8 19 9 21 10 22 15 23 11 24 14 25
REMARK SMILES IDX 16 26 12 27 13 28 27 29 28 30 29 31 30 32 31 33 32 34 33 36
REMARK SMILES IDX 34 37 35 38 93 39 36 40 92 41 37 42 38 43 39 44 86 45 40 46
REMARK SMILES IDX 91 47 85 48 87 49 41 50 90 51 84 52 83 53 42 55 72 56 53 57
REMARK SMILES IDX 71 58 54 59 57 60 70 61 88 62 55 63 56 64 69 66 89 67 58 68
REMARK SMILES IDX 43 69 44 70 52 71 45 72 51 73 46 74 47 75 48 76 49 77 50 78
REMARK SMILES IDX 73 79 74 80 82 81 75 82 81 83 76 84 77 85 78 86 79 87 80 88
REMARK SMILES IDX 59 89 60 90 68 91 61 92 67 93 62 94 63 95 64 96 65 97 66 98
REMARK H PARENT 24 6 8 20 31 35 87 54 57 65
REMARK Flexibility Score: inf
ROOT
ATOM      1  C   UNL A   1      35.908  22.178  24.468  1.00  0.00     0.021 C 
ENDROOT
BRANCH   1   2
ATOM      2  C   UNL A   1      35.110  21.322  25.449  1.00  0.00     0.116 C 
BRANCH   2   3
ATOM      3  N   UNL A   1      35.053  19.924  25.072  1.00  0.00    -0.353 N 
ATOM      4  C   UNL A   1      33.994  19.232  24.557  1.00  0.00     0.257 C 
ATOM      5  O   UNL A   1      34.179  18.104  24.097  1.00  0.00    -0.271 OA
ATOM      6  H   UNL A   1      35.881  19.408  25.204  1.00  0.00     0.163 HD
BRANCH   4   7
ATOM      7  C   UNL A   1      32.621  19.903  24.498  1.00  0.00     0.329 C 
BRANCH   7   8
ATOM      8  O   UNL A   1      32.346  20.786  23.432  1.00  0.00    -0.484 OA
BRANCH   8   9
ATOM      9  C   UNL A   1      32.385  22.140  23.593  1.00  0.00     0.123 A 
ATOM     10  C   UNL A   1      31.283  22.416  25.915  1.00  0.00     0.048 C 
ATOM     11  C   UNL A   1      31.849  22.926  24.622  1.00  0.00    -0.008 A 
ATOM     12  C   UNL A   1      31.835  24.329  24.451  1.00  0.00     0.029 A 
ATOM     13  C   UNL A   1      32.367  24.943  23.310  1.00  0.00     0.088 A 
ATOM     14  C   UNL A   1      32.970  22.775  22.485  1.00  0.00     0.048 A 
ATOM     15  C   UNL A   1      33.017  24.164  22.365  1.00  0.00     0.026 A 
BRANCH  13  16
ATOM     16  S   UNL A   1      32.027  26.680  23.109  1.00  0.00     0.262 S 
ATOM     17  O   UNL A   1      33.252  27.311  22.661  1.00  0.00    -0.201 OA
ATOM     18  O   UNL A   1      30.831  26.760  22.294  1.00  0.00    -0.201 OA
BRANCH  16  19
ATOM     19  N   UNL A   1      31.585  27.352  24.578  1.00  0.00    -0.277 N 
ATOM     20  H   UNL A   1      30.735  27.049  24.973  1.00  0.00     0.180 HD
BRANCH  19  21
ATOM     21  C   UNL A   1      32.332  28.322  25.307  1.00  0.00     0.085 A 
ATOM     22  C   UNL A   1      31.802  29.618  25.313  1.00  0.00     0.031 A 
ATOM     23  C   UNL A   1      33.479  28.062  26.070  1.00  0.00     0.148 A 
ATOM     24  C   UNL A   1      32.325  30.595  26.165  1.00  0.00     0.023 A 
ATOM     25  C   UNL A   1      34.001  29.030  26.926  1.00  0.00     0.062 A 
ATOM     26  F   UNL A   1      34.050  26.851  26.076  1.00  0.00    -0.205 F 
ATOM     27  C   UNL A   1      33.402  30.285  26.990  1.00  0.00     0.044 A 
ATOM     28  Cl  UNL A   1      33.970  31.442  28.128  1.00  0.00    -0.084 Cl
ENDBRANCH  19  21
ENDBRANCH  16  19
ENDBRANCH  13  16
ENDBRANCH   8   9
ENDBRANCH   7   8
ENDBRANCH   4   7
ENDBRANCH   2   3
ENDBRANCH   1   2
BRANCH   1  29
ATOM     29  C   UNL A   1      37.318  22.585  24.912  1.00  0.00     0.002 C 
BRANCH  29  30
ATOM     30  C   UNL A   1      38.261  21.467  25.373  1.00  0.00     0.002 C 
BRANCH  30  31
ATOM     31  C   UNL A   1      39.243  21.803  26.494  1.00  0.00     0.021 C 
BRANCH  31  32
ATOM     32  C   UNL A   1      39.488  23.294  26.686  1.00  0.00     0.116 C 
BRANCH  32  33
ATOM     33  N   UNL A   1      40.872  23.679  26.426  1.00  0.00    -0.352 N 
ATOM     34  C   UNL A   1      41.437  24.943  26.452  1.00  0.00     0.251 C 
ATOM     35  H   UNL A   1      41.486  22.941  26.204  1.00  0.00     0.163 HD
ATOM     36  O   UNL A   1      42.570  25.180  26.076  1.00  0.00    -0.269 OA
BRANCH  34  37
ATOM     37  C   UNL A   1      40.652  25.997  27.124  1.00  0.00     0.039 A 
ATOM     38  C   UNL A   1      40.558  27.224  26.458  1.00  0.00     0.014 A 
ATOM     39  C   UNL A   1      40.340  25.876  28.474  1.00  0.00     0.014 A 
ATOM     40  C   UNL A   1      40.361  28.378  27.201  1.00  0.00     0.010 A 
ATOM     41  C   UNL A   1      40.257  27.029  29.226  1.00  0.00     0.010 A 
ATOM     42  C   UNL A   1      40.327  28.275  28.593  1.00  0.00    -0.014 A 
BRANCH  42  43
ATOM     43  C   UNL A   1      40.423  29.440  29.460  1.00  0.00     0.031 A 
ATOM     44  C   UNL A   1      39.336  30.438  29.424  1.00  0.00     0.074 A 
ATOM     45  C   UNL A   1      41.501  29.610  30.258  1.00  0.00     0.049 A 
ATOM     46  N   UNL A   1      39.488  31.694  29.677  1.00  0.00    -0.248 NA
ATOM     47  C   UNL A   1      37.975  30.086  29.026  1.00  0.00     0.031 C 
ATOM     48  C   UNL A   1      41.689  30.645  31.271  1.00  0.00     0.029 A 
ATOM     49  N   UNL A   1      42.765  29.021  30.139  1.00  0.00    -0.354 N 
ATOM     50  C   UNL A   1      38.231  32.252  29.738  1.00  0.00     0.074 A 
ATOM     51  C   UNL A   1      37.329  31.230  29.263  1.00  0.00     0.031 C 
ATOM     52  C   UNL A   1      43.007  30.845  31.432  1.00  0.00     0.029 A 
ATOM     53  C   UNL A   1      43.694  30.027  30.444  1.00  0.00     0.049 A 
ATOM     54  H   UNL A   1      42.962  28.089  29.893  1.00  0.00     0.167 HD
ATOM     55  C   UNL A   1      38.055  33.471  30.318  1.00  0.00     0.031 A 
ATOM     56  C   UNL A   1      44.626  30.481  29.556  1.00  0.00     0.031 A 
ATOM     57  C   UNL A   1      39.326  34.070  30.701  1.00  0.00     0.049 A 
ATOM     58  C   UNL A   1      44.464  31.959  29.250  1.00  0.00     0.074 A 
ATOM     59  C   UNL A   1      40.036  34.095  31.891  1.00  0.00     0.029 A 
ATOM     60  N   UNL A   1      40.216  34.452  29.704  1.00  0.00    -0.354 N 
ATOM     61  N   UNL A   1      43.395  32.651  29.543  1.00  0.00    -0.248 NA
ATOM     62  C   UNL A   1      45.477  32.766  28.576  1.00  0.00     0.031 C 
ATOM     63  C   UNL A   1      41.395  34.368  31.580  1.00  0.00     0.029 A 
ATOM     64  C   UNL A   1      41.497  34.557  30.213  1.00  0.00     0.049 A 
ATOM     65  H   UNL A   1      39.968  34.623  28.766  1.00  0.00     0.167 HD
ATOM     66  C   UNL A   1      43.560  33.952  29.141  1.00  0.00     0.074 A 
ATOM     67  C   UNL A   1      44.883  33.974  28.543  1.00  0.00     0.031 C 
ATOM     68  C   UNL A   1      42.605  34.909  29.336  1.00  0.00     0.031 A 
BRANCH  55  69
ATOM     69  C   UNL A   1      36.700  33.908  30.813  1.00  0.00    -0.014 A 
ATOM     70  C   UNL A   1      35.656  34.112  29.889  1.00  0.00     0.010 A 
ATOM     71  C   UNL A   1      36.427  34.225  32.158  1.00  0.00     0.010 A 
ATOM     72  C   UNL A   1      34.445  34.709  30.266  1.00  0.00     0.020 A 
ATOM     73  C   UNL A   1      35.237  34.863  32.540  1.00  0.00     0.020 A 
ATOM     74  C   UNL A   1      34.256  35.113  31.586  1.00  0.00     0.054 A 
BRANCH  74  75
ATOM     75  S   UNL A   1      32.733  35.994  32.023  1.00  0.00     0.124 S 
ATOM     76  O   UNL A   1      32.362  36.628  30.759  1.00  0.00    -0.237 OA
ATOM     77  O   UNL A   1      31.862  34.909  32.463  1.00  0.00    -0.237 OA
ATOM     78  O   UNL A   1      33.157  36.919  33.073  1.00  0.00    -0.744 OA
ENDBRANCH  74  75
ENDBRANCH  55  69
BRANCH  56  79
ATOM     79  C   UNL A   1      45.173  29.445  28.637  1.00  0.00    -0.014 A 
ATOM     80  C   UNL A   1      44.399  29.115  27.502  1.00  0.00     0.010 A 
ATOM     81  C   UNL A   1      46.535  29.096  28.642  1.00  0.00     0.010 A 
ATOM     82  C   UNL A   1      44.995  28.589  26.350  1.00  0.00     0.020 A 
ATOM     83  C   UNL A   1      47.137  28.573  27.484  1.00  0.00     0.020 A 
ATOM     84  C   UNL A   1      46.373  28.383  26.328  1.00  0.00     0.054 A 
BRANCH  84  85
ATOM     85  S   UNL A   1      47.164  27.949  24.747  1.00  0.00     0.124 S 
ATOM     86  O   UNL A   1      46.648  26.607  24.487  1.00  0.00    -0.237 OA
ATOM     87  O   UNL A   1      46.662  28.993  23.855  1.00  0.00    -0.237 OA
ATOM     88  O   UNL A   1      48.588  28.018  25.058  1.00  0.00    -0.744 OA
ENDBRANCH  84  85
ENDBRANCH  56  79
BRANCH  68  89
ATOM     89  C   UNL A   1      42.637  36.313  28.780  1.00  0.00    -0.014 A 
ATOM     90  C   UNL A   1      43.393  37.359  29.330  1.00  0.00     0.010 A 
ATOM     91  C   UNL A   1      41.988  36.566  27.547  1.00  0.00     0.010 A 
ATOM     92  C   UNL A   1      43.461  38.612  28.703  1.00  0.00     0.020 A 
ATOM     93  C   UNL A   1      42.085  37.794  26.891  1.00  0.00     0.020 A 
ATOM     94  C   UNL A   1      42.808  38.822  27.486  1.00  0.00     0.054 A 
BRANCH  94  95
ATOM     95  S   UNL A   1      42.971  40.410  26.632  1.00  0.00     0.124 S 
ATOM     96  O   UNL A   1      43.213  41.326  27.745  1.00  0.00    -0.237 OA
ATOM     97  O   UNL A   1      44.109  40.192  25.742  1.00  0.00    -0.237 OA
ATOM     98  O   UNL A   1      41.684  40.566  25.959  1.00  0.00    -0.744 OA
ENDBRANCH  94  95
ENDBRANCH  68  89
ENDBRANCH  42  43
ENDBRANCH  34  37
ENDBRANCH  32  33
ENDBRANCH  31  32
ENDBRANCH  30  31
ENDBRANCH  29  30
ENDBRANCH   1  29
TORSDOF 21
ENDMDL
MODEL 2
REMARK VINA RESULT:     -12.5      1.643      2.055
REMARK SMILES Cc1cc(S(=O)(=O)Nc2ccc(Cl)cc2F)ccc1OCC(=O)NCCCCCCNC(=O)c1ccc(-c2c3nc(c(-c4ccc(S(=O)(=O)[O-])cc4)c4ccc([nH]4)c(-c4ccc(S(=O)(=O)[O-])cc4)c4nc(c(-c5ccc(S(=O)(=O)[O-])cc5)c5ccc2[nH]5)C=C4)C=C3)cc1
REMARK SMILES IDX 26 1 25 2 24 3 22 4 23 5 21 7 20 8 19 9 1 10 2 11 3 12 4 13
REMARK SMILES IDX 18 14 17 15 5 16 6 17 7 18 8 19 9 21 10 22 15 23 11 24 14 25
REMARK SMILES IDX 16 26 12 27 13 28 27 29 28 30 29 31 30 32 31 33 32 34 33 36
REMARK SMILES IDX 34 37 35 38 93 39 36 40 92 41 37 42 38 43 39 44 86 45 40 46
REMARK SMILES IDX 91 47 85 48 87 49 41 50 90 51 84 52 83 53 42 55 72 56 53 57
REMARK SMILES IDX 71 58 54 59 57 60 70 61 88 62 55 63 56 64 69 66 89 67 58 68
REMARK SMILES IDX 43 69 44 70 52 71 45 72 51 73 46 74 47 75 48 76 49 77 50 78
REMARK SMILES IDX 73 79 74 80 82 81 75 82 81 83 76 84 77 85 78 86 79 87 80 88
REMARK SMILES IDX 59 89 60 90 68 91 61 92 67 93 62 94 63 95 64 96 65 97 66 98
REMARK H PARENT 24 6 8 20 31 35 87 54 57 65
REMARK Flexibility Score: inf
ROOT
ATOM      1  C   UNL A   1      35.594  22.307  24.724  1.00  0.00     0.021 C 
ENDROOT
BRANCH   1   2
ATOM      2  C   UNL A   1      35.299  21.134  25.656  1.00  0.00     0.116 C 
BRANCH   2   3
ATOM      3  N   UNL A   1      35.039  19.895  24.950  1.00  0.00    -0.353 N 
ATOM      4  C   UNL A   1      33.841  19.263  24.772  1.00  0.00     0.257 C 
ATOM      5  O   UNL A   1      33.767  18.331  23.968  1.00  0.00    -0.271 OA
ATOM      6  H   UNL A   1      35.822  19.454  24.549  1.00  0.00     0.163 HD
BRANCH   4   7
ATOM      7  C   UNL A   1      32.607  19.774  25.517  1.00  0.00     0.329 C 
BRANCH   7   8
ATOM      8  O   UNL A   1      31.746  20.677  24.858  1.00  0.00    -0.484 OA
BRANCH   8   9
ATOM      9  C   UNL A   1      32.029  22.009  24.776  1.00  0.00     0.123 A 
ATOM     10  C   UNL A   1      32.231  22.648  27.272  1.00  0.00     0.048 C 
ATOM     11  C   UNL A   1      32.160  22.952  25.805  1.00  0.00    -0.008 A 
ATOM     12  C   UNL A   1      32.242  24.317  25.450  1.00  0.00     0.029 A 
ATOM     13  C   UNL A   1      32.228  24.740  24.114  1.00  0.00     0.088 A 
ATOM     14  C   UNL A   1      32.079  22.444  23.441  1.00  0.00     0.048 A 
ATOM     15  C   UNL A   1      32.236  23.789  23.105  1.00  0.00     0.026 A 
BRANCH  13  16
ATOM     16  S   UNL A   1      32.055  26.490  23.835  1.00  0.00     0.262 S 
ATOM     17  O   UNL A   1      31.772  27.106  25.115  1.00  0.00    -0.201 OA
ATOM     18  O   UNL A   1      33.227  26.891  23.082  1.00  0.00    -0.201 OA
BRANCH  16  19
ATOM     19  N   UNL A   1      30.768  26.783  22.803  1.00  0.00    -0.277 N 
ATOM     20  H   UNL A   1      30.554  26.083  22.144  1.00  0.00     0.180 HD
BRANCH  19  21
ATOM     21  C   UNL A   1      29.957  27.954  22.798  1.00  0.00     0.085 A 
ATOM     22  C   UNL A   1      30.562  29.110  22.288  1.00  0.00     0.031 A 
ATOM     23  C   UNL A   1      28.608  28.012  23.173  1.00  0.00     0.148 A 
ATOM     24  C   UNL A   1      29.802  30.255  22.033  1.00  0.00     0.023 A 
ATOM     25  C   UNL A   1      27.844  29.149  22.915  1.00  0.00     0.062 A 
ATOM     26  F   UNL A   1      27.986  26.949  23.698  1.00  0.00    -0.205 F 
ATOM     27  C   UNL A   1      28.440  30.256  22.319  1.00  0.00     0.044 A 
ATOM     28  Cl  UNL A   1      27.478  31.616  21.894  1.00  0.00    -0.084 Cl
ENDBRANCH  19  21
ENDBRANCH  16  19
ENDBRANCH  13  16
ENDBRANCH   8   9
ENDBRANCH   7   8
ENDBRANCH   4   7
ENDBRANCH   2   3
ENDBRANCH   1   2
BRANCH   1  29
ATOM     29  C   UNL A   1      37.062  22.733  24.611  1.00  0.00     0.002 C 
BRANCH  29  30
ATOM     30  C   UNL A   1      38.126  21.706  25.017  1.00  0.00     0.002 C 
BRANCH  30  31
ATOM     31  C   UNL A   1      38.889  21.970  26.316  1.00  0.00     0.021 C 
BRANCH  31  32
ATOM     32  C   UNL A   1      39.236  23.434  26.550  1.00  0.00     0.116 C 
BRANCH  32  33
ATOM     33  N   UNL A   1      40.674  23.686  26.520  1.00  0.00    -0.352 N 
ATOM     34  C   UNL A   1      41.344  24.886  26.684  1.00  0.00     0.251 C 
ATOM     35  H   UNL A   1      41.243  22.897  26.363  1.00  0.00     0.163 HD
ATOM     36  O   UNL A   1      42.539  25.020  26.494  1.00  0.00    -0.269 OA
BRANCH  34  37
ATOM     37  C   UNL A   1      40.567  25.995  27.272  1.00  0.00     0.039 A 
ATOM     38  C   UNL A   1      40.614  27.217  26.593  1.00  0.00     0.014 A 
ATOM     39  C   UNL A   1      40.123  25.909  28.587  1.00  0.00     0.014 A 
ATOM     40  C   UNL A   1      40.421  28.390  27.307  1.00  0.00     0.010 A 
ATOM     41  C   UNL A   1      40.041  27.074  29.321  1.00  0.00     0.010 A 
ATOM     42  C   UNL A   1      40.249  28.306  28.690  1.00  0.00    -0.014 A 
BRANCH  42  43
ATOM     43  C   UNL A   1      40.336  29.473  29.555  1.00  0.00     0.031 A 
ATOM     44  C   UNL A   1      39.253  30.475  29.500  1.00  0.00     0.074 A 
ATOM     45  C   UNL A   1      41.402  29.641  30.370  1.00  0.00     0.049 A 
ATOM     46  N   UNL A   1      39.405  31.730  29.752  1.00  0.00    -0.248 NA
ATOM     47  C   UNL A   1      37.897  30.127  29.081  1.00  0.00     0.031 C 
ATOM     48  C   UNL A   1      41.577  30.678  31.383  1.00  0.00     0.029 A 
ATOM     49  N   UNL A   1      42.665  29.047  30.273  1.00  0.00    -0.354 N 
ATOM     50  C   UNL A   1      38.150  32.293  29.792  1.00  0.00     0.074 A 
ATOM     51  C   UNL A   1      37.252  31.273  29.305  1.00  0.00     0.031 C 
ATOM     52  C   UNL A   1      42.893  30.873  31.565  1.00  0.00     0.029 A 
ATOM     53  C   UNL A   1      43.593  30.050  30.590  1.00  0.00     0.049 A 
ATOM     54  H   UNL A   1      42.862  28.114  30.032  1.00  0.00     0.167 HD
ATOM     55  C   UNL A   1      37.969  33.515  30.366  1.00  0.00     0.031 A 
ATOM     56  C   UNL A   1      44.540  30.498  29.715  1.00  0.00     0.031 A 
ATOM     57  C   UNL A   1      39.237  34.110  30.768  1.00  0.00     0.049 A 
ATOM     58  C   UNL A   1      44.388  31.976  29.403  1.00  0.00     0.074 A 
ATOM     59  C   UNL A   1      39.928  34.135  31.969  1.00  0.00     0.029 A 
ATOM     60  N   UNL A   1      40.144  34.486  29.784  1.00  0.00    -0.354 N 
ATOM     61  N   UNL A   1      43.318  32.673  29.678  1.00  0.00    -0.248 NA
ATOM     62  C   UNL A   1      45.415  32.778  28.743  1.00  0.00     0.031 C 
ATOM     63  C   UNL A   1      41.292  34.402  31.679  1.00  0.00     0.029 A 
ATOM     64  C   UNL A   1      41.417  34.587  30.313  1.00  0.00     0.049 A 
ATOM     65  H   UNL A   1      39.911  34.656  28.842  1.00  0.00     0.167 HD
ATOM     66  C   UNL A   1      43.494  33.972  29.276  1.00  0.00     0.074 A 
ATOM     67  C   UNL A   1      44.826  33.988  28.698  1.00  0.00     0.031 C 
ATOM     68  C   UNL A   1      42.540  34.933  29.452  1.00  0.00     0.031 A 
BRANCH  55  69
ATOM     69  C   UNL A   1      36.609  33.958  30.839  1.00  0.00    -0.014 A 
ATOM     70  C   UNL A   1      35.574  34.143  29.900  1.00  0.00     0.010 A 
ATOM     71  C   UNL A   1      36.321  34.299  32.175  1.00  0.00     0.010 A 
ATOM     72  C   UNL A   1      34.359  34.744  30.253  1.00  0.00     0.020 A 
ATOM     73  C   UNL A   1      35.126  34.941  32.533  1.00  0.00     0.020 A 
ATOM     74  C   UNL A   1      34.154  35.172  31.563  1.00  0.00     0.054 A 
BRANCH  74  75
ATOM     75  S   UNL A   1      32.626  36.058  31.968  1.00  0.00     0.124 S 
ATOM     76  O   UNL A   1      33.072  37.010  32.983  1.00  0.00    -0.237 OA
ATOM     77  O   UNL A   1      32.252  36.638  30.681  1.00  0.00    -0.237 OA
ATOM     78  O   UNL A   1      31.736  35.007  32.460  1.00  0.00    -0.744 OA
ENDBRANCH  74  75
ENDBRANCH  55  69
BRANCH  56  79
ATOM     79  C   UNL A   1      45.098  29.457  28.807  1.00  0.00    -0.014 A 
ATOM     80  C   UNL A   1      44.240  28.943  27.811  1.00  0.00     0.010 A 
ATOM     81  C   UNL A   1      46.483  29.272  28.658  1.00  0.00     0.010 A 
ATOM     82  C   UNL A   1      44.752  28.393  26.630  1.00  0.00     0.020 A 
ATOM     83  C   UNL A   1      47.001  28.725  27.471  1.00  0.00     0.020 A 
ATOM     84  C   UNL A   1      46.132  28.348  26.441  1.00  0.00     0.054 A 
BRANCH  84  85
ATOM     85  S   UNL A   1      46.773  27.875  24.805  1.00  0.00     0.124 S 
ATOM     86  O   UNL A   1      48.146  27.473  25.101  1.00  0.00    -0.237 OA
ATOM     87  O   UNL A   1      45.873  26.785  24.426  1.00  0.00    -0.237 OA
ATOM     88  O   UNL A   1      46.638  29.101  24.027  1.00  0.00    -0.744 OA
ENDBRANCH  84  85
ENDBRANCH  56  79
BRANCH  68  89
ATOM     89  C   UNL A   1      42.585  36.335  28.894  1.00  0.00    -0.014 A 
ATOM     90  C   UNL A   1      43.206  37.417  29.537  1.00  0.00     0.010 A 
ATOM     91  C   UNL A   1      42.109  36.554  27.578  1.00  0.00     0.010 A 
ATOM     92  C   UNL A   1      43.305  38.671  28.914  1.00  0.00     0.020 A 
ATOM     93  C   UNL A   1      42.242  37.784  26.932  1.00  0.00     0.020 A 
ATOM     94  C   UNL A   1      42.823  38.846  27.615  1.00  0.00     0.054 A 
BRANCH  94  95
ATOM     95  S   UNL A   1      43.034  40.438  26.778  1.00  0.00     0.124 S 
ATOM     96  O   UNL A   1      44.015  40.109  25.747  1.00  0.00    -0.237 OA
ATOM     97  O   UNL A   1      41.689  40.736  26.290  1.00  0.00    -0.237 OA
ATOM     98  O   UNL A   1      43.511  41.318  27.842  1.00  0.00    -0.744 OA
ENDBRANCH  94  95
ENDBRANCH  68  89
ENDBRANCH  42  43
ENDBRANCH  34  37
ENDBRANCH  32  33
ENDBRANCH  31  32
ENDBRANCH  30  31
ENDBRANCH  29  30
ENDBRANCH   1  29
TORSDOF 21
ENDMDL
MODEL 3
REMARK VINA RESULT:     -12.2      2.043      2.529
REMARK SMILES Cc1cc(S(=O)(=O)Nc2ccc(Cl)cc2F)ccc1OCC(=O)NCCCCCCNC(=O)c1ccc(-c2c3nc(c(-c4ccc(S(=O)(=O)[O-])cc4)c4ccc([nH]4)c(-c4ccc(S(=O)(=O)[O-])cc4)c4nc(c(-c5ccc(S(=O)(=O)[O-])cc5)c5ccc2[nH]5)C=C4)C=C3)cc1
REMARK SMILES IDX 26 1 25 2 24 3 22 4 23 5 21 7 20 8 19 9 1 10 2 11 3 12 4 13
REMARK SMILES IDX 18 14 17 15 5 16 6 17 7 18 8 19 9 21 10 22 15 23 11 24 14 25
REMARK SMILES IDX 16 26 12 27 13 28 27 29 28 30 29 31 30 32 31 33 32 34 33 36
REMARK SMILES IDX 34 37 35 38 93 39 36 40 92 41 37 42 38 43 39 44 86 45 40 46
REMARK SMILES IDX 91 47 85 48 87 49 41 50 90 51 84 52 83 53 42 55 72 56 53 57
REMARK SMILES IDX 71 58 54 59 57 60 70 61 88 62 55 63 56 64 69 66 89 67 58 68
REMARK SMILES IDX 43 69 44 70 52 71 45 72 51 73 46 74 47 75 48 76 49 77 50 78
REMARK SMILES IDX 73 79 74 80 82 81 75 82 81 83 76 84 77 85 78 86 79 87 80 88
REMARK SMILES IDX 59 89 60 90 68 91 61 92 67 93 62 94 63 95 64 96 65 97 66 98
REMARK H PARENT 24 6 8 20 31 35 87 54 57 65
REMARK Flexibility Score: inf
ROOT
ATOM      1  C   UNL A   1      35.480  21.709  24.227  1.00  0.00     0.021 C 
ENDROOT
BRANCH   1   2
ATOM      2  C   UNL A   1      35.035  20.596  25.172  1.00  0.00     0.116 C 
BRANCH   2   3
ATOM      3  N   UNL A   1      34.174  19.618  24.537  1.00  0.00    -0.353 N 
ATOM      4  C   UNL A   1      32.888  19.780  24.110  1.00  0.00     0.257 C 
ATOM      5  O   UNL A   1      32.375  18.910  23.402  1.00  0.00    -0.271 OA
ATOM      6  H   UNL A   1      34.566  18.726  24.395  1.00  0.00     0.163 HD
BRANCH   4   7
ATOM      7  C   UNL A   1      32.140  21.068  24.459  1.00  0.00     0.329 C 
BRANCH   7   8
ATOM      8  O   UNL A   1      31.983  21.410  25.819  1.00  0.00    -0.484 OA
BRANCH   8   9
ATOM      9  C   UNL A   1      31.918  22.710  26.229  1.00  0.00     0.123 A 
ATOM     10  C   UNL A   1      29.483  22.860  27.082  1.00  0.00     0.048 C 
ATOM     11  C   UNL A   1      30.818  23.434  26.707  1.00  0.00    -0.008 A 
ATOM     12  C   UNL A   1      30.957  24.832  26.864  1.00  0.00     0.029 A 
ATOM     13  C   UNL A   1      32.161  25.493  26.590  1.00  0.00     0.088 A 
ATOM     14  C   UNL A   1      33.135  23.379  26.018  1.00  0.00     0.048 A 
ATOM     15  C   UNL A   1      33.279  24.747  26.250  1.00  0.00     0.026 A 
BRANCH  13  16
ATOM     16  S   UNL A   1      32.104  27.273  26.564  1.00  0.00     0.262 S 
ATOM     17  O   UNL A   1      31.025  27.683  27.439  1.00  0.00    -0.201 OA
ATOM     18  O   UNL A   1      33.458  27.719  26.825  1.00  0.00    -0.201 OA
BRANCH  16  19
ATOM     19  N   UNL A   1      31.771  27.814  25.014  1.00  0.00    -0.277 N 
ATOM     20  H   UNL A   1      31.297  28.673  24.930  1.00  0.00     0.180 HD
BRANCH  19  21
ATOM     21  C   UNL A   1      32.116  27.140  23.806  1.00  0.00     0.085 A 
ATOM     22  C   UNL A   1      31.095  26.377  23.224  1.00  0.00     0.031 A 
ATOM     23  C   UNL A   1      33.339  27.252  23.132  1.00  0.00     0.148 A 
ATOM     24  C   UNL A   1      31.248  25.853  21.937  1.00  0.00     0.023 A 
ATOM     25  C   UNL A   1      33.494  26.737  21.845  1.00  0.00     0.062 A 
ATOM     26  F   UNL A   1      34.361  27.939  23.656  1.00  0.00    -0.205 F 
ATOM     27  C   UNL A   1      32.435  26.064  21.243  1.00  0.00     0.044 A 
ATOM     28  Cl  UNL A   1      32.582  25.529  19.616  1.00  0.00    -0.084 Cl
ENDBRANCH  19  21
ENDBRANCH  16  19
ENDBRANCH  13  16
ENDBRANCH   8   9
ENDBRANCH   7   8
ENDBRANCH   4   7
ENDBRANCH   2   3
ENDBRANCH   1   2
BRANCH   1  29
ATOM     29  C   UNL A   1      36.982  21.793  23.934  1.00  0.00     0.002 C 
BRANCH  29  30
ATOM     30  C   UNL A   1      37.941  21.319  25.033  1.00  0.00     0.002 C 
BRANCH  30  31
ATOM     31  C   UNL A   1      38.071  22.204  26.273  1.00  0.00     0.021 C 
BRANCH  31  32
ATOM     32  C   UNL A   1      38.763  23.538  26.019  1.00  0.00     0.116 C 
BRANCH  32  33
ATOM     33  N   UNL A   1      40.177  23.520  26.384  1.00  0.00    -0.352 N 
ATOM     34  C   UNL A   1      40.964  24.564  26.838  1.00  0.00     0.251 C 
ATOM     35  H   UNL A   1      40.629  22.650  26.295  1.00  0.00     0.163 HD
ATOM     36  O   UNL A   1      42.171  24.485  26.975  1.00  0.00    -0.269 OA
BRANCH  34  37
ATOM     37  C   UNL A   1      40.249  25.762  27.322  1.00  0.00     0.039 A 
ATOM     38  C   UNL A   1      40.519  26.961  26.654  1.00  0.00     0.014 A 
ATOM     39  C   UNL A   1      39.634  25.746  28.570  1.00  0.00     0.014 A 
ATOM     40  C   UNL A   1      40.370  28.158  27.338  1.00  0.00     0.010 A 
ATOM     41  C   UNL A   1      39.592  26.923  29.286  1.00  0.00     0.010 A 
ATOM     42  C   UNL A   1      40.016  28.114  28.687  1.00  0.00    -0.014 A 
BRANCH  42  43
ATOM     43  C   UNL A   1      40.124  29.277  29.556  1.00  0.00     0.031 A 
ATOM     44  C   UNL A   1      39.066  30.304  29.494  1.00  0.00     0.074 A 
ATOM     45  C   UNL A   1      41.187  29.418  30.379  1.00  0.00     0.049 A 
ATOM     46  N   UNL A   1      39.245  31.555  29.751  1.00  0.00    -0.248 NA
ATOM     47  C   UNL A   1      37.705  29.989  29.065  1.00  0.00     0.031 C 
ATOM     48  C   UNL A   1      41.379  30.448  31.396  1.00  0.00     0.029 A 
ATOM     49  N   UNL A   1      42.437  28.795  30.290  1.00  0.00    -0.354 N 
ATOM     50  C   UNL A   1      38.003  32.147  29.782  1.00  0.00     0.074 A 
ATOM     51  C   UNL A   1      37.085  31.150  29.286  1.00  0.00     0.031 C 
ATOM     52  C   UNL A   1      42.698  30.612  31.588  1.00  0.00     0.029 A 
ATOM     53  C   UNL A   1      43.386  29.775  30.616  1.00  0.00     0.049 A 
ATOM     54  H   UNL A   1      42.614  27.858  30.048  1.00  0.00     0.167 HD
ATOM     55  C   UNL A   1      37.847  33.372  30.358  1.00  0.00     0.031 A 
ATOM     56  C   UNL A   1      44.350  30.202  29.750  1.00  0.00     0.031 A 
ATOM     57  C   UNL A   1      39.125  33.936  30.771  1.00  0.00     0.049 A 
ATOM     58  C   UNL A   1      44.235  31.684  29.441  1.00  0.00     0.074 A 
ATOM     59  C   UNL A   1      39.807  33.942  31.977  1.00  0.00     0.029 A 
ATOM     60  N   UNL A   1      40.048  34.292  29.794  1.00  0.00    -0.354 N 
ATOM     61  N   UNL A   1      43.179  32.406  29.708  1.00  0.00    -0.248 NA
ATOM     62  C   UNL A   1      45.286  32.464  28.790  1.00  0.00     0.031 C 
ATOM     63  C   UNL A   1      41.180  34.177  31.698  1.00  0.00     0.029 A 
ATOM     64  C   UNL A   1      41.319  34.363  30.333  1.00  0.00     0.049 A 
ATOM     65  H   UNL A   1      39.827  34.470  28.851  1.00  0.00     0.167 HD
ATOM     66  C   UNL A   1      43.389  33.701  29.311  1.00  0.00     0.074 A 
ATOM     67  C   UNL A   1      44.725  33.687  28.743  1.00  0.00     0.031 C 
ATOM     68  C   UNL A   1      42.457  34.684  29.482  1.00  0.00     0.031 A 
BRANCH  55  69
ATOM     69  C   UNL A   1      36.494  33.846  30.821  1.00  0.00    -0.014 A 
ATOM     70  C   UNL A   1      35.504  34.158  29.868  1.00  0.00     0.010 A 
ATOM     71  C   UNL A   1      36.174  34.093  32.170  1.00  0.00     0.010 A 
ATOM     72  C   UNL A   1      34.307  34.792  30.230  1.00  0.00     0.020 A 
ATOM     73  C   UNL A   1      35.000  34.766  32.541  1.00  0.00     0.020 A 
ATOM     74  C   UNL A   1      34.077  35.124  31.563  1.00  0.00     0.054 A 
BRANCH  74  75
ATOM     75  S   UNL A   1      32.580  36.053  31.990  1.00  0.00     0.124 S 
ATOM     76  O   UNL A   1      33.064  36.980  33.011  1.00  0.00    -0.237 OA
ATOM     77  O   UNL A   1      32.215  36.658  30.712  1.00  0.00    -0.237 OA
ATOM     78  O   UNL A   1      31.662  35.025  32.478  1.00  0.00    -0.744 OA
ENDBRANCH  74  75
ENDBRANCH  55  69
BRANCH  56  79
ATOM     79  C   UNL A   1      44.890  29.151  28.844  1.00  0.00    -0.014 A 
ATOM     80  C   UNL A   1      46.101  28.531  29.225  1.00  0.00     0.010 A 
ATOM     81  C   UNL A   1      44.082  28.511  27.890  1.00  0.00     0.010 A 
ATOM     82  C   UNL A   1      46.424  27.244  28.781  1.00  0.00     0.020 A 
ATOM     83  C   UNL A   1      44.402  27.215  27.446  1.00  0.00     0.020 A 
ATOM     84  C   UNL A   1      45.537  26.568  27.945  1.00  0.00     0.054 A 
BRANCH  84  85
ATOM     85  S   UNL A   1      45.842  24.810  27.590  1.00  0.00     0.124 S 
ATOM     86  O   UNL A   1      47.288  24.692  27.768  1.00  0.00    -0.237 OA
ATOM     87  O   UNL A   1      45.033  24.145  28.610  1.00  0.00    -0.237 OA
ATOM     88  O   UNL A   1      45.371  24.661  26.217  1.00  0.00    -0.744 OA
ENDBRANCH  84  85
ENDBRANCH  56  79
BRANCH  68  89
ATOM     89  C   UNL A   1      42.539  36.086  28.928  1.00  0.00    -0.014 A 
ATOM     90  C   UNL A   1      43.349  37.097  29.465  1.00  0.00     0.010 A 
ATOM     91  C   UNL A   1      41.881  36.369  27.706  1.00  0.00     0.010 A 
ATOM     92  C   UNL A   1      43.461  38.348  28.838  1.00  0.00     0.020 A 
ATOM     93  C   UNL A   1      42.020  37.593  27.050  1.00  0.00     0.020 A 
ATOM     94  C   UNL A   1      42.796  38.587  27.633  1.00  0.00     0.054 A 
BRANCH  94  95
ATOM     95  S   UNL A   1      43.014  40.169  26.778  1.00  0.00     0.124 S 
ATOM     96  O   UNL A   1      43.109  41.104  27.897  1.00  0.00    -0.237 OA
ATOM     97  O   UNL A   1      44.248  39.969  26.022  1.00  0.00    -0.237 OA
ATOM     98  O   UNL A   1      41.806  40.282  25.965  1.00  0.00    -0.744 OA
ENDBRANCH  94  95
ENDBRANCH  68  89
ENDBRANCH  42  43
ENDBRANCH  34  37
ENDBRANCH  32  33
ENDBRANCH  31  32
ENDBRANCH  30  31
ENDBRANCH  29  30
ENDBRANCH   1  29
TORSDOF 21
ENDMDL
