MODEL 1
REMARK VINA RESULT:      -9.4      0.000      0.000
REMARK SMILES Nc1nc2ccccc2nc1N1CCC(C(=O)NCCCCCCNC(=O)c2ccc(-c3c4nc(c(-c5ccc(S(=O)(=O)[O-])cc5)c5ccc([nH]5)c(-c5ccc(S(=O)(=O)[O-])cc5)c5nc(c(-c6ccc(S(=O)(=O)[O-])cc6)c6ccc3[nH]6)C=C5)C=C4)cc2)CC1
REMARK SMILES IDX 22 1 21 2 20 3 19 4 18 5 16 6 17 7 15 9 12 10 13 11 89 12
REMARK SMILES IDX 14 13 88 14 11 15 2 16 3 17 4 18 10 19 5 20 9 21 6 22 8 23
REMARK SMILES IDX 7 24 1 25 23 28 24 29 25 30 26 31 27 33 28 34 29 35 87 36
REMARK SMILES IDX 30 37 86 38 31 39 32 40 33 41 80 42 34 43 85 44 79 45 81 46
REMARK SMILES IDX 35 47 84 48 78 49 77 50 36 52 66 53 47 54 65 55 48 56 51 57
REMARK SMILES IDX 64 58 82 59 49 60 50 61 63 63 83 64 52 65 37 66 38 67 46 68
REMARK SMILES IDX 39 69 45 70 40 71 41 72 42 73 43 74 44 75 67 76 68 77 76 78
REMARK SMILES IDX 69 79 75 80 70 81 71 82 72 83 73 84 74 85 53 86 54 87 62 88
REMARK SMILES IDX 55 89 61 90 56 91 57 92 58 93 59 94 60 95
REMARK H PARENT 18 8 1 26 1 27 25 32 81 51 51 62
REMARK Flexibility Score: inf
ROOT
ATOM      1  C   UNL A   1      36.286  32.783  30.913  1.00  0.00     0.002 C 
ENDROOT
BRANCH   1   2
ATOM      2  C   UNL A   1      36.307  32.332  32.378  1.00  0.00     0.002 C 
BRANCH   2   3
ATOM      3  C   UNL A   1      37.143  33.200  33.324  1.00  0.00     0.021 C 
BRANCH   3   4
ATOM      4  C   UNL A   1      38.486  32.588  33.721  1.00  0.00     0.116 C 
BRANCH   4   5
ATOM      5  N   UNL A   1      38.359  31.767  34.915  1.00  0.00    -0.356 N 
ATOM      6  C   UNL A   1      39.097  30.714  35.356  1.00  0.00     0.223 C 
ATOM      7  O   UNL A   1      38.750  30.164  36.405  1.00  0.00    -0.275 OA
ATOM      8  H   UNL A   1      37.611  32.018  35.505  1.00  0.00     0.163 HD
BRANCH   6   9
ATOM      9  C   UNL A   1      40.336  30.234  34.612  1.00  0.00     0.082 C 
ATOM     10  N   UNL A   1      42.196  28.146  34.143  1.00  0.00    -0.353 N 
ATOM     11  C   UNL A   1      42.683  29.254  34.935  1.00  0.00     0.119 C 
ATOM     12  C   UNL A   1      41.222  28.396  33.099  1.00  0.00     0.119 C 
ATOM     13  C   UNL A   1      41.536  30.040  35.552  1.00  0.00     0.035 C 
ATOM     14  C   UNL A   1      39.988  29.037  33.716  1.00  0.00     0.035 C 
BRANCH  10  15
ATOM     15  C   UNL A   1      42.559  26.845  34.453  1.00  0.00     0.172 A 
ATOM     16  C   UNL A   1      42.022  26.184  35.591  1.00  0.00     0.167 A 
ATOM     17  N   UNL A   1      42.379  24.937  35.944  1.00  0.00    -0.226 NA
ATOM     18  C   UNL A   1      43.270  24.323  35.152  1.00  0.00     0.091 A 
ATOM     19  N   UNL A   1      43.427  26.203  33.637  1.00  0.00    -0.225 NA
ATOM     20  C   UNL A   1      43.680  23.036  35.481  1.00  0.00     0.031 A 
ATOM     21  C   UNL A   1      43.796  24.951  33.994  1.00  0.00     0.091 A 
ATOM     22  C   UNL A   1      44.610  22.349  34.700  1.00  0.00     0.002 A 
ATOM     23  C   UNL A   1      44.722  24.251  33.226  1.00  0.00     0.031 A 
ATOM     24  C   UNL A   1      45.135  22.960  33.570  1.00  0.00     0.002 A 
BRANCH  16  25
ATOM     25  N   UNL A   1      41.078  26.789  36.419  1.00  0.00    -0.381 N 
ATOM     26  H   UNL A   1      40.179  26.994  36.073  1.00  0.00     0.158 HD
ATOM     27  H   UNL A   1      41.310  27.012  37.349  1.00  0.00     0.158 HD
ENDBRANCH  16  25
ENDBRANCH  10  15
ENDBRANCH   6   9
ENDBRANCH   4   5
ENDBRANCH   3   4
ENDBRANCH   2   3
ENDBRANCH   1   2
BRANCH   1  28
ATOM     28  C   UNL A   1      34.900  33.080  30.338  1.00  0.00     0.021 C 
BRANCH  28  29
ATOM     29  C   UNL A   1      34.818  33.071  28.818  1.00  0.00     0.116 C 
BRANCH  29  30
ATOM     30  N   UNL A   1      33.919  32.046  28.307  1.00  0.00    -0.352 N 
ATOM     31  C   UNL A   1      34.208  30.754  27.937  1.00  0.00     0.251 C 
ATOM     32  H   UNL A   1      32.977  32.315  28.214  1.00  0.00     0.163 HD
ATOM     33  O   UNL A   1      33.353  30.060  27.394  1.00  0.00    -0.269 OA
BRANCH  31  34
ATOM     34  C   UNL A   1      35.569  30.220  28.165  1.00  0.00     0.039 A 
ATOM     35  C   UNL A   1      35.889  29.587  29.367  1.00  0.00     0.014 A 
ATOM     36  C   UNL A   1      36.543  30.388  27.178  1.00  0.00     0.014 A 
ATOM     37  C   UNL A   1      37.213  29.272  29.646  1.00  0.00     0.010 A 
ATOM     38  C   UNL A   1      37.860  29.993  27.428  1.00  0.00     0.010 A 
ATOM     39  C   UNL A   1      38.216  29.473  28.682  1.00  0.00    -0.014 A 
BRANCH  39  40
ATOM     40  C   UNL A   1      39.619  29.107  29.010  1.00  0.00     0.031 A 
ATOM     41  C   UNL A   1      40.487  30.007  29.845  1.00  0.00     0.074 A 
ATOM     42  C   UNL A   1      40.090  27.914  28.596  1.00  0.00     0.049 A 
ATOM     43  N   UNL A   1      41.694  29.785  30.300  1.00  0.00    -0.248 NA
ATOM     44  C   UNL A   1      39.942  31.323  30.215  1.00  0.00     0.031 C 
ATOM     45  C   UNL A   1      39.341  26.959  27.778  1.00  0.00     0.029 A 
ATOM     46  N   UNL A   1      41.286  27.286  28.835  1.00  0.00    -0.354 N 
ATOM     47  C   UNL A   1      42.062  30.936  30.987  1.00  0.00     0.074 A 
ATOM     48  C   UNL A   1      40.959  31.865  30.872  1.00  0.00     0.031 C 
ATOM     49  C   UNL A   1      40.063  25.837  27.646  1.00  0.00     0.029 A 
ATOM     50  C   UNL A   1      41.349  26.016  28.315  1.00  0.00     0.049 A 
ATOM     51  H   UNL A   1      42.027  27.704  29.331  1.00  0.00     0.167 HD
ATOM     52  C   UNL A   1      43.211  31.190  31.657  1.00  0.00     0.031 A 
ATOM     53  C   UNL A   1      42.325  25.087  28.365  1.00  0.00     0.031 A 
ATOM     54  C   UNL A   1      44.299  30.254  31.783  1.00  0.00     0.049 A 
ATOM     55  C   UNL A   1      43.594  25.394  29.100  1.00  0.00     0.074 A 
ATOM     56  C   UNL A   1      45.473  30.400  32.501  1.00  0.00     0.029 A 
ATOM     57  N   UNL A   1      44.355  29.009  31.175  1.00  0.00    -0.354 N 
ATOM     58  N   UNL A   1      43.903  26.472  29.781  1.00  0.00    -0.248 NA
ATOM     59  C   UNL A   1      44.646  24.371  29.073  1.00  0.00     0.031 C 
ATOM     60  C   UNL A   1      46.267  29.273  32.274  1.00  0.00     0.029 A 
ATOM     61  C   UNL A   1      45.562  28.394  31.466  1.00  0.00     0.049 A 
ATOM     62  H   UNL A   1      43.643  28.619  30.617  1.00  0.00     0.167 HD
ATOM     63  C   UNL A   1      45.192  26.263  30.255  1.00  0.00     0.074 A 
ATOM     64  C   UNL A   1      45.593  24.943  29.809  1.00  0.00     0.031 C 
ATOM     65  C   UNL A   1      45.971  27.096  30.988  1.00  0.00     0.031 A 
BRANCH  52  66
ATOM     66  C   UNL A   1      43.375  32.543  32.300  1.00  0.00    -0.014 A 
ATOM     67  C   UNL A   1      42.814  32.778  33.569  1.00  0.00     0.010 A 
ATOM     68  C   UNL A   1      43.997  33.605  31.620  1.00  0.00     0.010 A 
ATOM     69  C   UNL A   1      42.858  34.053  34.142  1.00  0.00     0.020 A 
ATOM     70  C   UNL A   1      44.065  34.876  32.201  1.00  0.00     0.020 A 
ATOM     71  C   UNL A   1      43.478  35.095  33.450  1.00  0.00     0.054 A 
BRANCH  71  72
ATOM     72  S   UNL A   1      43.536  36.743  34.209  1.00  0.00     0.124 S 
ATOM     73  O   UNL A   1      43.946  37.583  33.089  1.00  0.00    -0.237 OA
ATOM     74  O   UNL A   1      42.163  36.933  34.673  1.00  0.00    -0.237 OA
ATOM     75  O   UNL A   1      44.525  36.591  35.274  1.00  0.00    -0.744 OA
ENDBRANCH  71  72
ENDBRANCH  52  66
BRANCH  53  76
ATOM     76  C   UNL A   1      42.084  23.775  27.709  1.00  0.00    -0.014 A 
ATOM     77  C   UNL A   1      41.435  22.742  28.413  1.00  0.00     0.010 A 
ATOM     78  C   UNL A   1      42.647  23.502  26.451  1.00  0.00     0.010 A 
ATOM     79  C   UNL A   1      41.432  21.439  27.910  1.00  0.00     0.020 A 
ATOM     80  C   UNL A   1      42.620  22.203  25.932  1.00  0.00     0.020 A 
ATOM     81  C   UNL A   1      42.049  21.175  26.685  1.00  0.00     0.054 A 
BRANCH  81  82
ATOM     82  S   UNL A   1      42.145  19.457  26.111  1.00  0.00     0.124 S 
ATOM     83  O   UNL A   1      43.088  19.567  25.001  1.00  0.00    -0.237 OA
ATOM     84  O   UNL A   1      42.637  18.750  27.289  1.00  0.00    -0.237 OA
ATOM     85  O   UNL A   1      40.767  19.147  25.732  1.00  0.00    -0.744 OA
ENDBRANCH  81  82
ENDBRANCH  53  76
BRANCH  65  86
ATOM     86  C   UNL A   1      47.363  26.637  31.330  1.00  0.00    -0.014 A 
ATOM     87  C   UNL A   1      48.429  26.910  30.453  1.00  0.00     0.010 A 
ATOM     88  C   UNL A   1      47.593  25.839  32.464  1.00  0.00     0.010 A 
ATOM     89  C   UNL A   1      49.695  26.369  30.688  1.00  0.00     0.020 A 
ATOM     90  C   UNL A   1      48.866  25.318  32.716  1.00  0.00     0.020 A 
ATOM     91  C   UNL A   1      49.903  25.568  31.814  1.00  0.00     0.054 A 
BRANCH  91  92
ATOM     92  S   UNL A   1      51.549  24.861  32.098  1.00  0.00     0.124 S 
ATOM     93  O   UNL A   1      51.882  25.379  33.421  1.00  0.00    -0.237 OA
ATOM     94  O   UNL A   1      51.298  23.423  32.030  1.00  0.00    -0.237 OA
ATOM     95  O   UNL A   1      52.345  25.396  30.996  1.00  0.00    -0.744 OA
ENDBRANCH  91  92
ENDBRANCH  65  86
ENDBRANCH  39  40
ENDBRANCH  31  34
ENDBRANCH  29  30
ENDBRANCH  28  29
ENDBRANCH   1  28
TORSDOF 18
ENDMDL
MODEL 2
REMARK VINA RESULT:      -9.3      4.300     11.759
REMARK SMILES Nc1nc2ccccc2nc1N1CCC(C(=O)NCCCCCCNC(=O)c2ccc(-c3c4nc(c(-c5ccc(S(=O)(=O)[O-])cc5)c5ccc([nH]5)c(-c5ccc(S(=O)(=O)[O-])cc5)c5nc(c(-c6ccc(S(=O)(=O)[O-])cc6)c6ccc3[nH]6)C=C5)C=C4)cc2)CC1
REMARK SMILES IDX 22 1 21 2 20 3 19 4 18 5 16 6 17 7 15 9 12 10 13 11 89 12
REMARK SMILES IDX 14 13 88 14 11 15 2 16 3 17 4 18 10 19 5 20 9 21 6 22 8 23
REMARK SMILES IDX 7 24 1 25 23 28 24 29 25 30 26 31 27 33 28 34 29 35 87 36
REMARK SMILES IDX 30 37 86 38 31 39 32 40 33 41 80 42 34 43 85 44 79 45 81 46
REMARK SMILES IDX 35 47 84 48 78 49 77 50 36 52 66 53 47 54 65 55 48 56 51 57
REMARK SMILES IDX 64 58 82 59 49 60 50 61 63 63 83 64 52 65 37 66 38 67 46 68
REMARK SMILES IDX 39 69 45 70 40 71 41 72 42 73 43 74 44 75 67 76 68 77 76 78
REMARK SMILES IDX 69 79 75 80 70 81 71 82 72 83 73 84 74 85 53 86 54 87 62 88
REMARK SMILES IDX 55 89 61 90 56 91 57 92 58 93 59 94 60 95
REMARK H PARENT 18 8 1 26 1 27 25 32 81 51 51 62
REMARK Flexibility Score: inf
ROOT
ATOM      1  C   UNL A   1      33.974  24.274  25.830  1.00  0.00     0.002 C 
ENDROOT
BRANCH   1   2
ATOM      2  C   UNL A   1      33.692  23.352  27.022  1.00  0.00     0.002 C 
BRANCH   2   3
ATOM      3  C   UNL A   1      32.438  22.481  26.899  1.00  0.00     0.021 C 
BRANCH   3   4
ATOM      4  C   UNL A   1      31.518  22.860  25.739  1.00  0.00     0.116 C 
BRANCH   4   5
ATOM      5  N   UNL A   1      31.920  22.197  24.508  1.00  0.00    -0.356 N 
ATOM      6  C   UNL A   1      31.839  22.598  23.212  1.00  0.00     0.223 C 
ATOM      7  O   UNL A   1      32.229  21.816  22.340  1.00  0.00    -0.275 OA
ATOM      8  H   UNL A   1      32.320  21.307  24.637  1.00  0.00     0.163 HD
BRANCH   6   9
ATOM      9  C   UNL A   1      31.316  23.976  22.827  1.00  0.00     0.082 C 
ATOM     10  N   UNL A   1      31.198  26.748  23.412  1.00  0.00    -0.353 N 
ATOM     11  C   UNL A   1      29.996  25.995  23.694  1.00  0.00     0.119 C 
ATOM     12  C   UNL A   1      32.034  26.353  22.296  1.00  0.00     0.119 C 
ATOM     13  C   UNL A   1      30.294  24.510  23.842  1.00  0.00     0.035 C 
ATOM     14  C   UNL A   1      32.486  24.915  22.497  1.00  0.00     0.035 C 
BRANCH  10  15
ATOM     15  C   UNL A   1      31.615  27.756  24.266  1.00  0.00     0.172 A 
ATOM     16  C   UNL A   1      30.962  29.017  24.287  1.00  0.00     0.167 A 
ATOM     17  N   UNL A   1      31.361  30.031  25.074  1.00  0.00    -0.226 NA
ATOM     18  C   UNL A   1      32.416  29.792  25.868  1.00  0.00     0.091 A 
ATOM     19  N   UNL A   1      32.653  27.510  25.100  1.00  0.00    -0.225 NA
ATOM     20  C   UNL A   1      32.877  30.812  26.692  1.00  0.00     0.031 A 
ATOM     21  C   UNL A   1      33.065  28.531  25.886  1.00  0.00     0.091 A 
ATOM     22  C   UNL A   1      33.974  30.627  27.534  1.00  0.00     0.002 A 
ATOM     23  C   UNL A   1      34.158  28.363  26.732  1.00  0.00     0.031 A 
ATOM     24  C   UNL A   1      34.618  29.398  27.551  1.00  0.00     0.002 A 
BRANCH  16  25
ATOM     25  N   UNL A   1      29.850  29.286  23.491  1.00  0.00    -0.381 N 
ATOM     26  H   UNL A   1      28.952  29.319  23.895  1.00  0.00     0.158 HD
ATOM     27  H   UNL A   1      29.962  29.444  22.526  1.00  0.00     0.158 HD
ENDBRANCH  16  25
ENDBRANCH  10  15
ENDBRANCH   6   9
ENDBRANCH   4   5
ENDBRANCH   3   4
ENDBRANCH   2   3
ENDBRANCH   1   2
BRANCH   1  28
ATOM     28  C   UNL A   1      35.216  23.922  25.009  1.00  0.00     0.021 C 
BRANCH  28  29
ATOM     29  C   UNL A   1      36.545  24.206  25.695  1.00  0.00     0.116 C 
BRANCH  29  30
ATOM     30  N   UNL A   1      37.446  23.062  25.677  1.00  0.00    -0.352 N 
ATOM     31  C   UNL A   1      38.750  22.986  26.102  1.00  0.00     0.251 C 
ATOM     32  H   UNL A   1      37.069  22.230  25.310  1.00  0.00     0.163 HD
ATOM     33  O   UNL A   1      39.414  21.976  25.888  1.00  0.00    -0.269 OA
BRANCH  31  34
ATOM     34  C   UNL A   1      39.360  24.148  26.787  1.00  0.00     0.039 A 
ATOM     35  C   UNL A   1      39.205  24.319  28.164  1.00  0.00     0.014 A 
ATOM     36  C   UNL A   1      40.062  25.094  26.036  1.00  0.00     0.014 A 
ATOM     37  C   UNL A   1      39.607  25.509  28.758  1.00  0.00     0.010 A 
ATOM     38  C   UNL A   1      40.540  26.254  26.653  1.00  0.00     0.010 A 
ATOM     39  C   UNL A   1      40.277  26.493  28.010  1.00  0.00    -0.014 A 
BRANCH  39  40
ATOM     40  C   UNL A   1      40.708  27.745  28.683  1.00  0.00     0.031 A 
ATOM     41  C   UNL A   1      42.141  27.965  29.082  1.00  0.00     0.074 A 
ATOM     42  C   UNL A   1      39.799  28.721  28.879  1.00  0.00     0.049 A 
ATOM     43  N   UNL A   1      42.694  29.041  29.585  1.00  0.00    -0.248 NA
ATOM     44  C   UNL A   1      43.076  26.843  28.902  1.00  0.00     0.031 C 
ATOM     45  C   UNL A   1      38.380  28.621  28.537  1.00  0.00     0.029 A 
ATOM     46  N   UNL A   1      39.936  29.994  29.374  1.00  0.00    -0.354 N 
ATOM     47  C   UNL A   1      44.028  28.720  29.803  1.00  0.00     0.074 A 
ATOM     48  C   UNL A   1      44.200  27.341  29.397  1.00  0.00     0.031 C 
ATOM     49  C   UNL A   1      37.792  29.804  28.759  1.00  0.00     0.029 A 
ATOM     50  C   UNL A   1      38.776  30.728  29.319  1.00  0.00     0.049 A 
ATOM     51  H   UNL A   1      40.782  30.346  29.732  1.00  0.00     0.167 HD
ATOM     52  C   UNL A   1      45.018  29.505  30.290  1.00  0.00     0.031 A 
ATOM     53  C   UNL A   1      38.518  32.002  29.674  1.00  0.00     0.031 A 
ATOM     54  C   UNL A   1      44.844  30.882  30.674  1.00  0.00     0.049 A 
ATOM     55  C   UNL A   1      39.625  32.850  30.223  1.00  0.00     0.074 A 
ATOM     56  C   UNL A   1      45.807  31.775  31.113  1.00  0.00     0.029 A 
ATOM     57  N   UNL A   1      43.636  31.563  30.678  1.00  0.00    -0.354 N 
ATOM     58  N   UNL A   1      40.890  32.540  30.378  1.00  0.00    -0.248 NA
ATOM     59  C   UNL A   1      39.277  34.210  30.648  1.00  0.00     0.031 C 
ATOM     60  C   UNL A   1      45.171  32.974  31.444  1.00  0.00     0.029 A 
ATOM     61  C   UNL A   1      43.822  32.853  31.152  1.00  0.00     0.049 A 
ATOM     62  H   UNL A   1      42.774  31.187  30.388  1.00  0.00     0.167 HD
ATOM     63  C   UNL A   1      41.489  33.664  30.933  1.00  0.00     0.074 A 
ATOM     64  C   UNL A   1      40.454  34.672  31.056  1.00  0.00     0.031 C 
ATOM     65  C   UNL A   1      42.780  33.838  31.308  1.00  0.00     0.031 A 
BRANCH  52  66
ATOM     66  C   UNL A   1      46.389  28.901  30.456  1.00  0.00    -0.014 A 
ATOM     67  C   UNL A   1      47.329  29.021  29.416  1.00  0.00     0.010 A 
ATOM     68  C   UNL A   1      46.718  28.138  31.590  1.00  0.00     0.010 A 
ATOM     69  C   UNL A   1      48.569  28.380  29.500  1.00  0.00     0.020 A 
ATOM     70  C   UNL A   1      47.966  27.514  31.688  1.00  0.00     0.020 A 
ATOM     71  C   UNL A   1      48.877  27.625  30.633  1.00  0.00     0.054 A 
BRANCH  71  72
ATOM     72  S   UNL A   1      50.492  26.804  30.732  1.00  0.00     0.124 S 
ATOM     73  O   UNL A   1      50.146  25.411  30.472  1.00  0.00    -0.237 OA
ATOM     74  O   UNL A   1      51.258  27.473  29.682  1.00  0.00    -0.237 OA
ATOM     75  O   UNL A   1      50.938  27.096  32.093  1.00  0.00    -0.744 OA
ENDBRANCH  71  72
ENDBRANCH  52  66
BRANCH  53  76
ATOM     76  C   UNL A   1      37.141  32.526  29.474  1.00  0.00    -0.014 A 
ATOM     77  C   UNL A   1      36.785  33.125  28.251  1.00  0.00     0.010 A 
ATOM     78  C   UNL A   1      36.243  32.577  30.553  1.00  0.00     0.010 A 
ATOM     79  C   UNL A   1      35.592  33.844  28.138  1.00  0.00     0.020 A 
ATOM     80  C   UNL A   1      35.035  33.273  30.434  1.00  0.00     0.020 A 
ATOM     81  C   UNL A   1      34.739  33.936  29.240  1.00  0.00     0.054 A 
BRANCH  81  82
ATOM     82  S   UNL A   1      33.260  34.977  29.113  1.00  0.00     0.124 S 
ATOM     83  O   UNL A   1      32.465  34.245  28.131  1.00  0.00    -0.237 OA
ATOM     84  O   UNL A   1      32.741  34.968  30.477  1.00  0.00    -0.237 OA
ATOM     85  O   UNL A   1      33.786  36.263  28.658  1.00  0.00    -0.744 OA
ENDBRANCH  81  82
ENDBRANCH  53  76
BRANCH  65  86
ATOM     86  C   UNL A   1      43.158  35.154  31.934  1.00  0.00    -0.014 A 
ATOM     87  C   UNL A   1      42.862  35.400  33.287  1.00  0.00     0.010 A 
ATOM     88  C   UNL A   1      43.704  36.186  31.152  1.00  0.00     0.010 A 
ATOM     89  C   UNL A   1      43.080  36.664  33.841  1.00  0.00     0.020 A 
ATOM     90  C   UNL A   1      43.947  37.445  31.710  1.00  0.00     0.020 A 
ATOM     91  C   UNL A   1      43.612  37.681  33.045  1.00  0.00     0.054 A 
BRANCH  91  92
ATOM     92  S   UNL A   1      43.874  39.321  33.774  1.00  0.00     0.124 S 
ATOM     93  O   UNL A   1      45.008  39.823  33.004  1.00  0.00    -0.237 OA
ATOM     94  O   UNL A   1      42.599  39.992  33.528  1.00  0.00    -0.237 OA
ATOM     95  O   UNL A   1      44.151  39.030  35.179  1.00  0.00    -0.744 OA
ENDBRANCH  91  92
ENDBRANCH  65  86
ENDBRANCH  39  40
ENDBRANCH  31  34
ENDBRANCH  29  30
ENDBRANCH  28  29
ENDBRANCH   1  28
TORSDOF 18
ENDMDL
MODEL 3
REMARK VINA RESULT:      -9.2      4.901      7.947
REMARK SMILES Nc1nc2ccccc2nc1N1CCC(C(=O)NCCCCCCNC(=O)c2ccc(-c3c4nc(c(-c5ccc(S(=O)(=O)[O-])cc5)c5ccc([nH]5)c(-c5ccc(S(=O)(=O)[O-])cc5)c5nc(c(-c6ccc(S(=O)(=O)[O-])cc6)c6ccc3[nH]6)C=C5)C=C4)cc2)CC1
REMARK SMILES IDX 22 1 21 2 20 3 19 4 18 5 16 6 17 7 15 9 12 10 13 11 89 12
REMARK SMILES IDX 14 13 88 14 11 15 2 16 3 17 4 18 10 19 5 20 9 21 6 22 8 23
REMARK SMILES IDX 7 24 1 25 23 28 24 29 25 30 26 31 27 33 28 34 29 35 87 36
REMARK SMILES IDX 30 37 86 38 31 39 32 40 33 41 80 42 34 43 85 44 79 45 81 46
REMARK SMILES IDX 35 47 84 48 78 49 77 50 36 52 66 53 47 54 65 55 48 56 51 57
REMARK SMILES IDX 64 58 82 59 49 60 50 61 63 63 83 64 52 65 37 66 38 67 46 68
REMARK SMILES IDX 39 69 45 70 40 71 41 72 42 73 43 74 44 75 67 76 68 77 76 78
REMARK SMILES IDX 69 79 75 80 70 81 71 82 72 83 73 84 74 85 53 86 54 87 62 88
REMARK SMILES IDX 55 89 61 90 56 91 57 92 58 93 59 94 60 95
REMARK H PARENT 18 8 1 26 1 27 25 32 81 51 51 62
REMARK Flexibility Score: inf
ROOT
ATOM      1  C   UNL A   1      35.879  33.278  28.417  1.00  0.00     0.002 C 
ENDROOT
BRANCH   1   2
ATOM      2  C   UNL A   1      34.566  32.513  28.220  1.00  0.00     0.002 C 
BRANCH   2   3
ATOM      3  C   UNL A   1      34.715  31.029  27.865  1.00  0.00     0.021 C 
BRANCH   3   4
ATOM      4  C   UNL A   1      33.616  30.486  26.952  1.00  0.00     0.116 C 
BRANCH   4   5
ATOM      5  N   UNL A   1      32.787  29.513  27.647  1.00  0.00    -0.356 N 
ATOM      6  C   UNL A   1      32.157  28.395  27.196  1.00  0.00     0.223 C 
ATOM      7  O   UNL A   1      31.477  27.752  28.001  1.00  0.00    -0.275 OA
ATOM      8  H   UNL A   1      32.660  29.695  28.606  1.00  0.00     0.163 HD
BRANCH   6   9
ATOM      9  C   UNL A   1      32.301  27.915  25.758  1.00  0.00     0.082 C 
ATOM     10  N   UNL A   1      32.552  25.730  23.970  1.00  0.00    -0.353 N 
ATOM     11  C   UNL A   1      33.756  26.499  24.193  1.00  0.00     0.119 C 
ATOM     12  C   UNL A   1      31.267  26.401  24.002  1.00  0.00     0.119 C 
ATOM     13  C   UNL A   1      33.677  27.286  25.493  1.00  0.00     0.035 C 
ATOM     14  C   UNL A   1      31.087  27.065  25.358  1.00  0.00     0.035 C 
BRANCH  10  15
ATOM     15  C   UNL A   1      32.609  24.351  23.849  1.00  0.00     0.172 A 
ATOM     16  C   UNL A   1      32.572  23.723  22.575  1.00  0.00     0.167 A 
ATOM     17  N   UNL A   1      32.587  22.388  22.421  1.00  0.00    -0.226 NA
ATOM     18  C   UNL A   1      32.656  21.657  23.543  1.00  0.00     0.091 A 
ATOM     19  N   UNL A   1      32.719  23.606  24.974  1.00  0.00    -0.225 NA
ATOM     20  C   UNL A   1      32.662  20.271  23.438  1.00  0.00     0.031 A 
ATOM     21  C   UNL A   1      32.725  22.262  24.824  1.00  0.00     0.091 A 
ATOM     22  C   UNL A   1      32.724  19.457  24.569  1.00  0.00     0.002 A 
ATOM     23  C   UNL A   1      32.787  21.435  25.942  1.00  0.00     0.031 A 
ATOM     24  C   UNL A   1      32.784  20.042  25.827  1.00  0.00     0.002 A 
BRANCH  16  25
ATOM     25  N   UNL A   1      32.524  24.457  21.392  1.00  0.00    -0.381 N 
ATOM     26  H   UNL A   1      32.595  23.997  20.523  1.00  0.00     0.158 HD
ATOM     27  H   UNL A   1      32.419  25.436  21.423  1.00  0.00     0.158 HD
ENDBRANCH  16  25
ENDBRANCH  10  15
ENDBRANCH   6   9
ENDBRANCH   4   5
ENDBRANCH   3   4
ENDBRANCH   2   3
ENDBRANCH   1   2
BRANCH   1  28
ATOM     28  C   UNL A   1      36.034  33.976  29.770  1.00  0.00     0.021 C 
BRANCH  28  29
ATOM     29  C   UNL A   1      36.888  33.230  30.786  1.00  0.00     0.116 C 
BRANCH  29  30
ATOM     30  N   UNL A   1      36.273  31.989  31.236  1.00  0.00    -0.352 N 
ATOM     31  C   UNL A   1      36.737  30.702  31.106  1.00  0.00     0.251 C 
ATOM     32  H   UNL A   1      35.408  32.085  31.696  1.00  0.00     0.163 HD
ATOM     33  O   UNL A   1      36.026  29.752  31.423  1.00  0.00    -0.269 OA
BRANCH  31  34
ATOM     34  C   UNL A   1      38.088  30.469  30.548  1.00  0.00     0.039 A 
ATOM     35  C   UNL A   1      38.284  30.416  29.167  1.00  0.00     0.014 A 
ATOM     36  C   UNL A   1      39.161  30.263  31.419  1.00  0.00     0.014 A 
ATOM     37  C   UNL A   1      39.510  30.000  28.662  1.00  0.00     0.010 A 
ATOM     38  C   UNL A   1      40.417  29.926  30.905  1.00  0.00     0.010 A 
ATOM     39  C   UNL A   1      40.591  29.747  29.524  1.00  0.00    -0.014 A 
BRANCH  39  40
ATOM     40  C   UNL A   1      41.892  29.320  28.947  1.00  0.00     0.031 A 
ATOM     41  C   UNL A   1      43.086  30.234  28.952  1.00  0.00     0.074 A 
ATOM     42  C   UNL A   1      42.008  28.065  28.468  1.00  0.00     0.049 A 
ATOM     43  N   UNL A   1      44.314  29.974  28.579  1.00  0.00    -0.248 NA
ATOM     44  C   UNL A   1      42.885  31.611  29.428  1.00  0.00     0.031 C 
ATOM     45  C   UNL A   1      40.917  27.090  28.409  1.00  0.00     0.029 A 
ATOM     46  N   UNL A   1      43.094  27.384  27.981  1.00  0.00    -0.354 N 
ATOM     47  C   UNL A   1      45.024  31.156  28.751  1.00  0.00     0.074 A 
ATOM     48  C   UNL A   1      44.086  32.142  29.243  1.00  0.00     0.031 C 
ATOM     49  C   UNL A   1      41.404  25.916  27.985  1.00  0.00     0.029 A 
ATOM     50  C   UNL A   1      42.825  26.070  27.683  1.00  0.00     0.049 A 
ATOM     51  H   UNL A   1      43.979  27.796  27.857  1.00  0.00     0.167 HD
ATOM     52  C   UNL A   1      46.338  31.395  28.527  1.00  0.00     0.031 A 
ATOM     53  C   UNL A   1      43.623  25.087  27.220  1.00  0.00     0.031 A 
ATOM     54  C   UNL A   1      47.271  30.404  28.054  1.00  0.00     0.049 A 
ATOM     55  C   UNL A   1      45.071  25.375  26.966  1.00  0.00     0.074 A 
ATOM     56  C   UNL A   1      48.636  30.537  27.863  1.00  0.00     0.029 A 
ATOM     57  N   UNL A   1      46.942  29.107  27.690  1.00  0.00    -0.354 N 
ATOM     58  N   UNL A   1      45.732  26.488  27.179  1.00  0.00    -0.248 NA
ATOM     59  C   UNL A   1      45.881  24.286  26.406  1.00  0.00     0.031 C 
ATOM     60  C   UNL A   1      49.120  29.343  27.322  1.00  0.00     0.029 A 
ATOM     61  C   UNL A   1      48.070  28.442  27.234  1.00  0.00     0.049 A 
ATOM     62  H   UNL A   1      46.040  28.716  27.745  1.00  0.00     0.167 HD
ATOM     63  C   UNL A   1      47.035  26.238  26.767  1.00  0.00     0.074 A 
ATOM     64  C   UNL A   1      47.076  24.859  26.322  1.00  0.00     0.031 C 
ATOM     65  C   UNL A   1      48.097  27.081  26.757  1.00  0.00     0.031 A 
BRANCH  52  66
ATOM     66  C   UNL A   1      46.861  32.787  28.770  1.00  0.00    -0.014 A 
ATOM     67  C   UNL A   1      46.715  33.766  27.769  1.00  0.00     0.010 A 
ATOM     68  C   UNL A   1      47.576  33.105  29.938  1.00  0.00     0.010 A 
ATOM     69  C   UNL A   1      47.284  35.033  27.925  1.00  0.00     0.020 A 
ATOM     70  C   UNL A   1      48.127  34.380  30.108  1.00  0.00     0.020 A 
ATOM     71  C   UNL A   1      47.992  35.330  29.091  1.00  0.00     0.054 A 
BRANCH  71  72
ATOM     72  S   UNL A   1      48.719  36.981  29.284  1.00  0.00     0.124 S 
ATOM     73  O   UNL A   1      48.192  37.400  30.578  1.00  0.00    -0.237 OA
ATOM     74  O   UNL A   1      50.155  36.708  29.244  1.00  0.00    -0.237 OA
ATOM     75  O   UNL A   1      48.205  37.714  28.129  1.00  0.00    -0.744 OA
ENDBRANCH  71  72
ENDBRANCH  52  66
BRANCH  53  76
ATOM     76  C   UNL A   1      43.032  23.738  27.011  1.00  0.00    -0.014 A 
ATOM     77  C   UNL A   1      43.069  22.783  28.044  1.00  0.00     0.010 A 
ATOM     78  C   UNL A   1      42.587  23.355  25.735  1.00  0.00     0.010 A 
ATOM     79  C   UNL A   1      42.756  21.447  27.783  1.00  0.00     0.020 A 
ATOM     80  C   UNL A   1      42.246  22.023  25.477  1.00  0.00     0.020 A 
ATOM     81  C   UNL A   1      42.373  21.073  26.493  1.00  0.00     0.054 A 
BRANCH  81  82
ATOM     82  S   UNL A   1      42.093  19.315  26.143  1.00  0.00     0.124 S 
ATOM     83  O   UNL A   1      42.938  19.107  24.969  1.00  0.00    -0.237 OA
ATOM     84  O   UNL A   1      42.548  18.666  27.369  1.00  0.00    -0.237 OA
ATOM     85  O   UNL A   1      40.654  19.241  25.899  1.00  0.00    -0.744 OA
ENDBRANCH  81  82
ENDBRANCH  53  76
BRANCH  65  86
ATOM     86  C   UNL A   1      49.399  26.564  26.208  1.00  0.00    -0.014 A 
ATOM     87  C   UNL A   1      50.250  25.795  27.022  1.00  0.00     0.010 A 
ATOM     88  C   UNL A   1      49.830  26.936  24.922  1.00  0.00     0.010 A 
ATOM     89  C   UNL A   1      51.521  25.429  26.572  1.00  0.00     0.020 A 
ATOM     90  C   UNL A   1      51.091  26.549  24.459  1.00  0.00     0.020 A 
ATOM     91  C   UNL A   1      51.937  25.817  25.296  1.00  0.00     0.054 A 
BRANCH  91  92
ATOM     92  S   UNL A   1      53.596  25.348  24.732  1.00  0.00     0.124 S 
ATOM     93  O   UNL A   1      54.452  26.024  25.701  1.00  0.00    -0.237 OA
ATOM     94  O   UNL A   1      53.568  23.891  24.823  1.00  0.00    -0.237 OA
ATOM     95  O   UNL A   1      53.654  25.875  23.370  1.00  0.00    -0.744 OA
ENDBRANCH  91  92
ENDBRANCH  65  86
ENDBRANCH  39  40
ENDBRANCH  31  34
ENDBRANCH  29  30
ENDBRANCH  28  29
ENDBRANCH   1  28
TORSDOF 18
ENDMDL
