MODEL 1
REMARK VINA RESULT:     -11.6      0.000      0.000
REMARK SMILES CN(C(=O)C[C@@H]1SC(=O)N(c2ccccc2)C1=O)c1ccccc1C(=O)NCCCCCCNC(=O)c1ccc(-c2c3nc(c(-c4ccc(S(=O)(=O)[O-])cc4)c4ccc([nH]4)c(-c4ccc(S(=O)(=O)[O-])cc4)c4nc(c(-c5ccc(S(=O)(=O)[O-])cc5)c5ccc2[nH]5)C=C4)C=C3)cc1
REMARK SMILES IDX 29 1 28 2 27 3 25 4 26 5 24 7 19 8 20 9 21 10 23 11 22 12
REMARK SMILES IDX 2 13 1 14 3 15 4 16 5 17 6 18 7 19 17 20 8 21 10 22 18 23
REMARK SMILES IDX 9 24 11 25 12 26 16 27 13 28 15 29 14 30 30 31 31 32 32 33
REMARK SMILES IDX 33 34 34 35 35 36 36 38 37 39 38 40 96 41 39 42 95 43 40 44
REMARK SMILES IDX 41 45 42 46 89 47 43 48 94 49 88 50 90 51 44 52 93 53 87 54
REMARK SMILES IDX 86 55 45 57 75 58 56 59 74 60 57 61 60 62 73 63 91 64 58 65
REMARK SMILES IDX 59 66 72 68 92 69 61 70 46 71 47 72 55 73 48 74 54 75 49 76
REMARK SMILES IDX 50 77 51 78 52 79 53 80 76 81 77 82 85 83 78 84 84 85 79 86
REMARK SMILES IDX 80 87 81 88 82 89 83 90 62 91 63 92 71 93 64 94 70 95 65 96
REMARK SMILES IDX 66 97 67 98 68 99 69 100
REMARK H PARENT 27 6 34 37 90 56 60 67
REMARK Flexibility Score: inf
ROOT
ATOM      1  C   UNL A   1      32.413  25.047  26.487  1.00  0.00     0.021 C 
ENDROOT
BRANCH   1   2
ATOM      2  C   UNL A   1      31.062  24.346  26.402  1.00  0.00     0.116 C 
BRANCH   2   3
ATOM      3  N   UNL A   1      30.254  25.007  25.407  1.00  0.00    -0.352 N 
ATOM      4  C   UNL A   1      30.354  25.908  24.397  1.00  0.00     0.253 C 
ATOM      5  O   UNL A   1      29.238  26.136  23.900  1.00  0.00    -0.269 OA
ATOM      6  H   UNL A   1      29.321  24.704  25.487  1.00  0.00     0.163 HD
BRANCH   4   7
ATOM      7  C   UNL A   1      31.542  26.582  23.763  1.00  0.00     0.063 A 
ATOM      8  C   UNL A   1      32.417  26.245  22.705  1.00  0.00     0.056 A 
ATOM      9  C   UNL A   1      33.529  27.098  22.442  1.00  0.00     0.027 A 
ATOM     10  C   UNL A   1      33.837  28.213  23.217  1.00  0.00     0.002 A 
ATOM     11  C   UNL A   1      31.881  27.756  24.509  1.00  0.00     0.016 A 
ATOM     12  C   UNL A   1      33.006  28.544  24.262  1.00  0.00     0.001 A 
BRANCH   8  13
ATOM     13  N   UNL A   1      32.334  25.093  21.836  1.00  0.00    -0.315 N 
ATOM     14  C   UNL A   1      32.492  25.446  20.422  1.00  0.00     0.153 C 
BRANCH  13  15
ATOM     15  C   UNL A   1      32.960  23.901  22.291  1.00  0.00     0.228 C 
ATOM     16  O   UNL A   1      34.129  23.606  22.018  1.00  0.00    -0.274 OA
BRANCH  15  17
ATOM     17  C   UNL A   1      32.211  22.976  23.249  1.00  0.00     0.125 C 
BRANCH  17  18
ATOM     18  C   UNL A   1      32.585  21.523  23.005  1.00  0.00     0.156 C 
ATOM     19  S   UNL A   1      31.776  20.662  21.635  1.00  0.00    -0.050 SA
ATOM     20  C   UNL A   1      32.504  20.517  24.141  1.00  0.00     0.248 C 
ATOM     21  C   UNL A   1      32.248  19.108  22.273  1.00  0.00     0.293 C 
ATOM     22  N   UNL A   1      32.626  19.232  23.596  1.00  0.00    -0.240 N 
ATOM     23  O   UNL A   1      32.543  20.853  25.319  1.00  0.00    -0.273 OA
ATOM     24  O   UNL A   1      32.209  18.119  21.564  1.00  0.00    -0.261 OA
BRANCH  22  25
ATOM     25  C   UNL A   1      33.179  18.123  24.310  1.00  0.00     0.053 A 
ATOM     26  C   UNL A   1      34.529  17.767  24.213  1.00  0.00     0.027 A 
ATOM     27  C   UNL A   1      32.340  17.299  25.084  1.00  0.00     0.027 A 
ATOM     28  C   UNL A   1      35.018  16.625  24.864  1.00  0.00     0.002 A 
ATOM     29  C   UNL A   1      32.824  16.156  25.725  1.00  0.00     0.002 A 
ATOM     30  C   UNL A   1      34.165  15.818  25.612  1.00  0.00     0.000 A 
ENDBRANCH  22  25
ENDBRANCH  17  18
ENDBRANCH  15  17
ENDBRANCH  13  15
ENDBRANCH   8  13
ENDBRANCH   4   7
ENDBRANCH   2   3
ENDBRANCH   1   2
BRANCH   1  31
ATOM     31  C   UNL A   1      33.658  24.221  26.160  1.00  0.00     0.002 C 
BRANCH  31  32
ATOM     32  C   UNL A   1      34.763  24.899  25.352  1.00  0.00     0.002 C 
BRANCH  32  33
ATOM     33  C   UNL A   1      36.070  24.122  25.196  1.00  0.00     0.021 C 
BRANCH  33  34
ATOM     34  C   UNL A   1      36.432  23.153  26.322  1.00  0.00     0.116 C 
BRANCH  34  35
ATOM     35  N   UNL A   1      37.674  22.435  26.102  1.00  0.00    -0.352 N 
ATOM     36  C   UNL A   1      38.982  22.809  26.294  1.00  0.00     0.251 C 
ATOM     37  H   UNL A   1      37.559  21.521  25.755  1.00  0.00     0.163 HD
ATOM     38  O   UNL A   1      39.868  22.025  25.956  1.00  0.00    -0.269 OA
BRANCH  36  39
ATOM     39  C   UNL A   1      39.355  24.130  26.861  1.00  0.00     0.039 A 
ATOM     40  C   UNL A   1      38.961  24.423  28.173  1.00  0.00     0.014 A 
ATOM     41  C   UNL A   1      40.033  25.101  26.124  1.00  0.00     0.014 A 
ATOM     42  C   UNL A   1      39.297  25.651  28.753  1.00  0.00     0.010 A 
ATOM     43  C   UNL A   1      40.413  26.307  26.716  1.00  0.00     0.010 A 
ATOM     44  C   UNL A   1      40.050  26.594  28.038  1.00  0.00    -0.014 A 
BRANCH  44  45
ATOM     45  C   UNL A   1      40.505  27.852  28.683  1.00  0.00     0.031 A 
ATOM     46  C   UNL A   1      41.886  27.976  29.263  1.00  0.00     0.074 A 
ATOM     47  C   UNL A   1      39.639  28.878  28.800  1.00  0.00     0.049 A 
ATOM     48  N   UNL A   1      42.447  29.008  29.840  1.00  0.00    -0.248 NA
ATOM     49  C   UNL A   1      42.741  26.781  29.203  1.00  0.00     0.031 C 
ATOM     50  C   UNL A   1      38.250  28.863  28.336  1.00  0.00     0.029 A 
ATOM     51  N   UNL A   1      39.794  30.124  29.353  1.00  0.00    -0.354 N 
ATOM     52  C   UNL A   1      43.717  28.590  30.216  1.00  0.00     0.074 A 
ATOM     53  C   UNL A   1      43.825  27.194  29.844  1.00  0.00     0.031 C 
ATOM     54  C   UNL A   1      37.684  30.049  28.612  1.00  0.00     0.029 A 
ATOM     55  C   UNL A   1      38.660  30.898  29.291  1.00  0.00     0.049 A 
ATOM     56  H   UNL A   1      40.637  30.434  29.756  1.00  0.00     0.167 HD
ATOM     57  C   UNL A   1      44.709  29.304  30.805  1.00  0.00     0.031 A 
ATOM     58  C   UNL A   1      38.423  32.148  29.732  1.00  0.00     0.031 A 
ATOM     59  C   UNL A   1      44.592  30.686  31.194  1.00  0.00     0.049 A 
ATOM     60  C   UNL A   1      39.534  32.927  30.377  1.00  0.00     0.074 A 
ATOM     61  C   UNL A   1      45.561  31.513  31.738  1.00  0.00     0.029 A 
ATOM     62  N   UNL A   1      43.432  31.442  31.099  1.00  0.00    -0.354 N 
ATOM     63  N   UNL A   1      40.762  32.546  30.633  1.00  0.00    -0.248 NA
ATOM     64  C   UNL A   1      39.232  34.308  30.774  1.00  0.00     0.031 C 
ATOM     65  C   UNL A   1      44.972  32.751  32.020  1.00  0.00     0.029 A 
ATOM     66  C   UNL A   1      43.652  32.715  31.601  1.00  0.00     0.049 A 
ATOM     67  H   UNL A   1      42.579  31.120  30.728  1.00  0.00     0.167 HD
ATOM     68  C   UNL A   1      41.387  33.647  31.207  1.00  0.00     0.074 A 
ATOM     69  C   UNL A   1      40.404  34.712  31.247  1.00  0.00     0.031 C 
ATOM     70  C   UNL A   1      42.662  33.763  31.656  1.00  0.00     0.031 A 
BRANCH  57  71
ATOM     71  C   UNL A   1      46.003  28.583  31.081  1.00  0.00    -0.014 A 
ATOM     72  C   UNL A   1      46.977  28.426  30.076  1.00  0.00     0.010 A 
ATOM     73  C   UNL A   1      46.254  28.055  32.360  1.00  0.00     0.010 A 
ATOM     74  C   UNL A   1      48.143  27.699  30.326  1.00  0.00     0.020 A 
ATOM     75  C   UNL A   1      47.433  27.351  32.622  1.00  0.00     0.020 A 
ATOM     76  C   UNL A   1      48.358  27.153  31.594  1.00  0.00     0.054 A 
BRANCH  76  77
ATOM     77  S   UNL A   1      49.864  26.187  31.885  1.00  0.00     0.124 S 
ATOM     78  O   UNL A   1      50.438  26.869  33.043  1.00  0.00    -0.237 OA
ATOM     79  O   UNL A   1      49.344  24.846  32.141  1.00  0.00    -0.237 OA
ATOM     80  O   UNL A   1      50.616  26.334  30.640  1.00  0.00    -0.744 OA
ENDBRANCH  76  77
ENDBRANCH  57  71
BRANCH  58  81
ATOM     81  C   UNL A   1      37.072  32.736  29.540  1.00  0.00    -0.014 A 
ATOM     82  C   UNL A   1      36.212  32.925  30.635  1.00  0.00     0.010 A 
ATOM     83  C   UNL A   1      36.675  33.190  28.268  1.00  0.00     0.010 A 
ATOM     84  C   UNL A   1      34.981  33.566  30.464  1.00  0.00     0.020 A 
ATOM     85  C   UNL A   1      35.456  33.850  28.098  1.00  0.00     0.020 A 
ATOM     86  C   UNL A   1      34.616  34.034  29.198  1.00  0.00     0.054 A 
BRANCH  86  87
ATOM     87  S   UNL A   1      33.068  34.964  29.021  1.00  0.00     0.124 S 
ATOM     88  O   UNL A   1      32.548  34.951  30.385  1.00  0.00    -0.237 OA
ATOM     89  O   UNL A   1      33.532  36.260  28.531  1.00  0.00    -0.237 OA
ATOM     90  O   UNL A   1      32.307  34.178  28.051  1.00  0.00    -0.744 OA
ENDBRANCH  86  87
ENDBRANCH  58  81
BRANCH  70  91
ATOM     91  C   UNL A   1      43.076  35.095  32.224  1.00  0.00    -0.014 A 
ATOM     92  C   UNL A   1      42.985  35.359  33.602  1.00  0.00     0.010 A 
ATOM     93  C   UNL A   1      43.608  36.081  31.371  1.00  0.00     0.010 A 
ATOM     94  C   UNL A   1      43.393  36.595  34.114  1.00  0.00     0.020 A 
ATOM     95  C   UNL A   1      44.040  37.307  31.882  1.00  0.00     0.020 A 
ATOM     96  C   UNL A   1      43.916  37.562  33.249  1.00  0.00     0.054 A 
BRANCH  96  97
ATOM     97  S   UNL A   1      44.476  39.143  33.942  1.00  0.00     0.124 S 
ATOM     98  O   UNL A   1      43.306  39.992  33.746  1.00  0.00    -0.237 OA
ATOM     99  O   UNL A   1      44.777  38.798  35.330  1.00  0.00    -0.237 OA
ATOM    100  O   UNL A   1      45.639  39.485  33.126  1.00  0.00    -0.744 OA
ENDBRANCH  96  97
ENDBRANCH  70  91
ENDBRANCH  44  45
ENDBRANCH  36  39
ENDBRANCH  34  35
ENDBRANCH  33  34
ENDBRANCH  32  33
ENDBRANCH  31  32
ENDBRANCH   1  31
TORSDOF 21
ENDMDL
MODEL 2
REMARK VINA RESULT:     -11.3      1.681      2.104
REMARK SMILES CN(C(=O)C[C@@H]1SC(=O)N(c2ccccc2)C1=O)c1ccccc1C(=O)NCCCCCCNC(=O)c1ccc(-c2c3nc(c(-c4ccc(S(=O)(=O)[O-])cc4)c4ccc([nH]4)c(-c4ccc(S(=O)(=O)[O-])cc4)c4nc(c(-c5ccc(S(=O)(=O)[O-])cc5)c5ccc2[nH]5)C=C4)C=C3)cc1
REMARK SMILES IDX 29 1 28 2 27 3 25 4 26 5 24 7 19 8 20 9 21 10 23 11 22 12
REMARK SMILES IDX 2 13 1 14 3 15 4 16 5 17 6 18 7 19 17 20 8 21 10 22 18 23
REMARK SMILES IDX 9 24 11 25 12 26 16 27 13 28 15 29 14 30 30 31 31 32 32 33
REMARK SMILES IDX 33 34 34 35 35 36 36 38 37 39 38 40 96 41 39 42 95 43 40 44
REMARK SMILES IDX 41 45 42 46 89 47 43 48 94 49 88 50 90 51 44 52 93 53 87 54
REMARK SMILES IDX 86 55 45 57 75 58 56 59 74 60 57 61 60 62 73 63 91 64 58 65
REMARK SMILES IDX 59 66 72 68 92 69 61 70 46 71 47 72 55 73 48 74 54 75 49 76
REMARK SMILES IDX 50 77 51 78 52 79 53 80 76 81 77 82 85 83 78 84 84 85 79 86
REMARK SMILES IDX 80 87 81 88 82 89 83 90 62 91 63 92 71 93 64 94 70 95 65 96
REMARK SMILES IDX 66 97 67 98 68 99 69 100
REMARK H PARENT 27 6 34 37 90 56 60 67
REMARK Flexibility Score: inf
ROOT
ATOM      1  C   UNL A   1      32.096  24.938  26.549  1.00  0.00     0.021 C 
ENDROOT
BRANCH   1   2
ATOM      2  C   UNL A   1      30.768  24.255  26.246  1.00  0.00     0.116 C 
BRANCH   2   3
ATOM      3  N   UNL A   1      30.039  25.052  25.291  1.00  0.00    -0.352 N 
ATOM      4  C   UNL A   1      30.235  26.015  24.354  1.00  0.00     0.253 C 
ATOM      5  O   UNL A   1      29.152  26.370  23.856  1.00  0.00    -0.269 OA
ATOM      6  H   UNL A   1      29.083  24.822  25.331  1.00  0.00     0.163 HD
BRANCH   4   7
ATOM      7  C   UNL A   1      31.488  26.634  23.794  1.00  0.00     0.063 A 
ATOM      8  C   UNL A   1      32.401  26.264  22.780  1.00  0.00     0.056 A 
ATOM      9  C   UNL A   1      33.567  27.064  22.590  1.00  0.00     0.027 A 
ATOM     10  C   UNL A   1      33.887  28.153  23.395  1.00  0.00     0.002 A 
ATOM     11  C   UNL A   1      31.844  27.782  24.573  1.00  0.00     0.016 A 
ATOM     12  C   UNL A   1      33.018  28.515  24.397  1.00  0.00     0.001 A 
BRANCH   8  13
ATOM     13  N   UNL A   1      32.309  25.127  21.894  1.00  0.00    -0.315 N 
ATOM     14  C   UNL A   1      32.493  25.499  20.487  1.00  0.00     0.153 C 
BRANCH  13  15
ATOM     15  C   UNL A   1      32.906  23.917  22.338  1.00  0.00     0.228 C 
ATOM     16  O   UNL A   1      34.083  23.621  22.108  1.00  0.00    -0.274 OA
BRANCH  15  17
ATOM     17  C   UNL A   1      32.108  22.970  23.235  1.00  0.00     0.125 C 
BRANCH  17  18
ATOM     18  C   UNL A   1      32.515  21.525  22.994  1.00  0.00     0.156 C 
ATOM     19  S   UNL A   1      31.751  20.654  21.606  1.00  0.00    -0.050 SA
ATOM     20  C   UNL A   1      32.429  20.514  24.126  1.00  0.00     0.248 C 
ATOM     21  C   UNL A   1      32.239  19.106  22.249  1.00  0.00     0.293 C 
ATOM     22  N   UNL A   1      32.587  19.233  23.581  1.00  0.00    -0.240 N 
ATOM     23  O   UNL A   1      32.438  20.848  25.305  1.00  0.00    -0.273 OA
ATOM     24  O   UNL A   1      32.233  18.119  21.537  1.00  0.00    -0.261 OA
BRANCH  22  25
ATOM     25  C   UNL A   1      33.146  18.133  24.303  1.00  0.00     0.053 A 
ATOM     26  C   UNL A   1      34.499  17.789  24.216  1.00  0.00     0.027 A 
ATOM     27  C   UNL A   1      32.309  17.304  25.076  1.00  0.00     0.027 A 
ATOM     28  C   UNL A   1      34.994  16.655  24.875  1.00  0.00     0.002 A 
ATOM     29  C   UNL A   1      32.799  16.169  25.725  1.00  0.00     0.002 A 
ATOM     30  C   UNL A   1      34.144  15.843  25.622  1.00  0.00     0.000 A 
ENDBRANCH  22  25
ENDBRANCH  17  18
ENDBRANCH  15  17
ENDBRANCH  13  15
ENDBRANCH   8  13
ENDBRANCH   4   7
ENDBRANCH   2   3
ENDBRANCH   1   2
BRANCH   1  31
ATOM     31  C   UNL A   1      33.376  24.156  26.246  1.00  0.00     0.002 C 
BRANCH  31  32
ATOM     32  C   UNL A   1      34.488  24.887  25.496  1.00  0.00     0.002 C 
BRANCH  32  33
ATOM     33  C   UNL A   1      35.813  24.140  25.343  1.00  0.00     0.021 C 
BRANCH  33  34
ATOM     34  C   UNL A   1      36.220  23.219  26.494  1.00  0.00     0.116 C 
BRANCH  34  35
ATOM     35  N   UNL A   1      37.349  22.360  26.187  1.00  0.00    -0.352 N 
ATOM     36  C   UNL A   1      38.702  22.597  26.218  1.00  0.00     0.251 C 
ATOM     37  H   UNL A   1      37.102  21.449  25.909  1.00  0.00     0.163 HD
ATOM     38  O   UNL A   1      39.459  21.706  25.836  1.00  0.00    -0.269 OA
BRANCH  36  39
ATOM     39  C   UNL A   1      39.271  23.894  26.664  1.00  0.00     0.039 A 
ATOM     40  C   UNL A   1      39.270  24.181  28.035  1.00  0.00     0.014 A 
ATOM     41  C   UNL A   1      39.754  24.851  25.771  1.00  0.00     0.014 A 
ATOM     42  C   UNL A   1      39.803  25.387  28.504  1.00  0.00     0.010 A 
ATOM     43  C   UNL A   1      40.332  26.033  26.239  1.00  0.00     0.010 A 
ATOM     44  C   UNL A   1      40.364  26.312  27.611  1.00  0.00    -0.014 A 
BRANCH  44  45
ATOM     45  C   UNL A   1      41.031  27.542  28.109  1.00  0.00     0.031 A 
ATOM     46  C   UNL A   1      42.528  27.670  28.114  1.00  0.00     0.074 A 
ATOM     47  C   UNL A   1      40.276  28.535  28.618  1.00  0.00     0.049 A 
ATOM     48  N   UNL A   1      43.267  28.682  28.494  1.00  0.00    -0.248 NA
ATOM     49  C   UNL A   1      43.296  26.505  27.651  1.00  0.00     0.031 C 
ATOM     50  C   UNL A   1      38.816  28.510  28.730  1.00  0.00     0.029 A 
ATOM     51  N   UNL A   1      40.630  29.751  29.147  1.00  0.00    -0.354 N 
ATOM     52  C   UNL A   1      44.585  28.278  28.320  1.00  0.00     0.074 A 
ATOM     53  C   UNL A   1      44.543  26.910  27.846  1.00  0.00     0.031 C 
ATOM     54  C   UNL A   1      38.398  29.662  29.279  1.00  0.00     0.029 A 
ATOM     55  C   UNL A   1      39.560  30.495  29.580  1.00  0.00     0.049 A 
ATOM     56  H   UNL A   1      41.563  30.060  29.210  1.00  0.00     0.167 HD
ATOM     57  C   UNL A   1      45.726  28.983  28.523  1.00  0.00     0.031 A 
ATOM     58  C   UNL A   1      39.510  31.711  30.158  1.00  0.00     0.031 A 
ATOM     59  C   UNL A   1      45.765  30.336  29.015  1.00  0.00     0.049 A 
ATOM     60  C   UNL A   1      40.781  32.481  30.370  1.00  0.00     0.074 A 
ATOM     61  C   UNL A   1      46.867  31.157  29.192  1.00  0.00     0.029 A 
ATOM     62  N   UNL A   1      44.658  31.064  29.426  1.00  0.00    -0.354 N 
ATOM     63  N   UNL A   1      42.013  32.119  30.105  1.00  0.00    -0.248 NA
ATOM     64  C   UNL A   1      40.654  33.828  30.942  1.00  0.00     0.031 C 
ATOM     65  C   UNL A   1      46.431  32.359  29.760  1.00  0.00     0.029 A 
ATOM     66  C   UNL A   1      45.052  32.311  29.885  1.00  0.00     0.049 A 
ATOM     67  H   UNL A   1      43.728  30.741  29.396  1.00  0.00     0.167 HD
ATOM     68  C   UNL A   1      42.810  33.202  30.462  1.00  0.00     0.074 A 
ATOM     69  C   UNL A   1      41.917  34.235  30.948  1.00  0.00     0.031 C 
ATOM     70  C   UNL A   1      44.158  33.326  30.387  1.00  0.00     0.031 A 
BRANCH  57  71
ATOM     71  C   UNL A   1      47.027  28.283  28.229  1.00  0.00    -0.014 A 
ATOM     72  C   UNL A   1      47.621  27.424  29.174  1.00  0.00     0.010 A 
ATOM     73  C   UNL A   1      47.667  28.482  26.993  1.00  0.00     0.010 A 
ATOM     74  C   UNL A   1      48.860  26.834  28.915  1.00  0.00     0.020 A 
ATOM     75  C   UNL A   1      48.894  27.869  26.718  1.00  0.00     0.020 A 
ATOM     76  C   UNL A   1      49.496  27.071  27.693  1.00  0.00     0.054 A 
BRANCH  76  77
ATOM     77  S   UNL A   1      51.117  26.317  27.393  1.00  0.00     0.124 S 
ATOM     78  O   UNL A   1      51.889  26.802  28.535  1.00  0.00    -0.237 OA
ATOM     79  O   UNL A   1      50.816  24.887  27.402  1.00  0.00    -0.237 OA
ATOM     80  O   UNL A   1      51.517  26.858  26.096  1.00  0.00    -0.744 OA
ENDBRANCH  76  77
ENDBRANCH  57  71
BRANCH  58  81
ATOM     81  C   UNL A   1      38.189  32.272  30.544  1.00  0.00    -0.014 A 
ATOM     82  C   UNL A   1      37.666  32.054  31.830  1.00  0.00     0.010 A 
ATOM     83  C   UNL A   1      37.486  33.101  29.648  1.00  0.00     0.010 A 
ATOM     84  C   UNL A   1      36.470  32.663  32.219  1.00  0.00     0.020 A 
ATOM     85  C   UNL A   1      36.302  33.728  30.041  1.00  0.00     0.020 A 
ATOM     86  C   UNL A   1      35.801  33.505  31.325  1.00  0.00     0.054 A 
BRANCH  86  87
ATOM     87  S   UNL A   1      34.312  34.376  31.890  1.00  0.00     0.124 S 
ATOM     88  O   UNL A   1      33.703  33.391  32.779  1.00  0.00    -0.237 OA
ATOM     89  O   UNL A   1      34.866  35.561  32.540  1.00  0.00    -0.237 OA
ATOM     90  O   UNL A   1      33.582  34.640  30.651  1.00  0.00    -0.744 OA
ENDBRANCH  86  87
ENDBRANCH  58  81
BRANCH  70  91
ATOM     91  C   UNL A   1      44.757  34.634  30.835  1.00  0.00    -0.014 A 
ATOM     92  C   UNL A   1      45.201  34.817  32.156  1.00  0.00     0.010 A 
ATOM     93  C   UNL A   1      44.921  35.679  29.906  1.00  0.00     0.010 A 
ATOM     94  C   UNL A   1      45.773  36.032  32.548  1.00  0.00     0.020 A 
ATOM     95  C   UNL A   1      45.514  36.885  30.288  1.00  0.00     0.020 A 
ATOM     96  C   UNL A   1      45.924  37.059  31.611  1.00  0.00     0.054 A 
BRANCH  96  97
ATOM     97  S   UNL A   1      46.706  38.611  32.134  1.00  0.00     0.124 S 
ATOM     98  O   UNL A   1      46.359  38.663  33.551  1.00  0.00    -0.237 OA
ATOM     99  O   UNL A   1      48.117  38.376  31.840  1.00  0.00    -0.237 OA
ATOM    100  O   UNL A   1      46.062  39.621  31.297  1.00  0.00    -0.744 OA
ENDBRANCH  96  97
ENDBRANCH  70  91
ENDBRANCH  44  45
ENDBRANCH  36  39
ENDBRANCH  34  35
ENDBRANCH  33  34
ENDBRANCH  32  33
ENDBRANCH  31  32
ENDBRANCH   1  31
TORSDOF 21
ENDMDL
MODEL 3
REMARK VINA RESULT:     -11.1      3.725      6.375
REMARK SMILES CN(C(=O)C[C@@H]1SC(=O)N(c2ccccc2)C1=O)c1ccccc1C(=O)NCCCCCCNC(=O)c1ccc(-c2c3nc(c(-c4ccc(S(=O)(=O)[O-])cc4)c4ccc([nH]4)c(-c4ccc(S(=O)(=O)[O-])cc4)c4nc(c(-c5ccc(S(=O)(=O)[O-])cc5)c5ccc2[nH]5)C=C4)C=C3)cc1
REMARK SMILES IDX 29 1 28 2 27 3 25 4 26 5 24 7 19 8 20 9 21 10 23 11 22 12
REMARK SMILES IDX 2 13 1 14 3 15 4 16 5 17 6 18 7 19 17 20 8 21 10 22 18 23
REMARK SMILES IDX 9 24 11 25 12 26 16 27 13 28 15 29 14 30 30 31 31 32 32 33
REMARK SMILES IDX 33 34 34 35 35 36 36 38 37 39 38 40 96 41 39 42 95 43 40 44
REMARK SMILES IDX 41 45 42 46 89 47 43 48 94 49 88 50 90 51 44 52 93 53 87 54
REMARK SMILES IDX 86 55 45 57 75 58 56 59 74 60 57 61 60 62 73 63 91 64 58 65
REMARK SMILES IDX 59 66 72 68 92 69 61 70 46 71 47 72 55 73 48 74 54 75 49 76
REMARK SMILES IDX 50 77 51 78 52 79 53 80 76 81 77 82 85 83 78 84 84 85 79 86
REMARK SMILES IDX 80 87 81 88 82 89 83 90 62 91 63 92 71 93 64 94 70 95 65 96
REMARK SMILES IDX 66 97 67 98 68 99 69 100
REMARK H PARENT 27 6 34 37 90 56 60 67
REMARK Flexibility Score: inf
ROOT
ATOM      1  C   UNL A   1      37.545  22.072  25.003  1.00  0.00     0.021 C 
ENDROOT
BRANCH   1   2
ATOM      2  C   UNL A   1      36.696  23.118  25.716  1.00  0.00     0.116 C 
BRANCH   2   3
ATOM      3  N   UNL A   1      35.694  22.446  26.506  1.00  0.00    -0.352 N 
ATOM      4  C   UNL A   1      34.533  21.756  26.370  1.00  0.00     0.253 C 
ATOM      5  O   UNL A   1      34.072  21.450  27.483  1.00  0.00    -0.269 OA
ATOM      6  H   UNL A   1      35.930  22.509  27.460  1.00  0.00     0.163 HD
BRANCH   4   7
ATOM      7  C   UNL A   1      33.794  21.260  25.156  1.00  0.00     0.063 A 
ATOM      8  C   UNL A   1      33.087  21.891  24.108  1.00  0.00     0.056 A 
ATOM      9  C   UNL A   1      32.404  21.074  23.158  1.00  0.00     0.027 A 
ATOM     10  C   UNL A   1      32.342  19.687  23.249  1.00  0.00     0.002 A 
ATOM     11  C   UNL A   1      33.729  19.830  25.186  1.00  0.00     0.016 A 
ATOM     12  C   UNL A   1      33.009  19.058  24.273  1.00  0.00     0.001 A 
BRANCH   8  13
ATOM     13  N   UNL A   1      32.947  23.311  23.878  1.00  0.00    -0.315 N 
ATOM     14  C   UNL A   1      33.845  23.798  22.826  1.00  0.00     0.153 C 
BRANCH  13  15
ATOM     15  C   UNL A   1      31.630  23.840  23.917  1.00  0.00     0.228 C 
ATOM     16  O   UNL A   1      30.726  23.459  23.165  1.00  0.00    -0.274 OA
BRANCH  15  17
ATOM     17  C   UNL A   1      31.258  24.854  24.999  1.00  0.00     0.125 C 
BRANCH  17  18
ATOM     18  C   UNL A   1      31.467  26.276  24.504  1.00  0.00     0.156 C 
ATOM     19  S   UNL A   1      32.706  27.290  25.346  1.00  0.00    -0.050 SA
ATOM     20  C   UNL A   1      30.280  27.217  24.377  1.00  0.00     0.248 C 
ATOM     21  C   UNL A   1      32.042  28.752  24.661  1.00  0.00     0.293 C 
ATOM     22  N   UNL A   1      30.770  28.515  24.176  1.00  0.00    -0.240 N 
ATOM     23  O   UNL A   1      29.130  26.810  24.262  1.00  0.00    -0.273 OA
ATOM     24  O   UNL A   1      32.695  29.780  24.666  1.00  0.00    -0.261 OA
BRANCH  22  25
ATOM     25  C   UNL A   1      30.061  29.521  23.449  1.00  0.00     0.053 A 
ATOM     26  C   UNL A   1      29.953  29.503  22.055  1.00  0.00     0.027 A 
ATOM     27  C   UNL A   1      29.509  30.621  24.133  1.00  0.00     0.027 A 
ATOM     28  C   UNL A   1      29.319  30.550  21.371  1.00  0.00     0.002 A 
ATOM     29  C   UNL A   1      28.886  31.670  23.453  1.00  0.00     0.002 A 
ATOM     30  C   UNL A   1      28.793  31.634  22.068  1.00  0.00     0.000 A 
ENDBRANCH  22  25
ENDBRANCH  17  18
ENDBRANCH  15  17
ENDBRANCH  13  15
ENDBRANCH   8  13
ENDBRANCH   4   7
ENDBRANCH   2   3
ENDBRANCH   1   2
BRANCH   1  31
ATOM     31  C   UNL A   1      38.794  21.565  25.727  1.00  0.00     0.002 C 
BRANCH  31  32
ATOM     32  C   UNL A   1      39.490  22.525  26.690  1.00  0.00     0.002 C 
BRANCH  32  33
ATOM     33  C   UNL A   1      40.833  22.067  27.258  1.00  0.00     0.021 C 
BRANCH  33  34
ATOM     34  C   UNL A   1      41.982  23.074  27.204  1.00  0.00     0.116 C 
BRANCH  34  35
ATOM     35  N   UNL A   1      41.919  23.976  26.069  1.00  0.00    -0.352 N 
ATOM     36  C   UNL A   1      41.690  25.329  25.999  1.00  0.00     0.251 C 
ATOM     37  H   UNL A   1      42.067  23.544  25.198  1.00  0.00     0.163 HD
ATOM     38  O   UNL A   1      41.616  25.852  24.888  1.00  0.00    -0.269 OA
BRANCH  36  39
ATOM     39  C   UNL A   1      41.499  26.166  27.211  1.00  0.00     0.039 A 
ATOM     40  C   UNL A   1      42.451  27.154  27.491  1.00  0.00     0.014 A 
ATOM     41  C   UNL A   1      40.443  25.970  28.101  1.00  0.00     0.014 A 
ATOM     42  C   UNL A   1      42.309  27.972  28.618  1.00  0.00     0.010 A 
ATOM     43  C   UNL A   1      40.271  26.818  29.198  1.00  0.00     0.010 A 
ATOM     44  C   UNL A   1      41.202  27.829  29.466  1.00  0.00    -0.014 A 
BRANCH  44  45
ATOM     45  C   UNL A   1      40.986  28.764  30.600  1.00  0.00     0.031 A 
ATOM     46  C   UNL A   1      41.796  28.660  31.861  1.00  0.00     0.074 A 
ATOM     47  C   UNL A   1      40.003  29.682  30.513  1.00  0.00     0.049 A 
ATOM     48  N   UNL A   1      41.749  29.408  32.934  1.00  0.00    -0.248 NA
ATOM     49  C   UNL A   1      42.773  27.563  31.934  1.00  0.00     0.031 C 
ATOM     50  C   UNL A   1      39.103  29.845  29.370  1.00  0.00     0.029 A 
ATOM     51  N   UNL A   1      39.591  30.641  31.404  1.00  0.00    -0.354 N 
ATOM     52  C   UNL A   1      42.685  28.874  33.812  1.00  0.00     0.074 A 
ATOM     53  C   UNL A   1      43.249  27.709  33.163  1.00  0.00     0.031 C 
ATOM     54  C   UNL A   1      38.253  30.854  29.623  1.00  0.00     0.029 A 
ATOM     55  C   UNL A   1      38.531  31.390  30.953  1.00  0.00     0.049 A 
ATOM     56  H   UNL A   1      40.013  30.778  32.283  1.00  0.00     0.167 HD
ATOM     57  C   UNL A   1      43.051  29.319  35.041  1.00  0.00     0.031 A 
ATOM     58  C   UNL A   1      37.853  32.396  31.538  1.00  0.00     0.031 A 
ATOM     59  C   UNL A   1      42.473  30.465  35.693  1.00  0.00     0.049 A 
ATOM     60  C   UNL A   1      38.275  32.881  32.895  1.00  0.00     0.074 A 
ATOM     61  C   UNL A   1      42.821  31.032  36.908  1.00  0.00     0.029 A 
ATOM     62  N   UNL A   1      41.413  31.211  35.195  1.00  0.00    -0.354 N 
ATOM     63  N   UNL A   1      39.231  32.425  33.668  1.00  0.00    -0.248 NA
ATOM     64  C   UNL A   1      37.540  34.024  33.450  1.00  0.00     0.031 C 
ATOM     65  C   UNL A   1      41.938  32.086  37.169  1.00  0.00     0.029 A 
ATOM     66  C   UNL A   1      41.075  32.213  36.092  1.00  0.00     0.049 A 
ATOM     67  H   UNL A   1      40.967  31.051  34.332  1.00  0.00     0.167 HD
ATOM     68  C   UNL A   1      39.224  33.238  34.796  1.00  0.00     0.074 A 
ATOM     69  C   UNL A   1      38.178  34.221  34.596  1.00  0.00     0.031 C 
ATOM     70  C   UNL A   1      40.018  33.175  35.894  1.00  0.00     0.031 A 
BRANCH  57  71
ATOM     71  C   UNL A   1      44.119  28.539  35.763  1.00  0.00    -0.014 A 
ATOM     72  C   UNL A   1      45.485  28.794  35.535  1.00  0.00     0.010 A 
ATOM     73  C   UNL A   1      43.757  27.539  36.682  1.00  0.00     0.010 A 
ATOM     74  C   UNL A   1      46.464  28.020  36.161  1.00  0.00     0.020 A 
ATOM     75  C   UNL A   1      44.735  26.780  37.333  1.00  0.00     0.020 A 
ATOM     76  C   UNL A   1      46.083  27.007  37.046  1.00  0.00     0.054 A 
BRANCH  76  77
ATOM     77  S   UNL A   1      47.373  25.996  37.822  1.00  0.00     0.124 S 
ATOM     78  O   UNL A   1      46.755  24.672  37.822  1.00  0.00    -0.237 OA
ATOM     79  O   UNL A   1      48.504  26.160  36.912  1.00  0.00    -0.237 OA
ATOM     80  O   UNL A   1      47.544  26.604  39.139  1.00  0.00    -0.744 OA
ENDBRANCH  76  77
ENDBRANCH  57  71
BRANCH  58  81
ATOM     81  C   UNL A   1      36.720  33.023  30.808  1.00  0.00    -0.014 A 
ATOM     82  C   UNL A   1      35.401  32.595  31.033  1.00  0.00     0.010 A 
ATOM     83  C   UNL A   1      36.953  34.110  29.945  1.00  0.00     0.010 A 
ATOM     84  C   UNL A   1      34.331  33.251  30.416  1.00  0.00     0.020 A 
ATOM     85  C   UNL A   1      35.885  34.781  29.344  1.00  0.00     0.020 A 
ATOM     86  C   UNL A   1      34.580  34.347  29.584  1.00  0.00     0.054 A 
BRANCH  86  87
ATOM     87  S   UNL A   1      33.171  35.255  28.886  1.00  0.00     0.124 S 
ATOM     88  O   UNL A   1      32.482  35.716  30.087  1.00  0.00    -0.237 OA
ATOM     89  O   UNL A   1      33.826  36.292  28.092  1.00  0.00    -0.237 OA
ATOM     90  O   UNL A   1      32.465  34.240  28.107  1.00  0.00    -0.744 OA
ENDBRANCH  86  87
ENDBRANCH  58  81
BRANCH  70  91
ATOM     91  C   UNL A   1      39.794  34.207  36.969  1.00  0.00    -0.014 A 
ATOM     92  C   UNL A   1      38.998  33.926  38.092  1.00  0.00     0.010 A 
ATOM     93  C   UNL A   1      40.429  35.459  36.874  1.00  0.00     0.010 A 
ATOM     94  C   UNL A   1      38.817  34.890  39.090  1.00  0.00     0.020 A 
ATOM     95  C   UNL A   1      40.272  36.415  37.881  1.00  0.00     0.020 A 
ATOM     96  C   UNL A   1      39.455  36.130  38.976  1.00  0.00     0.054 A 
BRANCH  96  97
ATOM     97  S   UNL A   1      39.238  37.349  40.302  1.00  0.00     0.124 S 
ATOM     98  O   UNL A   1      38.839  36.507  41.426  1.00  0.00    -0.237 OA
ATOM     99  O   UNL A   1      40.566  37.950  40.407  1.00  0.00    -0.237 OA
ATOM    100  O   UNL A   1      38.198  38.238  39.789  1.00  0.00    -0.744 OA
ENDBRANCH  96  97
ENDBRANCH  70  91
ENDBRANCH  44  45
ENDBRANCH  36  39
ENDBRANCH  34  35
ENDBRANCH  33  34
ENDBRANCH  32  33
ENDBRANCH  31  32
ENDBRANCH   1  31
TORSDOF 21
ENDMDL
