MODEL 1
REMARK VINA RESULT:     -10.9      0.000      0.000
REMARK SMILES CS(=O)(=O)c1cccc(NS(=O)(=O)CCCC(=O)NCCCCCCNC(=O)c2ccc(-c3c4nc(c(-c5ccc(S(=O)(=O)[O-])cc5)c5ccc([nH]5)c(-c5ccc(S(=O)(=O)[O-])cc5)c5nc(c(-c6ccc(S(=O)(=O)[O-])cc6)c6ccc3[nH]6)C=C5)C=C4)cc2)c1
REMARK SMILES IDX 21 1 20 2 19 3 17 4 18 5 16 7 15 8 14 9 11 10 12 11 13 12
REMARK SMILES IDX 10 13 9 15 5 16 6 17 89 18 7 19 8 20 2 21 1 22 3 23 4 24
REMARK SMILES IDX 22 25 23 26 24 27 25 28 26 29 27 30 28 32 29 33 30 34 88 35
REMARK SMILES IDX 31 36 87 37 32 38 33 39 34 40 81 41 35 42 86 43 80 44 82 45
REMARK SMILES IDX 36 46 85 47 79 48 78 49 37 51 67 52 48 53 66 54 49 55 52 56
REMARK SMILES IDX 65 57 83 58 50 59 51 60 64 62 84 63 53 64 38 65 39 66 47 67
REMARK SMILES IDX 40 68 46 69 41 70 42 71 43 72 44 73 45 74 68 75 69 76 77 77
REMARK SMILES IDX 70 78 76 79 71 80 72 81 73 82 74 83 75 84 54 85 55 86 63 87
REMARK SMILES IDX 56 88 62 89 57 90 58 91 59 92 60 93 61 94
REMARK H PARENT 19 6 10 14 26 31 82 50 52 61
REMARK Flexibility Score: inf
ROOT
ATOM      1  C   UNL A   1      37.083  22.325  24.971  1.00  0.00     0.021 C 
ENDROOT
BRANCH   1   2
ATOM      2  C   UNL A   1      35.859  22.039  24.097  1.00  0.00     0.116 C 
BRANCH   2   3
ATOM      3  N   UNL A   1      34.890  21.280  24.843  1.00  0.00    -0.356 N 
ATOM      4  C   UNL A   1      33.569  21.435  25.052  1.00  0.00     0.220 C 
ATOM      5  O   UNL A   1      33.082  20.670  25.898  1.00  0.00    -0.275 OA
ATOM      6  H   UNL A   1      35.269  20.488  25.289  1.00  0.00     0.163 HD
BRANCH   4   7
ATOM      7  C   UNL A   1      32.617  22.317  24.246  1.00  0.00     0.101 C 
BRANCH   7   8
ATOM      8  C   UNL A   1      32.517  22.567  22.736  1.00  0.00     0.028 C 
BRANCH   8   9
ATOM      9  C   UNL A   1      33.090  23.734  21.932  1.00  0.00     0.160 C 
BRANCH   9  10
ATOM     10  S   UNL A   1      33.201  25.383  22.648  1.00  0.00     0.232 S 
ATOM     11  O   UNL A   1      33.676  26.244  21.581  1.00  0.00    -0.207 OA
ATOM     12  O   UNL A   1      33.898  25.338  23.910  1.00  0.00    -0.207 OA
BRANCH  10  13
ATOM     13  N   UNL A   1      31.611  25.900  22.863  1.00  0.00    -0.284 N 
ATOM     14  H   UNL A   1      30.895  25.226  22.815  1.00  0.00     0.180 HD
BRANCH  13  15
ATOM     15  C   UNL A   1      31.239  27.261  23.109  1.00  0.00     0.050 A 
ATOM     16  C   UNL A   1      29.531  28.976  23.158  1.00  0.00     0.069 A 
ATOM     17  C   UNL A   1      30.295  29.737  24.050  1.00  0.00     0.020 A 
ATOM     18  C   UNL A   1      29.969  27.714  22.725  1.00  0.00     0.047 A 
ATOM     19  C   UNL A   1      31.546  29.288  24.426  1.00  0.00     0.004 A 
ATOM     20  C   UNL A   1      32.020  28.087  23.907  1.00  0.00     0.027 A 
BRANCH  16  21
ATOM     21  S   UNL A   1      28.046  29.753  22.574  1.00  0.00     0.175 S 
ATOM     22  C   UNL A   1      27.923  31.339  23.338  1.00  0.00     0.163 C 
ATOM     23  O   UNL A   1      26.948  28.953  23.088  1.00  0.00    -0.224 OA
ATOM     24  O   UNL A   1      28.222  29.950  21.148  1.00  0.00    -0.224 OA
ENDBRANCH  16  21
ENDBRANCH  13  15
ENDBRANCH  10  13
ENDBRANCH   9  10
ENDBRANCH   8   9
ENDBRANCH   7   8
ENDBRANCH   4   7
ENDBRANCH   2   3
ENDBRANCH   1   2
BRANCH   1  25
ATOM     25  C   UNL A   1      37.158  23.790  25.405  1.00  0.00     0.002 C 
BRANCH  25  26
ATOM     26  C   UNL A   1      38.139  24.038  26.557  1.00  0.00     0.002 C 
BRANCH  26  27
ATOM     27  C   UNL A   1      39.281  23.021  26.683  1.00  0.00     0.021 C 
BRANCH  27  28
ATOM     28  C   UNL A   1      40.629  23.594  27.117  1.00  0.00     0.116 C 
BRANCH  28  29
ATOM     29  N   UNL A   1      41.320  24.265  26.029  1.00  0.00    -0.352 N 
ATOM     30  C   UNL A   1      41.635  25.592  25.884  1.00  0.00     0.251 C 
ATOM     31  H   UNL A   1      41.605  23.682  25.288  1.00  0.00     0.163 HD
ATOM     32  O   UNL A   1      42.087  26.000  24.818  1.00  0.00    -0.269 OA
BRANCH  30  33
ATOM     33  C   UNL A   1      41.407  26.532  27.001  1.00  0.00     0.039 A 
ATOM     34  C   UNL A   1      40.447  26.212  27.964  1.00  0.00     0.014 A 
ATOM     35  C   UNL A   1      42.127  27.727  27.093  1.00  0.00     0.014 A 
ATOM     36  C   UNL A   1      40.243  27.066  29.050  1.00  0.00     0.010 A 
ATOM     37  C   UNL A   1      41.963  28.549  28.206  1.00  0.00     0.010 A 
ATOM     38  C   UNL A   1      41.018  28.227  29.193  1.00  0.00    -0.014 A 
BRANCH  38  39
ATOM     39  C   UNL A   1      40.853  29.118  30.369  1.00  0.00     0.031 A 
ATOM     40  C   UNL A   1      41.711  28.924  31.590  1.00  0.00     0.074 A 
ATOM     41  C   UNL A   1      39.883  30.053  30.363  1.00  0.00     0.049 A 
ATOM     42  N   UNL A   1      41.672  29.559  32.733  1.00  0.00    -0.248 NA
ATOM     43  C   UNL A   1      42.729  27.862  31.528  1.00  0.00     0.031 C 
ATOM     44  C   UNL A   1      38.954  30.305  29.258  1.00  0.00     0.029 A 
ATOM     45  N   UNL A   1      39.507  30.959  31.324  1.00  0.00    -0.354 N 
ATOM     46  C   UNL A   1      42.637  28.959  33.533  1.00  0.00     0.074 A 
ATOM     47  C   UNL A   1      43.223  27.888  32.757  1.00  0.00     0.031 C 
ATOM     48  C   UNL A   1      38.126  31.307  29.600  1.00  0.00     0.029 A 
ATOM     49  C   UNL A   1      38.442  31.746  30.955  1.00  0.00     0.049 A 
ATOM     50  H   UNL A   1      39.958  31.038  32.195  1.00  0.00     0.167 HD
ATOM     51  C   UNL A   1      43.010  29.279  34.795  1.00  0.00     0.031 A 
ATOM     52  C   UNL A   1      37.788  32.709  31.634  1.00  0.00     0.031 A 
ATOM     53  C   UNL A   1      42.444  30.364  35.553  1.00  0.00     0.049 A 
ATOM     54  C   UNL A   1      38.239  33.063  33.024  1.00  0.00     0.074 A 
ATOM     55  C   UNL A   1      42.812  30.819  36.807  1.00  0.00     0.029 A 
ATOM     56  N   UNL A   1      41.393  31.162  35.129  1.00  0.00    -0.354 N 
ATOM     57  N   UNL A   1      39.210  32.537  33.732  1.00  0.00    -0.248 NA
ATOM     58  C   UNL A   1      37.515  34.147  33.701  1.00  0.00     0.031 C 
ATOM     59  C   UNL A   1      41.953  31.866  37.160  1.00  0.00     0.029 A 
ATOM     60  C   UNL A   1      41.083  32.092  36.106  1.00  0.00     0.049 A 
ATOM     61  H   UNL A   1      40.935  31.079  34.261  1.00  0.00     0.167 HD
ATOM     62  C   UNL A   1      39.230  33.244  34.928  1.00  0.00     0.074 A 
ATOM     63  C   UNL A   1      38.184  34.243  34.843  1.00  0.00     0.031 C 
ATOM     64  C   UNL A   1      40.042  33.082  36.001  1.00  0.00     0.031 A 
BRANCH  51  65
ATOM     65  C   UNL A   1      44.079  28.441  35.442  1.00  0.00    -0.014 A 
ATOM     66  C   UNL A   1      43.752  27.293  36.186  1.00  0.00     0.010 A 
ATOM     67  C   UNL A   1      45.433  28.778  35.261  1.00  0.00     0.010 A 
ATOM     68  C   UNL A   1      44.759  26.517  36.767  1.00  0.00     0.020 A 
ATOM     69  C   UNL A   1      46.444  27.990  35.820  1.00  0.00     0.020 A 
ATOM     70  C   UNL A   1      46.099  26.873  36.583  1.00  0.00     0.054 A 
BRANCH  70  71
ATOM     71  S   UNL A   1      47.387  25.832  37.323  1.00  0.00     0.124 S 
ATOM     72  O   UNL A   1      48.021  26.758  38.258  1.00  0.00    -0.237 OA
ATOM     73  O   UNL A   1      46.616  24.752  37.935  1.00  0.00    -0.237 OA
ATOM     74  O   UNL A   1      48.210  25.436  36.183  1.00  0.00    -0.744 OA
ENDBRANCH  70  71
ENDBRANCH  51  65
BRANCH  52  75
ATOM     75  C   UNL A   1      36.639  33.414  31.004  1.00  0.00    -0.014 A 
ATOM     76  C   UNL A   1      35.381  33.430  31.630  1.00  0.00     0.010 A 
ATOM     77  C   UNL A   1      36.801  34.079  29.775  1.00  0.00     0.010 A 
ATOM     78  C   UNL A   1      34.298  34.077  31.027  1.00  0.00     0.020 A 
ATOM     79  C   UNL A   1      35.727  34.749  29.181  1.00  0.00     0.020 A 
ATOM     80  C   UNL A   1      34.478  34.731  29.805  1.00  0.00     0.054 A 
BRANCH  80  81
ATOM     81  S   UNL A   1      33.072  35.605  29.061  1.00  0.00     0.124 S 
ATOM     82  O   UNL A   1      33.739  36.659  28.304  1.00  0.00    -0.237 OA
ATOM     83  O   UNL A   1      32.433  34.561  28.265  1.00  0.00    -0.237 OA
ATOM     84  O   UNL A   1      32.301  36.053  30.218  1.00  0.00    -0.744 OA
ENDBRANCH  80  81
ENDBRANCH  52  75
BRANCH  64  85
ATOM     85  C   UNL A   1      39.854  34.023  37.159  1.00  0.00    -0.014 A 
ATOM     86  C   UNL A   1      40.521  35.259  37.205  1.00  0.00     0.010 A 
ATOM     87  C   UNL A   1      38.955  33.687  38.188  1.00  0.00     0.010 A 
ATOM     88  C   UNL A   1      40.312  36.133  38.276  1.00  0.00     0.020 A 
ATOM     89  C   UNL A   1      38.724  34.568  39.246  1.00  0.00     0.020 A 
ATOM     90  C   UNL A   1      39.415  35.781  39.290  1.00  0.00     0.054 A 
BRANCH  90  91
ATOM     91  S   UNL A   1      39.123  36.951  40.646  1.00  0.00     0.124 S 
ATOM     92  O   UNL A   1      38.501  36.097  41.654  1.00  0.00    -0.237 OA
ATOM     93  O   UNL A   1      40.470  37.420  40.962  1.00  0.00    -0.237 OA
ATOM     94  O   UNL A   1      38.244  37.956  40.051  1.00  0.00    -0.744 OA
ENDBRANCH  90  91
ENDBRANCH  64  85
ENDBRANCH  38  39
ENDBRANCH  30  33
ENDBRANCH  28  29
ENDBRANCH  27  28
ENDBRANCH  26  27
ENDBRANCH  25  26
ENDBRANCH   1  25
TORSDOF 22
ENDMDL
MODEL 2
REMARK VINA RESULT:     -10.9      5.955      8.236
REMARK SMILES CS(=O)(=O)c1cccc(NS(=O)(=O)CCCC(=O)NCCCCCCNC(=O)c2ccc(-c3c4nc(c(-c5ccc(S(=O)(=O)[O-])cc5)c5ccc([nH]5)c(-c5ccc(S(=O)(=O)[O-])cc5)c5nc(c(-c6ccc(S(=O)(=O)[O-])cc6)c6ccc3[nH]6)C=C5)C=C4)cc2)c1
REMARK SMILES IDX 21 1 20 2 19 3 17 4 18 5 16 7 15 8 14 9 11 10 12 11 13 12
REMARK SMILES IDX 10 13 9 15 5 16 6 17 89 18 7 19 8 20 2 21 1 22 3 23 4 24
REMARK SMILES IDX 22 25 23 26 24 27 25 28 26 29 27 30 28 32 29 33 30 34 88 35
REMARK SMILES IDX 31 36 87 37 32 38 33 39 34 40 81 41 35 42 86 43 80 44 82 45
REMARK SMILES IDX 36 46 85 47 79 48 78 49 37 51 67 52 48 53 66 54 49 55 52 56
REMARK SMILES IDX 65 57 83 58 50 59 51 60 64 62 84 63 53 64 38 65 39 66 47 67
REMARK SMILES IDX 40 68 46 69 41 70 42 71 43 72 44 73 45 74 68 75 69 76 77 77
REMARK SMILES IDX 70 78 76 79 71 80 72 81 73 82 74 83 75 84 54 85 55 86 63 87
REMARK SMILES IDX 56 88 62 89 57 90 58 91 59 92 60 93 61 94
REMARK H PARENT 19 6 10 14 26 31 82 50 52 61
REMARK Flexibility Score: inf
ROOT
ATOM      1  C   UNL A   1      35.372  21.701  26.083  1.00  0.00     0.021 C 
ENDROOT
BRANCH   1   2
ATOM      2  C   UNL A   1      34.048  21.370  26.775  1.00  0.00     0.116 C 
BRANCH   2   3
ATOM      3  N   UNL A   1      33.364  20.328  26.056  1.00  0.00    -0.356 N 
ATOM      4  C   UNL A   1      32.500  20.342  25.022  1.00  0.00     0.220 C 
ATOM      5  O   UNL A   1      31.975  19.248  24.767  1.00  0.00    -0.275 OA
ATOM      6  H   UNL A   1      33.568  19.423  26.386  1.00  0.00     0.163 HD
BRANCH   4   7
ATOM      7  C   UNL A   1      32.251  21.503  24.062  1.00  0.00     0.101 C 
BRANCH   7   8
ATOM      8  C   UNL A   1      33.221  22.312  23.191  1.00  0.00     0.028 C 
BRANCH   8   9
ATOM      9  C   UNL A   1      32.920  23.073  21.900  1.00  0.00     0.160 C 
BRANCH   9  10
ATOM     10  S   UNL A   1      32.953  24.873  21.858  1.00  0.00     0.232 S 
ATOM     11  O   UNL A   1      33.003  25.234  20.453  1.00  0.00    -0.207 OA
ATOM     12  O   UNL A   1      33.946  25.379  22.775  1.00  0.00    -0.207 OA
BRANCH  10  13
ATOM     13  N   UNL A   1      31.409  25.373  22.316  1.00  0.00    -0.284 N 
ATOM     14  H   UNL A   1      30.647  24.799  22.075  1.00  0.00     0.180 HD
BRANCH  13  15
ATOM     15  C   UNL A   1      31.140  26.584  23.033  1.00  0.00     0.050 A 
ATOM     16  C   UNL A   1      31.549  28.002  24.951  1.00  0.00     0.069 A 
ATOM     17  C   UNL A   1      31.092  29.120  24.245  1.00  0.00     0.020 A 
ATOM     18  C   UNL A   1      31.627  26.741  24.337  1.00  0.00     0.047 A 
ATOM     19  C   UNL A   1      30.611  28.961  22.959  1.00  0.00     0.004 A 
ATOM     20  C   UNL A   1      30.592  27.690  22.395  1.00  0.00     0.027 A 
BRANCH  16  21
ATOM     21  S   UNL A   1      31.929  28.286  26.661  1.00  0.00     0.175 S 
ATOM     22  C   UNL A   1      33.686  28.338  26.828  1.00  0.00     0.163 C 
ATOM     23  O   UNL A   1      31.475  27.104  27.372  1.00  0.00    -0.224 OA
ATOM     24  O   UNL A   1      31.405  29.598  26.984  1.00  0.00    -0.224 OA
ENDBRANCH  16  21
ENDBRANCH  13  15
ENDBRANCH  10  13
ENDBRANCH   9  10
ENDBRANCH   8   9
ENDBRANCH   7   8
ENDBRANCH   4   7
ENDBRANCH   2   3
ENDBRANCH   1   2
BRANCH   1  25
ATOM     25  C   UNL A   1      35.935  20.508  25.306  1.00  0.00     0.002 C 
BRANCH  25  26
ATOM     26  C   UNL A   1      37.322  20.767  24.707  1.00  0.00     0.002 C 
BRANCH  26  27
ATOM     27  C   UNL A   1      38.409  19.754  25.091  1.00  0.00     0.021 C 
BRANCH  27  28
ATOM     28  C   UNL A   1      39.480  20.269  26.050  1.00  0.00     0.116 C 
BRANCH  28  29
ATOM     29  N   UNL A   1      40.629  19.381  26.123  1.00  0.00    -0.352 N 
ATOM     30  C   UNL A   1      41.962  19.689  26.227  1.00  0.00     0.251 C 
ATOM     31  H   UNL A   1      40.421  18.419  26.094  1.00  0.00     0.163 HD
ATOM     32  O   UNL A   1      42.804  18.802  26.119  1.00  0.00    -0.269 OA
BRANCH  30  33
ATOM     33  C   UNL A   1      42.382  21.089  26.446  1.00  0.00     0.039 A 
ATOM     34  C   UNL A   1      42.608  21.526  27.753  1.00  0.00     0.014 A 
ATOM     35  C   UNL A   1      42.540  21.968  25.371  1.00  0.00     0.014 A 
ATOM     36  C   UNL A   1      43.045  22.833  27.981  1.00  0.00     0.010 A 
ATOM     37  C   UNL A   1      43.030  23.254  25.595  1.00  0.00     0.010 A 
ATOM     38  C   UNL A   1      43.284  23.698  26.902  1.00  0.00    -0.014 A 
BRANCH  38  39
ATOM     39  C   UNL A   1      43.800  25.072  27.122  1.00  0.00     0.031 A 
ATOM     40  C   UNL A   1      45.256  25.378  26.897  1.00  0.00     0.074 A 
ATOM     41  C   UNL A   1      42.972  26.026  27.592  1.00  0.00     0.049 A 
ATOM     42  N   UNL A   1      45.903  26.497  27.095  1.00  0.00    -0.248 NA
ATOM     43  C   UNL A   1      46.102  24.274  26.410  1.00  0.00     0.031 C 
ATOM     44  C   UNL A   1      41.550  25.840  27.896  1.00  0.00     0.029 A 
ATOM     45  N   UNL A   1      43.209  27.340  27.910  1.00  0.00    -0.354 N 
ATOM     46  C   UNL A   1      47.230  26.229  26.785  1.00  0.00     0.074 A 
ATOM     47  C   UNL A   1      47.304  24.831  26.416  1.00  0.00     0.031 C 
ATOM     48  C   UNL A   1      41.041  27.000  28.342  1.00  0.00     0.029 A 
ATOM     49  C   UNL A   1      42.102  28.001  28.387  1.00  0.00     0.049 A 
ATOM     50  H   UNL A   1      44.088  27.769  27.804  1.00  0.00     0.167 HD
ATOM     51  C   UNL A   1      48.290  27.072  26.794  1.00  0.00     0.031 A 
ATOM     52  C   UNL A   1      41.958  29.269  28.821  1.00  0.00     0.031 A 
ATOM     53  C   UNL A   1      48.208  28.468  27.133  1.00  0.00     0.049 A 
ATOM     54  C   UNL A   1      43.146  30.192  28.795  1.00  0.00     0.074 A 
ATOM     55  C   UNL A   1      49.209  29.422  27.092  1.00  0.00     0.029 A 
ATOM     56  N   UNL A   1      47.061  29.108  27.575  1.00  0.00    -0.354 N 
ATOM     57  N   UNL A   1      44.376  29.938  28.418  1.00  0.00    -0.248 NA
ATOM     58  C   UNL A   1      42.922  31.574  29.241  1.00  0.00     0.031 C 
ATOM     59  C   UNL A   1      48.677  30.632  27.552  1.00  0.00     0.029 A 
ATOM     60  C   UNL A   1      47.334  30.440  27.834  1.00  0.00     0.049 A 
ATOM     61  H   UNL A   1      46.182  28.678  27.689  1.00  0.00     0.167 HD
ATOM     62  C   UNL A   1      45.067  31.136  28.558  1.00  0.00     0.074 A 
ATOM     63  C   UNL A   1      44.115  32.117  29.040  1.00  0.00     0.031 C 
ATOM     64  C   UNL A   1      46.373  31.402  28.309  1.00  0.00     0.031 A 
BRANCH  51  65
ATOM     65  C   UNL A   1      49.637  26.507  26.431  1.00  0.00    -0.014 A 
ATOM     66  C   UNL A   1      50.105  26.537  25.104  1.00  0.00     0.010 A 
ATOM     67  C   UNL A   1      50.469  25.986  27.439  1.00  0.00     0.010 A 
ATOM     68  C   UNL A   1      51.365  26.022  24.788  1.00  0.00     0.020 A 
ATOM     69  C   UNL A   1      51.740  25.493  27.130  1.00  0.00     0.020 A 
ATOM     70  C   UNL A   1      52.174  25.500  25.803  1.00  0.00     0.054 A 
BRANCH  70  71
ATOM     71  S   UNL A   1      53.817  24.867  25.369  1.00  0.00     0.124 S 
ATOM     72  O   UNL A   1      54.196  25.746  24.265  1.00  0.00    -0.237 OA
ATOM     73  O   UNL A   1      54.571  25.052  26.607  1.00  0.00    -0.237 OA
ATOM     74  O   UNL A   1      53.566  23.477  25.000  1.00  0.00    -0.744 OA
ENDBRANCH  70  71
ENDBRANCH  51  65
BRANCH  52  75
ATOM     75  C   UNL A   1      40.636  29.743  29.309  1.00  0.00    -0.014 A 
ATOM     76  C   UNL A   1      39.559  29.893  28.419  1.00  0.00     0.010 A 
ATOM     77  C   UNL A   1      40.446  30.042  30.670  1.00  0.00     0.010 A 
ATOM     78  C   UNL A   1      38.322  30.358  28.876  1.00  0.00     0.020 A 
ATOM     79  C   UNL A   1      39.204  30.482  31.136  1.00  0.00     0.020 A 
ATOM     80  C   UNL A   1      38.153  30.651  30.232  1.00  0.00     0.054 A 
BRANCH  80  81
ATOM     81  S   UNL A   1      36.526  31.208  30.816  1.00  0.00     0.124 S 
ATOM     82  O   UNL A   1      36.089  30.072  31.619  1.00  0.00    -0.237 OA
ATOM     83  O   UNL A   1      36.854  32.422  31.560  1.00  0.00    -0.237 OA
ATOM     84  O   UNL A   1      35.781  31.430  29.579  1.00  0.00    -0.744 OA
ENDBRANCH  80  81
ENDBRANCH  52  75
BRANCH  64  85
ATOM     85  C   UNL A   1      46.844  32.814  28.522  1.00  0.00    -0.014 A 
ATOM     86  C   UNL A   1      47.402  33.216  29.748  1.00  0.00     0.010 A 
ATOM     87  C   UNL A   1      46.778  33.735  27.460  1.00  0.00     0.010 A 
ATOM     88  C   UNL A   1      47.860  34.526  29.917  1.00  0.00     0.020 A 
ATOM     89  C   UNL A   1      47.258  35.036  27.617  1.00  0.00     0.020 A 
ATOM     90  C   UNL A   1      47.785  35.428  28.851  1.00  0.00     0.054 A 
BRANCH  90  91
ATOM     91  S   UNL A   1      48.430  37.108  29.078  1.00  0.00     0.124 S 
ATOM     92  O   UNL A   1      47.769  37.834  27.997  1.00  0.00    -0.237 OA
ATOM     93  O   UNL A   1      47.983  37.445  30.427  1.00  0.00    -0.237 OA
ATOM     94  O   UNL A   1      49.875  36.946  28.929  1.00  0.00    -0.744 OA
ENDBRANCH  90  91
ENDBRANCH  64  85
ENDBRANCH  38  39
ENDBRANCH  30  33
ENDBRANCH  28  29
ENDBRANCH  27  28
ENDBRANCH  26  27
ENDBRANCH  25  26
ENDBRANCH   1  25
TORSDOF 22
ENDMDL
MODEL 3
REMARK VINA RESULT:     -10.8      2.154      3.721
REMARK SMILES CS(=O)(=O)c1cccc(NS(=O)(=O)CCCC(=O)NCCCCCCNC(=O)c2ccc(-c3c4nc(c(-c5ccc(S(=O)(=O)[O-])cc5)c5ccc([nH]5)c(-c5ccc(S(=O)(=O)[O-])cc5)c5nc(c(-c6ccc(S(=O)(=O)[O-])cc6)c6ccc3[nH]6)C=C5)C=C4)cc2)c1
REMARK SMILES IDX 21 1 20 2 19 3 17 4 18 5 16 7 15 8 14 9 11 10 12 11 13 12
REMARK SMILES IDX 10 13 9 15 5 16 6 17 89 18 7 19 8 20 2 21 1 22 3 23 4 24
REMARK SMILES IDX 22 25 23 26 24 27 25 28 26 29 27 30 28 32 29 33 30 34 88 35
REMARK SMILES IDX 31 36 87 37 32 38 33 39 34 40 81 41 35 42 86 43 80 44 82 45
REMARK SMILES IDX 36 46 85 47 79 48 78 49 37 51 67 52 48 53 66 54 49 55 52 56
REMARK SMILES IDX 65 57 83 58 50 59 51 60 64 62 84 63 53 64 38 65 39 66 47 67
REMARK SMILES IDX 40 68 46 69 41 70 42 71 43 72 44 73 45 74 68 75 69 76 77 77
REMARK SMILES IDX 70 78 76 79 71 80 72 81 73 82 74 83 75 84 54 85 55 86 63 87
REMARK SMILES IDX 56 88 62 89 57 90 58 91 59 92 60 93 61 94
REMARK H PARENT 19 6 10 14 26 31 82 50 52 61
REMARK Flexibility Score: inf
ROOT
ATOM      1  C   UNL A   1      39.448  23.930  26.565  1.00  0.00     0.021 C 
ENDROOT
BRANCH   1   2
ATOM      2  C   UNL A   1      37.946  23.927  26.269  1.00  0.00     0.116 C 
BRANCH   2   3
ATOM      3  N   UNL A   1      37.702  23.350  24.973  1.00  0.00    -0.356 N 
ATOM      4  C   UNL A   1      36.575  23.030  24.310  1.00  0.00     0.220 C 
ATOM      5  O   UNL A   1      36.750  22.385  23.265  1.00  0.00    -0.275 OA
ATOM      6  H   UNL A   1      38.525  23.148  24.471  1.00  0.00     0.163 HD
BRANCH   4   7
ATOM      7  C   UNL A   1      35.164  23.522  24.626  1.00  0.00     0.101 C 
BRANCH   7   8
ATOM      8  C   UNL A   1      34.583  24.940  24.679  1.00  0.00     0.028 C 
BRANCH   8   9
ATOM      9  C   UNL A   1      33.664  25.623  23.666  1.00  0.00     0.160 C 
BRANCH   9  10
ATOM     10  S   UNL A   1      33.255  24.824  22.104  1.00  0.00     0.232 S 
ATOM     11  O   UNL A   1      34.219  23.751  21.946  1.00  0.00    -0.207 OA
ATOM     12  O   UNL A   1      33.090  25.811  21.063  1.00  0.00    -0.207 OA
BRANCH  10  13
ATOM     13  N   UNL A   1      31.814  23.994  22.374  1.00  0.00    -0.284 N 
ATOM     14  H   UNL A   1      31.053  24.183  21.778  1.00  0.00     0.180 HD
BRANCH  13  15
ATOM     15  C   UNL A   1      31.628  23.033  23.419  1.00  0.00     0.050 A 
ATOM     16  C   UNL A   1      32.244  20.930  24.446  1.00  0.00     0.069 A 
ATOM     17  C   UNL A   1      31.722  21.355  25.673  1.00  0.00     0.020 A 
ATOM     18  C   UNL A   1      32.250  21.781  23.329  1.00  0.00     0.047 A 
ATOM     19  C   UNL A   1      31.108  22.589  25.758  1.00  0.00     0.004 A 
ATOM     20  C   UNL A   1      31.022  23.383  24.619  1.00  0.00     0.027 A 
BRANCH  16  21
ATOM     21  S   UNL A   1      32.804  19.246  24.400  1.00  0.00     0.175 S 
ATOM     22  C   UNL A   1      32.363  18.566  22.832  1.00  0.00     0.163 C 
ATOM     23  O   UNL A   1      32.021  18.538  25.399  1.00  0.00    -0.224 OA
ATOM     24  O   UNL A   1      34.250  19.294  24.482  1.00  0.00    -0.224 OA
ENDBRANCH  16  21
ENDBRANCH  13  15
ENDBRANCH  10  13
ENDBRANCH   9  10
ENDBRANCH   8   9
ENDBRANCH   7   8
ENDBRANCH   4   7
ENDBRANCH   2   3
ENDBRANCH   1   2
BRANCH   1  25
ATOM     25  C   UNL A   1      39.931  22.593  27.130  1.00  0.00     0.002 C 
BRANCH  25  26
ATOM     26  C   UNL A   1      41.267  22.125  26.539  1.00  0.00     0.002 C 
BRANCH  26  27
ATOM     27  C   UNL A   1      42.452  22.109  27.513  1.00  0.00     0.021 C 
BRANCH  27  28
ATOM     28  C   UNL A   1      43.363  23.334  27.463  1.00  0.00     0.116 C 
BRANCH  28  29
ATOM     29  N   UNL A   1      43.176  24.112  26.250  1.00  0.00    -0.352 N 
ATOM     30  C   UNL A   1      42.700  25.390  26.100  1.00  0.00     0.251 C 
ATOM     31  H   UNL A   1      43.427  23.656  25.413  1.00  0.00     0.163 HD
ATOM     32  O   UNL A   1      42.466  25.828  24.977  1.00  0.00    -0.269 OA
BRANCH  30  33
ATOM     33  C   UNL A   1      42.449  26.229  27.290  1.00  0.00     0.039 A 
ATOM     34  C   UNL A   1      43.274  27.333  27.519  1.00  0.00     0.014 A 
ATOM     35  C   UNL A   1      41.416  25.923  28.180  1.00  0.00     0.014 A 
ATOM     36  C   UNL A   1      43.030  28.164  28.615  1.00  0.00     0.010 A 
ATOM     37  C   UNL A   1      41.140  26.784  29.241  1.00  0.00     0.010 A 
ATOM     38  C   UNL A   1      41.946  27.910  29.469  1.00  0.00    -0.014 A 
BRANCH  38  39
ATOM     39  C   UNL A   1      41.639  28.813  30.607  1.00  0.00     0.031 A 
ATOM     40  C   UNL A   1      42.438  28.724  31.879  1.00  0.00     0.074 A 
ATOM     41  C   UNL A   1      40.597  29.663  30.519  1.00  0.00     0.049 A 
ATOM     42  N   UNL A   1      42.280  29.382  32.998  1.00  0.00    -0.248 NA
ATOM     43  C   UNL A   1      43.543  27.750  31.906  1.00  0.00     0.031 C 
ATOM     44  C   UNL A   1      39.716  29.807  29.357  1.00  0.00     0.029 A 
ATOM     45  N   UNL A   1      40.092  30.557  31.430  1.00  0.00    -0.354 N 
ATOM     46  C   UNL A   1      43.243  28.886  33.869  1.00  0.00     0.074 A 
ATOM     47  C   UNL A   1      43.961  27.849  33.160  1.00  0.00     0.031 C 
ATOM     48  C   UNL A   1      38.790  30.743  29.621  1.00  0.00     0.029 A 
ATOM     49  C   UNL A   1      38.988  31.242  30.977  1.00  0.00     0.049 A 
ATOM     50  H   UNL A   1      40.483  30.696  32.322  1.00  0.00     0.167 HD
ATOM     51  C   UNL A   1      43.514  29.269  35.139  1.00  0.00     0.031 A 
ATOM     52  C   UNL A   1      38.218  32.163  31.589  1.00  0.00     0.031 A 
ATOM     53  C   UNL A   1      42.818  30.320  35.832  1.00  0.00     0.049 A 
ATOM     54  C   UNL A   1      38.557  32.589  32.992  1.00  0.00     0.074 A 
ATOM     55  C   UNL A   1      43.073  30.837  37.090  1.00  0.00     0.029 A 
ATOM     56  N   UNL A   1      41.730  31.015  35.325  1.00  0.00    -0.354 N 
ATOM     57  N   UNL A   1      39.526  32.165  33.768  1.00  0.00    -0.248 NA
ATOM     58  C   UNL A   1      37.708  33.624  33.594  1.00  0.00     0.031 C 
ATOM     59  C   UNL A   1      42.110  31.816  37.363  1.00  0.00     0.029 A 
ATOM     60  C   UNL A   1      41.288  31.941  36.255  1.00  0.00     0.049 A 
ATOM     61  H   UNL A   1      41.332  30.872  34.437  1.00  0.00     0.167 HD
ATOM     62  C   UNL A   1      39.417  32.901  34.942  1.00  0.00     0.074 A 
ATOM     63  C   UNL A   1      38.299  33.806  34.768  1.00  0.00     0.031 C 
ATOM     64  C   UNL A   1      40.175  32.835  36.063  1.00  0.00     0.031 A 
BRANCH  51  65
ATOM     65  C   UNL A   1      44.610  28.541  35.871  1.00  0.00    -0.014 A 
ATOM     66  C   UNL A   1      45.937  29.007  35.844  1.00  0.00     0.010 A 
ATOM     67  C   UNL A   1      44.298  27.403  36.639  1.00  0.00     0.010 A 
ATOM     68  C   UNL A   1      46.939  28.327  36.542  1.00  0.00     0.020 A 
ATOM     69  C   UNL A   1      45.293  26.735  37.358  1.00  0.00     0.020 A 
ATOM     70  C   UNL A   1      46.611  27.193  37.293  1.00  0.00     0.054 A 
BRANCH  70  71
ATOM     71  S   UNL A   1      47.925  26.348  38.214  1.00  0.00     0.124 S 
ATOM     72  O   UNL A   1      48.990  26.272  37.216  1.00  0.00    -0.237 OA
ATOM     73  O   UNL A   1      48.174  27.258  39.329  1.00  0.00    -0.237 OA
ATOM     74  O   UNL A   1      47.323  25.069  38.581  1.00  0.00    -0.744 OA
ENDBRANCH  70  71
ENDBRANCH  51  65
BRANCH  52  75
ATOM     75  C   UNL A   1      37.053  32.752  30.876  1.00  0.00    -0.014 A 
ATOM     76  C   UNL A   1      37.209  33.901  30.083  1.00  0.00     0.010 A 
ATOM     77  C   UNL A   1      35.782  32.160  30.982  1.00  0.00     0.010 A 
ATOM     78  C   UNL A   1      36.110  34.465  29.428  1.00  0.00     0.020 A 
ATOM     79  C   UNL A   1      34.685  32.706  30.308  1.00  0.00     0.020 A 
ATOM     80  C   UNL A   1      34.854  33.864  29.547  1.00  0.00     0.054 A 
BRANCH  80  81
ATOM     81  S   UNL A   1      33.447  34.582  28.652  1.00  0.00     0.124 S 
ATOM     82  O   UNL A   1      32.567  34.982  29.745  1.00  0.00    -0.237 OA
ATOM     83  O   UNL A   1      34.068  35.674  27.907  1.00  0.00    -0.237 OA
ATOM     84  O   UNL A   1      32.967  33.474  27.830  1.00  0.00    -0.744 OA
ENDBRANCH  80  81
ENDBRANCH  52  75
BRANCH  64  85
ATOM     85  C   UNL A   1      39.843  33.787  37.180  1.00  0.00    -0.014 A 
ATOM     86  C   UNL A   1      38.910  33.445  38.173  1.00  0.00     0.010 A 
ATOM     87  C   UNL A   1      40.519  35.018  37.265  1.00  0.00     0.010 A 
ATOM     88  C   UNL A   1      38.636  34.331  39.218  1.00  0.00     0.020 A 
ATOM     89  C   UNL A   1      40.266  35.896  38.321  1.00  0.00     0.020 A 
ATOM     90  C   UNL A   1      39.316  35.551  39.285  1.00  0.00     0.054 A 
BRANCH  90  91
ATOM     91  S   UNL A   1      38.979  36.666  40.676  1.00  0.00     0.124 S 
ATOM     92  O   UNL A   1      38.148  35.831  41.539  1.00  0.00    -0.237 OA
ATOM     93  O   UNL A   1      40.317  36.959  41.185  1.00  0.00    -0.237 OA
ATOM     94  O   UNL A   1      38.295  37.798  40.054  1.00  0.00    -0.744 OA
ENDBRANCH  90  91
ENDBRANCH  64  85
ENDBRANCH  38  39
ENDBRANCH  30  33
ENDBRANCH  28  29
ENDBRANCH  27  28
ENDBRANCH  26  27
ENDBRANCH  25  26
ENDBRANCH   1  25
TORSDOF 22
ENDMDL
