MODEL 1
REMARK VINA RESULT:     -13.7      0.000      0.000
REMARK SMILES Cc1ccc(S(=O)(=O)N2c3ccc(C(=O)NCCCCCCNC(=O)c4ccc(-c5c6nc(c(-c7ccc(S(=O)(=O)[O-])cc7)c7ccc([nH]7)c(-c7ccc(S(=O)(=O)[O-])cc7)c7nc(c(-c8ccc(S(=O)(=O)[O-])cc8)c8ccc5[nH]8)C=C7)C=C6)cc4)cc3C[C@H]2C)cc1
REMARK SMILES IDX 20 1 19 2 18 3 17 4 16 5 14 6 15 7 13 9 9 10 10 11 89 12
REMARK SMILES IDX 11 13 87 14 88 15 90 16 12 17 86 18 6 19 7 20 8 21 5 22 1 23
REMARK SMILES IDX 2 24 3 25 92 26 4 27 91 28 21 29 22 30 23 31 24 32 25 34
REMARK SMILES IDX 26 35 27 36 85 37 28 38 84 39 29 40 30 41 31 42 78 43 32 44
REMARK SMILES IDX 83 45 77 46 79 47 33 48 82 49 76 50 75 51 34 53 64 54 45 55
REMARK SMILES IDX 63 56 46 57 49 58 62 59 80 60 47 61 48 62 61 64 81 65 50 66
REMARK SMILES IDX 35 67 36 68 44 69 37 70 43 71 38 72 39 73 40 74 41 75 42 76
REMARK SMILES IDX 65 77 66 78 74 79 67 80 73 81 68 82 69 83 70 84 71 85 72 86
REMARK SMILES IDX 51 87 52 88 60 89 53 90 59 91 54 92 55 93 56 94 57 95 58 96
REMARK H PARENT 16 8 23 33 79 52 49 63
REMARK Flexibility Score: inf
ROOT
ATOM      1  C   UNL A   1      33.225  28.447  25.659  1.00  0.00     0.002 C 
ENDROOT
BRANCH   1   2
ATOM      2  C   UNL A   1      31.762  28.906  25.750  1.00  0.00     0.002 C 
BRANCH   2   3
ATOM      3  C   UNL A   1      31.131  29.637  24.562  1.00  0.00     0.021 C 
BRANCH   3   4
ATOM      4  C   UNL A   1      30.723  28.821  23.342  1.00  0.00     0.116 C 
BRANCH   4   5
ATOM      5  N   UNL A   1      29.387  28.262  23.374  1.00  0.00    -0.352 N 
ATOM      6  C   UNL A   1      28.974  27.010  23.778  1.00  0.00     0.251 C 
ATOM      7  O   UNL A   1      27.775  26.733  23.743  1.00  0.00    -0.269 OA
ATOM      8  H   UNL A   1      28.671  28.862  23.062  1.00  0.00     0.163 HD
BRANCH   6   9
ATOM      9  C   UNL A   1      29.945  25.955  24.198  1.00  0.00     0.040 A 
ATOM     10  N   UNL A   1      33.022  23.172  25.039  1.00  0.00    -0.263 N 
ATOM     11  C   UNL A   1      31.911  24.094  24.894  1.00  0.00     0.055 A 
ATOM     12  C   UNL A   1      33.574  23.028  23.630  1.00  0.00     0.101 C 
ATOM     13  C   UNL A   1      31.149  24.668  25.895  1.00  0.00     0.028 A 
ATOM     14  C   UNL A   1      31.658  24.393  23.558  1.00  0.00    -0.021 A 
ATOM     15  C   UNL A   1      32.485  23.536  22.662  1.00  0.00     0.063 C 
ATOM     16  C   UNL A   1      34.835  23.895  23.512  1.00  0.00     0.032 C 
ATOM     17  C   UNL A   1      30.130  25.560  25.535  1.00  0.00     0.016 A 
ATOM     18  C   UNL A   1      30.690  25.321  23.191  1.00  0.00     0.019 A 
BRANCH  10  19
ATOM     19  S   UNL A   1      32.564  21.723  25.848  1.00  0.00     0.264 S 
ATOM     20  O   UNL A   1      31.115  21.696  25.915  1.00  0.00    -0.201 OA
ATOM     21  O   UNL A   1      33.361  21.612  27.056  1.00  0.00    -0.201 OA
BRANCH  19  22
ATOM     22  C   UNL A   1      33.029  20.303  24.865  1.00  0.00     0.088 A 
ATOM     23  C   UNL A   1      34.192  16.543  23.108  1.00  0.00     0.044 C 
ATOM     24  C   UNL A   1      33.807  17.877  23.675  1.00  0.00    -0.051 A 
ATOM     25  C   UNL A   1      34.680  18.549  24.536  1.00  0.00     0.005 A 
ATOM     26  C   UNL A   1      32.581  18.469  23.355  1.00  0.00     0.005 A 
ATOM     27  C   UNL A   1      34.292  19.753  25.129  1.00  0.00     0.022 A 
ATOM     28  C   UNL A   1      32.195  19.681  23.942  1.00  0.00     0.022 A 
ENDBRANCH  19  22
ENDBRANCH  10  19
ENDBRANCH   6   9
ENDBRANCH   4   5
ENDBRANCH   3   4
ENDBRANCH   2   3
ENDBRANCH   1   2
BRANCH   1  29
ATOM     29  C   UNL A   1      34.080  28.454  26.928  1.00  0.00     0.021 C 
BRANCH  29  30
ATOM     30  C   UNL A   1      34.248  29.797  27.611  1.00  0.00     0.116 C 
BRANCH  30  31
ATOM     31  N   UNL A   1      35.315  30.646  27.111  1.00  0.00    -0.352 N 
ATOM     32  C   UNL A   1      36.350  30.960  27.996  1.00  0.00     0.251 C 
ATOM     33  H   UNL A   1      35.309  30.988  26.187  1.00  0.00     0.163 HD
ATOM     34  O   UNL A   1      36.397  31.945  28.705  1.00  0.00    -0.269 OA
BRANCH  32  35
ATOM     35  C   UNL A   1      37.252  29.810  28.234  1.00  0.00     0.039 A 
ATOM     36  C   UNL A   1      37.290  29.146  29.459  1.00  0.00     0.014 A 
ATOM     37  C   UNL A   1      38.238  29.604  27.266  1.00  0.00     0.014 A 
ATOM     38  C   UNL A   1      38.406  28.365  29.767  1.00  0.00     0.010 A 
ATOM     39  C   UNL A   1      39.381  28.925  27.612  1.00  0.00     0.010 A 
ATOM     40  C   UNL A   1      39.478  28.329  28.873  1.00  0.00    -0.014 A 
BRANCH  40  41
ATOM     41  C   UNL A   1      40.774  27.721  29.144  1.00  0.00     0.031 A 
ATOM     42  C   UNL A   1      41.022  26.321  28.734  1.00  0.00     0.074 A 
ATOM     43  C   UNL A   1      41.790  28.490  29.594  1.00  0.00     0.049 A 
ATOM     44  N   UNL A   1      41.994  25.590  29.165  1.00  0.00    -0.248 NA
ATOM     45  C   UNL A   1      40.135  25.609  27.817  1.00  0.00     0.031 C 
ATOM     46  C   UNL A   1      43.215  28.173  29.564  1.00  0.00     0.029 A 
ATOM     47  N   UNL A   1      41.718  29.640  30.382  1.00  0.00    -0.354 N 
ATOM     48  C   UNL A   1      42.046  24.462  28.376  1.00  0.00     0.074 A 
ATOM     49  C   UNL A   1      40.814  24.476  27.622  1.00  0.00     0.031 C 
ATOM     50  C   UNL A   1      43.829  28.882  30.524  1.00  0.00     0.029 A 
ATOM     51  C   UNL A   1      42.788  29.548  31.288  1.00  0.00     0.049 A 
ATOM     52  H   UNL A   1      41.057  30.364  30.316  1.00  0.00     0.167 HD
ATOM     53  C   UNL A   1      43.189  23.718  28.342  1.00  0.00     0.031 A 
ATOM     54  C   UNL A   1      42.628  29.458  32.642  1.00  0.00     0.031 A 
ATOM     55  C   UNL A   1      44.166  24.199  29.318  1.00  0.00     0.049 A 
ATOM     56  C   UNL A   1      43.265  28.212  33.224  1.00  0.00     0.074 A 
ATOM     57  C   UNL A   1      45.302  24.985  29.211  1.00  0.00     0.029 A 
ATOM     58  N   UNL A   1      43.866  24.119  30.672  1.00  0.00    -0.354 N 
ATOM     59  N   UNL A   1      43.603  27.168  32.519  1.00  0.00    -0.248 NA
ATOM     60  C   UNL A   1      43.543  28.033  34.645  1.00  0.00     0.031 C 
ATOM     61  C   UNL A   1      45.632  25.453  30.511  1.00  0.00     0.029 A 
ATOM     62  C   UNL A   1      44.718  24.922  31.405  1.00  0.00     0.049 A 
ATOM     63  H   UNL A   1      43.146  23.568  31.056  1.00  0.00     0.167 HD
ATOM     64  C   UNL A   1      44.139  26.207  33.337  1.00  0.00     0.074 A 
ATOM     65  C   UNL A   1      44.084  26.800  34.661  1.00  0.00     0.031 C 
ATOM     66  C   UNL A   1      44.580  25.008  32.853  1.00  0.00     0.031 A 
BRANCH  53  67
ATOM     67  C   UNL A   1      43.531  22.735  27.239  1.00  0.00    -0.014 A 
ATOM     68  C   UNL A   1      42.735  21.581  27.065  1.00  0.00     0.010 A 
ATOM     69  C   UNL A   1      44.644  22.844  26.385  1.00  0.00     0.010 A 
ATOM     70  C   UNL A   1      43.085  20.558  26.169  1.00  0.00     0.020 A 
ATOM     71  C   UNL A   1      45.025  21.817  25.506  1.00  0.00     0.020 A 
ATOM     72  C   UNL A   1      44.250  20.669  25.414  1.00  0.00     0.054 A 
BRANCH  72  73
ATOM     73  S   UNL A   1      44.737  19.308  24.323  1.00  0.00     0.124 S 
ATOM     74  O   UNL A   1      44.448  19.848  22.997  1.00  0.00    -0.237 OA
ATOM     75  O   UNL A   1      46.151  19.140  24.640  1.00  0.00    -0.237 OA
ATOM     76  O   UNL A   1      43.872  18.204  24.738  1.00  0.00    -0.744 OA
ENDBRANCH  72  73
ENDBRANCH  53  67
BRANCH  54  77
ATOM     77  C   UNL A   1      41.390  30.111  33.155  1.00  0.00    -0.014 A 
ATOM     78  C   UNL A   1      41.396  31.521  33.236  1.00  0.00     0.010 A 
ATOM     79  C   UNL A   1      40.156  29.441  33.081  1.00  0.00     0.010 A 
ATOM     80  C   UNL A   1      40.222  32.249  33.031  1.00  0.00     0.020 A 
ATOM     81  C   UNL A   1      38.974  30.172  32.889  1.00  0.00     0.020 A 
ATOM     82  C   UNL A   1      39.033  31.564  32.776  1.00  0.00     0.054 A 
BRANCH  82  83
ATOM     83  S   UNL A   1      37.628  32.505  32.099  1.00  0.00     0.124 S 
ATOM     84  O   UNL A   1      38.230  33.204  30.970  1.00  0.00    -0.237 OA
ATOM     85  O   UNL A   1      36.682  31.439  31.756  1.00  0.00    -0.237 OA
ATOM     86  O   UNL A   1      37.220  33.348  33.218  1.00  0.00    -0.744 OA
ENDBRANCH  82  83
ENDBRANCH  54  77
BRANCH  66  87
ATOM     87  C   UNL A   1      44.999  23.808  33.675  1.00  0.00    -0.014 A 
ATOM     88  C   UNL A   1      44.173  22.707  33.949  1.00  0.00     0.010 A 
ATOM     89  C   UNL A   1      46.349  23.710  34.097  1.00  0.00     0.010 A 
ATOM     90  C   UNL A   1      44.651  21.594  34.658  1.00  0.00     0.020 A 
ATOM     91  C   UNL A   1      46.848  22.588  34.762  1.00  0.00     0.020 A 
ATOM     92  C   UNL A   1      45.986  21.542  35.062  1.00  0.00     0.054 A 
BRANCH  92  93
ATOM     93  S   UNL A   1      46.611  20.071  35.912  1.00  0.00     0.124 S 
ATOM     94  O   UNL A   1      46.132  20.287  37.275  1.00  0.00    -0.237 OA
ATOM     95  O   UNL A   1      45.966  18.976  35.190  1.00  0.00    -0.237 OA
ATOM     96  O   UNL A   1      48.057  20.160  35.732  1.00  0.00    -0.744 OA
ENDBRANCH  92  93
ENDBRANCH  66  87
ENDBRANCH  40  41
ENDBRANCH  32  35
ENDBRANCH  30  31
ENDBRANCH  29  30
ENDBRANCH   1  29
TORSDOF 18
ENDMDL
MODEL 2
REMARK VINA RESULT:     -13.5      1.779      2.496
REMARK SMILES Cc1ccc(S(=O)(=O)N2c3ccc(C(=O)NCCCCCCNC(=O)c4ccc(-c5c6nc(c(-c7ccc(S(=O)(=O)[O-])cc7)c7ccc([nH]7)c(-c7ccc(S(=O)(=O)[O-])cc7)c7nc(c(-c8ccc(S(=O)(=O)[O-])cc8)c8ccc5[nH]8)C=C7)C=C6)cc4)cc3C[C@H]2C)cc1
REMARK SMILES IDX 20 1 19 2 18 3 17 4 16 5 14 6 15 7 13 9 9 10 10 11 89 12
REMARK SMILES IDX 11 13 87 14 88 15 90 16 12 17 86 18 6 19 7 20 8 21 5 22 1 23
REMARK SMILES IDX 2 24 3 25 92 26 4 27 91 28 21 29 22 30 23 31 24 32 25 34
REMARK SMILES IDX 26 35 27 36 85 37 28 38 84 39 29 40 30 41 31 42 78 43 32 44
REMARK SMILES IDX 83 45 77 46 79 47 33 48 82 49 76 50 75 51 34 53 64 54 45 55
REMARK SMILES IDX 63 56 46 57 49 58 62 59 80 60 47 61 48 62 61 64 81 65 50 66
REMARK SMILES IDX 35 67 36 68 44 69 37 70 43 71 38 72 39 73 40 74 41 75 42 76
REMARK SMILES IDX 65 77 66 78 74 79 67 80 73 81 68 82 69 83 70 84 71 85 72 86
REMARK SMILES IDX 51 87 52 88 60 89 53 90 59 91 54 92 55 93 56 94 57 95 58 96
REMARK H PARENT 16 8 23 33 79 52 49 63
REMARK Flexibility Score: inf
ROOT
ATOM      1  C   UNL A   1      32.880  29.036  24.799  1.00  0.00     0.002 C 
ENDROOT
BRANCH   1   2
ATOM      2  C   UNL A   1      31.514  29.541  25.287  1.00  0.00     0.002 C 
BRANCH   2   3
ATOM      3  C   UNL A   1      30.531  30.140  24.279  1.00  0.00     0.021 C 
BRANCH   3   4
ATOM      4  C   UNL A   1      30.052  29.266  23.126  1.00  0.00     0.116 C 
BRANCH   4   5
ATOM      5  N   UNL A   1      28.864  28.476  23.384  1.00  0.00    -0.352 N 
ATOM      6  C   UNL A   1      28.760  27.149  23.741  1.00  0.00     0.251 C 
ATOM      7  O   UNL A   1      27.643  26.665  23.932  1.00  0.00    -0.269 OA
ATOM      8  H   UNL A   1      28.010  28.957  23.290  1.00  0.00     0.163 HD
BRANCH   6   9
ATOM      9  C   UNL A   1      29.956  26.260  23.841  1.00  0.00     0.040 A 
ATOM     10  N   UNL A   1      33.134  23.558  24.560  1.00  0.00    -0.263 N 
ATOM     11  C   UNL A   1      32.088  24.482  24.162  1.00  0.00     0.055 A 
ATOM     12  C   UNL A   1      33.161  23.655  26.077  1.00  0.00     0.101 C 
ATOM     13  C   UNL A   1      31.565  24.676  22.898  1.00  0.00     0.028 A 
ATOM     14  C   UNL A   1      31.601  25.209  25.246  1.00  0.00    -0.021 A 
ATOM     15  C   UNL A   1      32.424  24.955  26.461  1.00  0.00     0.063 C 
ATOM     16  C   UNL A   1      32.426  22.438  26.654  1.00  0.00     0.032 C 
ATOM     17  C   UNL A   1      30.531  25.608  22.735  1.00  0.00     0.016 A 
ATOM     18  C   UNL A   1      30.536  26.092  25.108  1.00  0.00     0.019 A 
BRANCH  10  19
ATOM     19  S   UNL A   1      34.615  23.858  23.734  1.00  0.00     0.264 S 
ATOM     20  O   UNL A   1      34.851  25.289  23.760  1.00  0.00    -0.201 OA
ATOM     21  O   UNL A   1      34.580  23.139  22.474  1.00  0.00    -0.201 OA
BRANCH  19  22
ATOM     22  C   UNL A   1      35.975  23.126  24.636  1.00  0.00     0.088 A 
ATOM     23  C   UNL A   1      39.540  21.258  26.181  1.00  0.00     0.044 C 
ATOM     24  C   UNL A   1      38.272  21.894  25.690  1.00  0.00    -0.051 A 
ATOM     25  C   UNL A   1      37.397  21.169  24.876  1.00  0.00     0.005 A 
ATOM     26  C   UNL A   1      37.945  23.208  26.035  1.00  0.00     0.005 A 
ATOM     27  C   UNL A   1      36.257  21.781  24.350  1.00  0.00     0.022 A 
ATOM     28  C   UNL A   1      36.798  23.822  25.516  1.00  0.00     0.022 A 
ENDBRANCH  19  22
ENDBRANCH  10  19
ENDBRANCH   6   9
ENDBRANCH   4   5
ENDBRANCH   3   4
ENDBRANCH   2   3
ENDBRANCH   1   2
BRANCH   1  29
ATOM     29  C   UNL A   1      33.926  28.619  25.834  1.00  0.00     0.021 C 
BRANCH  29  30
ATOM     30  C   UNL A   1      34.118  29.561  27.006  1.00  0.00     0.116 C 
BRANCH  30  31
ATOM     31  N   UNL A   1      35.124  30.597  26.842  1.00  0.00    -0.352 N 
ATOM     32  C   UNL A   1      35.986  30.826  27.918  1.00  0.00     0.251 C 
ATOM     33  H   UNL A   1      35.194  31.117  26.009  1.00  0.00     0.163 HD
ATOM     34  O   UNL A   1      35.814  31.645  28.797  1.00  0.00    -0.269 OA
BRANCH  32  35
ATOM     35  C   UNL A   1      36.989  29.746  28.072  1.00  0.00     0.039 A 
ATOM     36  C   UNL A   1      37.076  28.983  29.234  1.00  0.00     0.014 A 
ATOM     37  C   UNL A   1      37.999  29.718  27.107  1.00  0.00     0.014 A 
ATOM     38  C   UNL A   1      38.256  28.283  29.494  1.00  0.00     0.010 A 
ATOM     39  C   UNL A   1      39.197  29.119  27.414  1.00  0.00     0.010 A 
ATOM     40  C   UNL A   1      39.337  28.426  28.620  1.00  0.00    -0.014 A 
BRANCH  40  41
ATOM     41  C   UNL A   1      40.680  27.918  28.861  1.00  0.00     0.031 A 
ATOM     42  C   UNL A   1      40.999  26.512  28.526  1.00  0.00     0.074 A 
ATOM     43  C   UNL A   1      41.664  28.776  29.208  1.00  0.00     0.049 A 
ATOM     44  N   UNL A   1      42.036  25.872  28.952  1.00  0.00    -0.248 NA
ATOM     45  C   UNL A   1      40.117  25.688  27.704  1.00  0.00     0.031 C 
ATOM     46  C   UNL A   1      43.104  28.545  29.125  1.00  0.00     0.029 A 
ATOM     47  N   UNL A   1      41.556  29.968  29.926  1.00  0.00    -0.354 N 
ATOM     48  C   UNL A   1      42.122  24.699  28.234  1.00  0.00     0.074 A 
ATOM     49  C   UNL A   1      40.858  24.589  27.544  1.00  0.00     0.031 C 
ATOM     50  C   UNL A   1      43.716  29.352  30.006  1.00  0.00     0.029 A 
ATOM     51  C   UNL A   1      42.671  30.002  30.780  1.00  0.00     0.049 A 
ATOM     52  H   UNL A   1      40.846  30.645  29.849  1.00  0.00     0.167 HD
ATOM     53  C   UNL A   1      43.308  24.027  28.187  1.00  0.00     0.031 A 
ATOM     54  C   UNL A   1      42.583  29.991  32.143  1.00  0.00     0.031 A 
ATOM     55  C   UNL A   1      44.298  24.630  29.078  1.00  0.00     0.049 A 
ATOM     56  C   UNL A   1      43.326  28.828  32.768  1.00  0.00     0.074 A 
ATOM     57  C   UNL A   1      45.373  25.476  28.864  1.00  0.00     0.029 A 
ATOM     58  N   UNL A   1      44.068  24.621  30.449  1.00  0.00    -0.354 N 
ATOM     59  N   UNL A   1      43.697  27.763  32.113  1.00  0.00    -0.248 NA
ATOM     60  C   UNL A   1      43.682  28.760  34.181  1.00  0.00     0.031 C 
ATOM     61  C   UNL A   1      45.735  26.047  30.114  1.00  0.00     0.029 A 
ATOM     62  C   UNL A   1      44.901  25.521  31.086  1.00  0.00     0.049 A 
ATOM     63  H   UNL A   1      43.405  24.053  30.903  1.00  0.00     0.167 HD
ATOM     64  C   UNL A   1      44.332  26.892  32.960  1.00  0.00     0.074 A 
ATOM     65  C   UNL A   1      44.302  27.567  34.246  1.00  0.00     0.031 C 
ATOM     66  C   UNL A   1      44.826  25.693  32.531  1.00  0.00     0.031 A 
BRANCH  53  67
ATOM     67  C   UNL A   1      43.660  22.997  27.131  1.00  0.00    -0.014 A 
ATOM     68  C   UNL A   1      42.858  21.843  26.991  1.00  0.00     0.010 A 
ATOM     69  C   UNL A   1      44.789  23.061  26.293  1.00  0.00     0.010 A 
ATOM     70  C   UNL A   1      43.214  20.781  26.144  1.00  0.00     0.020 A 
ATOM     71  C   UNL A   1      45.176  21.996  25.463  1.00  0.00     0.020 A 
ATOM     72  C   UNL A   1      44.391  20.851  25.405  1.00  0.00     0.054 A 
BRANCH  72  73
ATOM     73  S   UNL A   1      44.885  19.443  24.379  1.00  0.00     0.124 S 
ATOM     74  O   UNL A   1      46.329  19.392  24.588  1.00  0.00    -0.237 OA
ATOM     75  O   UNL A   1      44.124  18.344  24.965  1.00  0.00    -0.237 OA
ATOM     76  O   UNL A   1      44.473  19.833  23.031  1.00  0.00    -0.744 OA
ENDBRANCH  72  73
ENDBRANCH  53  67
BRANCH  54  77
ATOM     77  C   UNL A   1      41.331  30.600  32.677  1.00  0.00    -0.014 A 
ATOM     78  C   UNL A   1      40.266  29.721  32.974  1.00  0.00     0.010 A 
ATOM     79  C   UNL A   1      41.372  31.855  33.311  1.00  0.00     0.010 A 
ATOM     80  C   UNL A   1      39.393  29.995  34.030  1.00  0.00     0.020 A 
ATOM     81  C   UNL A   1      40.485  32.137  34.361  1.00  0.00     0.020 A 
ATOM     82  C   UNL A   1      39.564  31.166  34.768  1.00  0.00     0.054 A 
BRANCH  82  83
ATOM     83  S   UNL A   1      38.713  31.303  36.371  1.00  0.00     0.124 S 
ATOM     84  O   UNL A   1      38.492  29.908  36.733  1.00  0.00    -0.237 OA
ATOM     85  O   UNL A   1      39.700  32.022  37.182  1.00  0.00    -0.237 OA
ATOM     86  O   UNL A   1      37.512  32.068  36.049  1.00  0.00    -0.744 OA
ENDBRANCH  82  83
ENDBRANCH  54  77
BRANCH  66  87
ATOM     87  C   UNL A   1      45.360  24.578  33.403  1.00  0.00    -0.014 A 
ATOM     88  C   UNL A   1      44.644  23.418  33.736  1.00  0.00     0.010 A 
ATOM     89  C   UNL A   1      46.717  24.627  33.815  1.00  0.00     0.010 A 
ATOM     90  C   UNL A   1      45.227  22.391  34.492  1.00  0.00     0.020 A 
ATOM     91  C   UNL A   1      47.323  23.589  34.527  1.00  0.00     0.020 A 
ATOM     92  C   UNL A   1      46.564  22.483  34.884  1.00  0.00     0.054 A 
BRANCH  92  93
ATOM     93  S   UNL A   1      47.329  21.118  35.795  1.00  0.00     0.124 S 
ATOM     94  O   UNL A   1      46.166  20.464  36.389  1.00  0.00    -0.237 OA
ATOM     95  O   UNL A   1      48.004  20.359  34.744  1.00  0.00    -0.237 OA
ATOM     96  O   UNL A   1      48.220  21.792  36.736  1.00  0.00    -0.744 OA
ENDBRANCH  92  93
ENDBRANCH  66  87
ENDBRANCH  40  41
ENDBRANCH  32  35
ENDBRANCH  30  31
ENDBRANCH  29  30
ENDBRANCH   1  29
TORSDOF 18
ENDMDL
MODEL 3
REMARK VINA RESULT:     -13.2      2.043      2.851
REMARK SMILES Cc1ccc(S(=O)(=O)N2c3ccc(C(=O)NCCCCCCNC(=O)c4ccc(-c5c6nc(c(-c7ccc(S(=O)(=O)[O-])cc7)c7ccc([nH]7)c(-c7ccc(S(=O)(=O)[O-])cc7)c7nc(c(-c8ccc(S(=O)(=O)[O-])cc8)c8ccc5[nH]8)C=C7)C=C6)cc4)cc3C[C@H]2C)cc1
REMARK SMILES IDX 20 1 19 2 18 3 17 4 16 5 14 6 15 7 13 9 9 10 10 11 89 12
REMARK SMILES IDX 11 13 87 14 88 15 90 16 12 17 86 18 6 19 7 20 8 21 5 22 1 23
REMARK SMILES IDX 2 24 3 25 92 26 4 27 91 28 21 29 22 30 23 31 24 32 25 34
REMARK SMILES IDX 26 35 27 36 85 37 28 38 84 39 29 40 30 41 31 42 78 43 32 44
REMARK SMILES IDX 83 45 77 46 79 47 33 48 82 49 76 50 75 51 34 53 64 54 45 55
REMARK SMILES IDX 63 56 46 57 49 58 62 59 80 60 47 61 48 62 61 64 81 65 50 66
REMARK SMILES IDX 35 67 36 68 44 69 37 70 43 71 38 72 39 73 40 74 41 75 42 76
REMARK SMILES IDX 65 77 66 78 74 79 67 80 73 81 68 82 69 83 70 84 71 85 72 86
REMARK SMILES IDX 51 87 52 88 60 89 53 90 59 91 54 92 55 93 56 94 57 95 58 96
REMARK H PARENT 16 8 23 33 79 52 49 63
REMARK Flexibility Score: inf
ROOT
ATOM      1  C   UNL A   1      32.426  29.121  24.557  1.00  0.00     0.002 C 
ENDROOT
BRANCH   1   2
ATOM      2  C   UNL A   1      30.984  29.631  24.694  1.00  0.00     0.002 C 
BRANCH   2   3
ATOM      3  C   UNL A   1      30.164  29.910  23.432  1.00  0.00     0.021 C 
BRANCH   3   4
ATOM      4  C   UNL A   1      29.655  28.725  22.621  1.00  0.00     0.116 C 
BRANCH   4   5
ATOM      5  N   UNL A   1      28.548  27.991  23.202  1.00  0.00    -0.352 N 
ATOM      6  C   UNL A   1      28.555  26.778  23.859  1.00  0.00     0.251 C 
ATOM      7  O   UNL A   1      27.497  26.328  24.298  1.00  0.00    -0.269 OA
ATOM      8  H   UNL A   1      27.666  28.420  23.116  1.00  0.00     0.163 HD
BRANCH   6   9
ATOM      9  C   UNL A   1      29.798  25.961  23.997  1.00  0.00     0.040 A 
ATOM     10  N   UNL A   1      33.137  23.506  24.855  1.00  0.00    -0.263 N 
ATOM     11  C   UNL A   1      32.029  24.329  24.409  1.00  0.00     0.055 A 
ATOM     12  C   UNL A   1      33.231  23.782  26.347  1.00  0.00     0.101 C 
ATOM     13  C   UNL A   1      31.437  24.350  23.159  1.00  0.00     0.028 A 
ATOM     14  C   UNL A   1      31.558  25.157  25.425  1.00  0.00    -0.021 A 
ATOM     15  C   UNL A   1      32.449  25.084  26.617  1.00  0.00     0.063 C 
ATOM     16  C   UNL A   1      32.587  22.610  27.099  1.00  0.00     0.032 C 
ATOM     17  C   UNL A   1      30.352  25.209  22.945  1.00  0.00     0.016 A 
ATOM     18  C   UNL A   1      30.445  25.970  25.243  1.00  0.00     0.019 A 
BRANCH  10  19
ATOM     19  S   UNL A   1      34.561  23.771  23.923  1.00  0.00     0.264 S 
ATOM     20  O   UNL A   1      34.781  25.203  23.854  1.00  0.00    -0.201 OA
ATOM     21  O   UNL A   1      34.456  22.981  22.709  1.00  0.00    -0.201 OA
BRANCH  19  22
ATOM     22  C   UNL A   1      35.982  23.102  24.778  1.00  0.00     0.088 A 
ATOM     23  C   UNL A   1      39.670  21.380  26.199  1.00  0.00     0.044 C 
ATOM     24  C   UNL A   1      38.363  21.966  25.752  1.00  0.00    -0.051 A 
ATOM     25  C   UNL A   1      37.474  21.195  24.997  1.00  0.00     0.005 A 
ATOM     26  C   UNL A   1      38.011  23.278  26.080  1.00  0.00     0.005 A 
ATOM     27  C   UNL A   1      36.292  21.760  24.510  1.00  0.00     0.022 A 
ATOM     28  C   UNL A   1      36.823  23.844  25.602  1.00  0.00     0.022 A 
ENDBRANCH  19  22
ENDBRANCH  10  19
ENDBRANCH   6   9
ENDBRANCH   4   5
ENDBRANCH   3   4
ENDBRANCH   2   3
ENDBRANCH   1   2
BRANCH   1  29
ATOM     29  C   UNL A   1      33.193  28.728  25.821  1.00  0.00     0.021 C 
BRANCH  29  30
ATOM     30  C   UNL A   1      33.145  29.721  26.966  1.00  0.00     0.116 C 
BRANCH  30  31
ATOM     31  N   UNL A   1      34.050  30.853  26.877  1.00  0.00    -0.352 N 
ATOM     32  C   UNL A   1      34.749  31.205  28.035  1.00  0.00     0.251 C 
ATOM     33  H   UNL A   1      34.166  31.353  26.036  1.00  0.00     0.163 HD
ATOM     34  O   UNL A   1      34.388  32.026  28.853  1.00  0.00    -0.269 OA
BRANCH  32  35
ATOM     35  C   UNL A   1      35.832  30.245  28.350  1.00  0.00     0.039 A 
ATOM     36  C   UNL A   1      36.058  29.792  29.648  1.00  0.00     0.014 A 
ATOM     37  C   UNL A   1      36.766  30.032  27.333  1.00  0.00     0.014 A 
ATOM     38  C   UNL A   1      37.300  29.233  29.959  1.00  0.00     0.010 A 
ATOM     39  C   UNL A   1      38.021  29.584  27.665  1.00  0.00     0.010 A 
ATOM     40  C   UNL A   1      38.299  29.211  28.983  1.00  0.00    -0.014 A 
BRANCH  40  41
ATOM     41  C   UNL A   1      39.689  28.842  29.216  1.00  0.00     0.031 A 
ATOM     42  C   UNL A   1      40.136  27.463  28.918  1.00  0.00     0.074 A 
ATOM     43  C   UNL A   1      40.590  29.801  29.521  1.00  0.00     0.049 A 
ATOM     44  N   UNL A   1      41.236  26.939  29.344  1.00  0.00    -0.248 NA
ATOM     45  C   UNL A   1      39.326  26.533  28.135  1.00  0.00     0.031 C 
ATOM     46  C   UNL A   1      42.044  29.707  29.420  1.00  0.00     0.029 A 
ATOM     47  N   UNL A   1      40.378  30.999  30.205  1.00  0.00    -0.354 N 
ATOM     48  C   UNL A   1      41.425  25.759  28.660  1.00  0.00     0.074 A 
ATOM     49  C   UNL A   1      40.168  25.506  27.995  1.00  0.00     0.031 C 
ATOM     50  C   UNL A   1      42.589  30.596  30.266  1.00  0.00     0.029 A 
ATOM     51  C   UNL A   1      41.497  31.167  31.038  1.00  0.00     0.049 A 
ATOM     52  H   UNL A   1      39.606  31.602  30.120  1.00  0.00     0.167 HD
ATOM     53  C   UNL A   1      42.669  25.202  28.613  1.00  0.00     0.031 A 
ATOM     54  C   UNL A   1      41.429  31.189  32.402  1.00  0.00     0.031 A 
ATOM     55  C   UNL A   1      43.609  25.925  29.469  1.00  0.00     0.049 A 
ATOM     56  C   UNL A   1      42.290  30.122  33.048  1.00  0.00     0.074 A 
ATOM     57  C   UNL A   1      44.595  26.863  29.211  1.00  0.00     0.029 A 
ATOM     58  N   UNL A   1      43.401  25.936  30.843  1.00  0.00    -0.354 N 
ATOM     59  N   UNL A   1      42.752  29.078  32.419  1.00  0.00    -0.248 NA
ATOM     60  C   UNL A   1      42.671  30.133  34.457  1.00  0.00     0.031 C 
ATOM     61  C   UNL A   1      44.917  27.504  30.437  1.00  0.00     0.029 A 
ATOM     62  C   UNL A   1      44.152  26.931  31.438  1.00  0.00     0.049 A 
ATOM     63  H   UNL A   1      42.802  25.321  31.325  1.00  0.00     0.167 HD
ATOM     64  C   UNL A   1      43.480  28.299  33.281  1.00  0.00     0.074 A 
ATOM     65  C   UNL A   1      43.404  29.007  34.547  1.00  0.00     0.031 C 
ATOM     66  C   UNL A   1      44.081  27.140  32.879  1.00  0.00     0.031 A 
BRANCH  53  67
ATOM     67  C   UNL A   1      43.104  24.178  27.582  1.00  0.00    -0.014 A 
ATOM     68  C   UNL A   1      44.333  23.502  27.748  1.00  0.00     0.010 A 
ATOM     69  C   UNL A   1      42.396  23.877  26.403  1.00  0.00     0.010 A 
ATOM     70  C   UNL A   1      44.866  22.661  26.757  1.00  0.00     0.020 A 
ATOM     71  C   UNL A   1      42.927  23.063  25.390  1.00  0.00     0.020 A 
ATOM     72  C   UNL A   1      44.171  22.470  25.566  1.00  0.00     0.054 A 
BRANCH  72  73
ATOM     73  S   UNL A   1      44.903  21.450  24.262  1.00  0.00     0.124 S 
ATOM     74  O   UNL A   1      44.241  20.164  24.458  1.00  0.00    -0.237 OA
ATOM     75  O   UNL A   1      44.531  22.173  23.049  1.00  0.00    -0.237 OA
ATOM     76  O   UNL A   1      46.332  21.459  24.575  1.00  0.00    -0.744 OA
ENDBRANCH  72  73
ENDBRANCH  53  67
BRANCH  54  77
ATOM     77  C   UNL A   1      40.132  31.691  32.940  1.00  0.00    -0.014 A 
ATOM     78  C   UNL A   1      39.921  33.087  32.905  1.00  0.00     0.010 A 
ATOM     79  C   UNL A   1      39.016  30.837  33.002  1.00  0.00     0.010 A 
ATOM     80  C   UNL A   1      38.637  33.606  32.718  1.00  0.00     0.020 A 
ATOM     81  C   UNL A   1      37.725  31.359  32.829  1.00  0.00     0.020 A 
ATOM     82  C   UNL A   1      37.560  32.728  32.598  1.00  0.00     0.054 A 
BRANCH  82  83
ATOM     83  S   UNL A   1      35.991  33.379  31.940  1.00  0.00     0.124 S 
ATOM     84  O   UNL A   1      35.661  34.433  32.891  1.00  0.00    -0.237 OA
ATOM     85  O   UNL A   1      36.384  33.829  30.602  1.00  0.00    -0.237 OA
ATOM     86  O   UNL A   1      35.112  32.214  31.959  1.00  0.00    -0.744 OA
ENDBRANCH  82  83
ENDBRANCH  54  77
BRANCH  66  87
ATOM     87  C   UNL A   1      44.733  26.108  33.774  1.00  0.00    -0.014 A 
ATOM     88  C   UNL A   1      46.046  26.196  34.260  1.00  0.00     0.010 A 
ATOM     89  C   UNL A   1      43.941  25.041  34.270  1.00  0.00     0.010 A 
ATOM     90  C   UNL A   1      46.563  25.238  35.145  1.00  0.00     0.020 A 
ATOM     91  C   UNL A   1      44.430  24.109  35.188  1.00  0.00     0.020 A 
ATOM     92  C   UNL A   1      45.752  24.199  35.603  1.00  0.00     0.054 A 
BRANCH  92  93
ATOM     93  S   UNL A   1      46.405  23.010  36.802  1.00  0.00     0.124 S 
ATOM     94  O   UNL A   1      47.802  22.904  36.388  1.00  0.00    -0.237 OA
ATOM     95  O   UNL A   1      46.182  23.679  38.082  1.00  0.00    -0.237 OA
ATOM     96  O   UNL A   1      45.591  21.818  36.581  1.00  0.00    -0.744 OA
ENDBRANCH  92  93
ENDBRANCH  66  87
ENDBRANCH  40  41
ENDBRANCH  32  35
ENDBRANCH  30  31
ENDBRANCH  29  30
ENDBRANCH   1  29
TORSDOF 18
ENDMDL
