MODEL 1
REMARK VINA RESULT:     -11.7      0.000      0.000
REMARK SMILES O=C(NCCCCCCNC(=O)c1ccc(-n2cccc2)c(F)c1)c1ccc(-c2c3nc(c(-c4ccc(S(=O)(=O)[O-])cc4)c4ccc([nH]4)c(-c4ccc(S(=O)(=O)[O-])cc4)c4nc(c(-c5ccc(S(=O)(=O)[O-])cc5)c5ccc2[nH]5)C=C4)C=C3)cc1
REMARK SMILES IDX 5 1 4 2 3 3 1 4 2 5 25 7 26 8 84 9 27 10 83 11 28 12 29 13
REMARK SMILES IDX 30 14 77 15 31 16 82 17 76 18 78 19 32 20 81 21 75 22 74 23
REMARK SMILES IDX 33 25 63 26 44 27 62 28 45 29 48 30 61 31 79 32 46 33 47 34
REMARK SMILES IDX 60 36 80 37 49 38 34 39 35 40 43 41 36 42 42 43 37 44 38 45
REMARK SMILES IDX 39 46 40 47 41 48 64 49 65 50 73 51 66 52 72 53 67 54 68 55
REMARK SMILES IDX 69 56 70 57 71 58 50 59 51 60 59 61 52 62 58 63 53 64 54 65
REMARK SMILES IDX 55 66 56 67 57 68 6 69 7 70 8 71 9 72 10 73 11 74 12 76
REMARK SMILES IDX 13 77 14 78 24 79 15 80 22 81 16 82 23 83 17 84 18 85 21 86
REMARK SMILES IDX 19 87 20 88
REMARK H PARENT 3 6 78 24 48 35 10 75
REMARK Flexibility Score: inf
ROOT
ATOM      1  C   UNL A   1      33.335  27.491  26.489  1.00  0.00     0.021 C 
ENDROOT
BRANCH   1   2
ATOM      2  C   UNL A   1      33.619  28.807  25.766  1.00  0.00     0.116 C 
BRANCH   2   3
ATOM      3  N   UNL A   1      33.393  30.003  26.554  1.00  0.00    -0.352 N 
ATOM      4  O   UNL A   1      33.680  31.750  27.899  1.00  0.00    -0.269 OA
ATOM      5  C   UNL A   1      34.164  30.712  27.440  1.00  0.00     0.251 C 
ATOM      6  H   UNL A   1      32.496  30.387  26.426  1.00  0.00     0.163 HD
BRANCH   5   7
ATOM      7  C   UNL A   1      35.504  30.273  27.911  1.00  0.00     0.039 A 
ATOM      8  C   UNL A   1      36.659  30.316  27.129  1.00  0.00     0.014 A 
ATOM      9  C   UNL A   1      35.604  29.822  29.242  1.00  0.00     0.014 A 
ATOM     10  C   UNL A   1      37.865  29.842  27.631  1.00  0.00     0.010 A 
ATOM     11  C   UNL A   1      36.822  29.376  29.763  1.00  0.00     0.010 A 
ATOM     12  C   UNL A   1      37.954  29.378  28.949  1.00  0.00    -0.014 A 
BRANCH  12  13
ATOM     13  C   UNL A   1      39.310  29.033  29.439  1.00  0.00     0.031 A 
ATOM     14  C   UNL A   1      40.080  30.264  29.921  1.00  0.00     0.074 A 
ATOM     15  C   UNL A   1      39.740  27.757  29.229  1.00  0.00     0.049 A 
ATOM     16  N   UNL A   1      41.314  30.611  29.708  1.00  0.00    -0.248 NA
ATOM     17  C   UNL A   1      39.327  31.323  30.641  1.00  0.00     0.031 C 
ATOM     18  C   UNL A   1      38.874  26.641  28.794  1.00  0.00     0.029 A 
ATOM     19  N   UNL A   1      40.970  27.139  29.309  1.00  0.00    -0.354 N 
ATOM     20  C   UNL A   1      41.524  31.847  30.357  1.00  0.00     0.074 A 
ATOM     21  C   UNL A   1      40.242  32.277  30.836  1.00  0.00     0.031 C 
ATOM     22  C   UNL A   1      39.602  25.524  28.583  1.00  0.00     0.029 A 
ATOM     23  C   UNL A   1      41.002  25.808  28.832  1.00  0.00     0.049 A 
ATOM     24  H   UNL A   1      41.765  27.592  29.671  1.00  0.00     0.167 HD
ATOM     25  C   UNL A   1      42.754  32.409  30.548  1.00  0.00     0.031 A 
ATOM     26  C   UNL A   1      42.083  25.010  28.578  1.00  0.00     0.031 A 
ATOM     27  C   UNL A   1      43.782  31.597  29.989  1.00  0.00     0.049 A 
ATOM     28  C   UNL A   1      43.277  25.820  28.881  1.00  0.00     0.074 A 
ATOM     29  C   UNL A   1      44.310  31.413  28.739  1.00  0.00     0.029 A 
ATOM     30  N   UNL A   1      44.326  30.653  30.825  1.00  0.00    -0.354 N 
ATOM     31  N   UNL A   1      43.710  26.113  30.066  1.00  0.00    -0.248 NA
ATOM     32  C   UNL A   1      44.024  26.412  27.763  1.00  0.00     0.031 C 
ATOM     33  C   UNL A   1      44.865  30.108  28.770  1.00  0.00     0.029 A 
ATOM     34  C   UNL A   1      44.654  29.572  30.044  1.00  0.00     0.049 A 
ATOM     35  H   UNL A   1      44.456  30.736  31.798  1.00  0.00     0.167 HD
ATOM     36  C   UNL A   1      44.545  27.181  29.839  1.00  0.00     0.074 A 
ATOM     37  C   UNL A   1      44.918  27.122  28.444  1.00  0.00     0.031 C 
ATOM     38  C   UNL A   1      44.501  28.269  30.647  1.00  0.00     0.031 A 
BRANCH  25  39
ATOM     39  C   UNL A   1      43.200  33.559  31.422  1.00  0.00    -0.014 A 
ATOM     40  C   UNL A   1      43.194  33.342  32.825  1.00  0.00     0.010 A 
ATOM     41  C   UNL A   1      43.307  34.886  30.979  1.00  0.00     0.010 A 
ATOM     42  C   UNL A   1      43.154  34.398  33.739  1.00  0.00     0.020 A 
ATOM     43  C   UNL A   1      43.307  35.954  31.897  1.00  0.00     0.020 A 
ATOM     44  C   UNL A   1      43.172  35.702  33.265  1.00  0.00     0.054 A 
BRANCH  44  45
ATOM     45  S   UNL A   1      42.935  37.052  34.454  1.00  0.00     0.124 S 
ATOM     46  O   UNL A   1      41.646  36.713  35.049  1.00  0.00    -0.237 OA
ATOM     47  O   UNL A   1      44.090  36.903  35.340  1.00  0.00    -0.237 OA
ATOM     48  O   UNL A   1      42.952  38.251  33.621  1.00  0.00    -0.744 OA
ENDBRANCH  44  45
ENDBRANCH  25  39
BRANCH  26  49
ATOM     49  C   UNL A   1      42.332  23.670  27.927  1.00  0.00    -0.014 A 
ATOM     50  C   UNL A   1      43.004  22.584  28.502  1.00  0.00     0.010 A 
ATOM     51  C   UNL A   1      41.790  23.439  26.630  1.00  0.00     0.010 A 
ATOM     52  C   UNL A   1      42.997  21.309  27.889  1.00  0.00     0.020 A 
ATOM     53  C   UNL A   1      41.743  22.179  26.029  1.00  0.00     0.020 A 
ATOM     54  C   UNL A   1      42.327  21.106  26.679  1.00  0.00     0.054 A 
BRANCH  54  55
ATOM     55  S   UNL A   1      42.091  19.438  26.006  1.00  0.00     0.124 S 
ATOM     56  O   UNL A   1      42.938  19.456  24.818  1.00  0.00    -0.237 OA
ATOM     57  O   UNL A   1      42.549  18.580  27.096  1.00  0.00    -0.237 OA
ATOM     58  O   UNL A   1      40.652  19.379  25.750  1.00  0.00    -0.744 OA
ENDBRANCH  54  55
ENDBRANCH  26  49
BRANCH  38  59
ATOM     59  C   UNL A   1      43.817  28.022  31.984  1.00  0.00    -0.014 A 
ATOM     60  C   UNL A   1      42.463  28.346  32.161  1.00  0.00     0.010 A 
ATOM     61  C   UNL A   1      44.535  27.570  33.111  1.00  0.00     0.010 A 
ATOM     62  C   UNL A   1      41.851  28.227  33.419  1.00  0.00     0.020 A 
ATOM     63  C   UNL A   1      43.932  27.441  34.370  1.00  0.00     0.020 A 
ATOM     64  C   UNL A   1      42.589  27.775  34.518  1.00  0.00     0.054 A 
BRANCH  64  65
ATOM     65  S   UNL A   1      41.777  27.665  36.139  1.00  0.00     0.124 S 
ATOM     66  O   UNL A   1      42.900  27.751  37.068  1.00  0.00    -0.237 OA
ATOM     67  O   UNL A   1      40.887  28.823  36.123  1.00  0.00    -0.237 OA
ATOM     68  O   UNL A   1      41.104  26.366  36.107  1.00  0.00    -0.744 OA
ENDBRANCH  64  65
ENDBRANCH  38  59
ENDBRANCH  12  13
ENDBRANCH   5   7
ENDBRANCH   2   3
ENDBRANCH   1   2
BRANCH   1  69
ATOM     69  C   UNL A   1      31.851  27.135  26.618  1.00  0.00     0.002 C 
BRANCH  69  70
ATOM     70  C   UNL A   1      31.134  26.789  25.309  1.00  0.00     0.002 C 
BRANCH  70  71
ATOM     71  C   UNL A   1      30.313  25.494  25.323  1.00  0.00     0.021 C 
BRANCH  71  72
ATOM     72  C   UNL A   1      31.035  24.269  24.760  1.00  0.00     0.116 C 
BRANCH  72  73
ATOM     73  N   UNL A   1      31.932  24.628  23.676  1.00  0.00    -0.352 N 
ATOM     74  C   UNL A   1      32.958  23.901  23.134  1.00  0.00     0.251 C 
ATOM     75  H   UNL A   1      31.782  25.515  23.277  1.00  0.00     0.163 HD
ATOM     76  O   UNL A   1      33.769  24.424  22.360  1.00  0.00    -0.269 OA
BRANCH  74  77
ATOM     77  C   UNL A   1      33.117  22.482  23.490  1.00  0.00     0.042 A 
ATOM     78  C   UNL A   1      32.255  21.517  22.963  1.00  0.00     0.016 A 
ATOM     79  C   UNL A   1      34.159  22.115  24.336  1.00  0.00     0.055 A 
ATOM     80  C   UNL A   1      32.410  20.176  23.323  1.00  0.00     0.030 A 
ATOM     81  C   UNL A   1      34.296  20.782  24.710  1.00  0.00     0.147 A 
ATOM     82  C   UNL A   1      33.422  19.801  24.222  1.00  0.00     0.081 A 
ATOM     83  F   UNL A   1      35.326  20.468  25.511  1.00  0.00    -0.205 F 
BRANCH  82  84
ATOM     84  N   UNL A   1      33.536  18.448  24.635  1.00  0.00    -0.321 N 
ATOM     85  C   UNL A   1      34.538  17.560  24.289  1.00  0.00     0.091 A 
ATOM     86  C   UNL A   1      32.684  17.782  25.499  1.00  0.00     0.091 A 
ATOM     87  C   UNL A   1      34.325  16.360  24.933  1.00  0.00     0.020 A 
ATOM     88  C   UNL A   1      33.141  16.495  25.684  1.00  0.00     0.020 A 
ENDBRANCH  82  84
ENDBRANCH  74  77
ENDBRANCH  72  73
ENDBRANCH  71  72
ENDBRANCH  70  71
ENDBRANCH  69  70
ENDBRANCH   1  69
TORSDOF 17
ENDMDL
MODEL 2
REMARK VINA RESULT:     -11.7      1.836      2.461
REMARK SMILES O=C(NCCCCCCNC(=O)c1ccc(-n2cccc2)c(F)c1)c1ccc(-c2c3nc(c(-c4ccc(S(=O)(=O)[O-])cc4)c4ccc([nH]4)c(-c4ccc(S(=O)(=O)[O-])cc4)c4nc(c(-c5ccc(S(=O)(=O)[O-])cc5)c5ccc2[nH]5)C=C4)C=C3)cc1
REMARK SMILES IDX 5 1 4 2 3 3 1 4 2 5 25 7 26 8 84 9 27 10 83 11 28 12 29 13
REMARK SMILES IDX 30 14 77 15 31 16 82 17 76 18 78 19 32 20 81 21 75 22 74 23
REMARK SMILES IDX 33 25 63 26 44 27 62 28 45 29 48 30 61 31 79 32 46 33 47 34
REMARK SMILES IDX 60 36 80 37 49 38 34 39 35 40 43 41 36 42 42 43 37 44 38 45
REMARK SMILES IDX 39 46 40 47 41 48 64 49 65 50 73 51 66 52 72 53 67 54 68 55
REMARK SMILES IDX 69 56 70 57 71 58 50 59 51 60 59 61 52 62 58 63 53 64 54 65
REMARK SMILES IDX 55 66 56 67 57 68 6 69 7 70 8 71 9 72 10 73 11 74 12 76
REMARK SMILES IDX 13 77 14 78 24 79 15 80 22 81 16 82 23 83 17 84 18 85 21 86
REMARK SMILES IDX 19 87 20 88
REMARK H PARENT 3 6 78 24 48 35 10 75
REMARK Flexibility Score: inf
ROOT
ATOM      1  C   UNL A   1      32.418  28.408  26.119  1.00  0.00     0.021 C 
ENDROOT
BRANCH   1   2
ATOM      2  C   UNL A   1      33.369  28.785  27.255  1.00  0.00     0.116 C 
BRANCH   2   3
ATOM      3  N   UNL A   1      33.430  30.201  27.561  1.00  0.00    -0.352 N 
ATOM      4  O   UNL A   1      34.155  32.226  28.125  1.00  0.00    -0.269 OA
ATOM      5  C   UNL A   1      34.420  31.025  28.037  1.00  0.00     0.251 C 
ATOM      6  H   UNL A   1      32.583  30.671  27.392  1.00  0.00     0.163 HD
BRANCH   5   7
ATOM      7  C   UNL A   1      35.750  30.545  28.497  1.00  0.00     0.039 A 
ATOM      8  C   UNL A   1      36.935  30.730  27.786  1.00  0.00     0.014 A 
ATOM      9  C   UNL A   1      35.804  29.896  29.746  1.00  0.00     0.014 A 
ATOM     10  C   UNL A   1      38.132  30.209  28.265  1.00  0.00     0.010 A 
ATOM     11  C   UNL A   1      37.009  29.398  30.249  1.00  0.00     0.010 A 
ATOM     12  C   UNL A   1      38.176  29.548  29.499  1.00  0.00    -0.014 A 
BRANCH  12  13
ATOM     13  C   UNL A   1      39.518  29.159  29.993  1.00  0.00     0.031 A 
ATOM     14  C   UNL A   1      40.183  30.276  30.800  1.00  0.00     0.074 A 
ATOM     15  C   UNL A   1      40.034  27.986  29.527  1.00  0.00     0.049 A 
ATOM     16  N   UNL A   1      41.404  30.717  30.761  1.00  0.00    -0.248 NA
ATOM     17  C   UNL A   1      39.326  31.104  31.687  1.00  0.00     0.031 C 
ATOM     18  C   UNL A   1      39.264  26.966  28.786  1.00  0.00     0.029 A 
ATOM     19  N   UNL A   1      41.292  27.422  29.552  1.00  0.00    -0.354 N 
ATOM     20  C   UNL A   1      41.501  31.775  31.690  1.00  0.00     0.074 A 
ATOM     21  C   UNL A   1      40.169  32.024  32.162  1.00  0.00     0.031 C 
ATOM     22  C   UNL A   1      40.069  25.962  28.377  1.00  0.00     0.029 A 
ATOM     23  C   UNL A   1      41.432  26.241  28.786  1.00  0.00     0.049 A 
ATOM     24  H   UNL A   1      42.036  27.812  30.065  1.00  0.00     0.167 HD
ATOM     25  C   UNL A   1      42.682  32.331  32.094  1.00  0.00     0.031 A 
ATOM     26  C   UNL A   1      42.571  25.573  28.433  1.00  0.00     0.031 A 
ATOM     27  C   UNL A   1      43.788  31.717  31.439  1.00  0.00     0.049 A 
ATOM     28  C   UNL A   1      43.695  26.341  29.000  1.00  0.00     0.074 A 
ATOM     29  C   UNL A   1      44.400  31.853  30.222  1.00  0.00     0.029 A 
ATOM     30  N   UNL A   1      44.336  30.630  32.073  1.00  0.00    -0.354 N 
ATOM     31  N   UNL A   1      44.038  26.369  30.249  1.00  0.00    -0.248 NA
ATOM     32  C   UNL A   1      44.471  27.210  28.105  1.00  0.00     0.031 C 
ATOM     33  C   UNL A   1      45.029  30.603  29.993  1.00  0.00     0.029 A 
ATOM     34  C   UNL A   1      44.774  29.776  31.090  1.00  0.00     0.049 A 
ATOM     35  H   UNL A   1      44.402  30.489  33.046  1.00  0.00     0.167 HD
ATOM     36  C   UNL A   1      44.820  27.496  30.334  1.00  0.00     0.074 A 
ATOM     37  C   UNL A   1      45.279  27.780  28.994  1.00  0.00     0.031 C 
ATOM     38  C   UNL A   1      44.663  28.362  31.365  1.00  0.00     0.031 A 
BRANCH  25  39
ATOM     39  C   UNL A   1      43.005  33.264  33.239  1.00  0.00    -0.014 A 
ATOM     40  C   UNL A   1      42.979  32.712  34.547  1.00  0.00     0.010 A 
ATOM     41  C   UNL A   1      43.012  34.662  33.133  1.00  0.00     0.010 A 
ATOM     42  C   UNL A   1      42.826  33.507  35.685  1.00  0.00     0.020 A 
ATOM     43  C   UNL A   1      42.897  35.472  34.279  1.00  0.00     0.020 A 
ATOM     44  C   UNL A   1      42.747  34.886  35.539  1.00  0.00     0.054 A 
BRANCH  44  45
ATOM     45  S   UNL A   1      42.365  35.883  37.006  1.00  0.00     0.124 S 
ATOM     46  O   UNL A   1      41.066  36.452  36.659  1.00  0.00    -0.237 OA
ATOM     47  O   UNL A   1      42.343  34.885  38.074  1.00  0.00    -0.237 OA
ATOM     48  O   UNL A   1      43.472  36.832  37.074  1.00  0.00    -0.744 OA
ENDBRANCH  44  45
ENDBRANCH  25  39
BRANCH  26  49
ATOM     49  C   UNL A   1      42.939  24.434  27.512  1.00  0.00    -0.014 A 
ATOM     50  C   UNL A   1      42.273  24.076  26.333  1.00  0.00     0.010 A 
ATOM     51  C   UNL A   1      44.105  23.674  27.813  1.00  0.00     0.010 A 
ATOM     52  C   UNL A   1      42.825  23.130  25.438  1.00  0.00     0.020 A 
ATOM     53  C   UNL A   1      44.681  22.763  26.924  1.00  0.00     0.020 A 
ATOM     54  C   UNL A   1      44.048  22.515  25.719  1.00  0.00     0.054 A 
BRANCH  54  55
ATOM     55  S   UNL A   1      44.892  21.496  24.478  1.00  0.00     0.124 S 
ATOM     56  O   UNL A   1      44.615  22.216  23.239  1.00  0.00    -0.237 OA
ATOM     57  O   UNL A   1      46.282  21.521  24.927  1.00  0.00    -0.237 OA
ATOM     58  O   UNL A   1      44.236  20.195  24.607  1.00  0.00    -0.744 OA
ENDBRANCH  54  55
ENDBRANCH  26  49
BRANCH  38  59
ATOM     59  C   UNL A   1      43.915  27.781  32.556  1.00  0.00    -0.014 A 
ATOM     60  C   UNL A   1      42.571  28.113  32.785  1.00  0.00     0.010 A 
ATOM     61  C   UNL A   1      44.567  26.988  33.525  1.00  0.00     0.010 A 
ATOM     62  C   UNL A   1      41.904  27.672  33.939  1.00  0.00     0.020 A 
ATOM     63  C   UNL A   1      43.910  26.536  34.677  1.00  0.00     0.020 A 
ATOM     64  C   UNL A   1      42.578  26.886  34.880  1.00  0.00     0.054 A 
BRANCH  64  65
ATOM     65  S   UNL A   1      41.697  26.361  36.379  1.00  0.00     0.124 S 
ATOM     66  O   UNL A   1      42.774  25.850  37.223  1.00  0.00    -0.237 OA
ATOM     67  O   UNL A   1      41.083  27.605  36.835  1.00  0.00    -0.237 OA
ATOM     68  O   UNL A   1      40.759  25.347  35.899  1.00  0.00    -0.744 OA
ENDBRANCH  64  65
ENDBRANCH  38  59
ENDBRANCH  12  13
ENDBRANCH   5   7
ENDBRANCH   2   3
ENDBRANCH   1   2
BRANCH   1  69
ATOM     69  C   UNL A   1      31.630  29.580  25.525  1.00  0.00     0.002 C 
BRANCH  69  70
ATOM     70  C   UNL A   1      30.869  29.279  24.229  1.00  0.00     0.002 C 
BRANCH  70  71
ATOM     71  C   UNL A   1      30.479  27.812  24.014  1.00  0.00     0.021 C 
BRANCH  71  72
ATOM     72  C   UNL A   1      30.714  27.283  22.598  1.00  0.00     0.116 C 
BRANCH  72  73
ATOM     73  N   UNL A   1      31.940  27.812  22.027  1.00  0.00    -0.352 N 
ATOM     74  C   UNL A   1      33.214  27.322  22.127  1.00  0.00     0.251 C 
ATOM     75  H   UNL A   1      31.841  28.634  21.495  1.00  0.00     0.163 HD
ATOM     76  O   UNL A   1      34.186  27.998  21.765  1.00  0.00    -0.269 OA
BRANCH  74  77
ATOM     77  C   UNL A   1      33.442  25.984  22.693  1.00  0.00     0.042 A 
ATOM     78  C   UNL A   1      33.923  25.837  23.997  1.00  0.00     0.016 A 
ATOM     79  C   UNL A   1      33.139  24.868  21.919  1.00  0.00     0.055 A 
ATOM     80  C   UNL A   1      34.148  24.559  24.515  1.00  0.00     0.030 A 
ATOM     81  C   UNL A   1      33.387  23.597  22.430  1.00  0.00     0.147 A 
ATOM     82  C   UNL A   1      33.902  23.425  23.722  1.00  0.00     0.081 A 
ATOM     83  F   UNL A   1      33.063  22.548  21.659  1.00  0.00    -0.205 F 
BRANCH  82  84
ATOM     84  N   UNL A   1      34.193  22.131  24.229  1.00  0.00    -0.321 N 
ATOM     85  C   UNL A   1      33.292  21.101  24.428  1.00  0.00     0.091 A 
ATOM     86  C   UNL A   1      35.443  21.651  24.575  1.00  0.00     0.091 A 
ATOM     87  C   UNL A   1      33.968  19.988  24.881  1.00  0.00     0.020 A 
ATOM     88  C   UNL A   1      35.327  20.342  24.992  1.00  0.00     0.020 A 
ENDBRANCH  82  84
ENDBRANCH  74  77
ENDBRANCH  72  73
ENDBRANCH  71  72
ENDBRANCH  70  71
ENDBRANCH  69  70
ENDBRANCH   1  69
TORSDOF 17
ENDMDL
MODEL 3
REMARK VINA RESULT:     -11.6      1.748      2.287
REMARK SMILES O=C(NCCCCCCNC(=O)c1ccc(-n2cccc2)c(F)c1)c1ccc(-c2c3nc(c(-c4ccc(S(=O)(=O)[O-])cc4)c4ccc([nH]4)c(-c4ccc(S(=O)(=O)[O-])cc4)c4nc(c(-c5ccc(S(=O)(=O)[O-])cc5)c5ccc2[nH]5)C=C4)C=C3)cc1
REMARK SMILES IDX 5 1 4 2 3 3 1 4 2 5 25 7 26 8 84 9 27 10 83 11 28 12 29 13
REMARK SMILES IDX 30 14 77 15 31 16 82 17 76 18 78 19 32 20 81 21 75 22 74 23
REMARK SMILES IDX 33 25 63 26 44 27 62 28 45 29 48 30 61 31 79 32 46 33 47 34
REMARK SMILES IDX 60 36 80 37 49 38 34 39 35 40 43 41 36 42 42 43 37 44 38 45
REMARK SMILES IDX 39 46 40 47 41 48 64 49 65 50 73 51 66 52 72 53 67 54 68 55
REMARK SMILES IDX 69 56 70 57 71 58 50 59 51 60 59 61 52 62 58 63 53 64 54 65
REMARK SMILES IDX 55 66 56 67 57 68 6 69 7 70 8 71 9 72 10 73 11 74 12 76
REMARK SMILES IDX 13 77 14 78 24 79 15 80 22 81 16 82 23 83 17 84 18 85 21 86
REMARK SMILES IDX 19 87 20 88
REMARK H PARENT 3 6 78 24 48 35 10 75
REMARK Flexibility Score: inf
ROOT
ATOM      1  C   UNL A   1      33.853  28.248  25.937  1.00  0.00     0.021 C 
ENDROOT
BRANCH   1   2
ATOM      2  C   UNL A   1      33.219  28.689  27.257  1.00  0.00     0.116 C 
BRANCH   2   3
ATOM      3  N   UNL A   1      33.341  30.102  27.556  1.00  0.00    -0.352 N 
ATOM      4  O   UNL A   1      34.159  32.108  28.056  1.00  0.00    -0.269 OA
ATOM      5  C   UNL A   1      34.386  30.901  27.946  1.00  0.00     0.251 C 
ATOM      6  H   UNL A   1      32.493  30.593  27.459  1.00  0.00     0.163 HD
BRANCH   5   7
ATOM      7  C   UNL A   1      35.738  30.388  28.293  1.00  0.00     0.039 A 
ATOM      8  C   UNL A   1      36.823  30.394  27.416  1.00  0.00     0.014 A 
ATOM      9  C   UNL A   1      35.928  29.903  29.601  1.00  0.00     0.014 A 
ATOM     10  C   UNL A   1      38.043  29.852  27.804  1.00  0.00     0.010 A 
ATOM     11  C   UNL A   1      37.161  29.388  30.008  1.00  0.00     0.010 A 
ATOM     12  C   UNL A   1      38.220  29.355  29.101  1.00  0.00    -0.014 A 
BRANCH  12  13
ATOM     13  C   UNL A   1      39.594  28.935  29.467  1.00  0.00     0.031 A 
ATOM     14  C   UNL A   1      40.442  30.107  29.966  1.00  0.00     0.074 A 
ATOM     15  C   UNL A   1      39.959  27.661  29.147  1.00  0.00     0.049 A 
ATOM     16  N   UNL A   1      41.669  30.426  29.684  1.00  0.00    -0.248 NA
ATOM     17  C   UNL A   1      39.782  31.141  30.804  1.00  0.00     0.031 C 
ATOM     18  C   UNL A   1      39.023  26.604  28.709  1.00  0.00     0.029 A 
ATOM     19  N   UNL A   1      41.168  27.000  29.098  1.00  0.00    -0.354 N 
ATOM     20  C   UNL A   1      41.971  31.610  30.391  1.00  0.00     0.074 A 
ATOM     21  C   UNL A   1      40.744  32.049  30.989  1.00  0.00     0.031 C 
ATOM     22  C   UNL A   1      39.693  25.480  28.376  1.00  0.00     0.029 A 
ATOM     23  C   UNL A   1      41.117  25.702  28.538  1.00  0.00     0.049 A 
ATOM     24  H   UNL A   1      42.004  27.402  29.427  1.00  0.00     0.167 HD
ATOM     25  C   UNL A   1      43.232  32.118  30.525  1.00  0.00     0.031 A 
ATOM     26  C   UNL A   1      42.145  24.887  28.155  1.00  0.00     0.031 A 
ATOM     27  C   UNL A   1      44.186  31.310  29.842  1.00  0.00     0.049 A 
ATOM     28  C   UNL A   1      43.388  25.636  28.419  1.00  0.00     0.074 A 
ATOM     29  C   UNL A   1      44.616  31.190  28.548  1.00  0.00     0.029 A 
ATOM     30  N   UNL A   1      44.753  30.298  30.576  1.00  0.00    -0.354 N 
ATOM     31  N   UNL A   1      43.915  25.838  29.585  1.00  0.00    -0.248 NA
ATOM     32  C   UNL A   1      44.074  26.275  27.287  1.00  0.00     0.031 C 
ATOM     33  C   UNL A   1      45.122  29.869  28.457  1.00  0.00     0.029 A 
ATOM     34  C   UNL A   1      44.984  29.259  29.707  1.00  0.00     0.049 A 
ATOM     35  H   UNL A   1      44.955  30.314  31.540  1.00  0.00     0.167 HD
ATOM     36  C   UNL A   1      44.771  26.891  29.363  1.00  0.00     0.074 A 
ATOM     37  C   UNL A   1      45.041  26.910  27.944  1.00  0.00     0.031 C 
ATOM     38  C   UNL A   1      44.826  27.925  30.238  1.00  0.00     0.031 A 
BRANCH  25  39
ATOM     39  C   UNL A   1      43.782  33.194  31.433  1.00  0.00    -0.014 A 
ATOM     40  C   UNL A   1      43.852  32.894  32.819  1.00  0.00     0.010 A 
ATOM     41  C   UNL A   1      43.922  34.539  31.061  1.00  0.00     0.010 A 
ATOM     42  C   UNL A   1      43.915  33.893  33.793  1.00  0.00     0.020 A 
ATOM     43  C   UNL A   1      44.026  35.550  32.036  1.00  0.00     0.020 A 
ATOM     44  C   UNL A   1      43.964  35.223  33.393  1.00  0.00     0.054 A 
BRANCH  44  45
ATOM     45  S   UNL A   1      43.862  36.507  34.671  1.00  0.00     0.124 S 
ATOM     46  O   UNL A   1      45.257  36.914  34.808  1.00  0.00    -0.237 OA
ATOM     47  O   UNL A   1      42.980  37.499  34.055  1.00  0.00    -0.237 OA
ATOM     48  O   UNL A   1      43.291  35.807  35.818  1.00  0.00    -0.744 OA
ENDBRANCH  44  45
ENDBRANCH  25  39
BRANCH  26  49
ATOM     49  C   UNL A   1      42.298  23.584  27.407  1.00  0.00    -0.014 A 
ATOM     50  C   UNL A   1      43.499  22.907  27.161  1.00  0.00     0.010 A 
ATOM     51  C   UNL A   1      41.119  22.928  26.950  1.00  0.00     0.010 A 
ATOM     52  C   UNL A   1      43.506  21.593  26.637  1.00  0.00     0.020 A 
ATOM     53  C   UNL A   1      41.107  21.618  26.465  1.00  0.00     0.020 A 
ATOM     54  C   UNL A   1      42.306  20.942  26.336  1.00  0.00     0.054 A 
BRANCH  54  55
ATOM     55  S   UNL A   1      42.279  19.180  25.904  1.00  0.00     0.124 S 
ATOM     56  O   UNL A   1      40.868  18.951  25.608  1.00  0.00    -0.237 OA
ATOM     57  O   UNL A   1      43.185  19.111  24.760  1.00  0.00    -0.237 OA
ATOM     58  O   UNL A   1      42.780  18.529  27.115  1.00  0.00    -0.744 OA
ENDBRANCH  54  55
ENDBRANCH  26  49
BRANCH  38  59
ATOM     59  C   UNL A   1      44.231  27.615  31.604  1.00  0.00    -0.014 A 
ATOM     60  C   UNL A   1      42.935  28.043  31.929  1.00  0.00     0.010 A 
ATOM     61  C   UNL A   1      44.989  26.993  32.619  1.00  0.00     0.010 A 
ATOM     62  C   UNL A   1      42.417  27.861  33.222  1.00  0.00     0.020 A 
ATOM     63  C   UNL A   1      44.480  26.800  33.910  1.00  0.00     0.020 A 
ATOM     64  C   UNL A   1      43.193  27.240  34.206  1.00  0.00     0.054 A 
BRANCH  64  65
ATOM     65  S   UNL A   1      42.508  27.050  35.877  1.00  0.00     0.124 S 
ATOM     66  O   UNL A   1      41.195  27.676  35.761  1.00  0.00    -0.237 OA
ATOM     67  O   UNL A   1      42.496  25.599  36.047  1.00  0.00    -0.237 OA
ATOM     68  O   UNL A   1      43.457  27.765  36.731  1.00  0.00    -0.744 OA
ENDBRANCH  64  65
ENDBRANCH  38  59
ENDBRANCH  12  13
ENDBRANCH   5   7
ENDBRANCH   2   3
ENDBRANCH   1   2
BRANCH   1  69
ATOM     69  C   UNL A   1      33.081  27.160  25.185  1.00  0.00     0.002 C 
BRANCH  69  70
ATOM     70  C   UNL A   1      31.586  27.427  24.980  1.00  0.00     0.002 C 
BRANCH  70  71
ATOM     71  C   UNL A   1      30.648  26.775  26.003  1.00  0.00     0.021 C 
BRANCH  71  72
ATOM     72  C   UNL A   1      29.819  25.608  25.465  1.00  0.00     0.116 C 
BRANCH  72  73
ATOM     73  N   UNL A   1      29.401  24.714  26.530  1.00  0.00    -0.352 N 
ATOM     74  C   UNL A   1      29.986  23.551  26.955  1.00  0.00     0.251 C 
ATOM     75  H   UNL A   1      28.585  24.981  27.012  1.00  0.00     0.163 HD
ATOM     76  O   UNL A   1      29.396  22.788  27.731  1.00  0.00    -0.269 OA
BRANCH  74  77
ATOM     77  C   UNL A   1      31.325  23.186  26.468  1.00  0.00     0.042 A 
ATOM     78  C   UNL A   1      32.467  23.753  27.041  1.00  0.00     0.016 A 
ATOM     79  C   UNL A   1      31.436  22.244  25.451  1.00  0.00     0.055 A 
ATOM     80  C   UNL A   1      33.732  23.408  26.558  1.00  0.00     0.030 A 
ATOM     81  C   UNL A   1      32.696  21.919  24.956  1.00  0.00     0.147 A 
ATOM     82  C   UNL A   1      33.853  22.502  25.491  1.00  0.00     0.081 A 
ATOM     83  F   UNL A   1      32.759  20.992  23.989  1.00  0.00    -0.205 F 
BRANCH  82  84
ATOM     84  N   UNL A   1      35.136  22.201  24.960  1.00  0.00    -0.321 N 
ATOM     85  C   UNL A   1      35.747  22.813  23.881  1.00  0.00     0.091 A 
ATOM     86  C   UNL A   1      36.027  21.267  25.456  1.00  0.00     0.091 A 
ATOM     87  C   UNL A   1      37.006  22.280  23.710  1.00  0.00     0.020 A 
ATOM     88  C   UNL A   1      37.176  21.288  24.695  1.00  0.00     0.020 A 
ENDBRANCH  82  84
ENDBRANCH  74  77
ENDBRANCH  72  73
ENDBRANCH  71  72
ENDBRANCH  70  71
ENDBRANCH  69  70
ENDBRANCH   1  69
TORSDOF 17
ENDMDL
