MODEL 1
REMARK VINA RESULT:     -11.9      0.000      0.000
REMARK SMILES CCn1ccc(NC(=O)[C@H]2[C@@H](C(=O)NCCCCCCNC(=O)c3ccc(-c4c5nc(c(-c6ccc(S(=O)(=O)[O-])cc6)c6ccc([nH]6)c(-c6ccc(S(=O)(=O)[O-])cc6)c6nc(c(-c7ccc(S(=O)(=O)[O-])cc7)c7ccc4[nH]7)C=C6)C=C5)cc3)[C@H]3C=C[C@@H]2C3)n1
REMARK SMILES IDX 17 1 16 2 15 3 14 4 12 5 13 6 11 8 10 9 87 10 84 11 86 12
REMARK SMILES IDX 88 13 85 14 8 15 7 16 9 18 6 19 3 20 4 21 89 22 5 23 2 24
REMARK SMILES IDX 1 25 18 26 19 27 20 28 21 29 22 30 23 32 24 33 25 34 83 35
REMARK SMILES IDX 26 36 82 37 27 38 28 39 29 40 76 41 30 42 81 43 75 44 77 45
REMARK SMILES IDX 31 46 80 47 74 48 73 49 32 51 62 52 43 53 61 54 44 55 47 56
REMARK SMILES IDX 60 57 78 58 45 59 46 60 59 62 79 63 48 64 33 65 34 66 42 67
REMARK SMILES IDX 35 68 41 69 36 70 37 71 38 72 39 73 40 74 63 75 64 76 72 77
REMARK SMILES IDX 65 78 71 79 66 80 67 81 68 82 69 83 70 84 49 85 50 86 58 87
REMARK SMILES IDX 51 88 57 89 52 90 53 91 54 92 55 93 56 94
REMARK H PARENT 14 7 7 17 21 31 77 50 47 61
REMARK Flexibility Score: inf
ROOT
ATOM      1  C   UNL A   1      36.848  22.341  24.285  1.00  0.00     0.002 C 
ENDROOT
BRANCH   1   2
ATOM      2  C   UNL A   1      36.537  23.530  25.195  1.00  0.00     0.021 C 
BRANCH   2   3
ATOM      3  C   UNL A   1      35.072  23.908  25.303  1.00  0.00     0.116 C 
BRANCH   3   4
ATOM      4  N   UNL A   1      34.510  24.687  24.238  1.00  0.00    -0.356 N 
ATOM      5  C   UNL A   1      33.813  25.851  24.333  1.00  0.00     0.224 C 
ATOM      6  O   UNL A   1      33.661  26.477  23.273  1.00  0.00    -0.275 OA
ATOM      7  H   UNL A   1      34.647  24.338  23.328  1.00  0.00     0.163 HD
BRANCH   5   8
ATOM      8  C   UNL A   1      33.062  26.346  25.581  1.00  0.00     0.098 C 
ATOM      9  C   UNL A   1      31.538  26.737  25.766  1.00  0.00     0.099 C 
ATOM     10  C   UNL A   1      31.652  28.186  26.299  1.00  0.00     0.025 C 
ATOM     11  C   UNL A   1      33.804  27.593  26.154  1.00  0.00     0.025 C 
ATOM     12  C   UNL A   1      32.312  29.110  25.307  1.00  0.00    -0.027 C 
ATOM     13  C   UNL A   1      32.844  28.032  27.259  1.00  0.00     0.017 C 
ATOM     14  C   UNL A   1      33.604  28.763  25.226  1.00  0.00    -0.027 C 
BRANCH   9  15
ATOM     15  C   UNL A   1      30.551  26.244  24.709  1.00  0.00     0.230 C 
ATOM     16  N   UNL A   1      30.281  24.946  24.417  1.00  0.00    -0.309 N 
ATOM     17  H   UNL A   1      29.487  24.816  23.850  1.00  0.00     0.171 HD
ATOM     18  O   UNL A   1      29.874  27.098  24.114  1.00  0.00    -0.274 OA
BRANCH  16  19
ATOM     19  C   UNL A   1      30.912  23.787  24.770  1.00  0.00     0.154 A 
ATOM     20  N   UNL A   1      31.985  21.981  24.515  1.00  0.00    -0.271 N 
ATOM     21  C   UNL A   1      31.656  22.005  25.839  1.00  0.00     0.111 A 
ATOM     22  N   UNL A   1      31.623  23.111  23.863  1.00  0.00    -0.155 NA
ATOM     23  C   UNL A   1      31.013  23.200  26.044  1.00  0.00     0.068 A 
BRANCH  20  24
ATOM     24  C   UNL A   1      32.626  20.872  23.832  1.00  0.00     0.141 C 
ATOM     25  C   UNL A   1      32.723  19.610  24.661  1.00  0.00     0.029 C 
ENDBRANCH  20  24
ENDBRANCH  16  19
ENDBRANCH   9  15
ENDBRANCH   5   8
ENDBRANCH   3   4
ENDBRANCH   2   3
ENDBRANCH   1   2
BRANCH   1  26
ATOM     26  C   UNL A   1      36.350  20.955  24.731  1.00  0.00     0.002 C 
BRANCH  26  27
ATOM     27  C   UNL A   1      37.391  19.848  24.957  1.00  0.00     0.021 C 
BRANCH  27  28
ATOM     28  C   UNL A   1      38.739  20.338  25.452  1.00  0.00     0.116 C 
BRANCH  28  29
ATOM     29  N   UNL A   1      39.698  19.253  25.685  1.00  0.00    -0.352 N 
ATOM     30  C   UNL A   1      41.051  19.340  25.990  1.00  0.00     0.251 C 
ATOM     31  H   UNL A   1      39.335  18.341  25.617  1.00  0.00     0.163 HD
ATOM     32  O   UNL A   1      41.795  18.390  25.838  1.00  0.00    -0.269 OA
BRANCH  30  33
ATOM     33  C   UNL A   1      41.556  20.621  26.519  1.00  0.00     0.039 A 
ATOM     34  C   UNL A   1      42.333  21.508  25.766  1.00  0.00     0.014 A 
ATOM     35  C   UNL A   1      41.182  20.938  27.814  1.00  0.00     0.014 A 
ATOM     36  C   UNL A   1      42.656  22.751  26.317  1.00  0.00     0.010 A 
ATOM     37  C   UNL A   1      41.270  22.229  28.235  1.00  0.00     0.010 A 
ATOM     38  C   UNL A   1      42.104  23.105  27.554  1.00  0.00    -0.014 A 
BRANCH  38  39
ATOM     39  C   UNL A   1      42.309  24.405  28.187  1.00  0.00     0.031 A 
ATOM     40  C   UNL A   1      41.229  25.413  27.959  1.00  0.00     0.074 A 
ATOM     41  C   UNL A   1      43.257  24.535  29.149  1.00  0.00     0.049 A 
ATOM     42  N   UNL A   1      41.356  26.655  27.635  1.00  0.00    -0.248 NA
ATOM     43  C   UNL A   1      39.822  24.983  28.056  1.00  0.00     0.031 C 
ATOM     44  C   UNL A   1      44.180  23.503  29.665  1.00  0.00     0.029 A 
ATOM     45  N   UNL A   1      43.503  25.572  29.994  1.00  0.00    -0.354 N 
ATOM     46  C   UNL A   1      40.078  27.212  27.666  1.00  0.00     0.074 A 
ATOM     47  C   UNL A   1      39.158  26.125  27.868  1.00  0.00     0.031 C 
ATOM     48  C   UNL A   1      44.672  23.877  30.866  1.00  0.00     0.029 A 
ATOM     49  C   UNL A   1      44.265  25.245  31.116  1.00  0.00     0.049 A 
ATOM     50  H   UNL A   1      43.167  26.482  29.827  1.00  0.00     0.167 HD
ATOM     51  C   UNL A   1      39.891  28.560  27.691  1.00  0.00     0.031 A 
ATOM     52  C   UNL A   1      44.541  26.033  32.187  1.00  0.00     0.031 A 
ATOM     53  C   UNL A   1      41.061  29.259  27.232  1.00  0.00     0.049 A 
ATOM     54  C   UNL A   1      44.296  27.427  31.751  1.00  0.00     0.074 A 
ATOM     55  C   UNL A   1      41.751  29.276  26.036  1.00  0.00     0.029 A 
ATOM     56  N   UNL A   1      41.933  29.736  28.182  1.00  0.00    -0.354 N 
ATOM     57  N   UNL A   1      44.987  28.012  30.812  1.00  0.00    -0.248 NA
ATOM     58  C   UNL A   1      42.982  27.994  32.004  1.00  0.00     0.031 C 
ATOM     59  C   UNL A   1      43.126  29.261  26.415  1.00  0.00     0.029 A 
ATOM     60  C   UNL A   1      43.193  29.334  27.809  1.00  0.00     0.049 A 
ATOM     61  H   UNL A   1      41.699  30.264  28.978  1.00  0.00     0.167 HD
ATOM     62  C   UNL A   1      44.052  28.717  30.069  1.00  0.00     0.074 A 
ATOM     63  C   UNL A   1      42.849  28.740  30.904  1.00  0.00     0.031 C 
ATOM     64  C   UNL A   1      44.242  28.969  28.740  1.00  0.00     0.031 A 
BRANCH  51  65
ATOM     65  C   UNL A   1      38.791  29.241  28.460  1.00  0.00    -0.014 A 
ATOM     66  C   UNL A   1      37.612  29.605  27.778  1.00  0.00     0.010 A 
ATOM     67  C   UNL A   1      38.995  29.798  29.740  1.00  0.00     0.010 A 
ATOM     68  C   UNL A   1      36.726  30.549  28.313  1.00  0.00     0.020 A 
ATOM     69  C   UNL A   1      38.098  30.713  30.297  1.00  0.00     0.020 A 
ATOM     70  C   UNL A   1      36.988  31.113  29.561  1.00  0.00     0.054 A 
BRANCH  70  71
ATOM     71  S   UNL A   1      35.912  32.433  30.176  1.00  0.00     0.124 S 
ATOM     72  O   UNL A   1      36.858  33.529  30.361  1.00  0.00    -0.237 OA
ATOM     73  O   UNL A   1      34.962  32.593  29.079  1.00  0.00    -0.237 OA
ATOM     74  O   UNL A   1      35.354  31.874  31.404  1.00  0.00    -0.744 OA
ENDBRANCH  70  71
ENDBRANCH  51  65
BRANCH  52  75
ATOM     75  C   UNL A   1      44.701  25.645  33.614  1.00  0.00    -0.014 A 
ATOM     76  C   UNL A   1      45.872  25.953  34.334  1.00  0.00     0.010 A 
ATOM     77  C   UNL A   1      43.577  25.221  34.355  1.00  0.00     0.010 A 
ATOM     78  C   UNL A   1      45.898  25.901  35.742  1.00  0.00     0.020 A 
ATOM     79  C   UNL A   1      43.595  25.164  35.756  1.00  0.00     0.020 A 
ATOM     80  C   UNL A   1      44.749  25.531  36.445  1.00  0.00     0.054 A 
BRANCH  80  81
ATOM     81  S   UNL A   1      44.723  25.652  38.262  1.00  0.00     0.124 S 
ATOM     82  O   UNL A   1      43.425  26.265  38.517  1.00  0.00    -0.237 OA
ATOM     83  O   UNL A   1      44.857  24.257  38.675  1.00  0.00    -0.237 OA
ATOM     84  O   UNL A   1      45.880  26.494  38.565  1.00  0.00    -0.744 OA
ENDBRANCH  80  81
ENDBRANCH  52  75
BRANCH  64  85
ATOM     85  C   UNL A   1      45.586  28.627  28.123  1.00  0.00    -0.014 A 
ATOM     86  C   UNL A   1      45.911  27.352  27.612  1.00  0.00     0.010 A 
ATOM     87  C   UNL A   1      46.479  29.684  27.885  1.00  0.00     0.010 A 
ATOM     88  C   UNL A   1      47.103  27.143  26.898  1.00  0.00     0.020 A 
ATOM     89  C   UNL A   1      47.658  29.487  27.161  1.00  0.00     0.020 A 
ATOM     90  C   UNL A   1      47.970  28.217  26.676  1.00  0.00     0.054 A 
BRANCH  90  91
ATOM     91  S   UNL A   1      49.482  27.963  25.704  1.00  0.00     0.124 S 
ATOM     92  O   UNL A   1      50.223  29.200  25.939  1.00  0.00    -0.237 OA
ATOM     93  O   UNL A   1      50.059  26.761  26.304  1.00  0.00    -0.237 OA
ATOM     94  O   UNL A   1      48.992  27.787  24.337  1.00  0.00    -0.744 OA
ENDBRANCH  90  91
ENDBRANCH  64  85
ENDBRANCH  38  39
ENDBRANCH  30  33
ENDBRANCH  28  29
ENDBRANCH  27  28
ENDBRANCH  26  27
ENDBRANCH   1  26
TORSDOF 19
ENDMDL
MODEL 2
REMARK VINA RESULT:     -11.7      3.262      7.874
REMARK SMILES CCn1ccc(NC(=O)[C@H]2[C@@H](C(=O)NCCCCCCNC(=O)c3ccc(-c4c5nc(c(-c6ccc(S(=O)(=O)[O-])cc6)c6ccc([nH]6)c(-c6ccc(S(=O)(=O)[O-])cc6)c6nc(c(-c7ccc(S(=O)(=O)[O-])cc7)c7ccc4[nH]7)C=C6)C=C5)cc3)[C@H]3C=C[C@@H]2C3)n1
REMARK SMILES IDX 17 1 16 2 15 3 14 4 12 5 13 6 11 8 10 9 87 10 84 11 86 12
REMARK SMILES IDX 88 13 85 14 8 15 7 16 9 18 6 19 3 20 4 21 89 22 5 23 2 24
REMARK SMILES IDX 1 25 18 26 19 27 20 28 21 29 22 30 23 32 24 33 25 34 83 35
REMARK SMILES IDX 26 36 82 37 27 38 28 39 29 40 76 41 30 42 81 43 75 44 77 45
REMARK SMILES IDX 31 46 80 47 74 48 73 49 32 51 62 52 43 53 61 54 44 55 47 56
REMARK SMILES IDX 60 57 78 58 45 59 46 60 59 62 79 63 48 64 33 65 34 66 42 67
REMARK SMILES IDX 35 68 41 69 36 70 37 71 38 72 39 73 40 74 63 75 64 76 72 77
REMARK SMILES IDX 65 78 71 79 66 80 67 81 68 82 69 83 70 84 49 85 50 86 58 87
REMARK SMILES IDX 51 88 57 89 52 90 53 91 54 92 55 93 56 94
REMARK H PARENT 14 7 7 17 21 31 77 50 47 61
REMARK Flexibility Score: inf
ROOT
ATOM      1  C   UNL A   1      36.829  21.914  24.335  1.00  0.00     0.002 C 
ENDROOT
BRANCH   1   2
ATOM      2  C   UNL A   1      36.497  23.338  23.886  1.00  0.00     0.021 C 
BRANCH   2   3
ATOM      3  C   UNL A   1      35.291  23.972  24.555  1.00  0.00     0.116 C 
BRANCH   3   4
ATOM      4  N   UNL A   1      34.289  24.545  23.704  1.00  0.00    -0.356 N 
ATOM      5  C   UNL A   1      33.477  25.603  23.968  1.00  0.00     0.224 C 
ATOM      6  O   UNL A   1      32.883  26.083  22.990  1.00  0.00    -0.275 OA
ATOM      7  H   UNL A   1      34.176  24.121  22.823  1.00  0.00     0.163 HD
BRANCH   5   8
ATOM      8  C   UNL A   1      33.106  26.122  25.367  1.00  0.00     0.098 C 
ATOM      9  C   UNL A   1      31.683  26.331  26.033  1.00  0.00     0.099 C 
ATOM     10  C   UNL A   1      31.739  27.828  26.420  1.00  0.00     0.025 C 
ATOM     11  C   UNL A   1      33.792  27.505  25.591  1.00  0.00     0.025 C 
ATOM     12  C   UNL A   1      31.891  28.725  25.216  1.00  0.00    -0.027 C 
ATOM     13  C   UNL A   1      33.188  27.926  26.930  1.00  0.00     0.017 C 
ATOM     14  C   UNL A   1      33.124  28.540  24.725  1.00  0.00    -0.027 C 
BRANCH   9  15
ATOM     15  C   UNL A   1      30.495  25.612  25.397  1.00  0.00     0.230 C 
ATOM     16  N   UNL A   1      30.360  24.268  25.259  1.00  0.00    -0.309 N 
ATOM     17  H   UNL A   1      29.455  23.977  25.004  1.00  0.00     0.171 HD
ATOM     18  O   UNL A   1      29.528  26.305  25.043  1.00  0.00    -0.274 OA
BRANCH  16  19
ATOM     19  C   UNL A   1      31.254  23.246  25.411  1.00  0.00     0.154 A 
ATOM     20  N   UNL A   1      32.476  21.610  24.859  1.00  0.00    -0.271 N 
ATOM     21  C   UNL A   1      32.583  21.680  26.218  1.00  0.00     0.111 A 
ATOM     22  N   UNL A   1      31.744  22.622  24.337  1.00  0.00    -0.155 NA
ATOM     23  C   UNL A   1      31.848  22.775  26.596  1.00  0.00     0.068 A 
BRANCH  20  24
ATOM     24  C   UNL A   1      33.044  20.564  24.027  1.00  0.00     0.141 C 
ATOM     25  C   UNL A   1      33.963  19.618  24.768  1.00  0.00     0.029 C 
ENDBRANCH  20  24
ENDBRANCH  16  19
ENDBRANCH   9  15
ENDBRANCH   5   8
ENDBRANCH   3   4
ENDBRANCH   2   3
ENDBRANCH   1   2
BRANCH   1  26
ATOM     26  C   UNL A   1      37.892  21.744  25.434  1.00  0.00     0.002 C 
BRANCH  26  27
ATOM     27  C   UNL A   1      38.528  23.010  26.029  1.00  0.00     0.021 C 
BRANCH  27  28
ATOM     28  C   UNL A   1      39.673  22.751  26.991  1.00  0.00     0.116 C 
BRANCH  28  29
ATOM     29  N   UNL A   1      40.935  22.434  26.315  1.00  0.00    -0.352 N 
ATOM     30  C   UNL A   1      41.897  23.304  25.819  1.00  0.00     0.251 C 
ATOM     31  H   UNL A   1      41.127  21.475  26.198  1.00  0.00     0.163 HD
ATOM     32  O   UNL A   1      42.723  22.936  25.004  1.00  0.00    -0.269 OA
BRANCH  30  33
ATOM     33  C   UNL A   1      41.896  24.691  26.321  1.00  0.00     0.039 A 
ATOM     34  C   UNL A   1      41.129  25.712  25.751  1.00  0.00     0.014 A 
ATOM     35  C   UNL A   1      42.675  24.935  27.440  1.00  0.00     0.014 A 
ATOM     36  C   UNL A   1      41.102  26.961  26.378  1.00  0.00     0.010 A 
ATOM     37  C   UNL A   1      42.439  26.051  28.184  1.00  0.00     0.010 A 
ATOM     38  C   UNL A   1      41.756  27.113  27.608  1.00  0.00    -0.014 A 
BRANCH  38  39
ATOM     39  C   UNL A   1      41.728  28.346  28.388  1.00  0.00     0.031 A 
ATOM     40  C   UNL A   1      42.850  29.301  28.130  1.00  0.00     0.074 A 
ATOM     41  C   UNL A   1      40.592  28.694  29.046  1.00  0.00     0.049 A 
ATOM     42  N   UNL A   1      43.569  29.934  28.993  1.00  0.00    -0.248 NA
ATOM     43  C   UNL A   1      43.263  29.553  26.738  1.00  0.00     0.031 C 
ATOM     44  C   UNL A   1      39.314  27.955  29.110  1.00  0.00     0.029 A 
ATOM     45  N   UNL A   1      40.270  29.857  29.671  1.00  0.00    -0.354 N 
ATOM     46  C   UNL A   1      44.393  30.798  28.274  1.00  0.00     0.074 A 
ATOM     47  C   UNL A   1      44.212  30.480  26.883  1.00  0.00     0.031 C 
ATOM     48  C   UNL A   1      38.318  28.782  29.493  1.00  0.00     0.029 A 
ATOM     49  C   UNL A   1      38.905  30.045  29.891  1.00  0.00     0.049 A 
ATOM     50  H   UNL A   1      40.948  30.516  29.945  1.00  0.00     0.167 HD
ATOM     51  C   UNL A   1      45.040  31.832  28.879  1.00  0.00     0.031 A 
ATOM     52  C   UNL A   1      38.289  31.161  30.358  1.00  0.00     0.031 A 
ATOM     53  C   UNL A   1      45.133  31.631  30.299  1.00  0.00     0.049 A 
ATOM     54  C   UNL A   1      39.336  31.965  31.028  1.00  0.00     0.074 A 
ATOM     55  C   UNL A   1      45.729  30.666  31.087  1.00  0.00     0.029 A 
ATOM     56  N   UNL A   1      44.191  32.242  31.094  1.00  0.00    -0.354 N 
ATOM     57  N   UNL A   1      39.977  31.559  32.089  1.00  0.00    -0.248 NA
ATOM     58  C   UNL A   1      40.012  32.985  30.243  1.00  0.00     0.031 C 
ATOM     59  C   UNL A   1      44.775  30.402  32.114  1.00  0.00     0.029 A 
ATOM     60  C   UNL A   1      43.704  31.285  31.950  1.00  0.00     0.049 A 
ATOM     61  H   UNL A   1      43.917  33.187  31.055  1.00  0.00     0.167 HD
ATOM     62  C   UNL A   1      41.295  31.932  31.872  1.00  0.00     0.074 A 
ATOM     63  C   UNL A   1      41.238  32.884  30.762  1.00  0.00     0.031 C 
ATOM     64  C   UNL A   1      42.333  31.227  32.415  1.00  0.00     0.031 A 
BRANCH  51  65
ATOM     65  C   UNL A   1      45.266  33.174  28.235  1.00  0.00    -0.014 A 
ATOM     66  C   UNL A   1      46.561  33.732  28.266  1.00  0.00     0.010 A 
ATOM     67  C   UNL A   1      44.204  34.028  27.872  1.00  0.00     0.010 A 
ATOM     68  C   UNL A   1      46.769  35.097  28.033  1.00  0.00     0.020 A 
ATOM     69  C   UNL A   1      44.407  35.384  27.603  1.00  0.00     0.020 A 
ATOM     70  C   UNL A   1      45.684  35.918  27.724  1.00  0.00     0.054 A 
BRANCH  70  71
ATOM     71  S   UNL A   1      45.947  37.703  27.566  1.00  0.00     0.124 S 
ATOM     72  O   UNL A   1      46.977  37.945  28.571  1.00  0.00    -0.237 OA
ATOM     73  O   UNL A   1      46.373  37.829  26.175  1.00  0.00    -0.237 OA
ATOM     74  O   UNL A   1      44.634  38.268  27.866  1.00  0.00    -0.744 OA
ENDBRANCH  70  71
ENDBRANCH  51  65
BRANCH  52  75
ATOM     75  C   UNL A   1      36.951  31.707  30.002  1.00  0.00    -0.014 A 
ATOM     76  C   UNL A   1      36.065  32.187  30.988  1.00  0.00     0.010 A 
ATOM     77  C   UNL A   1      36.657  32.021  28.658  1.00  0.00     0.010 A 
ATOM     78  C   UNL A   1      34.968  33.002  30.647  1.00  0.00     0.020 A 
ATOM     79  C   UNL A   1      35.565  32.829  28.311  1.00  0.00     0.020 A 
ATOM     80  C   UNL A   1      34.740  33.339  29.311  1.00  0.00     0.054 A 
BRANCH  80  81
ATOM     81  S   UNL A   1      33.443  34.547  28.892  1.00  0.00     0.124 S 
ATOM     82  O   UNL A   1      34.213  35.652  28.331  1.00  0.00    -0.237 OA
ATOM     83  O   UNL A   1      32.615  33.807  27.944  1.00  0.00    -0.237 OA
ATOM     84  O   UNL A   1      32.805  34.824  30.179  1.00  0.00    -0.744 OA
ENDBRANCH  80  81
ENDBRANCH  52  75
BRANCH  64  85
ATOM     85  C   UNL A   1      42.019  30.132  33.417  1.00  0.00    -0.014 A 
ATOM     86  C   UNL A   1      41.620  28.829  33.054  1.00  0.00     0.010 A 
ATOM     87  C   UNL A   1      42.319  30.382  34.766  1.00  0.00     0.010 A 
ATOM     88  C   UNL A   1      41.512  27.811  34.018  1.00  0.00     0.020 A 
ATOM     89  C   UNL A   1      42.231  29.371  35.727  1.00  0.00     0.020 A 
ATOM     90  C   UNL A   1      41.821  28.091  35.352  1.00  0.00     0.054 A 
BRANCH  90  91
ATOM     91  S   UNL A   1      41.739  26.765  36.589  1.00  0.00     0.124 S 
ATOM     92  O   UNL A   1      42.983  26.947  37.333  1.00  0.00    -0.237 OA
ATOM     93  O   UNL A   1      40.515  27.078  37.324  1.00  0.00    -0.237 OA
ATOM     94  O   UNL A   1      41.672  25.544  35.786  1.00  0.00    -0.744 OA
ENDBRANCH  90  91
ENDBRANCH  64  85
ENDBRANCH  38  39
ENDBRANCH  30  33
ENDBRANCH  28  29
ENDBRANCH  27  28
ENDBRANCH  26  27
ENDBRANCH   1  26
TORSDOF 19
ENDMDL
MODEL 3
REMARK VINA RESULT:     -11.5      2.619      7.571
REMARK SMILES CCn1ccc(NC(=O)[C@H]2[C@@H](C(=O)NCCCCCCNC(=O)c3ccc(-c4c5nc(c(-c6ccc(S(=O)(=O)[O-])cc6)c6ccc([nH]6)c(-c6ccc(S(=O)(=O)[O-])cc6)c6nc(c(-c7ccc(S(=O)(=O)[O-])cc7)c7ccc4[nH]7)C=C6)C=C5)cc3)[C@H]3C=C[C@@H]2C3)n1
REMARK SMILES IDX 17 1 16 2 15 3 14 4 12 5 13 6 11 8 10 9 87 10 84 11 86 12
REMARK SMILES IDX 88 13 85 14 8 15 7 16 9 18 6 19 3 20 4 21 89 22 5 23 2 24
REMARK SMILES IDX 1 25 18 26 19 27 20 28 21 29 22 30 23 32 24 33 25 34 83 35
REMARK SMILES IDX 26 36 82 37 27 38 28 39 29 40 76 41 30 42 81 43 75 44 77 45
REMARK SMILES IDX 31 46 80 47 74 48 73 49 32 51 62 52 43 53 61 54 44 55 47 56
REMARK SMILES IDX 60 57 78 58 45 59 46 60 59 62 79 63 48 64 33 65 34 66 42 67
REMARK SMILES IDX 35 68 41 69 36 70 37 71 38 72 39 73 40 74 63 75 64 76 72 77
REMARK SMILES IDX 65 78 71 79 66 80 67 81 68 82 69 83 70 84 49 85 50 86 58 87
REMARK SMILES IDX 51 88 57 89 52 90 53 91 54 92 55 93 56 94
REMARK H PARENT 14 7 7 17 21 31 77 50 47 61
REMARK Flexibility Score: inf
ROOT
ATOM      1  C   UNL A   1      38.808  21.963  26.033  1.00  0.00     0.002 C 
ENDROOT
BRANCH   1   2
ATOM      2  C   UNL A   1      38.436  23.441  26.157  1.00  0.00     0.021 C 
BRANCH   2   3
ATOM      3  C   UNL A   1      36.969  23.768  25.947  1.00  0.00     0.116 C 
BRANCH   3   4
ATOM      4  N   UNL A   1      36.017  23.105  26.791  1.00  0.00    -0.356 N 
ATOM      5  C   UNL A   1      34.782  22.647  26.455  1.00  0.00     0.224 C 
ATOM      6  O   UNL A   1      34.253  21.876  27.271  1.00  0.00    -0.275 OA
ATOM      7  H   UNL A   1      36.292  22.965  27.726  1.00  0.00     0.163 HD
BRANCH   5   8
ATOM      8  C   UNL A   1      33.936  23.136  25.268  1.00  0.00     0.098 C 
ATOM      9  C   UNL A   1      32.427  23.616  25.220  1.00  0.00     0.099 C 
ATOM     10  C   UNL A   1      31.831  22.661  24.159  1.00  0.00     0.025 C 
ATOM     11  C   UNL A   1      33.987  22.063  24.137  1.00  0.00     0.025 C 
ATOM     12  C   UNL A   1      31.907  21.215  24.583  1.00  0.00    -0.027 C 
ATOM     13  C   UNL A   1      32.981  22.633  23.137  1.00  0.00     0.017 C 
ATOM     14  C   UNL A   1      33.196  20.852  24.561  1.00  0.00    -0.027 C 
BRANCH   9  15
ATOM     15  C   UNL A   1      31.771  24.011  26.542  1.00  0.00     0.230 C 
ATOM     16  N   UNL A   1      31.303  25.245  26.859  1.00  0.00    -0.309 N 
ATOM     17  H   UNL A   1      30.744  25.269  27.670  1.00  0.00     0.171 HD
ATOM     18  O   UNL A   1      31.573  23.113  27.376  1.00  0.00    -0.274 OA
BRANCH  16  19
ATOM     19  C   UNL A   1      31.465  26.460  26.256  1.00  0.00     0.154 A 
ATOM     20  N   UNL A   1      31.798  27.845  24.691  1.00  0.00    -0.271 N 
ATOM     21  C   UNL A   1      31.789  28.601  25.828  1.00  0.00     0.111 A 
ATOM     22  N   UNL A   1      31.504  26.545  24.923  1.00  0.00    -0.155 NA
ATOM     23  C   UNL A   1      31.510  27.732  26.853  1.00  0.00     0.068 A 
BRANCH  20  24
ATOM     24  C   UNL A   1      32.116  28.336  23.362  1.00  0.00     0.141 C 
ATOM     25  C   UNL A   1      33.536  28.054  22.924  1.00  0.00     0.029 C 
ENDBRANCH  20  24
ENDBRANCH  16  19
ENDBRANCH   9  15
ENDBRANCH   5   8
ENDBRANCH   3   4
ENDBRANCH   2   3
ENDBRANCH   1   2
BRANCH   1  26
ATOM     26  C   UNL A   1      40.127  21.505  26.680  1.00  0.00     0.002 C 
BRANCH  26  27
ATOM     27  C   UNL A   1      40.762  20.197  26.184  1.00  0.00     0.021 C 
BRANCH  27  28
ATOM     28  C   UNL A   1      42.087  19.849  26.837  1.00  0.00     0.116 C 
BRANCH  28  29
ATOM     29  N   UNL A   1      43.171  19.641  25.870  1.00  0.00    -0.352 N 
ATOM     30  C   UNL A   1      43.867  20.588  25.129  1.00  0.00     0.251 C 
ATOM     31  H   UNL A   1      43.442  18.705  25.728  1.00  0.00     0.163 HD
ATOM     32  O   UNL A   1      44.502  20.274  24.140  1.00  0.00    -0.269 OA
BRANCH  30  33
ATOM     33  C   UNL A   1      43.824  21.989  25.586  1.00  0.00     0.039 A 
ATOM     34  C   UNL A   1      42.994  22.958  25.012  1.00  0.00     0.014 A 
ATOM     35  C   UNL A   1      44.628  22.303  26.669  1.00  0.00     0.014 A 
ATOM     36  C   UNL A   1      42.936  24.225  25.599  1.00  0.00     0.010 A 
ATOM     37  C   UNL A   1      44.370  23.432  27.384  1.00  0.00     0.010 A 
ATOM     38  C   UNL A   1      43.623  24.445  26.799  1.00  0.00    -0.014 A 
BRANCH  38  39
ATOM     39  C   UNL A   1      43.569  25.701  27.540  1.00  0.00     0.031 A 
ATOM     40  C   UNL A   1      44.641  26.691  27.215  1.00  0.00     0.074 A 
ATOM     41  C   UNL A   1      42.441  26.024  28.223  1.00  0.00     0.049 A 
ATOM     42  N   UNL A   1      45.361  27.382  28.033  1.00  0.00    -0.248 NA
ATOM     43  C   UNL A   1      44.999  26.914  25.803  1.00  0.00     0.031 C 
ATOM     44  C   UNL A   1      41.197  25.236  28.354  1.00  0.00     0.029 A 
ATOM     45  N   UNL A   1      42.091  27.194  28.822  1.00  0.00    -0.354 N 
ATOM     46  C   UNL A   1      46.125  28.254  27.260  1.00  0.00     0.074 A 
ATOM     47  C   UNL A   1      45.913  27.882  25.887  1.00  0.00     0.031 C 
ATOM     48  C   UNL A   1      40.180  26.035  28.743  1.00  0.00     0.029 A 
ATOM     49  C   UNL A   1      40.727  27.334  29.080  1.00  0.00     0.049 A 
ATOM     50  H   UNL A   1      42.748  27.888  29.052  1.00  0.00     0.167 HD
ATOM     51  C   UNL A   1      46.747  29.332  27.811  1.00  0.00     0.031 A 
ATOM     52  C   UNL A   1      40.079  28.439  29.532  1.00  0.00     0.031 A 
ATOM     53  C   UNL A   1      46.893  29.183  29.233  1.00  0.00     0.049 A 
ATOM     54  C   UNL A   1      41.113  29.306  30.141  1.00  0.00     0.074 A 
ATOM     55  C   UNL A   1      47.553  28.269  30.031  1.00  0.00     0.029 A 
ATOM     56  N   UNL A   1      45.952  29.781  30.038  1.00  0.00    -0.354 N 
ATOM     57  N   UNL A   1      41.804  28.961  31.193  1.00  0.00    -0.248 NA
ATOM     58  C   UNL A   1      41.721  30.326  29.302  1.00  0.00     0.031 C 
ATOM     59  C   UNL A   1      46.644  28.001  31.096  1.00  0.00     0.029 A 
ATOM     60  C   UNL A   1      45.532  28.834  30.940  1.00  0.00     0.049 A 
ATOM     61  H   UNL A   1      45.638  30.712  29.978  1.00  0.00     0.167 HD
ATOM     62  C   UNL A   1      43.098  29.380  30.921  1.00  0.00     0.074 A 
ATOM     63  C   UNL A   1      42.966  30.292  29.784  1.00  0.00     0.031 C 
ATOM     64  C   UNL A   1      44.180  28.736  31.451  1.00  0.00     0.031 A 
BRANCH  51  65
ATOM     65  C   UNL A   1      46.896  30.660  27.117  1.00  0.00    -0.014 A 
ATOM     66  C   UNL A   1      48.154  31.297  27.135  1.00  0.00     0.010 A 
ATOM     67  C   UNL A   1      45.788  31.433  26.714  1.00  0.00     0.010 A 
ATOM     68  C   UNL A   1      48.281  32.663  26.852  1.00  0.00     0.020 A 
ATOM     69  C   UNL A   1      45.910  32.788  26.395  1.00  0.00     0.020 A 
ATOM     70  C   UNL A   1      47.152  33.403  26.504  1.00  0.00     0.054 A 
BRANCH  70  71
ATOM     71  S   UNL A   1      47.306  35.193  26.279  1.00  0.00     0.124 S 
ATOM     72  O   UNL A   1      48.290  35.277  25.204  1.00  0.00    -0.237 OA
ATOM     73  O   UNL A   1      45.943  35.579  25.924  1.00  0.00    -0.237 OA
ATOM     74  O   UNL A   1      47.764  35.663  27.584  1.00  0.00    -0.744 OA
ENDBRANCH  70  71
ENDBRANCH  51  65
BRANCH  52  75
ATOM     75  C   UNL A   1      38.709  28.917  29.203  1.00  0.00    -0.014 A 
ATOM     76  C   UNL A   1      37.768  29.206  30.212  1.00  0.00     0.010 A 
ATOM     77  C   UNL A   1      38.419  29.366  27.898  1.00  0.00     0.010 A 
ATOM     78  C   UNL A   1      36.616  29.968  29.937  1.00  0.00     0.020 A 
ATOM     79  C   UNL A   1      37.273  30.124  27.615  1.00  0.00     0.020 A 
ATOM     80  C   UNL A   1      36.389  30.444  28.643  1.00  0.00     0.054 A 
BRANCH  80  81
ATOM     81  S   UNL A   1      35.008  31.590  28.332  1.00  0.00     0.124 S 
ATOM     82  O   UNL A   1      34.075  30.759  27.577  1.00  0.00    -0.237 OA
ATOM     83  O   UNL A   1      34.584  31.950  29.682  1.00  0.00    -0.237 OA
ATOM     84  O   UNL A   1      35.628  32.675  27.573  1.00  0.00    -0.744 OA
ENDBRANCH  80  81
ENDBRANCH  52  75
BRANCH  64  85
ATOM     85  C   UNL A   1      43.944  27.663  32.498  1.00  0.00    -0.014 A 
ATOM     86  C   UNL A   1      43.849  26.287  32.202  1.00  0.00     0.010 A 
ATOM     87  C   UNL A   1      44.006  28.048  33.847  1.00  0.00     0.010 A 
ATOM     88  C   UNL A   1      43.804  25.328  33.228  1.00  0.00     0.020 A 
ATOM     89  C   UNL A   1      43.980  27.099  34.873  1.00  0.00     0.020 A 
ATOM     90  C   UNL A   1      43.872  25.744  34.561  1.00  0.00     0.054 A 
BRANCH  90  91
ATOM     91  S   UNL A   1      43.872  24.504  35.888  1.00  0.00     0.124 S 
ATOM     92  O   UNL A   1      42.503  24.580  36.394  1.00  0.00    -0.237 OA
ATOM     93  O   UNL A   1      44.214  23.271  35.183  1.00  0.00    -0.237 OA
ATOM     94  O   UNL A   1      44.899  24.984  36.811  1.00  0.00    -0.744 OA
ENDBRANCH  90  91
ENDBRANCH  64  85
ENDBRANCH  38  39
ENDBRANCH  30  33
ENDBRANCH  28  29
ENDBRANCH  27  28
ENDBRANCH  26  27
ENDBRANCH   1  26
TORSDOF 19
ENDMDL
