MODEL 1
REMARK VINA RESULT:     -10.9      0.000      0.000
REMARK SMILES C[C@H]1OCC[C@@H]1C(=O)Nc1ccc(Cl)c(C(=O)NCCCCCCNC(=O)c2ccc(-c3c4nc(c(-c5ccc(S(=O)(=O)[O-])cc5)c5ccc([nH]5)c(-c5ccc(S(=O)(=O)[O-])cc5)c5nc(c(-c6ccc(S(=O)(=O)[O-])cc6)c6ccc3[nH]6)C=C5)C=C4)cc2)c1
REMARK SMILES IDX 22 1 21 2 20 3 19 4 18 5 16 6 17 7 15 9 10 10 11 11 88 12
REMARK SMILES IDX 12 13 13 14 14 15 9 16 7 17 8 18 6 20 1 21 2 22 3 23 4 24
REMARK SMILES IDX 5 25 23 26 24 27 25 28 26 29 27 31 28 32 29 33 87 34 30 35
REMARK SMILES IDX 86 36 31 37 32 38 33 39 80 40 34 41 85 42 79 43 81 44 35 45
REMARK SMILES IDX 84 46 78 47 77 48 36 50 66 51 47 52 65 53 48 54 51 55 64 56
REMARK SMILES IDX 82 57 49 58 50 59 63 61 83 62 52 63 37 64 38 65 46 66 39 67
REMARK SMILES IDX 45 68 40 69 41 70 42 71 43 72 44 73 67 74 68 75 76 76 69 77
REMARK SMILES IDX 75 78 70 79 71 80 72 81 73 82 74 83 53 84 54 85 62 86 55 87
REMARK SMILES IDX 61 88 56 89 57 90 58 91 59 92 60 93
REMARK H PARENT 18 8 9 19 25 30 81 49 51 60
REMARK Flexibility Score: inf
ROOT
ATOM      1  C   UNL A   1      34.684  22.053  25.699  1.00  0.00     0.002 C 
ENDROOT
BRANCH   1   2
ATOM      2  C   UNL A   1      34.380  21.913  24.202  1.00  0.00     0.002 C 
BRANCH   2   3
ATOM      3  C   UNL A   1      33.068  21.236  23.811  1.00  0.00     0.021 C 
BRANCH   3   4
ATOM      4  C   UNL A   1      32.045  22.102  23.094  1.00  0.00     0.116 C 
BRANCH   4   5
ATOM      5  N   UNL A   1      32.575  23.117  22.205  1.00  0.00    -0.352 N 
ATOM      6  C   UNL A   1      32.627  24.486  22.373  1.00  0.00     0.252 C 
ATOM      7  O   UNL A   1      33.197  25.166  21.520  1.00  0.00    -0.269 OA
ATOM      8  H   UNL A   1      32.954  22.782  21.360  1.00  0.00     0.163 HD
BRANCH   6   9
ATOM      9  C   UNL A   1      31.898  25.174  23.473  1.00  0.00     0.060 A 
ATOM     10  C   UNL A   1      29.757  25.896  24.340  1.00  0.00     0.042 A 
ATOM     11  C   UNL A   1      30.329  26.072  25.590  1.00  0.00     0.028 A 
ATOM     12  C   UNL A   1      30.502  25.295  23.326  1.00  0.00     0.041 A 
ATOM     13  C   UNL A   1      31.708  26.031  25.719  1.00  0.00     0.023 A 
ATOM     14  C   UNL A   1      32.492  25.734  24.607  1.00  0.00     0.053 A 
ATOM     15  Cl  UNL A   1      34.122  26.304  24.660  1.00  0.00    -0.083 Cl
BRANCH  10  16
ATOM     16  N   UNL A   1      28.467  26.359  24.078  1.00  0.00    -0.326 N 
ATOM     17  C   UNL A   1      28.086  27.569  23.555  1.00  0.00     0.230 C 
ATOM     18  O   UNL A   1      26.872  27.818  23.547  1.00  0.00    -0.274 OA
ATOM     19  H   UNL A   1      27.735  25.738  24.298  1.00  0.00     0.169 HD
BRANCH  17  20
ATOM     20  C   UNL A   1      29.045  28.570  22.877  1.00  0.00     0.110 C 
ATOM     21  C   UNL A   1      31.466  29.128  23.427  1.00  0.00     0.039 C 
ATOM     22  C   UNL A   1      30.002  29.277  23.834  1.00  0.00     0.127 C 
ATOM     23  O   UNL A   1      29.674  30.673  23.787  1.00  0.00    -0.378 OA
ATOM     24  C   UNL A   1      29.076  30.953  22.520  1.00  0.00     0.161 C 
ATOM     25  C   UNL A   1      28.437  29.668  22.028  1.00  0.00     0.044 C 
ENDBRANCH  17  20
ENDBRANCH  10  16
ENDBRANCH   6   9
ENDBRANCH   4   5
ENDBRANCH   3   4
ENDBRANCH   2   3
ENDBRANCH   1   2
BRANCH   1  26
ATOM     26  C   UNL A   1      35.265  23.385  26.181  1.00  0.00     0.021 C 
BRANCH  26  27
ATOM     27  C   UNL A   1      36.573  23.830  25.537  1.00  0.00     0.116 C 
BRANCH  27  28
ATOM     28  N   UNL A   1      37.629  22.842  25.658  1.00  0.00    -0.352 N 
ATOM     29  C   UNL A   1      38.887  22.963  26.185  1.00  0.00     0.251 C 
ATOM     30  H   UNL A   1      37.408  21.949  25.307  1.00  0.00     0.163 HD
ATOM     31  O   UNL A   1      39.682  22.024  26.066  1.00  0.00    -0.269 OA
BRANCH  29  32
ATOM     32  C   UNL A   1      39.318  24.201  26.876  1.00  0.00     0.039 A 
ATOM     33  C   UNL A   1      40.083  25.131  26.165  1.00  0.00     0.014 A 
ATOM     34  C   UNL A   1      39.018  24.436  28.221  1.00  0.00     0.014 A 
ATOM     35  C   UNL A   1      40.514  26.305  26.788  1.00  0.00     0.010 A 
ATOM     36  C   UNL A   1      39.387  25.641  28.820  1.00  0.00     0.010 A 
ATOM     37  C   UNL A   1      40.154  26.581  28.117  1.00  0.00    -0.014 A 
BRANCH  37  38
ATOM     38  C   UNL A   1      40.599  27.834  28.784  1.00  0.00     0.031 A 
ATOM     39  C   UNL A   1      41.991  27.937  29.354  1.00  0.00     0.074 A 
ATOM     40  C   UNL A   1      39.743  28.868  28.908  1.00  0.00     0.049 A 
ATOM     41  N   UNL A   1      42.552  28.937  29.984  1.00  0.00    -0.248 NA
ATOM     42  C   UNL A   1      42.858  26.754  29.219  1.00  0.00     0.031 C 
ATOM     43  C   UNL A   1      38.355  28.882  28.439  1.00  0.00     0.029 A 
ATOM     44  N   UNL A   1      39.915  30.110  29.470  1.00  0.00    -0.354 N 
ATOM     45  C   UNL A   1      43.825  28.499  30.336  1.00  0.00     0.074 A 
ATOM     46  C   UNL A   1      43.936  27.128  29.892  1.00  0.00     0.031 C 
ATOM     47  C   UNL A   1      37.812  30.080  28.707  1.00  0.00     0.029 A 
ATOM     48  C   UNL A   1      38.797  30.909  29.395  1.00  0.00     0.049 A 
ATOM     49  H   UNL A   1      40.758  30.401  29.886  1.00  0.00     0.167 HD
ATOM     50  C   UNL A   1      44.819  29.182  30.954  1.00  0.00     0.031 A 
ATOM     51  C   UNL A   1      38.588  32.167  29.830  1.00  0.00     0.031 A 
ATOM     52  C   UNL A   1      44.715  30.554  31.377  1.00  0.00     0.049 A 
ATOM     53  C   UNL A   1      39.715  32.911  30.493  1.00  0.00     0.074 A 
ATOM     54  C   UNL A   1      45.685  31.350  31.962  1.00  0.00     0.029 A 
ATOM     55  N   UNL A   1      43.576  31.336  31.257  1.00  0.00    -0.354 N 
ATOM     56  N   UNL A   1      40.931  32.498  30.761  1.00  0.00    -0.248 NA
ATOM     57  C   UNL A   1      39.448  34.299  30.893  1.00  0.00     0.031 C 
ATOM     58  C   UNL A   1      45.118  32.600  32.237  1.00  0.00     0.029 A 
ATOM     59  C   UNL A   1      43.814  32.599  31.768  1.00  0.00     0.049 A 
ATOM     60  H   UNL A   1      42.723  31.036  30.865  1.00  0.00     0.167 HD
ATOM     61  C   UNL A   1      41.584  33.588  31.326  1.00  0.00     0.074 A 
ATOM     62  C   UNL A   1      40.633  34.680  31.349  1.00  0.00     0.031 C 
ATOM     63  C   UNL A   1      42.859  33.678  31.781  1.00  0.00     0.031 A 
BRANCH  50  64
ATOM     64  C   UNL A   1      46.113  28.453  31.212  1.00  0.00    -0.014 A 
ATOM     65  C   UNL A   1      46.308  27.709  32.390  1.00  0.00     0.010 A 
ATOM     66  C   UNL A   1      47.130  28.472  30.241  1.00  0.00     0.010 A 
ATOM     67  C   UNL A   1      47.507  27.027  32.607  1.00  0.00     0.020 A 
ATOM     68  C   UNL A   1      48.321  27.767  30.442  1.00  0.00     0.020 A 
ATOM     69  C   UNL A   1      48.508  27.061  31.632  1.00  0.00     0.054 A 
BRANCH  69  70
ATOM     70  S   UNL A   1      50.042  26.139  31.926  1.00  0.00     0.124 S 
ATOM     71  O   UNL A   1      51.008  27.218  32.121  1.00  0.00    -0.237 OA
ATOM     72  O   UNL A   1      49.724  25.358  33.118  1.00  0.00    -0.237 OA
ATOM     73  O   UNL A   1      50.219  25.360  30.703  1.00  0.00    -0.744 OA
ENDBRANCH  69  70
ENDBRANCH  50  64
BRANCH  51  74
ATOM     74  C   UNL A   1      37.261  32.814  29.630  1.00  0.00    -0.014 A 
ATOM     75  C   UNL A   1      36.894  33.325  28.372  1.00  0.00     0.010 A 
ATOM     76  C   UNL A   1      36.358  32.928  30.703  1.00  0.00     0.010 A 
ATOM     77  C   UNL A   1      35.662  33.962  28.197  1.00  0.00     0.020 A 
ATOM     78  C   UNL A   1      35.113  33.538  30.524  1.00  0.00     0.020 A 
ATOM     79  C   UNL A   1      34.780  34.065  29.275  1.00  0.00     0.054 A 
BRANCH  79  80
ATOM     80  S   UNL A   1      33.172  34.866  29.019  1.00  0.00     0.124 S 
ATOM     81  O   UNL A   1      32.570  34.019  27.995  1.00  0.00    -0.237 OA
ATOM     82  O   UNL A   1      32.564  34.786  30.345  1.00  0.00    -0.237 OA
ATOM     83  O   UNL A   1      33.529  36.216  28.587  1.00  0.00    -0.744 OA
ENDBRANCH  79  80
ENDBRANCH  51  74
BRANCH  63  84
ATOM     84  C   UNL A   1      43.317  35.020  32.293  1.00  0.00    -0.014 A 
ATOM     85  C   UNL A   1      43.924  35.962  31.445  1.00  0.00     0.010 A 
ATOM     86  C   UNL A   1      43.106  35.349  33.645  1.00  0.00     0.010 A 
ATOM     87  C   UNL A   1      44.358  37.190  31.950  1.00  0.00     0.020 A 
ATOM     88  C   UNL A   1      43.512  36.587  34.148  1.00  0.00     0.020 A 
ATOM     89  C   UNL A   1      44.155  37.492  33.301  1.00  0.00     0.054 A 
BRANCH  89  90
ATOM     90  S   UNL A   1      44.716  39.097  33.934  1.00  0.00     0.124 S 
ATOM     91  O   UNL A   1      45.534  39.589  32.829  1.00  0.00    -0.237 OA
ATOM     92  O   UNL A   1      43.462  39.812  34.155  1.00  0.00    -0.237 OA
ATOM     93  O   UNL A   1      45.452  38.752  35.148  1.00  0.00    -0.744 OA
ENDBRANCH  89  90
ENDBRANCH  63  84
ENDBRANCH  37  38
ENDBRANCH  29  32
ENDBRANCH  27  28
ENDBRANCH  26  27
ENDBRANCH   1  26
TORSDOF 18
ENDMDL
MODEL 2
REMARK VINA RESULT:     -10.8      2.858      9.309
REMARK SMILES C[C@H]1OCC[C@@H]1C(=O)Nc1ccc(Cl)c(C(=O)NCCCCCCNC(=O)c2ccc(-c3c4nc(c(-c5ccc(S(=O)(=O)[O-])cc5)c5ccc([nH]5)c(-c5ccc(S(=O)(=O)[O-])cc5)c5nc(c(-c6ccc(S(=O)(=O)[O-])cc6)c6ccc3[nH]6)C=C5)C=C4)cc2)c1
REMARK SMILES IDX 22 1 21 2 20 3 19 4 18 5 16 6 17 7 15 9 10 10 11 11 88 12
REMARK SMILES IDX 12 13 13 14 14 15 9 16 7 17 8 18 6 20 1 21 2 22 3 23 4 24
REMARK SMILES IDX 5 25 23 26 24 27 25 28 26 29 27 31 28 32 29 33 87 34 30 35
REMARK SMILES IDX 86 36 31 37 32 38 33 39 80 40 34 41 85 42 79 43 81 44 35 45
REMARK SMILES IDX 84 46 78 47 77 48 36 50 66 51 47 52 65 53 48 54 51 55 64 56
REMARK SMILES IDX 82 57 49 58 50 59 63 61 83 62 52 63 37 64 38 65 46 66 39 67
REMARK SMILES IDX 45 68 40 69 41 70 42 71 43 72 44 73 67 74 68 75 76 76 69 77
REMARK SMILES IDX 75 78 70 79 71 80 72 81 73 82 74 83 53 84 54 85 62 86 55 87
REMARK SMILES IDX 61 88 56 89 57 90 58 91 59 92 60 93
REMARK H PARENT 18 8 9 19 25 30 81 49 51 60
REMARK Flexibility Score: inf
ROOT
ATOM      1  C   UNL A   1      33.246  28.057  24.810  1.00  0.00     0.002 C 
ENDROOT
BRANCH   1   2
ATOM      2  C   UNL A   1      34.082  28.766  23.738  1.00  0.00     0.002 C 
BRANCH   2   3
ATOM      3  C   UNL A   1      33.739  28.483  22.276  1.00  0.00     0.021 C 
BRANCH   3   4
ATOM      4  C   UNL A   1      32.596  27.513  22.024  1.00  0.00     0.116 C 
BRANCH   4   5
ATOM      5  N   UNL A   1      32.917  26.334  21.244  1.00  0.00    -0.352 N 
ATOM      6  C   UNL A   1      32.980  25.014  21.641  1.00  0.00     0.252 C 
ATOM      7  O   UNL A   1      33.197  24.150  20.791  1.00  0.00    -0.269 OA
ATOM      8  H   UNL A   1      33.117  26.499  20.294  1.00  0.00     0.163 HD
BRANCH   6   9
ATOM      9  C   UNL A   1      32.936  24.618  23.074  1.00  0.00     0.060 A 
ATOM     10  C   UNL A   1      34.173  23.794  24.984  1.00  0.00     0.042 A 
ATOM     11  C   UNL A   1      33.147  24.206  25.820  1.00  0.00     0.028 A 
ATOM     12  C   UNL A   1      34.140  24.145  23.636  1.00  0.00     0.041 A 
ATOM     13  C   UNL A   1      31.937  24.597  25.269  1.00  0.00     0.023 A 
ATOM     14  C   UNL A   1      31.798  24.645  23.884  1.00  0.00     0.053 A 
ATOM     15  Cl  UNL A   1      30.184  24.510  23.283  1.00  0.00    -0.083 Cl
BRANCH  10  16
ATOM     16  N   UNL A   1      35.207  22.993  25.473  1.00  0.00    -0.326 N 
ATOM     17  C   UNL A   1      35.302  21.624  25.461  1.00  0.00     0.230 C 
ATOM     18  O   UNL A   1      36.248  21.123  26.084  1.00  0.00    -0.274 OA
ATOM     19  H   UNL A   1      35.966  23.471  25.878  1.00  0.00     0.169 HD
BRANCH  17  20
ATOM     20  C   UNL A   1      34.391  20.691  24.635  1.00  0.00     0.110 C 
ATOM     21  C   UNL A   1      32.038  21.083  23.750  1.00  0.00     0.039 C 
ATOM     22  C   UNL A   1      32.905  20.795  24.972  1.00  0.00     0.127 C 
ATOM     23  O   UNL A   1      32.512  19.520  25.499  1.00  0.00    -0.378 OA
ATOM     24  C   UNL A   1      33.389  18.525  24.970  1.00  0.00     0.161 C 
ATOM     25  C   UNL A   1      34.704  19.208  24.643  1.00  0.00     0.044 C 
ENDBRANCH  17  20
ENDBRANCH  10  16
ENDBRANCH   6   9
ENDBRANCH   4   5
ENDBRANCH   3   4
ENDBRANCH   2   3
ENDBRANCH   1   2
BRANCH   1  26
ATOM     26  C   UNL A   1      33.966  27.597  26.080  1.00  0.00     0.021 C 
BRANCH  26  27
ATOM     27  C   UNL A   1      33.409  28.109  27.403  1.00  0.00     0.116 C 
BRANCH  27  28
ATOM     28  N   UNL A   1      33.291  29.555  27.446  1.00  0.00    -0.352 N 
ATOM     29  C   UNL A   1      34.199  30.498  27.847  1.00  0.00     0.251 C 
ATOM     30  H   UNL A   1      32.426  29.912  27.140  1.00  0.00     0.163 HD
ATOM     31  O   UNL A   1      33.843  31.678  27.930  1.00  0.00    -0.269 OA
BRANCH  29  32
ATOM     32  C   UNL A   1      35.589  30.127  28.201  1.00  0.00     0.039 A 
ATOM     33  C   UNL A   1      36.575  30.210  27.212  1.00  0.00     0.014 A 
ATOM     34  C   UNL A   1      35.924  29.657  29.475  1.00  0.00     0.014 A 
ATOM     35  C   UNL A   1      37.894  29.858  27.509  1.00  0.00     0.010 A 
ATOM     36  C   UNL A   1      37.254  29.376  29.789  1.00  0.00     0.010 A 
ATOM     37  C   UNL A   1      38.251  29.456  28.806  1.00  0.00    -0.014 A 
BRANCH  37  38
ATOM     38  C   UNL A   1      39.656  29.091  29.133  1.00  0.00     0.031 A 
ATOM     39  C   UNL A   1      40.566  30.093  29.796  1.00  0.00     0.074 A 
ATOM     40  C   UNL A   1      40.126  27.871  28.803  1.00  0.00     0.049 A 
ATOM     41  N   UNL A   1      41.821  29.965  30.142  1.00  0.00    -0.248 NA
ATOM     42  C   UNL A   1      39.998  31.421  30.089  1.00  0.00     0.031 C 
ATOM     43  C   UNL A   1      39.363  26.824  28.119  1.00  0.00     0.029 A 
ATOM     44  N   UNL A   1      41.362  27.305  28.999  1.00  0.00    -0.354 N 
ATOM     45  C   UNL A   1      42.197  31.195  30.674  1.00  0.00     0.074 A 
ATOM     46  C   UNL A   1      41.052  32.070  30.560  1.00  0.00     0.031 C 
ATOM     47  C   UNL A   1      40.137  25.736  27.977  1.00  0.00     0.029 A 
ATOM     48  C   UNL A   1      41.460  26.016  28.529  1.00  0.00     0.049 A 
ATOM     49  H   UNL A   1      42.107  27.777  29.435  1.00  0.00     0.167 HD
ATOM     50  C   UNL A   1      43.381  31.558  31.224  1.00  0.00     0.031 A 
ATOM     51  C   UNL A   1      42.495  25.154  28.540  1.00  0.00     0.031 A 
ATOM     52  C   UNL A   1      44.514  30.680  31.355  1.00  0.00     0.049 A 
ATOM     53  C   UNL A   1      43.792  25.574  29.178  1.00  0.00     0.074 A 
ATOM     54  C   UNL A   1      45.738  30.937  31.948  1.00  0.00     0.029 A 
ATOM     55  N   UNL A   1      44.561  29.373  30.892  1.00  0.00    -0.354 N 
ATOM     56  N   UNL A   1      44.106  26.722  29.729  1.00  0.00    -0.248 NA
ATOM     57  C   UNL A   1      44.867  24.573  29.214  1.00  0.00     0.031 C 
ATOM     58  C   UNL A   1      46.542  29.801  31.803  1.00  0.00     0.029 A 
ATOM     59  C   UNL A   1      45.797  28.817  31.174  1.00  0.00     0.049 A 
ATOM     60  H   UNL A   1      43.825  28.910  30.432  1.00  0.00     0.167 HD
ATOM     61  C   UNL A   1      45.402  26.568  30.211  1.00  0.00     0.074 A 
ATOM     62  C   UNL A   1      45.806  25.213  29.897  1.00  0.00     0.031 C 
ATOM     63  C   UNL A   1      46.185  27.466  30.859  1.00  0.00     0.031 A 
BRANCH  50  64
ATOM     64  C   UNL A   1      43.514  32.972  31.729  1.00  0.00    -0.014 A 
ATOM     65  C   UNL A   1      43.180  33.307  33.054  1.00  0.00     0.010 A 
ATOM     66  C   UNL A   1      44.028  33.970  30.881  1.00  0.00     0.010 A 
ATOM     67  C   UNL A   1      43.324  34.619  33.511  1.00  0.00     0.020 A 
ATOM     68  C   UNL A   1      44.200  35.279  31.344  1.00  0.00     0.020 A 
ATOM     69  C   UNL A   1      43.832  35.598  32.652  1.00  0.00     0.054 A 
BRANCH  69  70
ATOM     70  S   UNL A   1      44.039  37.287  33.282  1.00  0.00     0.124 S 
ATOM     71  O   UNL A   1      43.992  38.074  32.051  1.00  0.00    -0.237 OA
ATOM     72  O   UNL A   1      42.889  37.441  34.169  1.00  0.00    -0.237 OA
ATOM     73  O   UNL A   1      45.338  37.252  33.949  1.00  0.00    -0.744 OA
ENDBRANCH  69  70
ENDBRANCH  50  64
BRANCH  51  74
ATOM     74  C   UNL A   1      42.342  23.796  27.948  1.00  0.00    -0.014 A 
ATOM     75  C   UNL A   1      42.635  23.569  26.591  1.00  0.00     0.010 A 
ATOM     76  C   UNL A   1      41.896  22.722  28.739  1.00  0.00     0.010 A 
ATOM     77  C   UNL A   1      42.457  22.300  26.029  1.00  0.00     0.020 A 
ATOM     78  C   UNL A   1      41.746  21.445  28.188  1.00  0.00     0.020 A 
ATOM     79  C   UNL A   1      42.013  21.247  26.832  1.00  0.00     0.054 A 
BRANCH  79  80
ATOM     80  S   UNL A   1      41.821  19.602  26.093  1.00  0.00     0.124 S 
ATOM     81  O   UNL A   1      40.387  19.554  25.825  1.00  0.00    -0.237 OA
ATOM     82  O   UNL A   1      42.683  19.682  24.916  1.00  0.00    -0.237 OA
ATOM     83  O   UNL A   1      42.294  18.700  27.140  1.00  0.00    -0.744 OA
ENDBRANCH  79  80
ENDBRANCH  51  74
BRANCH  63  84
ATOM     84  C   UNL A   1      47.539  26.994  31.322  1.00  0.00    -0.014 A 
ATOM     85  C   UNL A   1      48.678  27.115  30.506  1.00  0.00     0.010 A 
ATOM     86  C   UNL A   1      47.673  26.446  32.610  1.00  0.00     0.010 A 
ATOM     87  C   UNL A   1      49.917  26.649  30.952  1.00  0.00     0.020 A 
ATOM     88  C   UNL A   1      48.916  26.007  33.072  1.00  0.00     0.020 A 
ATOM     89  C   UNL A   1      50.027  26.092  32.231  1.00  0.00     0.054 A 
BRANCH  89  90
ATOM     90  S   UNL A   1      51.649  25.505  32.794  1.00  0.00     0.124 S 
ATOM     91  O   UNL A   1      51.493  25.533  34.246  1.00  0.00    -0.237 OA
ATOM     92  O   UNL A   1      51.735  24.175  32.196  1.00  0.00    -0.237 OA
ATOM     93  O   UNL A   1      52.582  26.488  32.248  1.00  0.00    -0.744 OA
ENDBRANCH  89  90
ENDBRANCH  63  84
ENDBRANCH  37  38
ENDBRANCH  29  32
ENDBRANCH  27  28
ENDBRANCH  26  27
ENDBRANCH   1  26
TORSDOF 18
ENDMDL
MODEL 3
REMARK VINA RESULT:     -10.6      2.788      9.467
REMARK SMILES C[C@H]1OCC[C@@H]1C(=O)Nc1ccc(Cl)c(C(=O)NCCCCCCNC(=O)c2ccc(-c3c4nc(c(-c5ccc(S(=O)(=O)[O-])cc5)c5ccc([nH]5)c(-c5ccc(S(=O)(=O)[O-])cc5)c5nc(c(-c6ccc(S(=O)(=O)[O-])cc6)c6ccc3[nH]6)C=C5)C=C4)cc2)c1
REMARK SMILES IDX 22 1 21 2 20 3 19 4 18 5 16 6 17 7 15 9 10 10 11 11 88 12
REMARK SMILES IDX 12 13 13 14 14 15 9 16 7 17 8 18 6 20 1 21 2 22 3 23 4 24
REMARK SMILES IDX 5 25 23 26 24 27 25 28 26 29 27 31 28 32 29 33 87 34 30 35
REMARK SMILES IDX 86 36 31 37 32 38 33 39 80 40 34 41 85 42 79 43 81 44 35 45
REMARK SMILES IDX 84 46 78 47 77 48 36 50 66 51 47 52 65 53 48 54 51 55 64 56
REMARK SMILES IDX 82 57 49 58 50 59 63 61 83 62 52 63 37 64 38 65 46 66 39 67
REMARK SMILES IDX 45 68 40 69 41 70 42 71 43 72 44 73 67 74 68 75 76 76 69 77
REMARK SMILES IDX 75 78 70 79 71 80 72 81 73 82 74 83 53 84 54 85 62 86 55 87
REMARK SMILES IDX 61 88 56 89 57 90 58 91 59 92 60 93
REMARK H PARENT 18 8 9 19 25 30 81 49 51 60
REMARK Flexibility Score: inf
ROOT
ATOM      1  C   UNL A   1      32.120  29.111  25.019  1.00  0.00     0.002 C 
ENDROOT
BRANCH   1   2
ATOM      2  C   UNL A   1      30.869  28.725  24.220  1.00  0.00     0.002 C 
BRANCH   2   3
ATOM      3  C   UNL A   1      30.970  27.512  23.298  1.00  0.00     0.021 C 
BRANCH   3   4
ATOM      4  C   UNL A   1      29.967  26.395  23.536  1.00  0.00     0.116 C 
BRANCH   4   5
ATOM      5  N   UNL A   1      29.984  25.787  24.851  1.00  0.00    -0.352 N 
ATOM      6  C   UNL A   1      30.884  24.890  25.389  1.00  0.00     0.252 C 
ATOM      7  O   UNL A   1      30.756  24.556  26.567  1.00  0.00    -0.269 OA
ATOM      8  H   UNL A   1      29.247  26.054  25.448  1.00  0.00     0.163 HD
BRANCH   6   9
ATOM      9  C   UNL A   1      31.913  24.209  24.556  1.00  0.00     0.060 A 
ATOM     10  C   UNL A   1      32.354  22.622  22.783  1.00  0.00     0.042 A 
ATOM     11  C   UNL A   1      33.636  23.133  22.653  1.00  0.00     0.028 A 
ATOM     12  C   UNL A   1      31.444  23.265  23.620  1.00  0.00     0.041 A 
ATOM     13  C   UNL A   1      34.124  24.001  23.617  1.00  0.00     0.023 A 
ATOM     14  C   UNL A   1      33.292  24.408  24.657  1.00  0.00     0.053 A 
ATOM     15  Cl  UNL A   1      34.088  24.929  26.099  1.00  0.00    -0.083 Cl
BRANCH  10  16
ATOM     16  N   UNL A   1      31.989  21.446  22.125  1.00  0.00    -0.326 N 
ATOM     17  C   UNL A   1      32.158  20.150  22.542  1.00  0.00     0.230 C 
ATOM     18  O   UNL A   1      31.887  19.260  21.723  1.00  0.00    -0.274 OA
ATOM     19  H   UNL A   1      31.554  21.562  21.249  1.00  0.00     0.169 HD
BRANCH  17  20
ATOM     20  C   UNL A   1      32.541  19.734  23.978  1.00  0.00     0.110 C 
ATOM     21  C   UNL A   1      34.145  20.839  25.615  1.00  0.00     0.039 C 
ATOM     22  C   UNL A   1      33.998  20.002  24.347  1.00  0.00     0.127 C 
ATOM     23  O   UNL A   1      34.602  18.724  24.592  1.00  0.00    -0.378 OA
ATOM     24  C   UNL A   1      33.579  17.813  24.996  1.00  0.00     0.161 C 
ATOM     25  C   UNL A   1      32.274  18.302  24.395  1.00  0.00     0.044 C 
ENDBRANCH  17  20
ENDBRANCH  10  16
ENDBRANCH   6   9
ENDBRANCH   4   5
ENDBRANCH   3   4
ENDBRANCH   2   3
ENDBRANCH   1   2
BRANCH   1  26
ATOM     26  C   UNL A   1      32.884  27.986  25.723  1.00  0.00     0.021 C 
BRANCH  26  27
ATOM     27  C   UNL A   1      33.879  28.408  26.798  1.00  0.00     0.116 C 
BRANCH  27  28
ATOM     28  N   UNL A   1      33.680  29.772  27.251  1.00  0.00    -0.352 N 
ATOM     29  C   UNL A   1      34.505  30.581  27.986  1.00  0.00     0.251 C 
ATOM     30  H   UNL A   1      32.822  30.177  26.991  1.00  0.00     0.163 HD
ATOM     31  O   UNL A   1      34.081  31.673  28.380  1.00  0.00    -0.269 OA
BRANCH  29  32
ATOM     32  C   UNL A   1      35.884  30.165  28.333  1.00  0.00     0.039 A 
ATOM     33  C   UNL A   1      36.875  30.252  27.351  1.00  0.00     0.014 A 
ATOM     34  C   UNL A   1      36.202  29.648  29.593  1.00  0.00     0.014 A 
ATOM     35  C   UNL A   1      38.184  29.858  27.640  1.00  0.00     0.010 A 
ATOM     36  C   UNL A   1      37.523  29.323  29.902  1.00  0.00     0.010 A 
ATOM     37  C   UNL A   1      38.526  29.408  28.926  1.00  0.00    -0.014 A 
BRANCH  37  38
ATOM     38  C   UNL A   1      39.919  28.998  29.246  1.00  0.00     0.031 A 
ATOM     39  C   UNL A   1      40.854  29.958  29.936  1.00  0.00     0.074 A 
ATOM     40  C   UNL A   1      40.357  27.774  28.887  1.00  0.00     0.049 A 
ATOM     41  N   UNL A   1      42.105  29.788  30.281  1.00  0.00    -0.248 NA
ATOM     42  C   UNL A   1      40.321  31.292  30.261  1.00  0.00     0.031 C 
ATOM     43  C   UNL A   1      39.568  26.765  28.175  1.00  0.00     0.029 A 
ATOM     44  N   UNL A   1      41.577  27.170  29.070  1.00  0.00    -0.354 N 
ATOM     45  C   UNL A   1      42.512  30.994  30.843  1.00  0.00     0.074 A 
ATOM     46  C   UNL A   1      41.391  31.902  30.750  1.00  0.00     0.031 C 
ATOM     47  C   UNL A   1      40.313  25.661  28.008  1.00  0.00     0.029 A 
ATOM     48  C   UNL A   1      41.642  25.891  28.568  1.00  0.00     0.049 A 
ATOM     49  H   UNL A   1      42.334  27.611  29.520  1.00  0.00     0.167 HD
ATOM     50  C   UNL A   1      43.704  31.311  31.405  1.00  0.00     0.031 A 
ATOM     51  C   UNL A   1      42.654  25.002  28.560  1.00  0.00     0.031 A 
ATOM     52  C   UNL A   1      44.813  30.400  31.516  1.00  0.00     0.049 A 
ATOM     53  C   UNL A   1      43.960  25.371  29.210  1.00  0.00     0.074 A 
ATOM     54  C   UNL A   1      46.042  30.609  32.117  1.00  0.00     0.029 A 
ATOM     55  N   UNL A   1      44.826  29.105  31.020  1.00  0.00    -0.354 N 
ATOM     56  N   UNL A   1      44.304  26.496  29.791  1.00  0.00    -0.248 NA
ATOM     57  C   UNL A   1      45.008  24.341  29.223  1.00  0.00     0.031 C 
ATOM     58  C   UNL A   1      46.816  29.456  31.945  1.00  0.00     0.029 A 
ATOM     59  C   UNL A   1      46.046  28.509  31.290  1.00  0.00     0.049 A 
ATOM     60  H   UNL A   1      44.079  28.673  30.547  1.00  0.00     0.167 HD
ATOM     61  C   UNL A   1      45.593  26.295  30.271  1.00  0.00     0.074 A 
ATOM     62  C   UNL A   1      45.962  24.939  29.924  1.00  0.00     0.031 C 
ATOM     63  C   UNL A   1      46.399  27.156  30.942  1.00  0.00     0.031 A 
BRANCH  50  64
ATOM     64  C   UNL A   1      43.873  32.708  31.945  1.00  0.00    -0.014 A 
ATOM     65  C   UNL A   1      44.321  33.758  31.123  1.00  0.00     0.010 A 
ATOM     66  C   UNL A   1      43.531  32.985  33.281  1.00  0.00     0.010 A 
ATOM     67  C   UNL A   1      44.458  35.050  31.636  1.00  0.00     0.020 A 
ATOM     68  C   UNL A   1      43.640  34.283  33.790  1.00  0.00     0.020 A 
ATOM     69  C   UNL A   1      44.117  35.305  32.967  1.00  0.00     0.054 A 
BRANCH  69  70
ATOM     70  S   UNL A   1      44.273  36.999  33.597  1.00  0.00     0.124 S 
ATOM     71  O   UNL A   1      44.919  36.781  34.889  1.00  0.00    -0.237 OA
ATOM     72  O   UNL A   1      45.102  37.644  32.582  1.00  0.00    -0.237 OA
ATOM     73  O   UNL A   1      42.893  37.473  33.664  1.00  0.00    -0.744 OA
ENDBRANCH  69  70
ENDBRANCH  50  64
BRANCH  51  74
ATOM     74  C   UNL A   1      42.466  23.664  27.933  1.00  0.00    -0.014 A 
ATOM     75  C   UNL A   1      41.912  22.599  28.668  1.00  0.00     0.010 A 
ATOM     76  C   UNL A   1      42.847  23.445  26.597  1.00  0.00     0.010 A 
ATOM     77  C   UNL A   1      41.770  21.335  28.087  1.00  0.00     0.020 A 
ATOM     78  C   UNL A   1      42.678  22.190  26.004  1.00  0.00     0.020 A 
ATOM     79  C   UNL A   1      42.154  21.139  26.758  1.00  0.00     0.054 A 
BRANCH  79  80
ATOM     80  S   UNL A   1      41.930  19.501  26.014  1.00  0.00     0.124 S 
ATOM     81  O   UNL A   1      42.793  19.579  24.840  1.00  0.00    -0.237 OA
ATOM     82  O   UNL A   1      42.384  18.605  27.075  1.00  0.00    -0.237 OA
ATOM     83  O   UNL A   1      40.496  19.446  25.736  1.00  0.00    -0.744 OA
ENDBRANCH  79  80
ENDBRANCH  51  74
BRANCH  63  84
ATOM     84  C   UNL A   1      47.739  26.637  31.395  1.00  0.00    -0.014 A 
ATOM     85  C   UNL A   1      47.919  26.087  32.676  1.00  0.00     0.010 A 
ATOM     86  C   UNL A   1      48.828  26.678  30.506  1.00  0.00     0.010 A 
ATOM     87  C   UNL A   1      49.178  25.633  33.078  1.00  0.00     0.020 A 
ATOM     88  C   UNL A   1      50.082  26.197  30.893  1.00  0.00     0.020 A 
ATOM     89  C   UNL A   1      50.253  25.697  32.185  1.00  0.00     0.054 A 
BRANCH  89  90
ATOM     90  S   UNL A   1      51.876  25.091  32.724  1.00  0.00     0.124 S 
ATOM     91  O   UNL A   1      52.786  25.952  31.973  1.00  0.00    -0.237 OA
ATOM     92  O   UNL A   1      51.842  25.319  34.167  1.00  0.00    -0.237 OA
ATOM     93  O   UNL A   1      51.873  23.687  32.321  1.00  0.00    -0.744 OA
ENDBRANCH  89  90
ENDBRANCH  63  84
ENDBRANCH  37  38
ENDBRANCH  29  32
ENDBRANCH  27  28
ENDBRANCH  26  27
ENDBRANCH   1  26
TORSDOF 18
ENDMDL
