MODEL 1
REMARK VINA RESULT:      -9.2      0.000      0.000
REMARK SMILES CC[C@](C)(NC(=O)NC[C@@H](C)[NH+](C)C)C(=O)NCCCCCCNC(=O)c1ccc(-c2c3nc(c(-c4ccc(S(=O)(=O)[O-])cc4)c4ccc([nH]4)c(-c4ccc(S(=O)(=O)[O-])cc4)c4nc(c(-c5ccc(S(=O)(=O)[O-])cc5)c5ccc2[nH]5)C=C4)C=C3)cc1
REMARK SMILES IDX 20 1 19 2 18 3 17 4 15 5 16 6 3 8 4 9 2 10 1 11 5 12 6 13
REMARK SMILES IDX 7 15 8 16 9 18 10 19 11 20 12 21 13 22 14 23 21 25 22 26
REMARK SMILES IDX 23 27 24 28 25 29 26 31 27 32 28 33 86 34 29 35 85 36 30 37
REMARK SMILES IDX 31 38 32 39 79 40 33 41 84 42 78 43 80 44 34 45 83 46 77 47
REMARK SMILES IDX 76 48 35 50 65 51 46 52 64 53 47 54 50 55 63 56 81 57 48 58
REMARK SMILES IDX 49 59 62 61 82 62 51 63 36 64 37 65 45 66 38 67 44 68 39 69
REMARK SMILES IDX 40 70 41 71 42 72 43 73 66 74 67 75 75 76 68 77 74 78 69 79
REMARK SMILES IDX 70 80 71 81 72 82 73 83 52 84 53 85 61 86 54 87 60 88 55 89
REMARK SMILES IDX 56 90 57 91 58 92 59 93
REMARK H PARENT 17 7 5 14 8 17 12 24 24 30 80 49 50 60
REMARK Flexibility Score: inf
ROOT
ATOM      1  C   UNL A   1      35.701  30.905  27.844  1.00  0.00     0.002 C 
ENDROOT
BRANCH   1   2
ATOM      2  C   UNL A   1      35.238  29.496  27.477  1.00  0.00     0.021 C 
BRANCH   2   3
ATOM      3  C   UNL A   1      34.062  29.298  26.510  1.00  0.00     0.116 C 
BRANCH   3   4
ATOM      4  N   UNL A   1      32.718  29.102  27.041  1.00  0.00    -0.354 N 
ATOM      5  C   UNL A   1      31.900  28.001  27.116  1.00  0.00     0.245 C 
ATOM      6  O   UNL A   1      31.048  27.992  28.011  1.00  0.00    -0.272 OA
ATOM      7  H   UNL A   1      32.319  29.919  27.419  1.00  0.00     0.163 HD
BRANCH   5   8
ATOM      8  C   UNL A   1      32.143  26.735  26.258  1.00  0.00     0.117 C 
ATOM      9  C   UNL A   1      33.631  26.398  26.042  1.00  0.00     0.045 C 
BRANCH   8  10
ATOM     10  C   UNL A   1      31.547  27.147  24.868  1.00  0.00     0.035 C 
ATOM     11  C   UNL A   1      30.117  26.741  24.553  1.00  0.00     0.007 C 
ENDBRANCH   8  10
BRANCH   8  12
ATOM     12  N   UNL A   1      31.477  25.579  26.868  1.00  0.00    -0.324 N 
ATOM     13  C   UNL A   1      31.280  24.308  26.498  1.00  0.00     0.315 C 
ATOM     14  H   UNL A   1      31.088  25.784  27.748  1.00  0.00     0.166 HD
ATOM     15  O   UNL A   1      30.476  23.656  27.175  1.00  0.00    -0.249 OA
ATOM     16  N   UNL A   1      31.897  23.650  25.510  1.00  0.00    -0.332 N 
ATOM     17  H   UNL A   1      31.661  22.695  25.528  1.00  0.00     0.165 HD
BRANCH  16  18
ATOM     18  C   UNL A   1      32.825  23.933  24.406  1.00  0.00     0.182 C 
BRANCH  18  19
ATOM     19  C   UNL A   1      34.071  22.995  24.324  1.00  0.00     0.200 C 
ATOM     20  C   UNL A   1      35.387  23.775  24.445  1.00  0.00     0.077 C 
BRANCH  19  21
ATOM     21  N   UNL A   1      33.972  21.841  25.238  1.00  0.00    -0.336 N 
ATOM     22  C   UNL A   1      33.788  20.560  24.564  1.00  0.00     0.332 C 
ATOM     23  C   UNL A   1      34.999  21.758  26.263  1.00  0.00     0.332 C 
ATOM     24  H   UNL A   1      33.108  22.044  25.741  1.00  0.00     0.347 HD
ENDBRANCH  19  21
ENDBRANCH  18  19
ENDBRANCH  16  18
ENDBRANCH   8  12
ENDBRANCH   5   8
ENDBRANCH   3   4
ENDBRANCH   2   3
ENDBRANCH   1   2
BRANCH   1  25
ATOM     25  C   UNL A   1      34.789  31.689  28.783  1.00  0.00     0.002 C 
BRANCH  25  26
ATOM     26  C   UNL A   1      33.910  32.723  28.084  1.00  0.00     0.021 C 
BRANCH  26  27
ATOM     27  C   UNL A   1      34.237  34.168  28.432  1.00  0.00     0.116 C 
BRANCH  27  28
ATOM     28  N   UNL A   1      33.240  34.784  29.297  1.00  0.00    -0.352 N 
ATOM     29  C   UNL A   1      33.244  34.833  30.674  1.00  0.00     0.251 C 
ATOM     30  H   UNL A   1      32.478  35.215  28.846  1.00  0.00     0.163 HD
ATOM     31  O   UNL A   1      32.291  35.272  31.295  1.00  0.00    -0.269 OA
BRANCH  29  32
ATOM     32  C   UNL A   1      34.429  34.298  31.378  1.00  0.00     0.039 A 
ATOM     33  C   UNL A   1      34.369  33.019  31.931  1.00  0.00     0.014 A 
ATOM     34  C   UNL A   1      35.619  35.030  31.389  1.00  0.00     0.014 A 
ATOM     35  C   UNL A   1      35.532  32.443  32.446  1.00  0.00     0.010 A 
ATOM     36  C   UNL A   1      36.789  34.426  31.836  1.00  0.00     0.010 A 
ATOM     37  C   UNL A   1      36.757  33.128  32.368  1.00  0.00    -0.014 A 
BRANCH  37  38
ATOM     38  C   UNL A   1      38.018  32.505  32.844  1.00  0.00     0.031 A 
ATOM     39  C   UNL A   1      38.528  32.810  34.227  1.00  0.00     0.074 A 
ATOM     40  C   UNL A   1      38.738  31.728  32.011  1.00  0.00     0.049 A 
ATOM     41  N   UNL A   1      39.631  32.411  34.804  1.00  0.00    -0.248 NA
ATOM     42  C   UNL A   1      37.702  33.703  35.058  1.00  0.00     0.031 C 
ATOM     43  C   UNL A   1      38.377  31.402  30.628  1.00  0.00     0.029 A 
ATOM     44  N   UNL A   1      39.929  31.075  32.203  1.00  0.00    -0.354 N 
ATOM     45  C   UNL A   1      39.644  33.022  36.053  1.00  0.00     0.074 A 
ATOM     46  C   UNL A   1      38.464  33.855  36.131  1.00  0.00     0.031 C 
ATOM     47  C   UNL A   1      39.313  30.590  30.108  1.00  0.00     0.029 A 
ATOM     48  C   UNL A   1      40.357  30.366  31.104  1.00  0.00     0.049 A 
ATOM     49  H   UNL A   1      40.432  31.110  33.049  1.00  0.00     0.167 HD
ATOM     50  C   UNL A   1      40.546  32.886  37.053  1.00  0.00     0.031 A 
ATOM     51  C   UNL A   1      41.464  29.621  30.919  1.00  0.00     0.031 A 
ATOM     52  C   UNL A   1      41.705  32.037  36.981  1.00  0.00     0.049 A 
ATOM     53  C   UNL A   1      42.443  29.472  32.052  1.00  0.00     0.074 A 
ATOM     54  C   UNL A   1      42.639  31.772  37.966  1.00  0.00     0.029 A 
ATOM     55  N   UNL A   1      42.086  31.315  35.860  1.00  0.00    -0.354 N 
ATOM     56  N   UNL A   1      42.396  29.993  33.254  1.00  0.00    -0.248 NA
ATOM     57  C   UNL A   1      43.617  28.623  31.807  1.00  0.00     0.031 C 
ATOM     58  C   UNL A   1      43.614  30.927  37.426  1.00  0.00     0.029 A 
ATOM     59  C   UNL A   1      43.255  30.622  36.121  1.00  0.00     0.049 A 
ATOM     60  H   UNL A   1      41.598  31.298  35.006  1.00  0.00     0.167 HD
ATOM     61  C   UNL A   1      43.519  29.513  33.919  1.00  0.00     0.074 A 
ATOM     62  C   UNL A   1      44.218  28.650  32.989  1.00  0.00     0.031 C 
ATOM     63  C   UNL A   1      43.934  29.764  35.184  1.00  0.00     0.031 A 
BRANCH  50  64
ATOM     64  C   UNL A   1      40.312  33.676  38.314  1.00  0.00    -0.014 A 
ATOM     65  C   UNL A   1      40.733  35.013  38.422  1.00  0.00     0.010 A 
ATOM     66  C   UNL A   1      39.632  33.081  39.392  1.00  0.00     0.010 A 
ATOM     67  C   UNL A   1      40.514  35.729  39.602  1.00  0.00     0.020 A 
ATOM     68  C   UNL A   1      39.385  33.805  40.563  1.00  0.00     0.020 A 
ATOM     69  C   UNL A   1      39.844  35.119  40.666  1.00  0.00     0.054 A 
BRANCH  69  70
ATOM     70  S   UNL A   1      39.553  36.081  42.176  1.00  0.00     0.124 S 
ATOM     71  O   UNL A   1      38.323  35.478  42.684  1.00  0.00    -0.237 OA
ATOM     72  O   UNL A   1      40.754  35.813  42.963  1.00  0.00    -0.237 OA
ATOM     73  O   UNL A   1      39.421  37.453  41.694  1.00  0.00    -0.744 OA
ENDBRANCH  69  70
ENDBRANCH  50  64
BRANCH  51  74
ATOM     74  C   UNL A   1      41.697  28.942  29.615  1.00  0.00    -0.014 A 
ATOM     75  C   UNL A   1      41.375  27.584  29.449  1.00  0.00     0.010 A 
ATOM     76  C   UNL A   1      42.242  29.651  28.529  1.00  0.00     0.010 A 
ATOM     77  C   UNL A   1      41.612  26.940  28.232  1.00  0.00     0.020 A 
ATOM     78  C   UNL A   1      42.457  29.018  27.301  1.00  0.00     0.020 A 
ATOM     79  C   UNL A   1      42.153  27.663  27.164  1.00  0.00     0.054 A 
BRANCH  79  80
ATOM     80  S   UNL A   1      42.413  26.820  25.577  1.00  0.00     0.124 S 
ATOM     81  O   UNL A   1      43.608  26.028  25.847  1.00  0.00    -0.237 OA
ATOM     82  O   UNL A   1      41.174  26.064  25.414  1.00  0.00    -0.237 OA
ATOM     83  O   UNL A   1      42.591  27.921  24.633  1.00  0.00    -0.744 OA
ENDBRANCH  79  80
ENDBRANCH  51  74
BRANCH  63  84
ATOM     84  C   UNL A   1      45.184  29.069  35.654  1.00  0.00    -0.014 A 
ATOM     85  C   UNL A   1      46.438  29.702  35.589  1.00  0.00     0.010 A 
ATOM     86  C   UNL A   1      45.090  27.787  36.225  1.00  0.00     0.010 A 
ATOM     87  C   UNL A   1      47.581  29.051  36.060  1.00  0.00     0.020 A 
ATOM     88  C   UNL A   1      46.227  27.144  36.721  1.00  0.00     0.020 A 
ATOM     89  C   UNL A   1      47.468  27.776  36.623  1.00  0.00     0.054 A 
BRANCH  89  90
ATOM     90  S   UNL A   1      48.958  26.971  37.271  1.00  0.00     0.124 S 
ATOM     91  O   UNL A   1      48.807  25.606  36.773  1.00  0.00    -0.237 OA
ATOM     92  O   UNL A   1      50.034  27.748  36.661  1.00  0.00    -0.237 OA
ATOM     93  O   UNL A   1      48.832  27.123  38.719  1.00  0.00    -0.744 OA
ENDBRANCH  89  90
ENDBRANCH  63  84
ENDBRANCH  37  38
ENDBRANCH  29  32
ENDBRANCH  27  28
ENDBRANCH  26  27
ENDBRANCH  25  26
ENDBRANCH   1  25
TORSDOF 21
ENDMDL
MODEL 2
REMARK VINA RESULT:      -9.1      1.471      2.093
REMARK SMILES CC[C@](C)(NC(=O)NC[C@@H](C)[NH+](C)C)C(=O)NCCCCCCNC(=O)c1ccc(-c2c3nc(c(-c4ccc(S(=O)(=O)[O-])cc4)c4ccc([nH]4)c(-c4ccc(S(=O)(=O)[O-])cc4)c4nc(c(-c5ccc(S(=O)(=O)[O-])cc5)c5ccc2[nH]5)C=C4)C=C3)cc1
REMARK SMILES IDX 20 1 19 2 18 3 17 4 15 5 16 6 3 8 4 9 2 10 1 11 5 12 6 13
REMARK SMILES IDX 7 15 8 16 9 18 10 19 11 20 12 21 13 22 14 23 21 25 22 26
REMARK SMILES IDX 23 27 24 28 25 29 26 31 27 32 28 33 86 34 29 35 85 36 30 37
REMARK SMILES IDX 31 38 32 39 79 40 33 41 84 42 78 43 80 44 34 45 83 46 77 47
REMARK SMILES IDX 76 48 35 50 65 51 46 52 64 53 47 54 50 55 63 56 81 57 48 58
REMARK SMILES IDX 49 59 62 61 82 62 51 63 36 64 37 65 45 66 38 67 44 68 39 69
REMARK SMILES IDX 40 70 41 71 42 72 43 73 66 74 67 75 75 76 68 77 74 78 69 79
REMARK SMILES IDX 70 80 71 81 72 82 73 83 52 84 53 85 61 86 54 87 60 88 55 89
REMARK SMILES IDX 56 90 57 91 58 92 59 93
REMARK H PARENT 17 7 5 14 8 17 12 24 24 30 80 49 50 60
REMARK Flexibility Score: inf
ROOT
ATOM      1  C   UNL A   1      33.620  28.875  27.402  1.00  0.00     0.002 C 
ENDROOT
BRANCH   1   2
ATOM      2  C   UNL A   1      32.106  28.707  27.287  1.00  0.00     0.021 C 
BRANCH   2   3
ATOM      3  C   UNL A   1      31.515  27.708  26.283  1.00  0.00     0.116 C 
BRANCH   3   4
ATOM      4  N   UNL A   1      32.398  26.788  25.575  1.00  0.00    -0.354 N 
ATOM      5  C   UNL A   1      32.164  25.801  24.649  1.00  0.00     0.245 C 
ATOM      6  O   UNL A   1      33.089  25.518  23.880  1.00  0.00    -0.272 OA
ATOM      7  H   UNL A   1      33.349  26.897  25.806  1.00  0.00     0.163 HD
BRANCH   5   8
ATOM      8  C   UNL A   1      30.755  25.196  24.431  1.00  0.00     0.117 C 
ATOM      9  C   UNL A   1      30.726  24.010  23.447  1.00  0.00     0.045 C 
BRANCH   8  10
ATOM     10  C   UNL A   1      29.977  26.381  23.761  1.00  0.00     0.035 C 
ATOM     11  C   UNL A   1      28.486  26.501  24.032  1.00  0.00     0.007 C 
ENDBRANCH   8  10
BRANCH   8  12
ATOM     12  N   UNL A   1      30.188  24.764  25.713  1.00  0.00    -0.324 N 
ATOM     13  C   UNL A   1      30.379  23.711  26.516  1.00  0.00     0.315 C 
ATOM     14  H   UNL A   1      29.514  25.392  26.062  1.00  0.00     0.166 HD
ATOM     15  O   UNL A   1      29.559  23.558  27.429  1.00  0.00    -0.249 OA
ATOM     16  N   UNL A   1      31.391  22.837  26.472  1.00  0.00    -0.332 N 
ATOM     17  H   UNL A   1      31.363  22.233  27.248  1.00  0.00     0.165 HD
BRANCH  16  18
ATOM     18  C   UNL A   1      32.534  22.512  25.606  1.00  0.00     0.182 C 
BRANCH  18  19
ATOM     19  C   UNL A   1      33.528  21.454  26.181  1.00  0.00     0.200 C 
ATOM     20  C   UNL A   1      33.484  20.136  25.397  1.00  0.00     0.077 C 
BRANCH  19  21
ATOM     21  N   UNL A   1      34.887  21.997  26.366  1.00  0.00    -0.336 N 
ATOM     22  C   UNL A   1      35.930  21.241  25.679  1.00  0.00     0.332 C 
ATOM     23  C   UNL A   1      35.032  23.426  26.142  1.00  0.00     0.332 C 
ATOM     24  H   UNL A   1      35.031  21.868  27.368  1.00  0.00     0.347 HD
ENDBRANCH  19  21
ENDBRANCH  18  19
ENDBRANCH  16  18
ENDBRANCH   8  12
ENDBRANCH   5   8
ENDBRANCH   3   4
ENDBRANCH   2   3
ENDBRANCH   1   2
BRANCH   1  25
ATOM     25  C   UNL A   1      34.142  30.309  27.373  1.00  0.00     0.002 C 
BRANCH  25  26
ATOM     26  C   UNL A   1      33.061  31.373  27.550  1.00  0.00     0.021 C 
BRANCH  26  27
ATOM     27  C   UNL A   1      33.514  32.791  27.229  1.00  0.00     0.116 C 
BRANCH  27  28
ATOM     28  N   UNL A   1      32.958  33.785  28.136  1.00  0.00    -0.352 N 
ATOM     29  C   UNL A   1      33.436  34.143  29.378  1.00  0.00     0.251 C 
ATOM     30  H   UNL A   1      32.150  34.254  27.827  1.00  0.00     0.163 HD
ATOM     31  O   UNL A   1      32.815  34.903  30.100  1.00  0.00    -0.269 OA
BRANCH  29  32
ATOM     32  C   UNL A   1      34.711  33.542  29.824  1.00  0.00     0.039 A 
ATOM     33  C   UNL A   1      35.912  34.152  29.461  1.00  0.00     0.014 A 
ATOM     34  C   UNL A   1      34.697  32.440  30.683  1.00  0.00     0.014 A 
ATOM     35  C   UNL A   1      37.107  33.691  30.017  1.00  0.00     0.010 A 
ATOM     36  C   UNL A   1      35.878  32.030  31.289  1.00  0.00     0.010 A 
ATOM     37  C   UNL A   1      37.094  32.651  30.962  1.00  0.00    -0.014 A 
BRANCH  37  38
ATOM     38  C   UNL A   1      38.344  32.193  31.619  1.00  0.00     0.031 A 
ATOM     39  C   UNL A   1      38.738  32.762  32.956  1.00  0.00     0.074 A 
ATOM     40  C   UNL A   1      39.156  31.325  30.985  1.00  0.00     0.049 A 
ATOM     41  N   UNL A   1      39.813  32.533  33.663  1.00  0.00    -0.248 NA
ATOM     42  C   UNL A   1      37.816  33.737  33.562  1.00  0.00     0.031 C 
ATOM     43  C   UNL A   1      38.912  30.744  29.662  1.00  0.00     0.029 A 
ATOM     44  N   UNL A   1      40.359  30.784  31.365  1.00  0.00    -0.354 N 
ATOM     45  C   UNL A   1      39.708  33.351  34.783  1.00  0.00     0.074 A 
ATOM     46  C   UNL A   1      38.490  34.116  34.637  1.00  0.00     0.031 C 
ATOM     47  C   UNL A   1      39.918  29.908  29.354  1.00  0.00     0.029 A 
ATOM     48  C   UNL A   1      40.896  29.920  30.438  1.00  0.00     0.049 A 
ATOM     49  H   UNL A   1      40.797  30.994  32.221  1.00  0.00     0.167 HD
ATOM     50  C   UNL A   1      40.542  33.442  35.846  1.00  0.00     0.031 A 
ATOM     51  C   UNL A   1      42.046  29.219  30.458  1.00  0.00     0.031 A 
ATOM     52  C   UNL A   1      41.739  32.661  35.999  1.00  0.00     0.049 A 
ATOM     53  C   UNL A   1      42.947  29.325  31.659  1.00  0.00     0.074 A 
ATOM     54  C   UNL A   1      42.611  32.625  37.072  1.00  0.00     0.029 A 
ATOM     55  N   UNL A   1      42.233  31.778  35.051  1.00  0.00    -0.354 N 
ATOM     56  N   UNL A   1      42.789  30.044  32.745  1.00  0.00    -0.248 NA
ATOM     57  C   UNL A   1      44.172  28.515  31.643  1.00  0.00     0.031 C 
ATOM     58  C   UNL A   1      43.659  31.755  36.754  1.00  0.00     0.029 A 
ATOM     59  C   UNL A   1      43.410  31.208  35.504  1.00  0.00     0.049 A 
ATOM     60  H   UNL A   1      41.809  31.585  34.184  1.00  0.00     0.167 HD
ATOM     61  C   UNL A   1      43.882  29.751  33.554  1.00  0.00     0.074 A 
ATOM     62  C   UNL A   1      44.684  28.781  32.838  1.00  0.00     0.031 C 
ATOM     63  C   UNL A   1      44.193  30.241  34.779  1.00  0.00     0.031 A 
BRANCH  50  64
ATOM     64  C   UNL A   1      40.182  34.424  36.929  1.00  0.00    -0.014 A 
ATOM     65  C   UNL A   1      39.362  34.049  38.008  1.00  0.00     0.010 A 
ATOM     66  C   UNL A   1      40.698  35.732  36.884  1.00  0.00     0.010 A 
ATOM     67  C   UNL A   1      39.032  34.975  39.001  1.00  0.00     0.020 A 
ATOM     68  C   UNL A   1      40.393  36.653  37.891  1.00  0.00     0.020 A 
ATOM     69  C   UNL A   1      39.547  36.272  38.934  1.00  0.00     0.054 A 
BRANCH  69  70
ATOM     70  S   UNL A   1      39.121  37.446  40.250  1.00  0.00     0.124 S 
ATOM     71  O   UNL A   1      38.213  38.356  39.558  1.00  0.00    -0.237 OA
ATOM     72  O   UNL A   1      38.502  36.588  41.257  1.00  0.00    -0.237 OA
ATOM     73  O   UNL A   1      40.408  38.021  40.632  1.00  0.00    -0.744 OA
ENDBRANCH  69  70
ENDBRANCH  50  64
BRANCH  51  74
ATOM     74  C   UNL A   1      42.404  28.338  29.312  1.00  0.00    -0.014 A 
ATOM     75  C   UNL A   1      41.858  27.047  29.207  1.00  0.00     0.010 A 
ATOM     76  C   UNL A   1      43.292  28.787  28.317  1.00  0.00     0.010 A 
ATOM     77  C   UNL A   1      42.208  26.212  28.143  1.00  0.00     0.020 A 
ATOM     78  C   UNL A   1      43.625  27.965  27.237  1.00  0.00     0.020 A 
ATOM     79  C   UNL A   1      43.092  26.677  27.163  1.00  0.00     0.054 A 
BRANCH  79  80
ATOM     80  S   UNL A   1      43.500  25.594  25.765  1.00  0.00     0.124 S 
ATOM     81  O   UNL A   1      44.616  26.303  25.148  1.00  0.00    -0.237 OA
ATOM     82  O   UNL A   1      43.838  24.336  26.428  1.00  0.00    -0.237 OA
ATOM     83  O   UNL A   1      42.266  25.566  24.986  1.00  0.00    -0.744 OA
ENDBRANCH  79  80
ENDBRANCH  51  74
BRANCH  63  84
ATOM     84  C   UNL A   1      45.435  29.711  35.442  1.00  0.00    -0.014 A 
ATOM     85  C   UNL A   1      46.677  30.350  35.279  1.00  0.00     0.010 A 
ATOM     86  C   UNL A   1      45.343  28.592  36.290  1.00  0.00     0.010 A 
ATOM     87  C   UNL A   1      47.812  29.859  35.930  1.00  0.00     0.020 A 
ATOM     88  C   UNL A   1      46.470  28.115  36.963  1.00  0.00     0.020 A 
ATOM     89  C   UNL A   1      47.701  28.744  36.768  1.00  0.00     0.054 A 
BRANCH  89  90
ATOM     90  S   UNL A   1      49.179  28.156  37.639  1.00  0.00     0.124 S 
ATOM     91  O   UNL A   1      50.254  28.733  36.837  1.00  0.00    -0.237 OA
ATOM     92  O   UNL A   1      49.014  28.726  38.973  1.00  0.00    -0.237 OA
ATOM     93  O   UNL A   1      49.064  26.701  37.571  1.00  0.00    -0.744 OA
ENDBRANCH  89  90
ENDBRANCH  63  84
ENDBRANCH  37  38
ENDBRANCH  29  32
ENDBRANCH  27  28
ENDBRANCH  26  27
ENDBRANCH  25  26
ENDBRANCH   1  25
TORSDOF 21
ENDMDL
MODEL 3
REMARK VINA RESULT:      -8.9      1.622      2.157
REMARK SMILES CC[C@](C)(NC(=O)NC[C@@H](C)[NH+](C)C)C(=O)NCCCCCCNC(=O)c1ccc(-c2c3nc(c(-c4ccc(S(=O)(=O)[O-])cc4)c4ccc([nH]4)c(-c4ccc(S(=O)(=O)[O-])cc4)c4nc(c(-c5ccc(S(=O)(=O)[O-])cc5)c5ccc2[nH]5)C=C4)C=C3)cc1
REMARK SMILES IDX 20 1 19 2 18 3 17 4 15 5 16 6 3 8 4 9 2 10 1 11 5 12 6 13
REMARK SMILES IDX 7 15 8 16 9 18 10 19 11 20 12 21 13 22 14 23 21 25 22 26
REMARK SMILES IDX 23 27 24 28 25 29 26 31 27 32 28 33 86 34 29 35 85 36 30 37
REMARK SMILES IDX 31 38 32 39 79 40 33 41 84 42 78 43 80 44 34 45 83 46 77 47
REMARK SMILES IDX 76 48 35 50 65 51 46 52 64 53 47 54 50 55 63 56 81 57 48 58
REMARK SMILES IDX 49 59 62 61 82 62 51 63 36 64 37 65 45 66 38 67 44 68 39 69
REMARK SMILES IDX 40 70 41 71 42 72 43 73 66 74 67 75 75 76 68 77 74 78 69 79
REMARK SMILES IDX 70 80 71 81 72 82 73 83 52 84 53 85 61 86 54 87 60 88 55 89
REMARK SMILES IDX 56 90 57 91 58 92 59 93
REMARK H PARENT 17 7 5 14 8 17 12 24 24 30 80 49 50 60
REMARK Flexibility Score: inf
ROOT
ATOM      1  C   UNL A   1      31.667  29.911  26.756  1.00  0.00     0.002 C 
ENDROOT
BRANCH   1   2
ATOM      2  C   UNL A   1      31.545  28.529  27.393  1.00  0.00     0.021 C 
BRANCH   2   3
ATOM      3  C   UNL A   1      31.514  27.272  26.511  1.00  0.00     0.116 C 
BRANCH   3   4
ATOM      4  N   UNL A   1      32.660  26.955  25.667  1.00  0.00    -0.354 N 
ATOM      5  C   UNL A   1      32.888  27.094  24.319  1.00  0.00     0.245 C 
ATOM      6  O   UNL A   1      34.064  27.199  23.955  1.00  0.00    -0.272 OA
ATOM      7  H   UNL A   1      33.418  26.565  26.159  1.00  0.00     0.163 HD
BRANCH   5   8
ATOM      8  C   UNL A   1      31.736  27.308  23.307  1.00  0.00     0.117 C 
ATOM      9  C   UNL A   1      31.282  28.775  23.172  1.00  0.00     0.045 C 
BRANCH   8  10
ATOM     10  C   UNL A   1      30.556  26.510  23.962  1.00  0.00     0.035 C 
ATOM     11  C   UNL A   1      29.135  26.948  23.648  1.00  0.00     0.007 C 
ENDBRANCH   8  10
BRANCH   8  12
ATOM     12  N   UNL A   1      32.128  26.808  21.985  1.00  0.00    -0.324 N 
ATOM     13  C   UNL A   1      32.490  25.613  21.504  1.00  0.00     0.315 C 
ATOM     14  H   UNL A   1      32.124  27.512  21.296  1.00  0.00     0.166 HD
ATOM     15  O   UNL A   1      32.969  25.601  20.364  1.00  0.00    -0.249 OA
ATOM     16  N   UNL A   1      32.340  24.425  22.100  1.00  0.00    -0.332 N 
ATOM     17  H   UNL A   1      32.573  23.695  21.482  1.00  0.00     0.165 HD
BRANCH  16  18
ATOM     18  C   UNL A   1      31.929  23.887  23.404  1.00  0.00     0.182 C 
BRANCH  18  19
ATOM     19  C   UNL A   1      32.920  22.868  24.049  1.00  0.00     0.200 C 
ATOM     20  C   UNL A   1      32.816  21.479  23.407  1.00  0.00     0.077 C 
BRANCH  19  21
ATOM     21  N   UNL A   1      34.298  23.391  24.128  1.00  0.00    -0.336 N 
ATOM     22  C   UNL A   1      34.607  24.072  25.381  1.00  0.00     0.332 C 
ATOM     23  C   UNL A   1      35.349  22.458  23.758  1.00  0.00     0.332 C 
ATOM     24  H   UNL A   1      34.297  24.098  23.392  1.00  0.00     0.347 HD
ENDBRANCH  19  21
ENDBRANCH  18  19
ENDBRANCH  16  18
ENDBRANCH   8  12
ENDBRANCH   5   8
ENDBRANCH   3   4
ENDBRANCH   2   3
ENDBRANCH   1   2
BRANCH   1  25
ATOM     25  C   UNL A   1      33.086  30.409  26.492  1.00  0.00     0.002 C 
BRANCH  25  26
ATOM     26  C   UNL A   1      33.780  30.997  27.717  1.00  0.00     0.021 C 
BRANCH  26  27
ATOM     27  C   UNL A   1      34.371  32.384  27.502  1.00  0.00     0.116 C 
BRANCH  27  28
ATOM     28  N   UNL A   1      33.556  33.445  28.076  1.00  0.00    -0.352 N 
ATOM     29  C   UNL A   1      33.686  34.017  29.323  1.00  0.00     0.251 C 
ATOM     30  H   UNL A   1      32.830  33.793  27.509  1.00  0.00     0.163 HD
ATOM     31  O   UNL A   1      32.866  34.816  29.742  1.00  0.00    -0.269 OA
BRANCH  29  32
ATOM     32  C   UNL A   1      34.834  33.599  30.155  1.00  0.00     0.039 A 
ATOM     33  C   UNL A   1      34.688  32.514  31.019  1.00  0.00     0.014 A 
ATOM     34  C   UNL A   1      36.074  34.224  29.991  1.00  0.00     0.014 A 
ATOM     35  C   UNL A   1      35.811  32.009  31.678  1.00  0.00     0.010 A 
ATOM     36  C   UNL A   1      37.201  33.675  30.592  1.00  0.00     0.010 A 
ATOM     37  C   UNL A   1      37.080  32.564  31.441  1.00  0.00    -0.014 A 
BRANCH  37  38
ATOM     38  C   UNL A   1      38.297  31.997  32.075  1.00  0.00     0.031 A 
ATOM     39  C   UNL A   1      38.676  32.415  33.471  1.00  0.00     0.074 A 
ATOM     40  C   UNL A   1      39.095  31.168  31.374  1.00  0.00     0.049 A 
ATOM     41  N   UNL A   1      39.724  32.077  34.175  1.00  0.00    -0.248 NA
ATOM     42  C   UNL A   1      37.772  33.357  34.152  1.00  0.00     0.031 C 
ATOM     43  C   UNL A   1      38.865  30.732  29.994  1.00  0.00     0.029 A 
ATOM     44  N   UNL A   1      40.269  30.549  31.724  1.00  0.00    -0.354 N 
ATOM     45  C   UNL A   1      39.619  32.782  35.369  1.00  0.00     0.074 A 
ATOM     46  C   UNL A   1      38.431  33.602  35.274  1.00  0.00     0.031 C 
ATOM     47  C   UNL A   1      39.850  29.896  29.626  1.00  0.00     0.029 A 
ATOM     48  C   UNL A   1      40.800  29.764  30.726  1.00  0.00     0.049 A 
ATOM     49  H   UNL A   1      40.692  30.656  32.606  1.00  0.00     0.167 HD
ATOM     50  C   UNL A   1      40.428  32.736  36.454  1.00  0.00     0.031 A 
ATOM     51  C   UNL A   1      41.925  29.023  30.700  1.00  0.00     0.031 A 
ATOM     52  C   UNL A   1      41.594  31.900  36.553  1.00  0.00     0.049 A 
ATOM     53  C   UNL A   1      42.797  28.975  31.925  1.00  0.00     0.074 A 
ATOM     54  C   UNL A   1      42.436  31.726  37.636  1.00  0.00     0.029 A 
ATOM     55  N   UNL A   1      42.081  31.100  35.531  1.00  0.00    -0.354 N 
ATOM     56  N   UNL A   1      42.637  29.587  33.075  1.00  0.00    -0.248 NA
ATOM     57  C   UNL A   1      43.995  28.126  31.855  1.00  0.00     0.031 C 
ATOM     58  C   UNL A   1      43.462  30.855  37.254  1.00  0.00     0.029 A 
ATOM     59  C   UNL A   1      43.226  30.445  35.950  1.00  0.00     0.049 A 
ATOM     60  H   UNL A   1      41.673  31.011  34.640  1.00  0.00     0.167 HD
ATOM     61  C   UNL A   1      43.698  29.175  33.873  1.00  0.00     0.074 A 
ATOM     62  C   UNL A   1      44.485  28.253  33.081  1.00  0.00     0.031 C 
ATOM     63  C   UNL A   1      43.994  29.528  35.148  1.00  0.00     0.031 A 
BRANCH  50  64
ATOM     64  C   UNL A   1      40.074  33.617  37.623  1.00  0.00    -0.014 A 
ATOM     65  C   UNL A   1      40.578  34.926  37.725  1.00  0.00     0.010 A 
ATOM     66  C   UNL A   1      39.198  33.140  38.615  1.00  0.00     0.010 A 
ATOM     67  C   UNL A   1      40.244  35.728  38.820  1.00  0.00     0.020 A 
ATOM     68  C   UNL A   1      38.840  33.950  39.697  1.00  0.00     0.020 A 
ATOM     69  C   UNL A   1      39.381  35.233  39.800  1.00  0.00     0.054 A 
BRANCH  69  70
ATOM     70  S   UNL A   1      38.946  36.305  41.198  1.00  0.00     0.124 S 
ATOM     71  O   UNL A   1      38.677  37.575  40.531  1.00  0.00    -0.237 OA
ATOM     72  O   UNL A   1      37.779  35.634  41.765  1.00  0.00    -0.237 OA
ATOM     73  O   UNL A   1      40.141  36.282  42.038  1.00  0.00    -0.744 OA
ENDBRANCH  69  70
ENDBRANCH  50  64
BRANCH  51  74
ATOM     74  C   UNL A   1      42.281  28.249  29.480  1.00  0.00    -0.014 A 
ATOM     75  C   UNL A   1      41.766  26.956  29.278  1.00  0.00     0.010 A 
ATOM     76  C   UNL A   1      43.137  28.801  28.510  1.00  0.00     0.010 A 
ATOM     77  C   UNL A   1      42.116  26.221  28.142  1.00  0.00     0.020 A 
ATOM     78  C   UNL A   1      43.469  28.080  27.359  1.00  0.00     0.020 A 
ATOM     79  C   UNL A   1      42.967  26.789  27.189  1.00  0.00     0.054 A 
BRANCH  79  80
ATOM     80  S   UNL A   1      43.375  25.835  25.699  1.00  0.00     0.124 S 
ATOM     81  O   UNL A   1      43.625  24.507  26.249  1.00  0.00    -0.237 OA
ATOM     82  O   UNL A   1      42.163  25.970  24.895  1.00  0.00    -0.237 OA
ATOM     83  O   UNL A   1      44.547  26.524  25.165  1.00  0.00    -0.744 OA
ENDBRANCH  79  80
ENDBRANCH  51  74
BRANCH  63  84
ATOM     84  C   UNL A   1      45.200  28.889  35.781  1.00  0.00    -0.014 A 
ATOM     85  C   UNL A   1      46.453  29.528  35.771  1.00  0.00     0.010 A 
ATOM     86  C   UNL A   1      45.062  27.658  36.449  1.00  0.00     0.010 A 
ATOM     87  C   UNL A   1      47.553  28.932  36.394  1.00  0.00     0.020 A 
ATOM     88  C   UNL A   1      46.153  27.073  37.095  1.00  0.00     0.020 A 
ATOM     89  C   UNL A   1      47.396  27.708  37.051  1.00  0.00     0.054 A 
BRANCH  89  90
ATOM     90  S   UNL A   1      48.827  26.977  37.892  1.00  0.00     0.124 S 
ATOM     91  O   UNL A   1      49.845  28.009  37.709  1.00  0.00    -0.237 OA
ATOM     92  O   UNL A   1      48.344  26.807  39.260  1.00  0.00    -0.237 OA
ATOM     93  O   UNL A   1      49.061  25.735  37.161  1.00  0.00    -0.744 OA
ENDBRANCH  89  90
ENDBRANCH  63  84
ENDBRANCH  37  38
ENDBRANCH  29  32
ENDBRANCH  27  28
ENDBRANCH  26  27
ENDBRANCH  25  26
ENDBRANCH   1  25
TORSDOF 21
ENDMDL
