MODEL 1
REMARK VINA RESULT:      -7.4      0.000      0.000
REMARK SMILES CCN(CC)C(=O)[C@H](C)S[C@H](C)C(=O)NCCCCCCNC(=O)c1ccc(-c2c3nc(c(-c4ccc(S(=O)(=O)[O-])cc4)c4ccc([nH]4)c(-c4ccc(S(=O)(=O)[O-])cc4)c4nc(c(-c5ccc(S(=O)(=O)[O-])cc5)c5ccc2[nH]5)C=C4)C=C3)cc1
REMARK SMILES IDX 18 1 17 2 16 3 15 4 13 5 14 6 11 8 12 9 10 10 8 11 9 12 6 13
REMARK SMILES IDX 3 14 7 15 2 16 1 17 4 18 5 19 19 20 20 21 21 22 22 23 23 24
REMARK SMILES IDX 24 26 25 27 26 28 84 29 27 30 83 31 28 32 29 33 30 34 77 35
REMARK SMILES IDX 31 36 82 37 76 38 78 39 32 40 81 41 75 42 74 43 33 45 63 46
REMARK SMILES IDX 44 47 62 48 45 49 48 50 61 51 79 52 46 53 47 54 60 56 80 57
REMARK SMILES IDX 49 58 34 59 35 60 43 61 36 62 42 63 37 64 38 65 39 66 40 67
REMARK SMILES IDX 41 68 64 69 65 70 73 71 66 72 72 73 67 74 68 75 69 76 70 77
REMARK SMILES IDX 71 78 50 79 51 80 59 81 52 82 58 83 53 84 54 85 55 86 56 87
REMARK SMILES IDX 57 88
REMARK H PARENT 15 7 22 25 78 44 48 55
REMARK Flexibility Score: inf
ROOT
ATOM      1  C   UNL A   1      37.694  33.176  29.732  1.00  0.00     0.002 C 
ENDROOT
BRANCH   1   2
ATOM      2  C   UNL A   1      37.800  33.217  31.261  1.00  0.00     0.021 C 
BRANCH   2   3
ATOM      3  C   UNL A   1      37.674  31.869  31.962  1.00  0.00     0.116 C 
BRANCH   3   4
ATOM      4  N   UNL A   1      37.344  31.996  33.369  1.00  0.00    -0.355 N 
ATOM      5  C   UNL A   1      37.884  31.450  34.489  1.00  0.00     0.232 C 
ATOM      6  O   UNL A   1      37.504  31.934  35.562  1.00  0.00    -0.274 OA
ATOM      7  H   UNL A   1      36.580  32.592  33.545  1.00  0.00     0.163 HD
BRANCH   5   8
ATOM      8  C   UNL A   1      38.902  30.312  34.479  1.00  0.00     0.133 C 
ATOM      9  C   UNL A   1      38.835  29.318  33.331  1.00  0.00     0.030 C 
BRANCH   8  10
ATOM     10  S   UNL A   1      40.609  30.819  34.935  1.00  0.00    -0.136 SA
BRANCH  10  11
ATOM     11  C   UNL A   1      41.607  29.297  34.692  1.00  0.00     0.133 C 
ATOM     12  C   UNL A   1      42.701  29.541  33.642  1.00  0.00     0.030 C 
BRANCH  11  13
ATOM     13  C   UNL A   1      42.307  28.911  36.011  1.00  0.00     0.235 C 
ATOM     14  N   UNL A   1      42.938  27.669  36.114  1.00  0.00    -0.342 N 
ATOM     15  O   UNL A   1      42.367  29.726  36.940  1.00  0.00    -0.274 OA
BRANCH  14  16
ATOM     16  C   UNL A   1      43.871  27.482  37.232  1.00  0.00     0.116 C 
ATOM     17  C   UNL A   1      43.750  26.074  37.806  1.00  0.00     0.027 C 
ENDBRANCH  14  16
BRANCH  14  18
ATOM     18  C   UNL A   1      42.772  26.528  35.211  1.00  0.00     0.116 C 
ATOM     19  C   UNL A   1      41.345  26.000  35.204  1.00  0.00     0.027 C 
ENDBRANCH  14  18
ENDBRANCH  11  13
ENDBRANCH  10  11
ENDBRANCH   8  10
ENDBRANCH   5   8
ENDBRANCH   3   4
ENDBRANCH   2   3
ENDBRANCH   1   2
BRANCH   1  20
ATOM     20  C   UNL A   1      36.700  34.152  29.094  1.00  0.00     0.002 C 
BRANCH  20  21
ATOM     21  C   UNL A   1      35.311  33.591  28.788  1.00  0.00     0.021 C 
BRANCH  21  22
ATOM     22  C   UNL A   1      34.922  32.349  29.580  1.00  0.00     0.116 C 
BRANCH  22  23
ATOM     23  N   UNL A   1      34.185  31.380  28.787  1.00  0.00    -0.352 N 
ATOM     24  C   UNL A   1      34.649  30.253  28.154  1.00  0.00     0.251 C 
ATOM     25  H   UNL A   1      33.221  31.555  28.691  1.00  0.00     0.163 HD
ATOM     26  O   UNL A   1      33.904  29.610  27.418  1.00  0.00    -0.269 OA
BRANCH  24  27
ATOM     27  C   UNL A   1      36.056  29.839  28.335  1.00  0.00     0.039 A 
ATOM     28  C   UNL A   1      36.949  30.009  27.275  1.00  0.00     0.014 A 
ATOM     29  C   UNL A   1      36.499  29.311  29.551  1.00  0.00     0.014 A 
ATOM     30  C   UNL A   1      38.300  29.709  27.456  1.00  0.00     0.010 A 
ATOM     31  C   UNL A   1      37.857  29.088  29.754  1.00  0.00     0.010 A 
ATOM     32  C   UNL A   1      38.772  29.282  28.708  1.00  0.00    -0.014 A 
BRANCH  32  33
ATOM     33  C   UNL A   1      40.220  29.042  28.945  1.00  0.00     0.031 A 
ATOM     34  C   UNL A   1      40.831  27.710  28.601  1.00  0.00     0.074 A 
ATOM     35  C   UNL A   1      40.968  30.000  29.527  1.00  0.00     0.049 A 
ATOM     36  N   UNL A   1      42.056  27.293  28.790  1.00  0.00    -0.248 NA
ATOM     37  C   UNL A   1      39.943  26.707  27.989  1.00  0.00     0.031 C 
ATOM     38  C   UNL A   1      40.484  31.320  29.941  1.00  0.00     0.029 A 
ATOM     39  N   UNL A   1      42.295  30.011  29.877  1.00  0.00    -0.354 N 
ATOM     40  C   UNL A   1      42.083  25.980  28.336  1.00  0.00     0.074 A 
ATOM     41  C   UNL A   1      40.740  25.651  27.912  1.00  0.00     0.031 C 
ATOM     42  C   UNL A   1      41.505  32.021  30.459  1.00  0.00     0.029 A 
ATOM     43  C   UNL A   1      42.703  31.187  30.461  1.00  0.00     0.049 A 
ATOM     44  H   UNL A   1      42.898  29.248  29.725  1.00  0.00     0.167 HD
ATOM     45  C   UNL A   1      43.135  25.130  28.259  1.00  0.00     0.031 A 
ATOM     46  C   UNL A   1      43.903  31.553  30.953  1.00  0.00     0.031 A 
ATOM     47  C   UNL A   1      44.472  25.465  28.675  1.00  0.00     0.049 A 
ATOM     48  C   UNL A   1      45.052  30.583  30.877  1.00  0.00     0.074 A 
ATOM     49  C   UNL A   1      45.616  24.692  28.589  1.00  0.00     0.029 A 
ATOM     50  N   UNL A   1      44.843  26.665  29.259  1.00  0.00    -0.354 N 
ATOM     51  N   UNL A   1      45.072  29.368  30.384  1.00  0.00    -0.248 NA
ATOM     52  C   UNL A   1      46.340  31.037  31.417  1.00  0.00     0.031 C 
ATOM     53  C   UNL A   1      46.667  25.402  29.177  1.00  0.00     0.029 A 
ATOM     54  C   UNL A   1      46.193  26.644  29.567  1.00  0.00     0.049 A 
ATOM     55  H   UNL A   1      44.236  27.422  29.431  1.00  0.00     0.167 HD
ATOM     56  C   UNL A   1      46.382  28.924  30.526  1.00  0.00     0.074 A 
ATOM     57  C   UNL A   1      47.126  30.006  31.138  1.00  0.00     0.031 C 
ATOM     58  C   UNL A   1      46.920  27.728  30.179  1.00  0.00     0.031 A 
BRANCH  45  59
ATOM     59  C   UNL A   1      42.879  23.750  27.711  1.00  0.00    -0.014 A 
ATOM     60  C   UNL A   1      43.059  23.462  26.345  1.00  0.00     0.010 A 
ATOM     61  C   UNL A   1      42.494  22.713  28.581  1.00  0.00     0.010 A 
ATOM     62  C   UNL A   1      42.816  22.176  25.854  1.00  0.00     0.020 A 
ATOM     63  C   UNL A   1      42.280  21.418  28.099  1.00  0.00     0.020 A 
ATOM     64  C   UNL A   1      42.426  21.164  26.734  1.00  0.00     0.054 A 
BRANCH  64  65
ATOM     65  S   UNL A   1      42.138  19.500  26.071  1.00  0.00     0.124 S 
ATOM     66  O   UNL A   1      40.712  19.543  25.762  1.00  0.00    -0.237 OA
ATOM     67  O   UNL A   1      43.030  19.459  24.915  1.00  0.00    -0.237 OA
ATOM     68  O   UNL A   1      42.510  18.617  27.173  1.00  0.00    -0.744 OA
ENDBRANCH  64  65
ENDBRANCH  45  59
BRANCH  46  69
ATOM     69  C   UNL A   1      44.081  32.904  31.554  1.00  0.00    -0.014 A 
ATOM     70  C   UNL A   1      44.451  34.000  30.755  1.00  0.00     0.010 A 
ATOM     71  C   UNL A   1      43.870  33.103  32.931  1.00  0.00     0.010 A 
ATOM     72  C   UNL A   1      44.625  35.265  31.324  1.00  0.00     0.020 A 
ATOM     73  C   UNL A   1      44.014  34.372  33.499  1.00  0.00     0.020 A 
ATOM     74  C   UNL A   1      44.403  35.442  32.693  1.00  0.00     0.054 A 
BRANCH  74  75
ATOM     75  S   UNL A   1      44.590  37.103  33.402  1.00  0.00     0.124 S 
ATOM     76  O   UNL A   1      46.020  37.346  33.230  1.00  0.00    -0.237 OA
ATOM     77  O   UNL A   1      43.705  37.904  32.562  1.00  0.00    -0.237 OA
ATOM     78  O   UNL A   1      44.145  36.935  34.783  1.00  0.00    -0.744 OA
ENDBRANCH  74  75
ENDBRANCH  46  69
BRANCH  58  79
ATOM     79  C   UNL A   1      48.394  27.533  30.420  1.00  0.00    -0.014 A 
ATOM     80  C   UNL A   1      48.864  26.817  31.535  1.00  0.00     0.010 A 
ATOM     81  C   UNL A   1      49.320  28.022  29.479  1.00  0.00     0.010 A 
ATOM     82  C   UNL A   1      50.235  26.619  31.719  1.00  0.00     0.020 A 
ATOM     83  C   UNL A   1      50.689  27.797  29.643  1.00  0.00     0.020 A 
ATOM     84  C   UNL A   1      51.139  27.107  30.769  1.00  0.00     0.054 A 
BRANCH  84  85
ATOM     85  S   UNL A   1      52.908  26.789  31.005  1.00  0.00     0.124 S 
ATOM     86  O   UNL A   1      53.213  25.913  29.877  1.00  0.00    -0.237 OA
ATOM     87  O   UNL A   1      53.486  28.129  30.934  1.00  0.00    -0.237 OA
ATOM     88  O   UNL A   1      52.976  26.157  32.320  1.00  0.00    -0.744 OA
ENDBRANCH  84  85
ENDBRANCH  58  79
ENDBRANCH  32  33
ENDBRANCH  24  27
ENDBRANCH  22  23
ENDBRANCH  21  22
ENDBRANCH  20  21
ENDBRANCH   1  20
TORSDOF 21
ENDMDL
MODEL 2
REMARK VINA RESULT:      -7.3      3.729     10.623
REMARK SMILES CCN(CC)C(=O)[C@H](C)S[C@H](C)C(=O)NCCCCCCNC(=O)c1ccc(-c2c3nc(c(-c4ccc(S(=O)(=O)[O-])cc4)c4ccc([nH]4)c(-c4ccc(S(=O)(=O)[O-])cc4)c4nc(c(-c5ccc(S(=O)(=O)[O-])cc5)c5ccc2[nH]5)C=C4)C=C3)cc1
REMARK SMILES IDX 18 1 17 2 16 3 15 4 13 5 14 6 11 8 12 9 10 10 8 11 9 12 6 13
REMARK SMILES IDX 3 14 7 15 2 16 1 17 4 18 5 19 19 20 20 21 21 22 22 23 23 24
REMARK SMILES IDX 24 26 25 27 26 28 84 29 27 30 83 31 28 32 29 33 30 34 77 35
REMARK SMILES IDX 31 36 82 37 76 38 78 39 32 40 81 41 75 42 74 43 33 45 63 46
REMARK SMILES IDX 44 47 62 48 45 49 48 50 61 51 79 52 46 53 47 54 60 56 80 57
REMARK SMILES IDX 49 58 34 59 35 60 43 61 36 62 42 63 37 64 38 65 39 66 40 67
REMARK SMILES IDX 41 68 64 69 65 70 73 71 66 72 72 73 67 74 68 75 69 76 70 77
REMARK SMILES IDX 71 78 50 79 51 80 59 81 52 82 58 83 53 84 54 85 55 86 56 87
REMARK SMILES IDX 57 88
REMARK H PARENT 15 7 22 25 78 44 48 55
REMARK Flexibility Score: inf
ROOT
ATOM      1  C   UNL A   1      36.974  29.182  29.694  1.00  0.00     0.002 C 
ENDROOT
BRANCH   1   2
ATOM      2  C   UNL A   1      37.058  29.894  28.340  1.00  0.00     0.021 C 
BRANCH   2   3
ATOM      3  C   UNL A   1      35.971  29.524  27.337  1.00  0.00     0.116 C 
BRANCH   3   4
ATOM      4  N   UNL A   1      34.918  30.519  27.255  1.00  0.00    -0.355 N 
ATOM      5  C   UNL A   1      33.579  30.421  27.052  1.00  0.00     0.232 C 
ATOM      6  O   UNL A   1      32.926  31.451  27.255  1.00  0.00    -0.274 OA
ATOM      7  H   UNL A   1      35.237  31.444  27.369  1.00  0.00     0.163 HD
BRANCH   5   8
ATOM      8  C   UNL A   1      32.875  29.142  26.604  1.00  0.00     0.133 C 
ATOM      9  C   UNL A   1      31.791  28.582  27.510  1.00  0.00     0.030 C 
BRANCH   8  10
ATOM     10  S   UNL A   1      32.457  29.095  24.814  1.00  0.00    -0.136 SA
BRANCH  10  11
ATOM     11  C   UNL A   1      32.949  27.408  24.285  1.00  0.00     0.133 C 
ATOM     12  C   UNL A   1      33.832  26.751  25.356  1.00  0.00     0.030 C 
BRANCH  11  13
ATOM     13  C   UNL A   1      31.696  26.525  24.110  1.00  0.00     0.235 C 
ATOM     14  N   UNL A   1      31.767  25.388  23.303  1.00  0.00    -0.342 N 
ATOM     15  O   UNL A   1      30.664  26.788  24.739  1.00  0.00    -0.274 OA
BRANCH  14  16
ATOM     16  C   UNL A   1      30.685  24.404  23.436  1.00  0.00     0.116 C 
ATOM     17  C   UNL A   1      31.048  23.336  24.462  1.00  0.00     0.027 C 
ENDBRANCH  14  16
BRANCH  14  18
ATOM     18  C   UNL A   1      32.819  25.067  22.335  1.00  0.00     0.116 C 
ATOM     19  C   UNL A   1      32.566  25.702  20.976  1.00  0.00     0.027 C 
ENDBRANCH  14  18
ENDBRANCH  11  13
ENDBRANCH  10  11
ENDBRANCH   8  10
ENDBRANCH   5   8
ENDBRANCH   3   4
ENDBRANCH   2   3
ENDBRANCH   1   2
BRANCH   1  20
ATOM     20  C   UNL A   1      37.234  30.044  30.933  1.00  0.00     0.002 C 
BRANCH  20  21
ATOM     21  C   UNL A   1      36.028  30.802  31.489  1.00  0.00     0.021 C 
BRANCH  21  22
ATOM     22  C   UNL A   1      35.666  32.084  30.748  1.00  0.00     0.116 C 
BRANCH  22  23
ATOM     23  N   UNL A   1      35.758  33.267  31.586  1.00  0.00    -0.352 N 
ATOM     24  C   UNL A   1      36.878  33.896  32.070  1.00  0.00     0.251 C 
ATOM     25  H   UNL A   1      34.899  33.673  31.841  1.00  0.00     0.163 HD
ATOM     26  O   UNL A   1      36.767  34.820  32.872  1.00  0.00    -0.269 OA
BRANCH  24  27
ATOM     27  C   UNL A   1      38.217  33.434  31.646  1.00  0.00     0.039 A 
ATOM     28  C   UNL A   1      39.003  32.727  32.558  1.00  0.00     0.014 A 
ATOM     29  C   UNL A   1      38.683  33.675  30.351  1.00  0.00     0.014 A 
ATOM     30  C   UNL A   1      40.231  32.203  32.149  1.00  0.00     0.010 A 
ATOM     31  C   UNL A   1      39.870  33.087  29.924  1.00  0.00     0.010 A 
ATOM     32  C   UNL A   1      40.658  32.346  30.818  1.00  0.00    -0.014 A 
BRANCH  32  33
ATOM     33  C   UNL A   1      41.920  31.723  30.342  1.00  0.00     0.031 A 
ATOM     34  C   UNL A   1      43.202  32.511  30.349  1.00  0.00     0.074 A 
ATOM     35  C   UNL A   1      41.898  30.470  29.845  1.00  0.00     0.049 A 
ATOM     36  N   UNL A   1      44.387  32.161  29.918  1.00  0.00    -0.248 NA
ATOM     37  C   UNL A   1      43.139  33.881  30.886  1.00  0.00     0.031 C 
ATOM     38  C   UNL A   1      40.711  29.615  29.750  1.00  0.00     0.029 A 
ATOM     39  N   UNL A   1      42.904  29.696  29.321  1.00  0.00    -0.354 N 
ATOM     40  C   UNL A   1      45.204  33.267  30.118  1.00  0.00     0.074 A 
ATOM     41  C   UNL A   1      44.370  34.318  30.658  1.00  0.00     0.031 C 
ATOM     42  C   UNL A   1      41.063  28.429  29.230  1.00  0.00     0.029 A 
ATOM     43  C   UNL A   1      42.487  28.453  28.909  1.00  0.00     0.049 A 
ATOM     44  H   UNL A   1      43.836  30.004  29.247  1.00  0.00     0.167 HD
ATOM     45  C   UNL A   1      46.534  33.391  29.892  1.00  0.00     0.031 A 
ATOM     46  C   UNL A   1      43.170  27.445  28.330  1.00  0.00     0.031 A 
ATOM     47  C   UNL A   1      47.361  32.339  29.361  1.00  0.00     0.049 A 
ATOM     48  C   UNL A   1      44.642  27.615  28.067  1.00  0.00     0.074 A 
ATOM     49  C   UNL A   1      48.728  32.349  29.144  1.00  0.00     0.029 A 
ATOM     50  N   UNL A   1      46.901  31.095  28.959  1.00  0.00    -0.354 N 
ATOM     51  N   UNL A   1      45.410  28.646  28.324  1.00  0.00    -0.248 NA
ATOM     52  C   UNL A   1      45.340  26.482  27.445  1.00  0.00     0.031 C 
ATOM     53  C   UNL A   1      49.084  31.132  28.554  1.00  0.00     0.029 A 
ATOM     54  C   UNL A   1      47.952  30.339  28.467  1.00  0.00     0.049 A 
ATOM     55  H   UNL A   1      45.965  30.793  29.014  1.00  0.00     0.167 HD
ATOM     56  C   UNL A   1      46.688  28.275  27.922  1.00  0.00     0.074 A 
ATOM     57  C   UNL A   1      46.591  26.920  27.419  1.00  0.00     0.031 C 
ATOM     58  C   UNL A   1      47.840  28.991  27.967  1.00  0.00     0.031 A 
BRANCH  45  59
ATOM     59  C   UNL A   1      47.176  34.716  30.210  1.00  0.00    -0.014 A 
ATOM     60  C   UNL A   1      47.276  35.730  29.240  1.00  0.00     0.010 A 
ATOM     61  C   UNL A   1      47.649  34.969  31.511  1.00  0.00     0.010 A 
ATOM     62  C   UNL A   1      47.876  36.953  29.551  1.00  0.00     0.020 A 
ATOM     63  C   UNL A   1      48.221  36.203  31.836  1.00  0.00     0.020 A 
ATOM     64  C   UNL A   1      48.346  37.180  30.847  1.00  0.00     0.054 A 
BRANCH  64  65
ATOM     65  S   UNL A   1      49.101  38.785  31.228  1.00  0.00     0.124 S 
ATOM     66  O   UNL A   1      49.892  38.471  32.415  1.00  0.00    -0.237 OA
ATOM     67  O   UNL A   1      49.869  39.071  30.019  1.00  0.00    -0.237 OA
ATOM     68  O   UNL A   1      47.956  39.663  31.458  1.00  0.00    -0.744 OA
ENDBRANCH  64  65
ENDBRANCH  45  59
BRANCH  46  69
ATOM     69  C   UNL A   1      42.468  26.183  27.966  1.00  0.00    -0.014 A 
ATOM     70  C   UNL A   1      42.534  25.059  28.807  1.00  0.00     0.010 A 
ATOM     71  C   UNL A   1      41.719  26.104  26.777  1.00  0.00     0.010 A 
ATOM     72  C   UNL A   1      41.881  23.873  28.457  1.00  0.00     0.020 A 
ATOM     73  C   UNL A   1      41.040  24.930  26.439  1.00  0.00     0.020 A 
ATOM     74  C   UNL A   1      41.136  23.818  27.276  1.00  0.00     0.054 A 
BRANCH  74  75
ATOM     75  S   UNL A   1      40.259  22.283  26.866  1.00  0.00     0.124 S 
ATOM     76  O   UNL A   1      40.986  21.824  25.685  1.00  0.00    -0.237 OA
ATOM     77  O   UNL A   1      40.443  21.484  28.074  1.00  0.00    -0.237 OA
ATOM     78  O   UNL A   1      38.889  22.728  26.624  1.00  0.00    -0.744 OA
ENDBRANCH  74  75
ENDBRANCH  46  69
BRANCH  58  79
ATOM     79  C   UNL A   1      49.099  28.315  27.491  1.00  0.00    -0.014 A 
ATOM     80  C   UNL A   1      49.924  27.600  28.376  1.00  0.00     0.010 A 
ATOM     81  C   UNL A   1      49.425  28.346  26.122  1.00  0.00     0.010 A 
ATOM     82  C   UNL A   1      51.068  26.951  27.905  1.00  0.00     0.020 A 
ATOM     83  C   UNL A   1      50.551  27.672  25.643  1.00  0.00     0.020 A 
ATOM     84  C   UNL A   1      51.373  26.989  26.540  1.00  0.00     0.054 A 
BRANCH  84  85
ATOM     85  S   UNL A   1      52.835  26.094  25.948  1.00  0.00     0.124 S 
ATOM     86  O   UNL A   1      52.430  24.702  26.120  1.00  0.00    -0.237 OA
ATOM     87  O   UNL A   1      52.949  26.549  24.564  1.00  0.00    -0.237 OA
ATOM     88  O   UNL A   1      53.903  26.547  26.836  1.00  0.00    -0.744 OA
ENDBRANCH  84  85
ENDBRANCH  58  79
ENDBRANCH  32  33
ENDBRANCH  24  27
ENDBRANCH  22  23
ENDBRANCH  21  22
ENDBRANCH  20  21
ENDBRANCH   1  20
TORSDOF 21
ENDMDL
MODEL 3
REMARK VINA RESULT:      -7.3      3.396      9.440
REMARK SMILES CCN(CC)C(=O)[C@H](C)S[C@H](C)C(=O)NCCCCCCNC(=O)c1ccc(-c2c3nc(c(-c4ccc(S(=O)(=O)[O-])cc4)c4ccc([nH]4)c(-c4ccc(S(=O)(=O)[O-])cc4)c4nc(c(-c5ccc(S(=O)(=O)[O-])cc5)c5ccc2[nH]5)C=C4)C=C3)cc1
REMARK SMILES IDX 18 1 17 2 16 3 15 4 13 5 14 6 11 8 12 9 10 10 8 11 9 12 6 13
REMARK SMILES IDX 3 14 7 15 2 16 1 17 4 18 5 19 19 20 20 21 21 22 22 23 23 24
REMARK SMILES IDX 24 26 25 27 26 28 84 29 27 30 83 31 28 32 29 33 30 34 77 35
REMARK SMILES IDX 31 36 82 37 76 38 78 39 32 40 81 41 75 42 74 43 33 45 63 46
REMARK SMILES IDX 44 47 62 48 45 49 48 50 61 51 79 52 46 53 47 54 60 56 80 57
REMARK SMILES IDX 49 58 34 59 35 60 43 61 36 62 42 63 37 64 38 65 39 66 40 67
REMARK SMILES IDX 41 68 64 69 65 70 73 71 66 72 72 73 67 74 68 75 69 76 70 77
REMARK SMILES IDX 71 78 50 79 51 80 59 81 52 82 58 83 53 84 54 85 55 86 56 87
REMARK SMILES IDX 57 88
REMARK H PARENT 15 7 22 25 78 44 48 55
REMARK Flexibility Score: inf
ROOT
ATOM      1  C   UNL A   1      36.227  32.705  28.023  1.00  0.00     0.002 C 
ENDROOT
BRANCH   1   2
ATOM      2  C   UNL A   1      36.360  33.609  29.253  1.00  0.00     0.021 C 
BRANCH   2   3
ATOM      3  C   UNL A   1      37.261  33.078  30.362  1.00  0.00     0.116 C 
BRANCH   3   4
ATOM      4  N   UNL A   1      38.590  33.659  30.335  1.00  0.00    -0.355 N 
ATOM      5  C   UNL A   1      39.749  33.324  30.961  1.00  0.00     0.232 C 
ATOM      6  O   UNL A   1      40.766  33.898  30.552  1.00  0.00    -0.274 OA
ATOM      7  H   UNL A   1      38.666  34.448  29.751  1.00  0.00     0.163 HD
BRANCH   5   8
ATOM      8  C   UNL A   1      39.844  32.310  32.098  1.00  0.00     0.133 C 
ATOM      9  C   UNL A   1      40.926  31.247  32.004  1.00  0.00     0.030 C 
BRANCH   8  10
ATOM     10  S   UNL A   1      39.644  33.033  33.776  1.00  0.00    -0.136 SA
BRANCH  10  11
ATOM     11  C   UNL A   1      37.872  32.760  34.172  1.00  0.00     0.133 C 
ATOM     12  C   UNL A   1      37.730  32.136  35.569  1.00  0.00     0.030 C 
BRANCH  11  13
ATOM     13  C   UNL A   1      37.123  34.108  34.187  1.00  0.00     0.235 C 
ATOM     14  N   UNL A   1      35.788  34.154  33.780  1.00  0.00    -0.342 N 
ATOM     15  O   UNL A   1      37.683  35.120  34.625  1.00  0.00    -0.274 OA
BRANCH  14  16
ATOM     16  C   UNL A   1      35.021  35.356  34.129  1.00  0.00     0.116 C 
ATOM     17  C   UNL A   1      34.697  36.172  32.883  1.00  0.00     0.027 C 
ENDBRANCH  14  16
BRANCH  14  18
ATOM     18  C   UNL A   1      35.064  33.117  33.040  1.00  0.00     0.116 C 
ATOM     19  C   UNL A   1      33.563  33.180  33.276  1.00  0.00     0.027 C 
ENDBRANCH  14  18
ENDBRANCH  11  13
ENDBRANCH  10  11
ENDBRANCH   8  10
ENDBRANCH   5   8
ENDBRANCH   3   4
ENDBRANCH   2   3
ENDBRANCH   1   2
BRANCH   1  20
ATOM     20  C   UNL A   1      35.004  31.784  27.985  1.00  0.00     0.002 C 
BRANCH  20  21
ATOM     21  C   UNL A   1      35.185  30.457  27.248  1.00  0.00     0.021 C 
BRANCH  21  22
ATOM     22  C   UNL A   1      35.768  29.323  28.082  1.00  0.00     0.116 C 
BRANCH  22  23
ATOM     23  N   UNL A   1      35.626  29.540  29.511  1.00  0.00    -0.352 N 
ATOM     24  C   UNL A   1      36.588  29.499  30.490  1.00  0.00     0.251 C 
ATOM     25  H   UNL A   1      34.714  29.746  29.820  1.00  0.00     0.163 HD
ATOM     26  O   UNL A   1      36.267  29.585  31.672  1.00  0.00    -0.269 OA
BRANCH  24  27
ATOM     27  C   UNL A   1      38.006  29.316  30.114  1.00  0.00     0.039 A 
ATOM     28  C   UNL A   1      38.799  28.457  30.877  1.00  0.00     0.014 A 
ATOM     29  C   UNL A   1      38.544  29.966  28.999  1.00  0.00     0.014 A 
ATOM     30  C   UNL A   1      40.114  28.200  30.486  1.00  0.00     0.010 A 
ATOM     31  C   UNL A   1      39.827  29.649  28.567  1.00  0.00     0.010 A 
ATOM     32  C   UNL A   1      40.627  28.764  29.306  1.00  0.00    -0.014 A 
BRANCH  32  33
ATOM     33  C   UNL A   1      41.994  28.435  28.826  1.00  0.00     0.031 A 
ATOM     34  C   UNL A   1      43.046  29.509  28.743  1.00  0.00     0.074 A 
ATOM     35  C   UNL A   1      42.270  27.184  28.404  1.00  0.00     0.049 A 
ATOM     36  N   UNL A   1      44.272  29.428  28.295  1.00  0.00    -0.248 NA
ATOM     37  C   UNL A   1      42.661  30.855  29.201  1.00  0.00     0.031 C 
ATOM     38  C   UNL A   1      41.325  26.064  28.400  1.00  0.00     0.029 A 
ATOM     39  N   UNL A   1      43.424  26.645  27.894  1.00  0.00    -0.354 N 
ATOM     40  C   UNL A   1      44.799  30.710  28.402  1.00  0.00     0.074 A 
ATOM     41  C   UNL A   1      43.743  31.560  28.906  1.00  0.00     0.031 C 
ATOM     42  C   UNL A   1      41.946  24.967  27.939  1.00  0.00     0.029 A 
ATOM     43  C   UNL A   1      43.315  25.313  27.571  1.00  0.00     0.049 A 
ATOM     44  H   UNL A   1      44.252  27.163  27.771  1.00  0.00     0.167 HD
ATOM     45  C   UNL A   1      46.054  31.137  28.124  1.00  0.00     0.031 A 
ATOM     46  C   UNL A   1      44.212  24.465  27.030  1.00  0.00     0.031 A 
ATOM     47  C   UNL A   1      47.103  30.284  27.629  1.00  0.00     0.049 A 
ATOM     48  C   UNL A   1      45.594  24.968  26.708  1.00  0.00     0.074 A 
ATOM     49  C   UNL A   1      48.422  30.610  27.367  1.00  0.00     0.029 A 
ATOM     50  N   UNL A   1      46.953  28.942  27.317  1.00  0.00    -0.354 N 
ATOM     51  N   UNL A   1      46.092  26.169  26.878  1.00  0.00    -0.248 NA
ATOM     52  C   UNL A   1      46.535  24.000  26.131  1.00  0.00     0.031 C 
ATOM     53  C   UNL A   1      49.053  29.480  26.838  1.00  0.00     0.029 A 
ATOM     54  C   UNL A   1      48.147  28.432  26.836  1.00  0.00     0.049 A 
ATOM     55  H   UNL A   1      46.120  28.427  27.421  1.00  0.00     0.167 HD
ATOM     56  C   UNL A   1      47.415  26.093  26.456  1.00  0.00     0.074 A 
ATOM     57  C   UNL A   1      47.642  24.724  26.038  1.00  0.00     0.031 C 
ATOM     58  C   UNL A   1      48.358  27.067  26.420  1.00  0.00     0.031 A 
BRANCH  45  59
ATOM     59  C   UNL A   1      46.359  32.596  28.342  1.00  0.00    -0.014 A 
ATOM     60  C   UNL A   1      46.154  33.544  27.323  1.00  0.00     0.010 A 
ATOM     61  C   UNL A   1      46.819  33.034  29.598  1.00  0.00     0.010 A 
ATOM     62  C   UNL A   1      46.445  34.894  27.541  1.00  0.00     0.020 A 
ATOM     63  C   UNL A   1      47.080  34.388  29.831  1.00  0.00     0.020 A 
ATOM     64  C   UNL A   1      46.907  35.306  28.793  1.00  0.00     0.054 A 
BRANCH  64  65
ATOM     65  S   UNL A   1      47.255  37.067  29.054  1.00  0.00     0.124 S 
ATOM     66  O   UNL A   1      48.695  37.127  28.818  1.00  0.00    -0.237 OA
ATOM     67  O   UNL A   1      46.425  37.710  28.038  1.00  0.00    -0.237 OA
ATOM     68  O   UNL A   1      46.841  37.304  30.434  1.00  0.00    -0.744 OA
ENDBRANCH  64  65
ENDBRANCH  45  59
BRANCH  46  69
ATOM     69  C   UNL A   1      43.833  23.049  26.764  1.00  0.00    -0.014 A 
ATOM     70  C   UNL A   1      43.125  22.306  27.725  1.00  0.00     0.010 A 
ATOM     71  C   UNL A   1      44.169  22.441  25.541  1.00  0.00     0.010 A 
ATOM     72  C   UNL A   1      42.778  20.974  27.476  1.00  0.00     0.020 A 
ATOM     73  C   UNL A   1      43.797  21.120  25.275  1.00  0.00     0.020 A 
ATOM     74  C   UNL A   1      43.115  20.391  26.250  1.00  0.00     0.054 A 
BRANCH  74  75
ATOM     75  S   UNL A   1      42.613  18.677  25.931  1.00  0.00     0.124 S 
ATOM     76  O   UNL A   1      41.194  18.829  25.622  1.00  0.00    -0.237 OA
ATOM     77  O   UNL A   1      43.470  18.303  24.809  1.00  0.00    -0.237 OA
ATOM     78  O   UNL A   1      42.912  17.995  27.188  1.00  0.00    -0.744 OA
ENDBRANCH  74  75
ENDBRANCH  46  69
BRANCH  58  79
ATOM     79  C   UNL A   1      49.735  26.687  25.943  1.00  0.00    -0.014 A 
ATOM     80  C   UNL A   1      50.110  26.836  24.597  1.00  0.00     0.010 A 
ATOM     81  C   UNL A   1      50.687  26.230  26.875  1.00  0.00     0.010 A 
ATOM     82  C   UNL A   1      51.405  26.509  24.185  1.00  0.00     0.020 A 
ATOM     83  C   UNL A   1      51.991  25.933  26.472  1.00  0.00     0.020 A 
ATOM     84  C   UNL A   1      52.338  26.063  25.126  1.00  0.00     0.054 A 
BRANCH  84  85
ATOM     85  S   UNL A   1      54.026  25.697  24.574  1.00  0.00     0.124 S 
ATOM     86  O   UNL A   1      53.902  25.804  23.123  1.00  0.00    -0.237 OA
ATOM     87  O   UNL A   1      54.809  26.750  25.217  1.00  0.00    -0.237 OA
ATOM     88  O   UNL A   1      54.273  24.349  25.080  1.00  0.00    -0.744 OA
ENDBRANCH  84  85
ENDBRANCH  58  79
ENDBRANCH  32  33
ENDBRANCH  24  27
ENDBRANCH  22  23
ENDBRANCH  21  22
ENDBRANCH  20  21
ENDBRANCH   1  20
TORSDOF 21
ENDMDL
