MODEL 1
REMARK VINA RESULT:     -10.3      0.000      0.000
REMARK SMILES O=C(CNC(=O)[C@@H](CC1=c2ccccc2=NC1)N1C(=O)N=C2C=CC=C[C@H]2C1=O)NCCCCCCNC(=O)c1ccc(-c2c3nc(c(-c4ccc(S(=O)(=O)[O-])cc4)c4ccc([nH]4)c(-c4ccc(S(=O)(=O)[O-])cc4)c4nc(c(-c5ccc(S(=O)(=O)[O-])cc5)c5ccc2[nH]5)C=C4)C=C3)cc1
REMARK SMILES IDX 33 1 32 2 31 3 30 4 1 5 2 6 3 8 4 9 5 10 6 12 7 13 8 14 9 15
REMARK SMILES IDX 10 16 17 17 11 18 15 19 16 20 12 21 14 22 13 23 18 24 19 25
REMARK SMILES IDX 28 26 21 27 20 28 27 29 29 30 22 31 26 32 23 33 25 34 24 35
REMARK SMILES IDX 34 36 35 37 36 38 37 39 38 40 39 42 40 43 41 44 99 45 42 46
REMARK SMILES IDX 98 47 43 48 44 49 45 50 92 51 46 52 97 53 91 54 93 55 47 56
REMARK SMILES IDX 96 57 90 58 89 59 48 61 78 62 59 63 77 64 60 65 63 66 76 67
REMARK SMILES IDX 94 68 61 69 62 70 75 72 95 73 64 74 49 75 50 76 58 77 51 78
REMARK SMILES IDX 57 79 52 80 53 81 54 82 55 83 56 84 79 85 80 86 88 87 81 88
REMARK SMILES IDX 87 89 82 90 83 91 84 92 85 93 86 94 65 95 66 96 74 97 67 98
REMARK SMILES IDX 73 99 68 100 69 101 70 102 71 103 72 104
REMARK H PARENT 30 7 4 11 37 41 93 60 63 71
REMARK Flexibility Score: inf
ROOT
ATOM      1  C   UNL A   1      39.079  30.595  30.068  1.00  0.00     0.002 C 
ENDROOT
BRANCH   1   2
ATOM      2  C   UNL A   1      38.092  29.726  30.855  1.00  0.00     0.021 C 
BRANCH   2   3
ATOM      3  C   UNL A   1      36.621  30.117  30.699  1.00  0.00     0.116 C 
BRANCH   3   4
ATOM      4  N   UNL A   1      35.955  29.495  29.557  1.00  0.00    -0.355 N 
ATOM      5  O   UNL A   1      35.676  31.458  28.415  1.00  0.00    -0.273 OA
ATOM      6  C   UNL A   1      35.550  30.235  28.470  1.00  0.00     0.239 C 
ATOM      7  H   UNL A   1      35.792  28.525  29.567  1.00  0.00     0.163 HD
BRANCH   6   8
ATOM      8  C   UNL A   1      34.876  29.483  27.307  1.00  0.00     0.216 C 
BRANCH   8   9
ATOM      9  N   UNL A   1      34.059  30.173  26.306  1.00  0.00    -0.345 N 
ATOM     10  C   UNL A   1      32.703  29.864  26.184  1.00  0.00     0.244 C 
ATOM     11  H   UNL A   1      34.464  30.854  25.721  1.00  0.00     0.164 HD
ATOM     12  O   UNL A   1      31.885  30.543  26.802  1.00  0.00    -0.273 OA
BRANCH  10  13
ATOM     13  C   UNL A   1      32.311  28.951  24.996  1.00  0.00     0.188 C 
BRANCH  13  14
ATOM     14  C   UNL A   1      33.458  28.429  24.111  1.00  0.00     0.069 C 
BRANCH  14  15
ATOM     15  C   UNL A   1      33.605  27.022  23.610  1.00  0.00    -0.037 C 
ATOM     16  C   UNL A   1      33.986  25.849  24.117  1.00  0.00     0.001 A 
ATOM     17  C   UNL A   1      33.324  26.865  22.136  1.00  0.00     0.174 C 
ATOM     18  C   UNL A   1      34.366  25.327  25.390  1.00  0.00     0.010 A 
ATOM     19  C   UNL A   1      34.134  25.011  22.906  1.00  0.00     0.065 A 
ATOM     20  N   UNL A   1      33.771  25.515  21.769  1.00  0.00    -0.280 NA
ATOM     21  C   UNL A   1      34.865  24.085  25.489  1.00  0.00     0.001 A 
ATOM     22  C   UNL A   1      34.740  23.673  23.082  1.00  0.00     0.028 A 
ATOM     23  C   UNL A   1      35.074  23.263  24.316  1.00  0.00     0.002 A 
ENDBRANCH  14  15
ENDBRANCH  13  14
BRANCH  13  24
ATOM     24  N   UNL A   1      31.226  27.951  25.047  1.00  0.00    -0.249 N 
ATOM     25  C   UNL A   1      30.351  27.937  23.972  1.00  0.00     0.351 C 
ATOM     26  C   UNL A   1      31.092  27.001  26.028  1.00  0.00     0.244 C 
ATOM     27  N   UNL A   1      30.142  26.723  23.380  1.00  0.00    -0.197 NA
ATOM     28  O   UNL A   1      29.890  28.968  23.494  1.00  0.00    -0.246 OA
ATOM     29  C   UNL A   1      30.348  25.734  25.620  1.00  0.00     0.151 C 
ATOM     30  O   UNL A   1      31.432  27.178  27.197  1.00  0.00    -0.273 OA
ATOM     31  C   UNL A   1      30.238  25.659  24.109  1.00  0.00     0.062 C 
ATOM     32  C   UNL A   1      31.006  24.496  26.183  1.00  0.00    -0.007 C 
ATOM     33  C   UNL A   1      30.262  24.342  23.429  1.00  0.00     0.025 C 
ATOM     34  C   UNL A   1      31.197  23.381  25.462  1.00  0.00    -0.003 C 
ATOM     35  C   UNL A   1      30.751  23.291  24.094  1.00  0.00     0.002 C 
ENDBRANCH  13  24
ENDBRANCH  10  13
ENDBRANCH   8   9
ENDBRANCH   6   8
ENDBRANCH   3   4
ENDBRANCH   2   3
ENDBRANCH   1   2
BRANCH   1  36
ATOM     36  C   UNL A   1      39.132  32.063  30.501  1.00  0.00     0.002 C 
BRANCH  36  37
ATOM     37  C   UNL A   1      38.472  33.046  29.536  1.00  0.00     0.021 C 
BRANCH  37  38
ATOM     38  C   UNL A   1      37.791  34.235  30.202  1.00  0.00     0.116 C 
BRANCH  38  39
ATOM     39  N   UNL A   1      36.340  34.099  30.248  1.00  0.00    -0.352 N 
ATOM     40  C   UNL A   1      35.546  33.684  31.294  1.00  0.00     0.251 C 
ATOM     41  H   UNL A   1      35.864  34.337  29.420  1.00  0.00     0.163 HD
ATOM     42  O   UNL A   1      34.351  33.470  31.126  1.00  0.00    -0.269 OA
BRANCH  40  43
ATOM     43  C   UNL A   1      36.170  33.463  32.617  1.00  0.00     0.039 A 
ATOM     44  C   UNL A   1      36.597  34.554  33.375  1.00  0.00     0.014 A 
ATOM     45  C   UNL A   1      36.400  32.160  33.060  1.00  0.00     0.014 A 
ATOM     46  C   UNL A   1      37.421  34.341  34.473  1.00  0.00     0.010 A 
ATOM     47  C   UNL A   1      37.150  31.949  34.221  1.00  0.00     0.010 A 
ATOM     48  C   UNL A   1      37.716  33.036  34.906  1.00  0.00    -0.014 A 
BRANCH  48  49
ATOM     49  C   UNL A   1      38.622  32.839  36.069  1.00  0.00     0.031 A 
ATOM     50  C   UNL A   1      38.077  32.782  37.473  1.00  0.00     0.074 A 
ATOM     51  C   UNL A   1      39.937  32.645  35.849  1.00  0.00     0.049 A 
ATOM     52  N   UNL A   1      38.725  32.597  38.596  1.00  0.00    -0.248 NA
ATOM     53  C   UNL A   1      36.625  32.953  37.646  1.00  0.00     0.031 C 
ATOM     54  C   UNL A   1      40.575  32.647  34.530  1.00  0.00     0.029 A 
ATOM     55  N   UNL A   1      40.968  32.375  36.714  1.00  0.00    -0.354 N 
ATOM     56  C   UNL A   1      37.767  32.641  39.604  1.00  0.00     0.074 A 
ATOM     57  C   UNL A   1      36.497  32.905  38.966  1.00  0.00     0.031 C 
ATOM     58  C   UNL A   1      41.870  32.328  34.668  1.00  0.00     0.029 A 
ATOM     59  C   UNL A   1      42.175  32.179  36.087  1.00  0.00     0.049 A 
ATOM     60  H   UNL A   1      40.854  32.328  37.691  1.00  0.00     0.167 HD
ATOM     61  C   UNL A   1      37.932  32.460  40.935  1.00  0.00     0.031 A 
ATOM     62  C   UNL A   1      43.400  31.920  36.587  1.00  0.00     0.031 A 
ATOM     63  C   UNL A   1      39.201  32.181  41.559  1.00  0.00     0.049 A 
ATOM     64  C   UNL A   1      43.568  31.783  38.072  1.00  0.00     0.074 A 
ATOM     65  C   UNL A   1      39.463  31.972  42.903  1.00  0.00     0.029 A 
ATOM     66  N   UNL A   1      40.411  32.061  40.893  1.00  0.00    -0.354 N 
ATOM     67  N   UNL A   1      42.649  31.832  39.008  1.00  0.00    -0.248 NA
ATOM     68  C   UNL A   1      44.929  31.558  38.575  1.00  0.00     0.031 C 
ATOM     69  C   UNL A   1      40.839  31.795  43.056  1.00  0.00     0.029 A 
ATOM     70  C   UNL A   1      41.427  31.812  41.801  1.00  0.00     0.049 A 
ATOM     71  H   UNL A   1      40.530  32.141  39.920  1.00  0.00     0.167 HD
ATOM     72  C   UNL A   1      43.319  31.635  40.209  1.00  0.00     0.074 A 
ATOM     73  C   UNL A   1      44.717  31.442  39.880  1.00  0.00     0.031 C 
ATOM     74  C   UNL A   1      42.818  31.623  41.467  1.00  0.00     0.031 A 
BRANCH  61  75
ATOM     75  C   UNL A   1      36.723  32.550  41.832  1.00  0.00    -0.014 A 
ATOM     76  C   UNL A   1      36.479  33.729  42.563  1.00  0.00     0.010 A 
ATOM     77  C   UNL A   1      35.905  31.428  42.059  1.00  0.00     0.010 A 
ATOM     78  C   UNL A   1      35.471  33.774  43.530  1.00  0.00     0.020 A 
ATOM     79  C   UNL A   1      34.875  31.477  43.004  1.00  0.00     0.020 A 
ATOM     80  C   UNL A   1      34.682  32.642  43.752  1.00  0.00     0.054 A 
BRANCH  80  81
ATOM     81  S   UNL A   1      33.402  32.706  45.037  1.00  0.00     0.124 S 
ATOM     82  O   UNL A   1      32.291  33.342  44.336  1.00  0.00    -0.237 OA
ATOM     83  O   UNL A   1      33.215  31.295  45.370  1.00  0.00    -0.237 OA
ATOM     84  O   UNL A   1      34.018  33.507  46.092  1.00  0.00    -0.744 OA
ENDBRANCH  80  81
ENDBRANCH  61  75
BRANCH  62  85
ATOM     85  C   UNL A   1      44.546  31.767  35.647  1.00  0.00    -0.014 A 
ATOM     86  C   UNL A   1      44.911  30.491  35.175  1.00  0.00     0.010 A 
ATOM     87  C   UNL A   1      45.341  32.874  35.303  1.00  0.00     0.010 A 
ATOM     88  C   UNL A   1      46.087  30.313  34.443  1.00  0.00     0.020 A 
ATOM     89  C   UNL A   1      46.499  32.705  34.538  1.00  0.00     0.020 A 
ATOM     90  C   UNL A   1      46.883  31.420  34.144  1.00  0.00     0.054 A 
BRANCH  90  91
ATOM     91  S   UNL A   1      48.440  31.155  33.254  1.00  0.00     0.124 S 
ATOM     92  O   UNL A   1      48.127  29.979  32.447  1.00  0.00    -0.237 OA
ATOM     93  O   UNL A   1      48.600  32.403  32.511  1.00  0.00    -0.237 OA
ATOM     94  O   UNL A   1      49.412  30.940  34.322  1.00  0.00    -0.744 OA
ENDBRANCH  90  91
ENDBRANCH  62  85
BRANCH  74  95
ATOM     95  C   UNL A   1      43.771  31.400  42.613  1.00  0.00    -0.014 A 
ATOM     96  C   UNL A   1      43.951  30.103  43.128  1.00  0.00     0.010 A 
ATOM     97  C   UNL A   1      44.374  32.488  43.268  1.00  0.00     0.010 A 
ATOM     98  C   UNL A   1      44.676  29.901  44.305  1.00  0.00     0.020 A 
ATOM     99  C   UNL A   1      45.127  32.287  44.429  1.00  0.00     0.020 A 
ATOM    100  C   UNL A   1      45.249  30.998  44.955  1.00  0.00     0.054 A 
BRANCH 100 101
ATOM    101  S   UNL A   1      46.143  30.723  46.509  1.00  0.00     0.124 S 
ATOM    102  O   UNL A   1      46.067  29.273  46.655  1.00  0.00    -0.237 OA
ATOM    103  O   UNL A   1      47.470  31.259  46.215  1.00  0.00    -0.237 OA
ATOM    104  O   UNL A   1      45.374  31.489  47.487  1.00  0.00    -0.744 OA
ENDBRANCH 100 101
ENDBRANCH  74  95
ENDBRANCH  48  49
ENDBRANCH  40  43
ENDBRANCH  38  39
ENDBRANCH  37  38
ENDBRANCH  36  37
ENDBRANCH   1  36
TORSDOF 21
ENDMDL
MODEL 2
REMARK VINA RESULT:     -10.3      6.797     12.334
REMARK SMILES O=C(CNC(=O)[C@@H](CC1=c2ccccc2=NC1)N1C(=O)N=C2C=CC=C[C@H]2C1=O)NCCCCCCNC(=O)c1ccc(-c2c3nc(c(-c4ccc(S(=O)(=O)[O-])cc4)c4ccc([nH]4)c(-c4ccc(S(=O)(=O)[O-])cc4)c4nc(c(-c5ccc(S(=O)(=O)[O-])cc5)c5ccc2[nH]5)C=C4)C=C3)cc1
REMARK SMILES IDX 33 1 32 2 31 3 30 4 1 5 2 6 3 8 4 9 5 10 6 12 7 13 8 14 9 15
REMARK SMILES IDX 10 16 17 17 11 18 15 19 16 20 12 21 14 22 13 23 18 24 19 25
REMARK SMILES IDX 28 26 21 27 20 28 27 29 29 30 22 31 26 32 23 33 25 34 24 35
REMARK SMILES IDX 34 36 35 37 36 38 37 39 38 40 39 42 40 43 41 44 99 45 42 46
REMARK SMILES IDX 98 47 43 48 44 49 45 50 92 51 46 52 97 53 91 54 93 55 47 56
REMARK SMILES IDX 96 57 90 58 89 59 48 61 78 62 59 63 77 64 60 65 63 66 76 67
REMARK SMILES IDX 94 68 61 69 62 70 75 72 95 73 64 74 49 75 50 76 58 77 51 78
REMARK SMILES IDX 57 79 52 80 53 81 54 82 55 83 56 84 79 85 80 86 88 87 81 88
REMARK SMILES IDX 87 89 82 90 83 91 84 92 85 93 86 94 65 95 66 96 74 97 67 98
REMARK SMILES IDX 73 99 68 100 69 101 70 102 71 103 72 104
REMARK H PARENT 30 7 4 11 37 41 93 60 63 71
REMARK Flexibility Score: inf
ROOT
ATOM      1  C   UNL A   1      35.353  33.216  31.226  1.00  0.00     0.002 C 
ENDROOT
BRANCH   1   2
ATOM      2  C   UNL A   1      35.556  32.809  29.762  1.00  0.00     0.021 C 
BRANCH   2   3
ATOM      3  C   UNL A   1      34.620  33.495  28.765  1.00  0.00     0.116 C 
BRANCH   3   4
ATOM      4  N   UNL A   1      33.752  32.578  28.031  1.00  0.00    -0.355 N 
ATOM      5  O   UNL A   1      32.114  34.132  27.660  1.00  0.00    -0.273 OA
ATOM      6  C   UNL A   1      32.551  32.992  27.504  1.00  0.00     0.239 C 
ATOM      7  H   UNL A   1      34.033  31.642  27.912  1.00  0.00     0.163 HD
BRANCH   6   8
ATOM      8  C   UNL A   1      31.717  31.955  26.728  1.00  0.00     0.216 C 
BRANCH   8   9
ATOM      9  N   UNL A   1      31.832  30.517  26.983  1.00  0.00    -0.345 N 
ATOM     10  C   UNL A   1      32.859  29.786  26.383  1.00  0.00     0.244 C 
ATOM     11  H   UNL A   1      31.187  30.067  27.576  1.00  0.00     0.164 HD
ATOM     12  O   UNL A   1      33.907  29.620  27.006  1.00  0.00    -0.273 OA
BRANCH  10  13
ATOM     13  C   UNL A   1      32.465  28.925  25.157  1.00  0.00     0.188 C 
BRANCH  13  14
ATOM     14  C   UNL A   1      33.616  28.379  24.292  1.00  0.00     0.069 C 
BRANCH  14  15
ATOM     15  C   UNL A   1      33.723  26.978  23.763  1.00  0.00    -0.037 C 
ATOM     16  C   UNL A   1      34.044  25.781  24.253  1.00  0.00     0.001 A 
ATOM     17  C   UNL A   1      33.480  26.865  22.278  1.00  0.00     0.174 C 
ATOM     18  C   UNL A   1      34.368  25.216  25.523  1.00  0.00     0.010 A 
ATOM     19  C   UNL A   1      34.196  24.964  23.027  1.00  0.00     0.065 A 
ATOM     20  N   UNL A   1      33.885  25.507  21.892  1.00  0.00    -0.280 NA
ATOM     21  C   UNL A   1      34.816  23.954  25.607  1.00  0.00     0.001 A 
ATOM     22  C   UNL A   1      34.745  23.600  23.189  1.00  0.00     0.028 A 
ATOM     23  C   UNL A   1      35.027  23.151  24.422  1.00  0.00     0.002 A 
ENDBRANCH  14  15
ENDBRANCH  13  14
BRANCH  13  24
ATOM     24  N   UNL A   1      31.338  27.971  25.148  1.00  0.00    -0.249 N 
ATOM     25  C   UNL A   1      30.495  28.027  24.049  1.00  0.00     0.351 C 
ATOM     26  C   UNL A   1      31.136  26.999  26.095  1.00  0.00     0.244 C 
ATOM     27  N   UNL A   1      30.252  26.842  23.414  1.00  0.00    -0.197 NA
ATOM     28  O   UNL A   1      30.092  29.091  23.590  1.00  0.00    -0.246 OA
ATOM     29  C   UNL A   1      30.351  25.778  25.627  1.00  0.00     0.151 C 
ATOM     30  O   UNL A   1      31.449  27.126  27.277  1.00  0.00    -0.273 OA
ATOM     31  C   UNL A   1      30.282  25.754  24.111  1.00  0.00     0.062 C 
ATOM     32  C   UNL A   1      30.940  24.496  26.168  1.00  0.00    -0.007 C 
ATOM     33  C   UNL A   1      30.270  24.458  23.392  1.00  0.00     0.025 C 
ATOM     34  C   UNL A   1      31.104  23.396  25.419  1.00  0.00    -0.003 C 
ATOM     35  C   UNL A   1      30.694  23.366  24.037  1.00  0.00     0.002 C 
ENDBRANCH  13  24
ENDBRANCH  10  13
ENDBRANCH   8   9
ENDBRANCH   6   8
ENDBRANCH   3   4
ENDBRANCH   2   3
ENDBRANCH   1   2
BRANCH   1  36
ATOM     36  C   UNL A   1      36.101  32.350  32.244  1.00  0.00     0.002 C 
BRANCH  36  37
ATOM     37  C   UNL A   1      36.076  30.850  31.960  1.00  0.00     0.021 C 
BRANCH  37  38
ATOM     38  C   UNL A   1      37.129  30.041  32.707  1.00  0.00     0.116 C 
BRANCH  38  39
ATOM     39  N   UNL A   1      37.808  30.818  33.737  1.00  0.00    -0.352 N 
ATOM     40  C   UNL A   1      39.160  30.940  33.973  1.00  0.00     0.251 C 
ATOM     41  H   UNL A   1      37.222  31.324  34.345  1.00  0.00     0.163 HD
ATOM     42  O   UNL A   1      39.570  31.506  34.980  1.00  0.00    -0.269 OA
BRANCH  40  43
ATOM     43  C   UNL A   1      40.108  30.342  33.009  1.00  0.00     0.039 A 
ATOM     44  C   UNL A   1      41.023  29.380  33.440  1.00  0.00     0.014 A 
ATOM     45  C   UNL A   1      40.134  30.803  31.692  1.00  0.00     0.014 A 
ATOM     46  C   UNL A   1      42.081  29.026  32.612  1.00  0.00     0.010 A 
ATOM     47  C   UNL A   1      41.146  30.371  30.830  1.00  0.00     0.010 A 
ATOM     48  C   UNL A   1      42.162  29.523  31.300  1.00  0.00    -0.014 A 
BRANCH  48  49
ATOM     49  C   UNL A   1      43.321  29.147  30.446  1.00  0.00     0.031 A 
ATOM     50  C   UNL A   1      43.336  27.841  29.694  1.00  0.00     0.074 A 
ATOM     51  C   UNL A   1      44.336  30.021  30.297  1.00  0.00     0.049 A 
ATOM     52  N   UNL A   1      44.257  27.369  28.892  1.00  0.00    -0.248 NA
ATOM     53  C   UNL A   1      42.176  26.948  29.859  1.00  0.00     0.031 C 
ATOM     54  C   UNL A   1      44.416  31.330  30.950  1.00  0.00     0.029 A 
ATOM     55  N   UNL A   1      45.472  29.964  29.530  1.00  0.00    -0.354 N 
ATOM     56  C   UNL A   1      43.796  26.126  28.467  1.00  0.00     0.074 A 
ATOM     57  C   UNL A   1      42.530  25.899  29.128  1.00  0.00     0.031 C 
ATOM     58  C   UNL A   1      45.504  31.976  30.507  1.00  0.00     0.029 A 
ATOM     59  C   UNL A   1      46.244  31.100  29.604  1.00  0.00     0.049 A 
ATOM     60  H   UNL A   1      45.713  29.183  28.980  1.00  0.00     0.167 HD
ATOM     61  C   UNL A   1      44.370  25.265  27.596  1.00  0.00     0.031 A 
ATOM     62  C   UNL A   1      47.422  31.408  29.026  1.00  0.00     0.031 A 
ATOM     63  C   UNL A   1      45.625  25.508  26.930  1.00  0.00     0.049 A 
ATOM     64  C   UNL A   1      48.068  30.410  28.109  1.00  0.00     0.074 A 
ATOM     65  C   UNL A   1      46.281  24.696  26.020  1.00  0.00     0.029 A 
ATOM     66  N   UNL A   1      46.408  26.641  27.089  1.00  0.00    -0.354 N 
ATOM     67  N   UNL A   1      47.616  29.240  27.724  1.00  0.00    -0.248 NA
ATOM     68  C   UNL A   1      49.377  30.767  27.546  1.00  0.00     0.031 C 
ATOM     69  C   UNL A   1      47.490  25.305  25.683  1.00  0.00     0.029 A 
ATOM     70  C   UNL A   1      47.554  26.535  26.319  1.00  0.00     0.049 A 
ATOM     71  H   UNL A   1      46.183  27.407  27.665  1.00  0.00     0.167 HD
ATOM     72  C   UNL A   1      48.582  28.724  26.868  1.00  0.00     0.074 A 
ATOM     73  C   UNL A   1      49.630  29.719  26.772  1.00  0.00     0.031 C 
ATOM     74  C   UNL A   1      48.596  27.530  26.229  1.00  0.00     0.031 A 
BRANCH  61  75
ATOM     75  C   UNL A   1      43.662  23.968  27.289  1.00  0.00    -0.014 A 
ATOM     76  C   UNL A   1      43.087  23.768  26.019  1.00  0.00     0.010 A 
ATOM     77  C   UNL A   1      43.447  23.007  28.293  1.00  0.00     0.010 A 
ATOM     78  C   UNL A   1      42.278  22.656  25.770  1.00  0.00     0.020 A 
ATOM     79  C   UNL A   1      42.663  21.876  28.039  1.00  0.00     0.020 A 
ATOM     80  C   UNL A   1      42.063  21.722  26.786  1.00  0.00     0.054 A 
BRANCH  80  81
ATOM     81  S   UNL A   1      40.980  20.303  26.457  1.00  0.00     0.124 S 
ATOM     82  O   UNL A   1      41.692  19.613  25.386  1.00  0.00    -0.237 OA
ATOM     83  O   UNL A   1      40.955  19.615  27.746  1.00  0.00    -0.237 OA
ATOM     84  O   UNL A   1      39.714  20.923  26.069  1.00  0.00    -0.744 OA
ENDBRANCH  80  81
ENDBRANCH  61  75
BRANCH  62  85
ATOM     85  C   UNL A   1      48.038  32.735  29.307  1.00  0.00    -0.014 A 
ATOM     86  C   UNL A   1      47.774  33.832  28.465  1.00  0.00     0.010 A 
ATOM     87  C   UNL A   1      48.970  32.883  30.349  1.00  0.00     0.010 A 
ATOM     88  C   UNL A   1      48.484  35.027  28.610  1.00  0.00     0.020 A 
ATOM     89  C   UNL A   1      49.655  34.090  30.520  1.00  0.00     0.020 A 
ATOM     90  C   UNL A   1      49.433  35.142  29.628  1.00  0.00     0.054 A 
BRANCH  90  91
ATOM     91  S   UNL A   1      50.391  36.676  29.752  1.00  0.00     0.124 S 
ATOM     92  O   UNL A   1      50.818  36.649  31.149  1.00  0.00    -0.237 OA
ATOM     93  O   UNL A   1      51.449  36.473  28.766  1.00  0.00    -0.237 OA
ATOM     94  O   UNL A   1      49.421  37.714  29.416  1.00  0.00    -0.744 OA
ENDBRANCH  90  91
ENDBRANCH  62  85
BRANCH  74  95
ATOM     95  C   UNL A   1      49.782  27.200  25.359  1.00  0.00    -0.014 A 
ATOM     96  C   UNL A   1      50.922  26.605  25.931  1.00  0.00     0.010 A 
ATOM     97  C   UNL A   1      49.823  27.610  24.015  1.00  0.00     0.010 A 
ATOM     98  C   UNL A   1      52.098  26.468  25.190  1.00  0.00     0.020 A 
ATOM     99  C   UNL A   1      50.988  27.446  23.260  1.00  0.00     0.020 A 
ATOM    100  C   UNL A   1      52.126  26.902  23.861  1.00  0.00     0.054 A 
BRANCH 100 101
ATOM    101  S   UNL A   1      53.677  26.764  22.931  1.00  0.00     0.124 S 
ATOM    102  O   UNL A   1      54.025  28.163  22.703  1.00  0.00    -0.237 OA
ATOM    103  O   UNL A   1      54.545  26.042  23.858  1.00  0.00    -0.237 OA
ATOM    104  O   UNL A   1      53.295  26.014  21.736  1.00  0.00    -0.744 OA
ENDBRANCH 100 101
ENDBRANCH  74  95
ENDBRANCH  48  49
ENDBRANCH  40  43
ENDBRANCH  38  39
ENDBRANCH  37  38
ENDBRANCH  36  37
ENDBRANCH   1  36
TORSDOF 21
ENDMDL
MODEL 3
REMARK VINA RESULT:     -10.1      7.855     13.161
REMARK SMILES O=C(CNC(=O)[C@@H](CC1=c2ccccc2=NC1)N1C(=O)N=C2C=CC=C[C@H]2C1=O)NCCCCCCNC(=O)c1ccc(-c2c3nc(c(-c4ccc(S(=O)(=O)[O-])cc4)c4ccc([nH]4)c(-c4ccc(S(=O)(=O)[O-])cc4)c4nc(c(-c5ccc(S(=O)(=O)[O-])cc5)c5ccc2[nH]5)C=C4)C=C3)cc1
REMARK SMILES IDX 33 1 32 2 31 3 30 4 1 5 2 6 3 8 4 9 5 10 6 12 7 13 8 14 9 15
REMARK SMILES IDX 10 16 17 17 11 18 15 19 16 20 12 21 14 22 13 23 18 24 19 25
REMARK SMILES IDX 28 26 21 27 20 28 27 29 29 30 22 31 26 32 23 33 25 34 24 35
REMARK SMILES IDX 34 36 35 37 36 38 37 39 38 40 39 42 40 43 41 44 99 45 42 46
REMARK SMILES IDX 98 47 43 48 44 49 45 50 92 51 46 52 97 53 91 54 93 55 47 56
REMARK SMILES IDX 96 57 90 58 89 59 48 61 78 62 59 63 77 64 60 65 63 66 76 67
REMARK SMILES IDX 94 68 61 69 62 70 75 72 95 73 64 74 49 75 50 76 58 77 51 78
REMARK SMILES IDX 57 79 52 80 53 81 54 82 55 83 56 84 79 85 80 86 88 87 81 88
REMARK SMILES IDX 87 89 82 90 83 91 84 92 85 93 86 94 65 95 66 96 74 97 67 98
REMARK SMILES IDX 73 99 68 100 69 101 70 102 71 103 72 104
REMARK H PARENT 30 7 4 11 37 41 93 60 63 71
REMARK Flexibility Score: inf
ROOT
ATOM      1  C   UNL A   1      37.194  30.446  27.863  1.00  0.00     0.002 C 
ENDROOT
BRANCH   1   2
ATOM      2  C   UNL A   1      35.965  29.770  28.480  1.00  0.00     0.021 C 
BRANCH   2   3
ATOM      3  C   UNL A   1      34.623  30.209  27.891  1.00  0.00     0.116 C 
BRANCH   3   4
ATOM      4  N   UNL A   1      33.659  29.124  27.726  1.00  0.00    -0.355 N 
ATOM      5  O   UNL A   1      32.157  30.388  26.550  1.00  0.00    -0.273 OA
ATOM      6  C   UNL A   1      32.487  29.303  27.028  1.00  0.00     0.239 C 
ATOM      7  H   UNL A   1      33.852  28.245  28.125  1.00  0.00     0.163 HD
BRANCH   6   8
ATOM      8  C   UNL A   1      31.545  28.091  26.893  1.00  0.00     0.216 C 
BRANCH   8   9
ATOM      9  N   UNL A   1      32.049  26.739  26.642  1.00  0.00    -0.345 N 
ATOM     10  C   UNL A   1      32.911  26.508  25.569  1.00  0.00     0.244 C 
ATOM     11  H   UNL A   1      31.782  25.995  27.230  1.00  0.00     0.164 HD
ATOM     12  O   UNL A   1      34.125  26.540  25.769  1.00  0.00    -0.273 OA
BRANCH  10  13
ATOM     13  C   UNL A   1      32.284  25.856  24.312  1.00  0.00     0.188 C 
BRANCH  13  14
ATOM     14  C   UNL A   1      31.708  26.809  23.248  1.00  0.00     0.069 C 
BRANCH  14  15
ATOM     15  C   UNL A   1      30.275  27.246  23.150  1.00  0.00    -0.037 C 
ATOM     16  C   UNL A   1      29.620  28.331  22.735  1.00  0.00     0.001 A 
ATOM     17  C   UNL A   1      29.293  26.255  23.726  1.00  0.00     0.174 C 
ATOM     18  C   UNL A   1      29.935  29.576  22.113  1.00  0.00     0.010 A 
ATOM     19  C   UNL A   1      28.250  28.090  23.243  1.00  0.00     0.065 A 
ATOM     20  N   UNL A   1      27.998  26.946  23.796  1.00  0.00    -0.280 NA
ATOM     21  C   UNL A   1      28.998  30.528  21.994  1.00  0.00     0.001 A 
ATOM     22  C   UNL A   1      27.283  29.203  23.126  1.00  0.00     0.028 A 
ATOM     23  C   UNL A   1      27.666  30.343  22.530  1.00  0.00     0.002 A 
ENDBRANCH  14  15
ENDBRANCH  13  14
BRANCH  13  24
ATOM     24  N   UNL A   1      32.817  24.643  23.659  1.00  0.00    -0.249 N 
ATOM     25  C   UNL A   1      33.953  24.812  22.884  1.00  0.00     0.351 C 
ATOM     26  C   UNL A   1      32.317  23.379  23.844  1.00  0.00     0.244 C 
ATOM     27  N   UNL A   1      34.993  23.964  23.146  1.00  0.00    -0.197 NA
ATOM     28  O   UNL A   1      34.074  25.746  22.098  1.00  0.00    -0.246 OA
ATOM     29  C   UNL A   1      33.307  22.241  23.619  1.00  0.00     0.151 C 
ATOM     30  O   UNL A   1      31.129  23.142  24.059  1.00  0.00    -0.273 OA
ATOM     31  C   UNL A   1      34.724  22.782  23.594  1.00  0.00     0.062 C 
ATOM     32  C   UNL A   1      33.154  21.156  24.661  1.00  0.00    -0.007 C 
ATOM     33  C   UNL A   1      35.840  21.956  24.112  1.00  0.00     0.025 C 
ATOM     34  C   UNL A   1      34.199  20.572  25.263  1.00  0.00    -0.003 C 
ATOM     35  C   UNL A   1      35.553  20.934  24.925  1.00  0.00     0.002 C 
ENDBRANCH  13  24
ENDBRANCH  10  13
ENDBRANCH   8   9
ENDBRANCH   6   8
ENDBRANCH   3   4
ENDBRANCH   2   3
ENDBRANCH   1   2
BRANCH   1  36
ATOM     36  C   UNL A   1      37.926  31.421  28.790  1.00  0.00     0.002 C 
BRANCH  36  37
ATOM     37  C   UNL A   1      37.400  31.470  30.223  1.00  0.00     0.021 C 
BRANCH  37  38
ATOM     38  C   UNL A   1      38.415  31.072  31.289  1.00  0.00     0.116 C 
BRANCH  38  39
ATOM     39  N   UNL A   1      37.963  29.950  32.104  1.00  0.00    -0.352 N 
ATOM     40  C   UNL A   1      38.444  28.660  32.137  1.00  0.00     0.251 C 
ATOM     41  H   UNL A   1      37.213  30.141  32.713  1.00  0.00     0.163 HD
ATOM     42  O   UNL A   1      37.853  27.788  32.762  1.00  0.00    -0.269 OA
BRANCH  40  43
ATOM     43  C   UNL A   1      39.668  28.337  31.372  1.00  0.00     0.039 A 
ATOM     44  C   UNL A   1      40.871  28.119  32.044  1.00  0.00     0.014 A 
ATOM     45  C   UNL A   1      39.626  28.334  29.977  1.00  0.00     0.014 A 
ATOM     46  C   UNL A   1      42.060  28.092  31.325  1.00  0.00     0.010 A 
ATOM     47  C   UNL A   1      40.816  28.209  29.252  1.00  0.00     0.010 A 
ATOM     48  C   UNL A   1      42.049  28.145  29.921  1.00  0.00    -0.014 A 
BRANCH  48  49
ATOM     49  C   UNL A   1      43.338  28.140  29.179  1.00  0.00     0.031 A 
ATOM     50  C   UNL A   1      44.325  29.269  29.335  1.00  0.00     0.074 A 
ATOM     51  C   UNL A   1      43.648  27.077  28.411  1.00  0.00     0.049 A 
ATOM     52  N   UNL A   1      45.501  29.411  28.778  1.00  0.00    -0.248 NA
ATOM     53  C   UNL A   1      43.949  30.381  30.225  1.00  0.00     0.031 C 
ATOM     54  C   UNL A   1      42.786  25.910  28.209  1.00  0.00     0.029 A 
ATOM     55  N   UNL A   1      44.777  26.784  27.688  1.00  0.00    -0.354 N 
ATOM     56  C   UNL A   1      46.000  30.626  29.238  1.00  0.00     0.074 A 
ATOM     57  C   UNL A   1      44.984  31.201  30.093  1.00  0.00     0.031 C 
ATOM     58  C   UNL A   1      43.441  25.002  27.472  1.00  0.00     0.029 A 
ATOM     59  C   UNL A   1      44.735  25.552  27.078  1.00  0.00     0.049 A 
ATOM     60  H   UNL A   1      45.544  27.397  27.612  1.00  0.00     0.167 HD
ATOM     61  C   UNL A   1      47.199  31.199  28.984  1.00  0.00     0.031 A 
ATOM     62  C   UNL A   1      45.624  24.930  26.278  1.00  0.00     0.031 A 
ATOM     63  C   UNL A   1      48.210  30.610  28.143  1.00  0.00     0.049 A 
ATOM     64  C   UNL A   1      46.923  25.612  25.962  1.00  0.00     0.074 A 
ATOM     65  C   UNL A   1      49.464  31.113  27.835  1.00  0.00     0.029 A 
ATOM     66  N   UNL A   1      48.097  29.393  27.487  1.00  0.00    -0.354 N 
ATOM     67  N   UNL A   1      47.373  26.763  26.405  1.00  0.00    -0.248 NA
ATOM     68  C   UNL A   1      47.836  24.922  25.042  1.00  0.00     0.031 C 
ATOM     69  C   UNL A   1      50.078  30.236  26.939  1.00  0.00     0.029 A 
ATOM     70  C   UNL A   1      49.244  29.145  26.751  1.00  0.00     0.049 A 
ATOM     71  H   UNL A   1      47.317  28.796  27.536  1.00  0.00     0.167 HD
ATOM     72  C   UNL A   1      48.624  26.930  25.825  1.00  0.00     0.074 A 
ATOM     73  C   UNL A   1      48.872  25.752  25.019  1.00  0.00     0.031 C 
ATOM     74  C   UNL A   1      49.483  27.970  25.948  1.00  0.00     0.031 A 
BRANCH  61  75
ATOM     75  C   UNL A   1      47.512  32.533  29.614  1.00  0.00    -0.014 A 
ATOM     76  C   UNL A   1      47.224  33.722  28.917  1.00  0.00     0.010 A 
ATOM     77  C   UNL A   1      48.213  32.611  30.832  1.00  0.00     0.010 A 
ATOM     78  C   UNL A   1      47.664  34.957  29.401  1.00  0.00     0.020 A 
ATOM     79  C   UNL A   1      48.629  33.849  31.335  1.00  0.00     0.020 A 
ATOM     80  C   UNL A   1      48.373  35.011  30.603  1.00  0.00     0.054 A 
BRANCH  80  81
ATOM     81  S   UNL A   1      48.969  36.618  31.197  1.00  0.00     0.124 S 
ATOM     82  O   UNL A   1      49.308  37.302  29.953  1.00  0.00    -0.237 OA
ATOM     83  O   UNL A   1      47.808  37.144  31.912  1.00  0.00    -0.237 OA
ATOM     84  O   UNL A   1      50.104  36.268  32.049  1.00  0.00    -0.744 OA
ENDBRANCH  80  81
ENDBRANCH  61  75
BRANCH  62  85
ATOM     85  C   UNL A   1      45.293  23.579  25.744  1.00  0.00    -0.014 A 
ATOM     86  C   UNL A   1      45.412  22.443  26.566  1.00  0.00     0.010 A 
ATOM     87  C   UNL A   1      44.960  23.409  24.389  1.00  0.00     0.010 A 
ATOM     88  C   UNL A   1      45.281  21.160  26.029  1.00  0.00     0.020 A 
ATOM     89  C   UNL A   1      44.792  22.127  23.856  1.00  0.00     0.020 A 
ATOM     90  C   UNL A   1      44.988  21.010  24.673  1.00  0.00     0.054 A 
BRANCH  90  91
ATOM     91  S   UNL A   1      44.893  19.336  23.984  1.00  0.00     0.124 S 
ATOM     92  O   UNL A   1      46.289  18.910  24.038  1.00  0.00    -0.237 OA
ATOM     93  O   UNL A   1      43.992  18.659  24.913  1.00  0.00    -0.237 OA
ATOM     94  O   UNL A   1      44.356  19.548  22.642  1.00  0.00    -0.744 OA
ENDBRANCH  90  91
ENDBRANCH  62  85
BRANCH  74  95
ATOM     95  C   UNL A   1      50.786  27.913  25.193  1.00  0.00    -0.014 A 
ATOM     96  C   UNL A   1      51.971  27.571  25.873  1.00  0.00     0.010 A 
ATOM     97  C   UNL A   1      50.861  28.334  23.854  1.00  0.00     0.010 A 
ATOM     98  C   UNL A   1      53.211  27.698  25.243  1.00  0.00     0.020 A 
ATOM     99  C   UNL A   1      52.098  28.432  23.211  1.00  0.00     0.020 A 
ATOM    100  C   UNL A   1      53.267  28.140  23.919  1.00  0.00     0.054 A 
BRANCH 100 101
ATOM    101  S   UNL A   1      54.889  28.348  23.135  1.00  0.00     0.124 S 
ATOM    102  O   UNL A   1      55.526  29.334  24.002  1.00  0.00    -0.237 OA
ATOM    103  O   UNL A   1      55.450  26.999  23.195  1.00  0.00    -0.237 OA
ATOM    104  O   UNL A   1      54.564  28.818  21.791  1.00  0.00    -0.744 OA
ENDBRANCH 100 101
ENDBRANCH  74  95
ENDBRANCH  48  49
ENDBRANCH  40  43
ENDBRANCH  38  39
ENDBRANCH  37  38
ENDBRANCH  36  37
ENDBRANCH   1  36
TORSDOF 21
ENDMDL
