MODEL 1
REMARK VINA RESULT:     -12.1      0.000      0.000
REMARK SMILES O=C(NCCCCCCNC(=O)c1ccc(-c2c3nc(c(-c4ccc(S(=O)(=O)[O-])cc4)c4ccc([nH]4)c(-c4ccc(S(=O)(=O)[O-])cc4)c4nc(c(-c5ccc(S(=O)(=O)[O-])cc5)c5ccc2[nH]5)C=C4)C=C3)cc1)C1=Cc2cc(Cl)c(Cl)cc2O[C@@H]1C(F)(F)F
REMARK SMILES IDX 7 1 6 2 5 3 4 4 3 5 1 6 2 7 73 9 74 10 84 11 75 12 83 13
REMARK SMILES IDX 76 14 82 15 77 16 81 17 78 18 79 19 80 20 85 21 86 22 87 23
REMARK SMILES IDX 88 24 8 25 9 26 10 27 11 28 12 30 13 31 14 32 72 33 15 34
REMARK SMILES IDX 71 35 16 36 17 37 18 38 65 39 19 40 70 41 64 42 66 43 20 44
REMARK SMILES IDX 69 45 63 46 62 47 21 49 51 50 32 51 50 52 33 53 36 54 49 55
REMARK SMILES IDX 67 56 34 57 35 58 48 60 68 61 37 62 22 63 23 64 31 65 24 66
REMARK SMILES IDX 30 67 25 68 26 69 27 70 28 71 29 72 52 73 53 74 61 75 54 76
REMARK SMILES IDX 60 77 55 78 56 79 57 80 58 81 59 82 38 83 39 84 47 85 40 86
REMARK SMILES IDX 46 87 41 88 42 89 43 90 44 91 45 92
REMARK H PARENT 3 8 10 29 66 48 36 59
REMARK Flexibility Score: inf
ROOT
ATOM      1  C   UNL A   1      39.573  21.812  25.856  1.00  0.00     0.002 C 
ENDROOT
BRANCH   1   2
ATOM      2  C   UNL A   1      38.050  21.995  25.872  1.00  0.00     0.002 C 
BRANCH   2   3
ATOM      3  C   UNL A   1      37.515  23.424  25.756  1.00  0.00     0.021 C 
BRANCH   3   4
ATOM      4  C   UNL A   1      36.000  23.587  25.619  1.00  0.00     0.116 C 
BRANCH   4   5
ATOM      5  N   UNL A   1      35.215  23.025  26.717  1.00  0.00    -0.352 N 
ATOM      6  O   UNL A   1      33.872  21.536  27.761  1.00  0.00    -0.270 OA
ATOM      7  C   UNL A   1      34.301  21.992  26.707  1.00  0.00     0.251 C 
ATOM      8  H   UNL A   1      35.360  23.447  27.595  1.00  0.00     0.163 HD
BRANCH   7   9
ATOM      9  C   UNL A   1      34.010  21.315  25.416  1.00  0.00     0.067 C 
ATOM     10  C   UNL A   1      34.841  20.474  24.781  1.00  0.00     0.025 C 
ATOM     11  C   UNL A   1      32.579  21.352  24.966  1.00  0.00     0.314 C 
ATOM     12  C   UNL A   1      34.243  19.127  24.669  1.00  0.00     0.019 A 
ATOM     13  O   UNL A   1      31.986  20.031  24.968  1.00  0.00    -0.475 OA
ATOM     14  C   UNL A   1      35.064  17.988  24.714  1.00  0.00     0.034 A 
ATOM     15  C   UNL A   1      32.855  18.974  24.839  1.00  0.00     0.129 A 
ATOM     16  C   UNL A   1      34.506  16.725  24.960  1.00  0.00     0.060 A 
ATOM     17  C   UNL A   1      32.296  17.712  25.032  1.00  0.00     0.069 A 
ATOM     18  Cl  UNL A   1      35.592  15.396  25.170  1.00  0.00    -0.083 Cl
ATOM     19  C   UNL A   1      33.122  16.589  25.121  1.00  0.00     0.063 A 
ATOM     20  Cl  UNL A   1      32.378  15.084  25.526  1.00  0.00    -0.083 Cl
BRANCH  11  21
ATOM     21  C   UNL A   1      32.457  22.014  23.574  1.00  0.00     0.429 C 
ATOM     22  F   UNL A   1      31.374  22.825  23.510  1.00  0.00    -0.167 F 
ATOM     23  F   UNL A   1      33.536  22.781  23.280  1.00  0.00    -0.167 F 
ATOM     24  F   UNL A   1      32.334  21.108  22.574  1.00  0.00    -0.167 F 
ENDBRANCH  11  21
ENDBRANCH   7   9
ENDBRANCH   4   5
ENDBRANCH   3   4
ENDBRANCH   2   3
ENDBRANCH   1   2
BRANCH   1  25
ATOM     25  C   UNL A   1      40.314  21.897  27.195  1.00  0.00     0.021 C 
BRANCH  25  26
ATOM     26  C   UNL A   1      41.042  23.205  27.503  1.00  0.00     0.116 C 
BRANCH  26  27
ATOM     27  N   UNL A   1      41.145  24.088  26.355  1.00  0.00    -0.352 N 
ATOM     28  C   UNL A   1      41.050  25.456  26.268  1.00  0.00     0.251 C 
ATOM     29  H   UNL A   1      41.311  23.631  25.500  1.00  0.00     0.163 HD
ATOM     30  O   UNL A   1      41.060  25.980  25.157  1.00  0.00    -0.269 OA
BRANCH  28  31
ATOM     31  C   UNL A   1      40.911  26.307  27.477  1.00  0.00     0.039 A 
ATOM     32  C   UNL A   1      41.854  27.322  27.684  1.00  0.00     0.014 A 
ATOM     33  C   UNL A   1      39.918  26.089  28.436  1.00  0.00     0.014 A 
ATOM     34  C   UNL A   1      41.773  28.142  28.813  1.00  0.00     0.010 A 
ATOM     35  C   UNL A   1      39.803  26.944  29.537  1.00  0.00     0.010 A 
ATOM     36  C   UNL A   1      40.731  27.978  29.740  1.00  0.00    -0.014 A 
BRANCH  36  37
ATOM     37  C   UNL A   1      40.608  28.874  30.920  1.00  0.00     0.031 A 
ATOM     38  C   UNL A   1      39.581  29.976  30.941  1.00  0.00     0.074 A 
ATOM     39  C   UNL A   1      41.449  28.726  31.964  1.00  0.00     0.049 A 
ATOM     40  N   UNL A   1      39.361  30.882  31.861  1.00  0.00    -0.248 NA
ATOM     41  C   UNL A   1      38.698  30.083  29.770  1.00  0.00     0.031 C 
ATOM     42  C   UNL A   1      42.510  27.721  32.059  1.00  0.00     0.029 A 
ATOM     43  N   UNL A   1      41.549  29.425  33.141  1.00  0.00    -0.354 N 
ATOM     44  C   UNL A   1      38.323  31.670  31.378  1.00  0.00     0.074 A 
ATOM     45  C   UNL A   1      37.987  31.163  30.065  1.00  0.00     0.031 C 
ATOM     46  C   UNL A   1      43.144  27.862  33.234  1.00  0.00     0.029 A 
ATOM     47  C   UNL A   1      42.561  28.985  33.961  1.00  0.00     0.049 A 
ATOM     48  H   UNL A   1      40.953  30.173  33.375  1.00  0.00     0.167 HD
ATOM     49  C   UNL A   1      37.694  32.710  31.977  1.00  0.00     0.031 A 
ATOM     50  C   UNL A   1      42.982  29.437  35.160  1.00  0.00     0.031 A 
ATOM     51  C   UNL A   1      38.024  33.217  33.284  1.00  0.00     0.049 A 
ATOM     52  C   UNL A   1      42.274  30.598  35.801  1.00  0.00     0.074 A 
ATOM     53  C   UNL A   1      37.422  34.248  33.985  1.00  0.00     0.029 A 
ATOM     54  N   UNL A   1      39.043  32.730  34.088  1.00  0.00    -0.354 N 
ATOM     55  N   UNL A   1      41.265  31.301  35.347  1.00  0.00    -0.248 NA
ATOM     56  C   UNL A   1      42.754  31.019  37.126  1.00  0.00     0.031 C 
ATOM     57  C   UNL A   1      38.102  34.409  35.198  1.00  0.00     0.029 A 
ATOM     58  C   UNL A   1      39.096  33.446  35.273  1.00  0.00     0.049 A 
ATOM     59  H   UNL A   1      39.641  31.983  33.852  1.00  0.00     0.167 HD
ATOM     60  C   UNL A   1      40.975  32.233  36.337  1.00  0.00     0.074 A 
ATOM     61  C   UNL A   1      41.904  31.994  37.422  1.00  0.00     0.031 C 
ATOM     62  C   UNL A   1      40.024  33.200  36.344  1.00  0.00     0.031 A 
BRANCH  49  63
ATOM     63  C   UNL A   1      36.576  33.376  31.217  1.00  0.00    -0.014 A 
ATOM     64  C   UNL A   1      35.322  33.587  31.819  1.00  0.00     0.010 A 
ATOM     65  C   UNL A   1      36.790  33.829  29.904  1.00  0.00     0.010 A 
ATOM     66  C   UNL A   1      34.289  34.202  31.107  1.00  0.00     0.020 A 
ATOM     67  C   UNL A   1      35.767  34.469  29.196  1.00  0.00     0.020 A 
ATOM     68  C   UNL A   1      34.517  34.634  29.796  1.00  0.00     0.054 A 
BRANCH  68  69
ATOM     69  S   UNL A   1      33.162  35.442  28.901  1.00  0.00     0.124 S 
ATOM     70  O   UNL A   1      33.877  36.438  28.110  1.00  0.00    -0.237 OA
ATOM     71  O   UNL A   1      32.572  34.343  28.144  1.00  0.00    -0.237 OA
ATOM     72  O   UNL A   1      32.317  35.984  29.968  1.00  0.00    -0.744 OA
ENDBRANCH  68  69
ENDBRANCH  49  63
BRANCH  50  73
ATOM     73  C   UNL A   1      44.138  28.784  35.832  1.00  0.00    -0.014 A 
ATOM     74  C   UNL A   1      45.446  29.256  35.628  1.00  0.00     0.010 A 
ATOM     75  C   UNL A   1      43.931  27.690  36.693  1.00  0.00     0.010 A 
ATOM     76  C   UNL A   1      46.528  28.636  36.258  1.00  0.00     0.020 A 
ATOM     77  C   UNL A   1      45.008  27.083  37.343  1.00  0.00     0.020 A 
ATOM     78  C   UNL A   1      46.302  27.552  37.112  1.00  0.00     0.054 A 
BRANCH  78  79
ATOM     79  S   UNL A   1      47.716  26.794  37.961  1.00  0.00     0.124 S 
ATOM     80  O   UNL A   1      48.570  27.950  38.217  1.00  0.00    -0.237 OA
ATOM     81  O   UNL A   1      47.095  26.191  39.138  1.00  0.00    -0.237 OA
ATOM     82  O   UNL A   1      48.230  25.840  36.980  1.00  0.00    -0.744 OA
ENDBRANCH  78  79
ENDBRANCH  50  73
BRANCH  62  83
ATOM     83  C   UNL A   1      39.919  34.056  37.578  1.00  0.00    -0.014 A 
ATOM     84  C   UNL A   1      40.664  35.242  37.706  1.00  0.00     0.010 A 
ATOM     85  C   UNL A   1      39.022  33.696  38.600  1.00  0.00     0.010 A 
ATOM     86  C   UNL A   1      40.534  36.037  38.849  1.00  0.00     0.020 A 
ATOM     87  C   UNL A   1      38.873  34.499  39.733  1.00  0.00     0.020 A 
ATOM     88  C   UNL A   1      39.641  35.659  39.856  1.00  0.00     0.054 A 
BRANCH  88  89
ATOM     89  S   UNL A   1      39.458  36.729  41.310  1.00  0.00     0.124 S 
ATOM     90  O   UNL A   1      38.923  37.953  40.720  1.00  0.00    -0.237 OA
ATOM     91  O   UNL A   1      38.528  35.976  42.149  1.00  0.00    -0.237 OA
ATOM     92  O   UNL A   1      40.817  36.833  41.837  1.00  0.00    -0.744 OA
ENDBRANCH  88  89
ENDBRANCH  62  83
ENDBRANCH  36  37
ENDBRANCH  28  31
ENDBRANCH  26  27
ENDBRANCH  25  26
ENDBRANCH   1  25
TORSDOF 17
ENDMDL
MODEL 2
REMARK VINA RESULT:     -12.1      4.881      9.711
REMARK SMILES O=C(NCCCCCCNC(=O)c1ccc(-c2c3nc(c(-c4ccc(S(=O)(=O)[O-])cc4)c4ccc([nH]4)c(-c4ccc(S(=O)(=O)[O-])cc4)c4nc(c(-c5ccc(S(=O)(=O)[O-])cc5)c5ccc2[nH]5)C=C4)C=C3)cc1)C1=Cc2cc(Cl)c(Cl)cc2O[C@@H]1C(F)(F)F
REMARK SMILES IDX 7 1 6 2 5 3 4 4 3 5 1 6 2 7 73 9 74 10 84 11 75 12 83 13
REMARK SMILES IDX 76 14 82 15 77 16 81 17 78 18 79 19 80 20 85 21 86 22 87 23
REMARK SMILES IDX 88 24 8 25 9 26 10 27 11 28 12 30 13 31 14 32 72 33 15 34
REMARK SMILES IDX 71 35 16 36 17 37 18 38 65 39 19 40 70 41 64 42 66 43 20 44
REMARK SMILES IDX 69 45 63 46 62 47 21 49 51 50 32 51 50 52 33 53 36 54 49 55
REMARK SMILES IDX 67 56 34 57 35 58 48 60 68 61 37 62 22 63 23 64 31 65 24 66
REMARK SMILES IDX 30 67 25 68 26 69 27 70 28 71 29 72 52 73 53 74 61 75 54 76
REMARK SMILES IDX 60 77 55 78 56 79 57 80 58 81 59 82 38 83 39 84 47 85 40 86
REMARK SMILES IDX 46 87 41 88 42 89 43 90 44 91 45 92
REMARK H PARENT 3 8 10 29 66 48 36 59
REMARK Flexibility Score: inf
ROOT
ATOM      1  C   UNL A   1      31.917  28.026  24.899  1.00  0.00     0.002 C 
ENDROOT
BRANCH   1   2
ATOM      2  C   UNL A   1      31.414  27.377  23.603  1.00  0.00     0.002 C 
BRANCH   2   3
ATOM      3  C   UNL A   1      30.200  26.452  23.708  1.00  0.00     0.021 C 
BRANCH   3   4
ATOM      4  C   UNL A   1      30.412  24.985  23.331  1.00  0.00     0.116 C 
BRANCH   4   5
ATOM      5  N   UNL A   1      31.564  24.727  22.469  1.00  0.00    -0.352 N 
ATOM      6  O   UNL A   1      33.517  23.776  21.839  1.00  0.00    -0.270 OA
ATOM      7  C   UNL A   1      32.736  24.052  22.743  1.00  0.00     0.251 C 
ATOM      8  H   UNL A   1      31.494  25.090  21.555  1.00  0.00     0.163 HD
BRANCH   7   9
ATOM      9  C   UNL A   1      32.928  23.491  24.105  1.00  0.00     0.067 C 
ATOM     10  C   UNL A   1      33.223  22.211  24.380  1.00  0.00     0.025 C 
ATOM     11  C   UNL A   1      33.097  24.495  25.208  1.00  0.00     0.314 C 
ATOM     12  C   UNL A   1      34.534  22.105  25.053  1.00  0.00     0.019 A 
ATOM     13  O   UNL A   1      34.427  24.441  25.778  1.00  0.00    -0.475 OA
ATOM     14  C   UNL A   1      35.352  20.985  24.825  1.00  0.00     0.034 A 
ATOM     15  C   UNL A   1      35.094  23.246  25.655  1.00  0.00     0.129 A 
ATOM     16  C   UNL A   1      36.713  21.025  25.162  1.00  0.00     0.060 A 
ATOM     17  C   UNL A   1      36.434  23.266  26.037  1.00  0.00     0.069 A 
ATOM     18  Cl  UNL A   1      37.693  19.677  24.700  1.00  0.00    -0.083 Cl
ATOM     19  C   UNL A   1      37.253  22.167  25.767  1.00  0.00     0.063 A 
ATOM     20  Cl  UNL A   1      38.936  22.324  26.115  1.00  0.00    -0.083 Cl
BRANCH  11  21
ATOM     21  C   UNL A   1      32.016  24.304  26.298  1.00  0.00     0.429 C 
ATOM     22  F   UNL A   1      31.586  25.495  26.776  1.00  0.00    -0.167 F 
ATOM     23  F   UNL A   1      30.924  23.657  25.821  1.00  0.00    -0.167 F 
ATOM     24  F   UNL A   1      32.465  23.589  27.358  1.00  0.00    -0.167 F 
ENDBRANCH  11  21
ENDBRANCH   7   9
ENDBRANCH   4   5
ENDBRANCH   3   4
ENDBRANCH   2   3
ENDBRANCH   1   2
BRANCH   1  25
ATOM     25  C   UNL A   1      33.427  28.012  25.161  1.00  0.00     0.021 C 
BRANCH  25  26
ATOM     26  C   UNL A   1      33.883  28.215  26.606  1.00  0.00     0.116 C 
BRANCH  26  27
ATOM     27  N   UNL A   1      33.681  29.571  27.085  1.00  0.00    -0.352 N 
ATOM     28  C   UNL A   1      34.501  30.390  27.824  1.00  0.00     0.251 C 
ATOM     29  H   UNL A   1      32.814  29.968  26.839  1.00  0.00     0.163 HD
ATOM     30  O   UNL A   1      34.064  31.471  28.210  1.00  0.00    -0.269 OA
BRANCH  28  31
ATOM     31  C   UNL A   1      35.884  29.989  28.184  1.00  0.00     0.039 A 
ATOM     32  C   UNL A   1      36.879  30.091  27.204  1.00  0.00     0.014 A 
ATOM     33  C   UNL A   1      36.207  29.459  29.437  1.00  0.00     0.014 A 
ATOM     34  C   UNL A   1      38.195  29.715  27.493  1.00  0.00     0.010 A 
ATOM     35  C   UNL A   1      37.533  29.135  29.743  1.00  0.00     0.010 A 
ATOM     36  C   UNL A   1      38.541  29.256  28.773  1.00  0.00    -0.014 A 
BRANCH  36  37
ATOM     37  C   UNL A   1      39.946  28.897  29.104  1.00  0.00     0.031 A 
ATOM     38  C   UNL A   1      40.864  29.907  29.741  1.00  0.00     0.074 A 
ATOM     39  C   UNL A   1      40.414  27.671  28.795  1.00  0.00     0.049 A 
ATOM     40  N   UNL A   1      42.130  29.789  30.056  1.00  0.00    -0.248 NA
ATOM     41  C   UNL A   1      40.290  31.225  30.050  1.00  0.00     0.031 C 
ATOM     42  C   UNL A   1      39.641  26.609  28.147  1.00  0.00     0.029 A 
ATOM     43  N   UNL A   1      41.655  27.113  28.977  1.00  0.00    -0.354 N 
ATOM     44  C   UNL A   1      42.505  31.015  30.591  1.00  0.00     0.074 A 
ATOM     45  C   UNL A   1      41.346  31.878  30.516  1.00  0.00     0.031 C 
ATOM     46  C   UNL A   1      40.422  25.526  27.998  1.00  0.00     0.029 A 
ATOM     47  C   UNL A   1      41.757  25.826  28.505  1.00  0.00     0.049 A 
ATOM     48  H   UNL A   1      42.403  27.591  29.404  1.00  0.00     0.167 HD
ATOM     49  C   UNL A   1      43.700  31.388  31.111  1.00  0.00     0.031 A 
ATOM     50  C   UNL A   1      42.806  24.980  28.475  1.00  0.00     0.031 A 
ATOM     51  C   UNL A   1      44.855  30.532  31.188  1.00  0.00     0.049 A 
ATOM     52  C   UNL A   1      44.125  25.418  29.051  1.00  0.00     0.074 A 
ATOM     53  C   UNL A   1      46.100  30.812  31.726  1.00  0.00     0.029 A 
ATOM     54  N   UNL A   1      44.909  29.230  30.716  1.00  0.00    -0.354 N 
ATOM     55  N   UNL A   1      44.446  26.568  29.592  1.00  0.00    -0.248 NA
ATOM     56  C   UNL A   1      45.220  24.437  29.024  1.00  0.00     0.031 C 
ATOM     57  C   UNL A   1      46.918  29.691  31.546  1.00  0.00     0.029 A 
ATOM     58  C   UNL A   1      46.169  28.696  30.939  1.00  0.00     0.049 A 
ATOM     59  H   UNL A   1      44.162  28.753  30.287  1.00  0.00     0.167 HD
ATOM     60  C   UNL A   1      45.772  26.443  29.989  1.00  0.00     0.074 A 
ATOM     61  C   UNL A   1      46.189  25.101  29.641  1.00  0.00     0.031 C 
ATOM     62  C   UNL A   1      46.572  27.360  30.588  1.00  0.00     0.031 A 
BRANCH  49  63
ATOM     63  C   UNL A   1      43.818  32.792  31.642  1.00  0.00    -0.014 A 
ATOM     64  C   UNL A   1      43.912  33.888  30.764  1.00  0.00     0.010 A 
ATOM     65  C   UNL A   1      43.796  33.026  33.029  1.00  0.00     0.010 A 
ATOM     66  C   UNL A   1      44.024  35.189  31.264  1.00  0.00     0.020 A 
ATOM     67  C   UNL A   1      43.882  34.328  33.533  1.00  0.00     0.020 A 
ATOM     68  C   UNL A   1      44.015  35.399  32.647  1.00  0.00     0.054 A 
BRANCH  68  69
ATOM     69  S   UNL A   1      44.147  37.098  33.267  1.00  0.00     0.124 S 
ATOM     70  O   UNL A   1      42.811  37.325  33.808  1.00  0.00    -0.237 OA
ATOM     71  O   UNL A   1      45.218  37.001  34.254  1.00  0.00    -0.237 OA
ATOM     72  O   UNL A   1      44.475  37.878  32.071  1.00  0.00    -0.744 OA
ENDBRANCH  68  69
ENDBRANCH  49  63
BRANCH  50  73
ATOM     73  C   UNL A   1      42.650  23.628  27.873  1.00  0.00    -0.014 A 
ATOM     74  C   UNL A   1      42.206  22.545  28.651  1.00  0.00     0.010 A 
ATOM     75  C   UNL A   1      42.933  23.422  26.510  1.00  0.00     0.010 A 
ATOM     76  C   UNL A   1      42.066  21.276  28.082  1.00  0.00     0.020 A 
ATOM     77  C   UNL A   1      42.770  22.161  25.932  1.00  0.00     0.020 A 
ATOM     78  C   UNL A   1      42.349  21.091  26.725  1.00  0.00     0.054 A 
BRANCH  78  79
ATOM     79  S   UNL A   1      42.110  19.448  25.994  1.00  0.00     0.124 S 
ATOM     80  O   UNL A   1      42.902  19.542  24.772  1.00  0.00    -0.237 OA
ATOM     81  O   UNL A   1      42.638  18.559  27.026  1.00  0.00    -0.237 OA
ATOM     82  O   UNL A   1      40.662  19.371  25.799  1.00  0.00    -0.744 OA
ENDBRANCH  78  79
ENDBRANCH  50  73
BRANCH  62  83
ATOM     83  C   UNL A   1      47.974  26.934  30.934  1.00  0.00    -0.014 A 
ATOM     84  C   UNL A   1      49.035  27.120  30.029  1.00  0.00     0.010 A 
ATOM     85  C   UNL A   1      48.242  26.389  32.203  1.00  0.00     0.010 A 
ATOM     86  C   UNL A   1      50.333  26.740  30.378  1.00  0.00     0.020 A 
ATOM     87  C   UNL A   1      49.543  26.029  32.564  1.00  0.00     0.020 A 
ATOM     88  C   UNL A   1      50.579  26.195  31.642  1.00  0.00     0.054 A 
BRANCH  88  89
ATOM     89  S   UNL A   1      52.281  25.750  32.089  1.00  0.00     0.124 S 
ATOM     90  O   UNL A   1      52.558  26.673  33.186  1.00  0.00    -0.237 OA
ATOM     91  O   UNL A   1      52.158  24.343  32.465  1.00  0.00    -0.237 OA
ATOM     92  O   UNL A   1      53.036  25.995  30.861  1.00  0.00    -0.744 OA
ENDBRANCH  88  89
ENDBRANCH  62  83
ENDBRANCH  36  37
ENDBRANCH  28  31
ENDBRANCH  26  27
ENDBRANCH  25  26
ENDBRANCH   1  25
TORSDOF 17
ENDMDL
MODEL 3
REMARK VINA RESULT:     -12.0      7.604     12.509
REMARK SMILES O=C(NCCCCCCNC(=O)c1ccc(-c2c3nc(c(-c4ccc(S(=O)(=O)[O-])cc4)c4ccc([nH]4)c(-c4ccc(S(=O)(=O)[O-])cc4)c4nc(c(-c5ccc(S(=O)(=O)[O-])cc5)c5ccc2[nH]5)C=C4)C=C3)cc1)C1=Cc2cc(Cl)c(Cl)cc2O[C@@H]1C(F)(F)F
REMARK SMILES IDX 7 1 6 2 5 3 4 4 3 5 1 6 2 7 73 9 74 10 84 11 75 12 83 13
REMARK SMILES IDX 76 14 82 15 77 16 81 17 78 18 79 19 80 20 85 21 86 22 87 23
REMARK SMILES IDX 88 24 8 25 9 26 10 27 11 28 12 30 13 31 14 32 72 33 15 34
REMARK SMILES IDX 71 35 16 36 17 37 18 38 65 39 19 40 70 41 64 42 66 43 20 44
REMARK SMILES IDX 69 45 63 46 62 47 21 49 51 50 32 51 50 52 33 53 36 54 49 55
REMARK SMILES IDX 67 56 34 57 35 58 48 60 68 61 37 62 22 63 23 64 31 65 24 66
REMARK SMILES IDX 30 67 25 68 26 69 27 70 28 71 29 72 52 73 53 74 61 75 54 76
REMARK SMILES IDX 60 77 55 78 56 79 57 80 58 81 59 82 38 83 39 84 47 85 40 86
REMARK SMILES IDX 46 87 41 88 42 89 43 90 44 91 45 92
REMARK H PARENT 3 8 10 29 66 48 36 59
REMARK Flexibility Score: inf
ROOT
ATOM      1  C   UNL A   1      34.566  32.184  27.956  1.00  0.00     0.002 C 
ENDROOT
BRANCH   1   2
ATOM      2  C   UNL A   1      34.593  30.685  27.631  1.00  0.00     0.002 C 
BRANCH   2   3
ATOM      3  C   UNL A   1      33.391  30.110  26.879  1.00  0.00     0.021 C 
BRANCH   3   4
ATOM      4  C   UNL A   1      33.573  28.738  26.227  1.00  0.00     0.116 C 
BRANCH   4   5
ATOM      5  N   UNL A   1      33.947  28.768  24.814  1.00  0.00    -0.352 N 
ATOM      6  O   UNL A   1      33.624  28.938  22.582  1.00  0.00    -0.270 OA
ATOM      7  C   UNL A   1      33.148  28.717  23.690  1.00  0.00     0.251 C 
ATOM      8  H   UNL A   1      34.914  28.835  24.638  1.00  0.00     0.163 HD
BRANCH   7   9
ATOM      9  C   UNL A   1      31.678  28.596  23.871  1.00  0.00     0.067 C 
ATOM     10  C   UNL A   1      30.907  29.468  24.540  1.00  0.00     0.025 C 
ATOM     11  C   UNL A   1      30.991  27.593  22.991  1.00  0.00     0.314 C 
ATOM     12  C   UNL A   1      29.909  30.086  23.641  1.00  0.00     0.019 A 
ATOM     13  O   UNL A   1      30.099  28.236  22.048  1.00  0.00    -0.475 OA
ATOM     14  C   UNL A   1      29.503  31.415  23.851  1.00  0.00     0.034 A 
ATOM     15  C   UNL A   1      29.613  29.469  22.413  1.00  0.00     0.129 A 
ATOM     16  C   UNL A   1      28.844  32.120  22.834  1.00  0.00     0.060 A 
ATOM     17  C   UNL A   1      28.913  30.154  21.421  1.00  0.00     0.069 A 
ATOM     18  Cl  UNL A   1      28.525  33.799  23.099  1.00  0.00    -0.083 Cl
ATOM     19  C   UNL A   1      28.552  31.489  21.619  1.00  0.00     0.063 A 
ATOM     20  Cl  UNL A   1      27.836  32.324  20.288  1.00  0.00    -0.083 Cl
BRANCH  11  21
ATOM     21  C   UNL A   1      30.240  26.539  23.837  1.00  0.00     0.429 C 
ATOM     22  F   UNL A   1      28.921  26.833  23.927  1.00  0.00    -0.167 F 
ATOM     23  F   UNL A   1      30.327  25.299  23.296  1.00  0.00    -0.167 F 
ATOM     24  F   UNL A   1      30.715  26.450  25.102  1.00  0.00    -0.167 F 
ENDBRANCH  11  21
ENDBRANCH   7   9
ENDBRANCH   4   5
ENDBRANCH   3   4
ENDBRANCH   2   3
ENDBRANCH   1   2
BRANCH   1  25
ATOM     25  C   UNL A   1      35.912  32.901  28.118  1.00  0.00     0.021 C 
BRANCH  25  26
ATOM     26  C   UNL A   1      36.433  33.084  29.544  1.00  0.00     0.116 C 
BRANCH  26  27
ATOM     27  N   UNL A   1      35.986  32.047  30.455  1.00  0.00    -0.352 N 
ATOM     28  C   UNL A   1      36.558  30.843  30.789  1.00  0.00     0.251 C 
ATOM     29  H   UNL A   1      35.133  32.238  30.908  1.00  0.00     0.163 HD
ATOM     30  O   UNL A   1      35.932  30.070  31.510  1.00  0.00    -0.269 OA
BRANCH  28  31
ATOM     31  C   UNL A   1      37.897  30.448  30.283  1.00  0.00     0.039 A 
ATOM     32  C   UNL A   1      38.965  30.424  31.188  1.00  0.00     0.014 A 
ATOM     33  C   UNL A   1      38.133  30.166  28.935  1.00  0.00     0.014 A 
ATOM     34  C   UNL A   1      40.248  30.069  30.756  1.00  0.00     0.010 A 
ATOM     35  C   UNL A   1      39.403  29.757  28.514  1.00  0.00     0.010 A 
ATOM     36  C   UNL A   1      40.475  29.708  29.419  1.00  0.00    -0.014 A 
BRANCH  36  37
ATOM     37  C   UNL A   1      41.825  29.285  28.960  1.00  0.00     0.031 A 
ATOM     38  C   UNL A   1      42.947  30.285  28.856  1.00  0.00     0.074 A 
ATOM     39  C   UNL A   1      42.036  28.004  28.594  1.00  0.00     0.049 A 
ATOM     40  N   UNL A   1      44.174  30.108  28.432  1.00  0.00    -0.248 NA
ATOM     41  C   UNL A   1      42.649  31.664  29.269  1.00  0.00     0.031 C 
ATOM     42  C   UNL A   1      41.029  26.942  28.615  1.00  0.00     0.029 A 
ATOM     43  N   UNL A   1      43.166  27.380  28.126  1.00  0.00    -0.354 N 
ATOM     44  C   UNL A   1      44.789  31.351  28.517  1.00  0.00     0.074 A 
ATOM     45  C   UNL A   1      43.789  32.283  28.992  1.00  0.00     0.031 C 
ATOM     46  C   UNL A   1      41.589  25.797  28.191  1.00  0.00     0.029 A 
ATOM     47  C   UNL A   1      42.982  26.049  27.836  1.00  0.00     0.049 A 
ATOM     48  H   UNL A   1      44.027  27.843  28.008  1.00  0.00     0.167 HD
ATOM     49  C   UNL A   1      46.073  31.687  28.242  1.00  0.00     0.031 A 
ATOM     50  C   UNL A   1      43.833  25.132  27.333  1.00  0.00     0.031 A 
ATOM     51  C   UNL A   1      47.071  30.763  27.771  1.00  0.00     0.049 A 
ATOM     52  C   UNL A   1      45.251  25.530  27.027  1.00  0.00     0.074 A 
ATOM     53  C   UNL A   1      48.406  31.006  27.494  1.00  0.00     0.029 A 
ATOM     54  N   UNL A   1      46.847  29.421  27.509  1.00  0.00    -0.354 N 
ATOM     55  N   UNL A   1      45.824  26.701  27.158  1.00  0.00    -0.248 NA
ATOM     56  C   UNL A   1      46.141  24.476  26.518  1.00  0.00     0.031 C 
ATOM     57  C   UNL A   1      48.980  29.817  27.028  1.00  0.00     0.029 A 
ATOM     58  C   UNL A   1      48.015  28.823  27.061  1.00  0.00     0.049 A 
ATOM     59  H   UNL A   1      45.985  28.958  27.624  1.00  0.00     0.167 HD
ATOM     60  C   UNL A   1      47.147  26.522  26.768  1.00  0.00     0.074 A 
ATOM     61  C   UNL A   1      47.293  25.126  26.413  1.00  0.00     0.031 C 
ATOM     62  C   UNL A   1      48.148  27.434  26.710  1.00  0.00     0.031 A 
BRANCH  49  63
ATOM     63  C   UNL A   1      46.472  33.125  28.446  1.00  0.00    -0.014 A 
ATOM     64  C   UNL A   1      46.901  33.582  29.706  1.00  0.00     0.010 A 
ATOM     65  C   UNL A   1      46.458  34.020  27.362  1.00  0.00     0.010 A 
ATOM     66  C   UNL A   1      47.268  34.918  29.887  1.00  0.00     0.020 A 
ATOM     67  C   UNL A   1      46.848  35.353  27.533  1.00  0.00     0.020 A 
ATOM     68  C   UNL A   1      47.232  35.797  28.800  1.00  0.00     0.054 A 
BRANCH  68  69
ATOM     69  S   UNL A   1      47.727  37.522  29.062  1.00  0.00     0.124 S 
ATOM     70  O   UNL A   1      48.921  37.622  28.227  1.00  0.00    -0.237 OA
ATOM     71  O   UNL A   1      46.565  38.268  28.590  1.00  0.00    -0.237 OA
ATOM     72  O   UNL A   1      47.968  37.597  30.505  1.00  0.00    -0.744 OA
ENDBRANCH  68  69
ENDBRANCH  49  63
BRANCH  50  73
ATOM     73  C   UNL A   1      43.362  23.742  27.086  1.00  0.00    -0.014 A 
ATOM     74  C   UNL A   1      43.199  22.841  28.152  1.00  0.00     0.010 A 
ATOM     75  C   UNL A   1      43.061  23.318  25.778  1.00  0.00     0.010 A 
ATOM     76  C   UNL A   1      42.761  21.535  27.914  1.00  0.00     0.020 A 
ATOM     77  C   UNL A   1      42.599  22.022  25.540  1.00  0.00     0.020 A 
ATOM     78  C   UNL A   1      42.464  21.133  26.608  1.00  0.00     0.054 A 
BRANCH  78  79
ATOM     79  S   UNL A   1      41.846  19.450  26.327  1.00  0.00     0.124 S 
ATOM     80  O   UNL A   1      40.412  19.675  26.178  1.00  0.00    -0.237 OA
ATOM     81  O   UNL A   1      42.555  19.049  25.115  1.00  0.00    -0.237 OA
ATOM     82  O   UNL A   1      42.247  18.735  27.538  1.00  0.00    -0.744 OA
ENDBRANCH  78  79
ENDBRANCH  50  73
BRANCH  62  83
ATOM     83  C   UNL A   1      49.504  26.945  26.273  1.00  0.00    -0.014 A 
ATOM     84  C   UNL A   1      50.314  26.182  27.132  1.00  0.00     0.010 A 
ATOM     85  C   UNL A   1      49.949  27.210  24.965  1.00  0.00     0.010 A 
ATOM     86  C   UNL A   1      51.559  25.717  26.700  1.00  0.00     0.020 A 
ATOM     87  C   UNL A   1      51.183  26.727  24.521  1.00  0.00     0.020 A 
ATOM     88  C   UNL A   1      51.987  25.994  25.398  1.00  0.00     0.054 A 
BRANCH  88  89
ATOM     89  S   UNL A   1      53.587  25.343  24.844  1.00  0.00     0.124 S 
ATOM     90  O   UNL A   1      54.517  26.013  25.748  1.00  0.00    -0.237 OA
ATOM     91  O   UNL A   1      53.437  23.904  25.048  1.00  0.00    -0.237 OA
ATOM     92  O   UNL A   1      53.666  25.761  23.445  1.00  0.00    -0.744 OA
ENDBRANCH  88  89
ENDBRANCH  62  83
ENDBRANCH  36  37
ENDBRANCH  28  31
ENDBRANCH  26  27
ENDBRANCH  25  26
ENDBRANCH   1  25
TORSDOF 17
ENDMDL
