MODEL 1
REMARK VINA RESULT:     -10.2      0.000      0.000
REMARK SMILES Cc1cc(NCc2ccco2)cc(C(=O)NCCCCCCNC(=O)c2ccc(-c3c4nc(c(-c5ccc(S(=O)(=O)[O-])cc5)c5ccc([nH]5)c(-c5ccc(S(=O)(=O)[O-])cc5)c5nc(c(-c6ccc(S(=O)(=O)[O-])cc6)c6ccc3[nH]6)C=C5)C=C4)cc2)c1N
REMARK SMILES IDX 19 1 18 2 17 3 16 4 14 5 15 6 13 8 1 9 2 10 3 11 86 12 4 13
REMARK SMILES IDX 12 14 87 15 5 18 6 20 7 21 8 22 11 23 9 24 10 25 20 26 21 27
REMARK SMILES IDX 22 28 23 29 24 30 25 32 26 33 27 34 85 35 28 36 84 37 29 38
REMARK SMILES IDX 30 39 31 40 78 41 32 42 83 43 77 44 79 45 33 46 82 47 76 48
REMARK SMILES IDX 75 49 34 51 64 52 45 53 63 54 46 55 49 56 62 57 80 58 47 59
REMARK SMILES IDX 48 60 61 62 81 63 50 64 35 65 36 66 44 67 37 68 43 69 38 70
REMARK SMILES IDX 39 71 40 72 41 73 42 74 65 75 66 76 74 77 67 78 73 79 68 80
REMARK SMILES IDX 69 81 70 82 71 83 72 84 51 85 52 86 60 87 53 88 59 89 54 90
REMARK SMILES IDX 55 91 56 92 57 93 58 94
REMARK H PARENT 16 7 87 16 87 17 5 19 23 31 79 50 49 61
REMARK Flexibility Score: inf
ROOT
ATOM      1  C   UNL A   1      30.839  27.515  24.234  1.00  0.00     0.002 C 
ENDROOT
BRANCH   1   2
ATOM      2  C   UNL A   1      30.943  26.030  24.610  1.00  0.00     0.021 C 
BRANCH   2   3
ATOM      3  C   UNL A   1      30.462  25.101  23.490  1.00  0.00     0.116 C 
BRANCH   3   4
ATOM      4  N   UNL A   1      31.427  25.114  22.408  1.00  0.00    -0.352 N 
ATOM      5  C   UNL A   1      32.660  24.540  22.230  1.00  0.00     0.253 C 
ATOM      6  O   UNL A   1      33.259  24.865  21.200  1.00  0.00    -0.269 OA
ATOM      7  H   UNL A   1      31.134  25.649  21.634  1.00  0.00     0.163 HD
BRANCH   5   8
ATOM      8  C   UNL A   1      33.265  23.530  23.166  1.00  0.00     0.065 A 
ATOM      9  C   UNL A   1      32.914  19.817  24.029  1.00  0.00     0.046 C 
ATOM     10  C   UNL A   1      33.327  21.264  24.049  1.00  0.00    -0.025 A 
ATOM     11  C   UNL A   1      34.258  21.692  25.014  1.00  0.00     0.031 A 
ATOM     12  C   UNL A   1      32.809  22.189  23.122  1.00  0.00     0.047 A 
ATOM     13  C   UNL A   1      34.734  23.005  25.060  1.00  0.00     0.036 A 
ATOM     14  C   UNL A   1      34.299  23.868  24.055  1.00  0.00     0.041 A 
BRANCH  12  15
ATOM     15  N   UNL A   1      31.760  21.799  22.279  1.00  0.00    -0.398 N 
ATOM     16  H   UNL A   1      30.830  21.843  22.598  1.00  0.00     0.156 HD
ATOM     17  H   UNL A   1      31.954  21.481  21.367  1.00  0.00     0.156 HD
ENDBRANCH  12  15
BRANCH  13  18
ATOM     18  N   UNL A   1      35.649  23.355  26.033  1.00  0.00    -0.378 N 
ATOM     19  H   UNL A   1      35.386  23.190  26.967  1.00  0.00     0.161 HD
BRANCH  18  20
ATOM     20  C   UNL A   1      36.968  23.942  25.818  1.00  0.00     0.188 C 
BRANCH  20  21
ATOM     21  C   UNL A   1      38.125  23.038  26.086  1.00  0.00     0.122 A 
ATOM     22  C   UNL A   1      39.356  23.219  26.686  1.00  0.00     0.047 A 
ATOM     23  O   UNL A   1      38.033  21.764  25.598  1.00  0.00    -0.467 OA
ATOM     24  C   UNL A   1      40.061  21.999  26.536  1.00  0.00     0.042 A 
ATOM     25  C   UNL A   1      39.211  21.146  25.870  1.00  0.00     0.195 A 
ENDBRANCH  20  21
ENDBRANCH  18  20
ENDBRANCH  13  18
ENDBRANCH   5   8
ENDBRANCH   3   4
ENDBRANCH   2   3
ENDBRANCH   1   2
BRANCH   1  26
ATOM     26  C   UNL A   1      31.919  28.404  24.863  1.00  0.00     0.002 C 
BRANCH  26  27
ATOM     27  C   UNL A   1      33.282  27.728  25.038  1.00  0.00     0.021 C 
BRANCH  27  28
ATOM     28  C   UNL A   1      34.076  28.237  26.236  1.00  0.00     0.116 C 
BRANCH  28  29
ATOM     29  N   UNL A   1      33.848  29.657  26.456  1.00  0.00    -0.352 N 
ATOM     30  C   UNL A   1      34.485  30.512  27.321  1.00  0.00     0.251 C 
ATOM     31  H   UNL A   1      33.136  30.062  25.909  1.00  0.00     0.163 HD
ATOM     32  O   UNL A   1      33.997  31.609  27.572  1.00  0.00    -0.269 OA
BRANCH  30  33
ATOM     33  C   UNL A   1      35.756  30.099  27.950  1.00  0.00     0.039 A 
ATOM     34  C   UNL A   1      36.952  30.289  27.255  1.00  0.00     0.014 A 
ATOM     35  C   UNL A   1      35.763  29.512  29.219  1.00  0.00     0.014 A 
ATOM     36  C   UNL A   1      38.162  29.935  27.856  1.00  0.00     0.010 A 
ATOM     37  C   UNL A   1      36.972  29.228  29.844  1.00  0.00     0.010 A 
ATOM     38  C   UNL A   1      38.185  29.428  29.166  1.00  0.00    -0.014 A 
BRANCH  38  39
ATOM     39  C   UNL A   1      39.464  29.098  29.842  1.00  0.00     0.031 A 
ATOM     40  C   UNL A   1      39.935  29.922  31.012  1.00  0.00     0.074 A 
ATOM     41  C   UNL A   1      40.229  28.097  29.366  1.00  0.00     0.049 A 
ATOM     42  N   UNL A   1      41.048  29.825  31.692  1.00  0.00    -0.248 NA
ATOM     43  C   UNL A   1      39.051  31.011  31.461  1.00  0.00     0.031 C 
ATOM     44  C   UNL A   1      39.900  27.252  28.214  1.00  0.00     0.029 A 
ATOM     45  N   UNL A   1      41.446  27.621  29.786  1.00  0.00    -0.354 N 
ATOM     46  C   UNL A   1      41.007  30.846  32.634  1.00  0.00     0.074 A 
ATOM     47  C   UNL A   1      39.781  31.581  32.409  1.00  0.00     0.031 C 
ATOM     48  C   UNL A   1      40.877  26.348  28.038  1.00  0.00     0.029 A 
ATOM     49  C   UNL A   1      41.922  26.575  29.031  1.00  0.00     0.049 A 
ATOM     50  H   UNL A   1      41.934  27.996  30.555  1.00  0.00     0.167 HD
ATOM     51  C   UNL A   1      41.898  31.134  33.612  1.00  0.00     0.031 A 
ATOM     52  C   UNL A   1      43.072  25.880  29.122  1.00  0.00     0.031 A 
ATOM     53  C   UNL A   1      43.108  30.389  33.842  1.00  0.00     0.049 A 
ATOM     54  C   UNL A   1      44.052  26.227  30.211  1.00  0.00     0.074 A 
ATOM     55  C   UNL A   1      44.048  30.565  34.843  1.00  0.00     0.029 A 
ATOM     56  N   UNL A   1      43.546  29.329  33.064  1.00  0.00    -0.354 N 
ATOM     57  N   UNL A   1      43.961  27.155  31.135  1.00  0.00    -0.248 NA
ATOM     58  C   UNL A   1      45.281  25.426  30.278  1.00  0.00     0.031 C 
ATOM     59  C   UNL A   1      45.082  29.649  34.635  1.00  0.00     0.029 A 
ATOM     60  C   UNL A   1      44.756  28.857  33.545  1.00  0.00     0.049 A 
ATOM     61  H   UNL A   1      43.069  28.964  32.283  1.00  0.00     0.167 HD
ATOM     62  C   UNL A   1      45.107  27.027  31.911  1.00  0.00     0.074 A 
ATOM     63  C   UNL A   1      45.867  25.924  31.358  1.00  0.00     0.031 C 
ATOM     64  C   UNL A   1      45.496  27.756  32.987  1.00  0.00     0.031 A 
BRANCH  51  65
ATOM     65  C   UNL A   1      41.602  32.306  34.510  1.00  0.00    -0.014 A 
ATOM     66  C   UNL A   1      42.065  33.598  34.198  1.00  0.00     0.010 A 
ATOM     67  C   UNL A   1      40.796  32.127  35.650  1.00  0.00     0.010 A 
ATOM     68  C   UNL A   1      41.754  34.680  35.024  1.00  0.00     0.020 A 
ATOM     69  C   UNL A   1      40.459  33.212  36.463  1.00  0.00     0.020 A 
ATOM     70  C   UNL A   1      40.952  34.481  36.152  1.00  0.00     0.054 A 
BRANCH  70  71
ATOM     71  S   UNL A   1      40.531  35.913  37.182  1.00  0.00     0.124 S 
ATOM     72  O   UNL A   1      41.851  36.430  37.532  1.00  0.00    -0.237 OA
ATOM     73  O   UNL A   1      39.753  36.746  36.268  1.00  0.00    -0.237 OA
ATOM     74  O   UNL A   1      39.774  35.334  38.290  1.00  0.00    -0.744 OA
ENDBRANCH  70  71
ENDBRANCH  51  65
BRANCH  52  75
ATOM     75  C   UNL A   1      43.361  24.783  28.159  1.00  0.00    -0.014 A 
ATOM     76  C   UNL A   1      43.931  25.062  26.904  1.00  0.00     0.010 A 
ATOM     77  C   UNL A   1      43.062  23.448  28.490  1.00  0.00     0.010 A 
ATOM     78  C   UNL A   1      44.170  24.032  25.988  1.00  0.00     0.020 A 
ATOM     79  C   UNL A   1      43.329  22.412  27.591  1.00  0.00     0.020 A 
ATOM     80  C   UNL A   1      43.866  22.714  26.338  1.00  0.00     0.054 A 
BRANCH  80  81
ATOM     81  S   UNL A   1      44.215  21.388  25.149  1.00  0.00     0.124 S 
ATOM     82  O   UNL A   1      43.124  20.455  25.408  1.00  0.00    -0.237 OA
ATOM     83  O   UNL A   1      44.160  22.091  23.870  1.00  0.00    -0.237 OA
ATOM     84  O   UNL A   1      45.544  20.923  25.539  1.00  0.00    -0.744 OA
ENDBRANCH  80  81
ENDBRANCH  52  75
BRANCH  64  85
ATOM     85  C   UNL A   1      46.781  27.361  33.666  1.00  0.00    -0.014 A 
ATOM     86  C   UNL A   1      47.999  27.988  33.351  1.00  0.00     0.010 A 
ATOM     87  C   UNL A   1      46.754  26.385  34.679  1.00  0.00     0.010 A 
ATOM     88  C   UNL A   1      49.173  27.622  34.014  1.00  0.00     0.020 A 
ATOM     89  C   UNL A   1      47.920  26.039  35.366  1.00  0.00     0.020 A 
ATOM     90  C   UNL A   1      49.126  26.650  35.018  1.00  0.00     0.054 A 
BRANCH  90  91
ATOM     91  S   UNL A   1      50.655  26.226  35.895  1.00  0.00     0.124 S 
ATOM     92  O   UNL A   1      50.144  25.629  37.126  1.00  0.00    -0.237 OA
ATOM     93  O   UNL A   1      51.308  25.301  34.971  1.00  0.00    -0.237 OA
ATOM     94  O   UNL A   1      51.330  27.512  36.059  1.00  0.00    -0.744 OA
ENDBRANCH  90  91
ENDBRANCH  64  85
ENDBRANCH  38  39
ENDBRANCH  30  33
ENDBRANCH  28  29
ENDBRANCH  27  28
ENDBRANCH  26  27
ENDBRANCH   1  26
TORSDOF 20
ENDMDL
MODEL 2
REMARK VINA RESULT:     -10.2      4.812      6.329
REMARK SMILES Cc1cc(NCc2ccco2)cc(C(=O)NCCCCCCNC(=O)c2ccc(-c3c4nc(c(-c5ccc(S(=O)(=O)[O-])cc5)c5ccc([nH]5)c(-c5ccc(S(=O)(=O)[O-])cc5)c5nc(c(-c6ccc(S(=O)(=O)[O-])cc6)c6ccc3[nH]6)C=C5)C=C4)cc2)c1N
REMARK SMILES IDX 19 1 18 2 17 3 16 4 14 5 15 6 13 8 1 9 2 10 3 11 86 12 4 13
REMARK SMILES IDX 12 14 87 15 5 18 6 20 7 21 8 22 11 23 9 24 10 25 20 26 21 27
REMARK SMILES IDX 22 28 23 29 24 30 25 32 26 33 27 34 85 35 28 36 84 37 29 38
REMARK SMILES IDX 30 39 31 40 78 41 32 42 83 43 77 44 79 45 33 46 82 47 76 48
REMARK SMILES IDX 75 49 34 51 64 52 45 53 63 54 46 55 49 56 62 57 80 58 47 59
REMARK SMILES IDX 48 60 61 62 81 63 50 64 35 65 36 66 44 67 37 68 43 69 38 70
REMARK SMILES IDX 39 71 40 72 41 73 42 74 65 75 66 76 74 77 67 78 73 79 68 80
REMARK SMILES IDX 69 81 70 82 71 83 72 84 51 85 52 86 60 87 53 88 59 89 54 90
REMARK SMILES IDX 55 91 56 92 57 93 58 94
REMARK H PARENT 16 7 87 16 87 17 5 19 23 31 79 50 49 61
REMARK Flexibility Score: inf
ROOT
ATOM      1  C   UNL A   1      31.699  29.148  26.668  1.00  0.00     0.002 C 
ENDROOT
BRANCH   1   2
ATOM      2  C   UNL A   1      31.700  27.700  27.180  1.00  0.00     0.021 C 
BRANCH   2   3
ATOM      3  C   UNL A   1      31.204  26.701  26.130  1.00  0.00     0.116 C 
BRANCH   3   4
ATOM      4  N   UNL A   1      30.815  25.468  26.787  1.00  0.00    -0.352 N 
ATOM      5  C   UNL A   1      30.959  24.140  26.471  1.00  0.00     0.253 C 
ATOM      6  O   UNL A   1      30.394  23.345  27.230  1.00  0.00    -0.269 OA
ATOM      7  H   UNL A   1      30.349  25.615  27.642  1.00  0.00     0.163 HD
BRANCH   5   8
ATOM      8  C   UNL A   1      31.787  23.628  25.326  1.00  0.00     0.065 A 
ATOM      9  C   UNL A   1      34.688  21.207  24.713  1.00  0.00     0.046 C 
ATOM     10  C   UNL A   1      33.621  22.249  24.516  1.00  0.00    -0.025 A 
ATOM     11  C   UNL A   1      33.440  22.804  23.236  1.00  0.00     0.031 A 
ATOM     12  C   UNL A   1      32.801  22.671  25.581  1.00  0.00     0.047 A 
ATOM     13  C   UNL A   1      32.433  23.733  22.961  1.00  0.00     0.036 A 
ATOM     14  C   UNL A   1      31.558  24.039  24.002  1.00  0.00     0.041 A 
BRANCH  12  15
ATOM     15  N   UNL A   1      33.096  22.246  26.883  1.00  0.00    -0.398 N 
ATOM     16  H   UNL A   1      32.378  22.177  27.553  1.00  0.00     0.156 HD
ATOM     17  H   UNL A   1      34.022  22.017  27.128  1.00  0.00     0.156 HD
ENDBRANCH  12  15
BRANCH  13  18
ATOM     18  N   UNL A   1      32.312  24.234  21.680  1.00  0.00    -0.378 N 
ATOM     19  H   UNL A   1      31.799  23.690  21.039  1.00  0.00     0.161 HD
BRANCH  18  20
ATOM     20  C   UNL A   1      32.865  25.488  21.179  1.00  0.00     0.188 C 
BRANCH  20  21
ATOM     21  C   UNL A   1      32.382  26.723  21.865  1.00  0.00     0.122 A 
ATOM     22  C   UNL A   1      33.000  27.687  22.637  1.00  0.00     0.047 A 
ATOM     23  O   UNL A   1      31.038  26.968  21.809  1.00  0.00    -0.467 OA
ATOM     24  C   UNL A   1      31.977  28.553  23.095  1.00  0.00     0.042 A 
ATOM     25  C   UNL A   1      30.803  28.075  22.561  1.00  0.00     0.195 A 
ENDBRANCH  20  21
ENDBRANCH  18  20
ENDBRANCH  13  18
ENDBRANCH   5   8
ENDBRANCH   3   4
ENDBRANCH   2   3
ENDBRANCH   1   2
BRANCH   1  26
ATOM     26  C   UNL A   1      32.875  29.997  27.168  1.00  0.00     0.002 C 
BRANCH  26  27
ATOM     27  C   UNL A   1      34.228  29.648  26.540  1.00  0.00     0.021 C 
BRANCH  27  28
ATOM     28  C   UNL A   1      35.262  29.145  27.541  1.00  0.00     0.116 C 
BRANCH  28  29
ATOM     29  N   UNL A   1      35.281  29.967  28.740  1.00  0.00    -0.352 N 
ATOM     30  C   UNL A   1      36.287  30.135  29.658  1.00  0.00     0.251 C 
ATOM     31  H   UNL A   1      34.456  30.474  28.919  1.00  0.00     0.163 HD
ATOM     32  O   UNL A   1      36.048  30.652  30.745  1.00  0.00    -0.269 OA
BRANCH  30  33
ATOM     33  C   UNL A   1      37.655  29.685  29.332  1.00  0.00     0.039 A 
ATOM     34  C   UNL A   1      38.084  29.717  28.003  1.00  0.00     0.014 A 
ATOM     35  C   UNL A   1      38.508  29.218  30.338  1.00  0.00     0.014 A 
ATOM     36  C   UNL A   1      39.388  29.327  27.690  1.00  0.00     0.010 A 
ATOM     37  C   UNL A   1      39.827  28.900  30.034  1.00  0.00     0.010 A 
ATOM     38  C   UNL A   1      40.279  28.942  28.706  1.00  0.00    -0.014 A 
BRANCH  38  39
ATOM     39  C   UNL A   1      41.684  28.577  28.400  1.00  0.00     0.031 A 
ATOM     40  C   UNL A   1      42.755  29.637  28.392  1.00  0.00     0.074 A 
ATOM     41  C   UNL A   1      41.985  27.306  28.070  1.00  0.00     0.049 A 
ATOM     42  N   UNL A   1      44.023  29.522  28.092  1.00  0.00    -0.248 NA
ATOM     43  C   UNL A   1      42.343  31.006  28.745  1.00  0.00     0.031 C 
ATOM     44  C   UNL A   1      41.028  26.199  28.003  1.00  0.00     0.029 A 
ATOM     45  N   UNL A   1      43.181  26.730  27.722  1.00  0.00    -0.354 N 
ATOM     46  C   UNL A   1      44.555  30.802  28.202  1.00  0.00     0.074 A 
ATOM     47  C   UNL A   1      43.464  31.686  28.550  1.00  0.00     0.031 C 
ATOM     48  C   UNL A   1      41.678  25.074  27.663  1.00  0.00     0.029 A 
ATOM     49  C   UNL A   1      43.087  25.386  27.443  1.00  0.00     0.049 A 
ATOM     50  H   UNL A   1      44.027  27.232  27.674  1.00  0.00     0.167 HD
ATOM     51  C   UNL A   1      45.839  31.202  28.047  1.00  0.00     0.031 A 
ATOM     52  C   UNL A   1      44.026  24.505  27.048  1.00  0.00     0.031 A 
ATOM     53  C   UNL A   1      46.924  30.316  27.716  1.00  0.00     0.049 A 
ATOM     54  C   UNL A   1      45.445  24.978  26.872  1.00  0.00     0.074 A 
ATOM     55  C   UNL A   1      48.270  30.614  27.594  1.00  0.00     0.029 A 
ATOM     56  N   UNL A   1      46.789  28.962  27.455  1.00  0.00    -0.354 N 
ATOM     57  N   UNL A   1      45.939  26.181  27.047  1.00  0.00    -0.248 NA
ATOM     58  C   UNL A   1      46.433  23.973  26.458  1.00  0.00     0.031 C 
ATOM     59  C   UNL A   1      48.940  29.452  27.203  1.00  0.00     0.029 A 
ATOM     60  C   UNL A   1      48.023  28.414  27.146  1.00  0.00     0.049 A 
ATOM     61  H   UNL A   1      45.941  28.461  27.484  1.00  0.00     0.167 HD
ATOM     62  C   UNL A   1      47.302  26.069  26.795  1.00  0.00     0.074 A 
ATOM     63  C   UNL A   1      47.555  24.680  26.471  1.00  0.00     0.031 C 
ATOM     64  C   UNL A   1      48.259  27.029  26.830  1.00  0.00     0.031 A 
BRANCH  51  65
ATOM     65  C   UNL A   1      46.147  32.666  28.232  1.00  0.00    -0.014 A 
ATOM     66  C   UNL A   1      46.537  33.175  29.484  1.00  0.00     0.010 A 
ATOM     67  C   UNL A   1      46.106  33.533  27.124  1.00  0.00     0.010 A 
ATOM     68  C   UNL A   1      46.850  34.528  29.632  1.00  0.00     0.020 A 
ATOM     69  C   UNL A   1      46.447  34.882  27.262  1.00  0.00     0.020 A 
ATOM     70  C   UNL A   1      46.803  35.374  28.519  1.00  0.00     0.054 A 
BRANCH  70  71
ATOM     71  S   UNL A   1      47.256  37.117  28.733  1.00  0.00     0.124 S 
ATOM     72  O   UNL A   1      48.586  37.011  29.327  1.00  0.00    -0.237 OA
ATOM     73  O   UNL A   1      47.220  37.626  27.364  1.00  0.00    -0.237 OA
ATOM     74  O   UNL A   1      46.218  37.640  29.618  1.00  0.00    -0.744 OA
ENDBRANCH  70  71
ENDBRANCH  51  65
BRANCH  52  75
ATOM     75  C   UNL A   1      43.660  23.085  26.794  1.00  0.00    -0.014 A 
ATOM     76  C   UNL A   1      43.979  22.469  25.571  1.00  0.00     0.010 A 
ATOM     77  C   UNL A   1      42.982  22.339  27.777  1.00  0.00     0.010 A 
ATOM     78  C   UNL A   1      43.603  21.145  25.324  1.00  0.00     0.020 A 
ATOM     79  C   UNL A   1      42.633  21.006  27.547  1.00  0.00     0.020 A 
ATOM     80  C   UNL A   1      42.931  20.423  26.314  1.00  0.00     0.054 A 
BRANCH  80  81
ATOM     81  S   UNL A   1      42.482  18.695  25.987  1.00  0.00     0.124 S 
ATOM     82  O   UNL A   1      41.058  18.805  25.686  1.00  0.00    -0.237 OA
ATOM     83  O   UNL A   1      43.345  18.354  24.859  1.00  0.00    -0.237 OA
ATOM     84  O   UNL A   1      42.809  18.016  27.238  1.00  0.00    -0.744 OA
ENDBRANCH  80  81
ENDBRANCH  52  75
BRANCH  64  85
ATOM     85  C   UNL A   1      49.678  26.607  26.552  1.00  0.00    -0.014 A 
ATOM     86  C   UNL A   1      50.542  26.217  27.590  1.00  0.00     0.010 A 
ATOM     87  C   UNL A   1      50.131  26.546  25.222  1.00  0.00     0.010 A 
ATOM     88  C   UNL A   1      51.846  25.805  27.304  1.00  0.00     0.020 A 
ATOM     89  C   UNL A   1      51.423  26.105  24.929  1.00  0.00     0.020 A 
ATOM     90  C   UNL A   1      52.278  25.750  25.974  1.00  0.00     0.054 A 
BRANCH  90  91
ATOM     91  S   UNL A   1      53.960  25.168  25.627  1.00  0.00     0.124 S 
ATOM     92  O   UNL A   1      53.708  23.896  24.955  1.00  0.00    -0.237 OA
ATOM     93  O   UNL A   1      54.497  26.230  24.780  1.00  0.00    -0.237 OA
ATOM     94  O   UNL A   1      54.572  25.065  26.950  1.00  0.00    -0.744 OA
ENDBRANCH  90  91
ENDBRANCH  64  85
ENDBRANCH  38  39
ENDBRANCH  30  33
ENDBRANCH  28  29
ENDBRANCH  27  28
ENDBRANCH  26  27
ENDBRANCH   1  26
TORSDOF 20
ENDMDL
MODEL 3
REMARK VINA RESULT:     -10.0      5.059      8.303
REMARK SMILES Cc1cc(NCc2ccco2)cc(C(=O)NCCCCCCNC(=O)c2ccc(-c3c4nc(c(-c5ccc(S(=O)(=O)[O-])cc5)c5ccc([nH]5)c(-c5ccc(S(=O)(=O)[O-])cc5)c5nc(c(-c6ccc(S(=O)(=O)[O-])cc6)c6ccc3[nH]6)C=C5)C=C4)cc2)c1N
REMARK SMILES IDX 19 1 18 2 17 3 16 4 14 5 15 6 13 8 1 9 2 10 3 11 86 12 4 13
REMARK SMILES IDX 12 14 87 15 5 18 6 20 7 21 8 22 11 23 9 24 10 25 20 26 21 27
REMARK SMILES IDX 22 28 23 29 24 30 25 32 26 33 27 34 85 35 28 36 84 37 29 38
REMARK SMILES IDX 30 39 31 40 78 41 32 42 83 43 77 44 79 45 33 46 82 47 76 48
REMARK SMILES IDX 75 49 34 51 64 52 45 53 63 54 46 55 49 56 62 57 80 58 47 59
REMARK SMILES IDX 48 60 61 62 81 63 50 64 35 65 36 66 44 67 37 68 43 69 38 70
REMARK SMILES IDX 39 71 40 72 41 73 42 74 65 75 66 76 74 77 67 78 73 79 68 80
REMARK SMILES IDX 69 81 70 82 71 83 72 84 51 85 52 86 60 87 53 88 59 89 54 90
REMARK SMILES IDX 55 91 56 92 57 93 58 94
REMARK H PARENT 16 7 87 16 87 17 5 19 23 31 79 50 49 61
REMARK Flexibility Score: inf
ROOT
ATOM      1  C   UNL A   1      37.518  22.144  25.697  1.00  0.00     0.002 C 
ENDROOT
BRANCH   1   2
ATOM      2  C   UNL A   1      36.963  23.396  25.003  1.00  0.00     0.021 C 
BRANCH   2   3
ATOM      3  C   UNL A   1      35.869  24.090  25.822  1.00  0.00     0.116 C 
BRANCH   3   4
ATOM      4  N   UNL A   1      35.285  23.138  26.747  1.00  0.00    -0.352 N 
ATOM      5  C   UNL A   1      34.229  22.265  26.669  1.00  0.00     0.253 C 
ATOM      6  O   UNL A   1      33.945  21.673  27.715  1.00  0.00    -0.269 OA
ATOM      7  H   UNL A   1      35.745  23.113  27.618  1.00  0.00     0.163 HD
BRANCH   5   8
ATOM      8  C   UNL A   1      33.473  21.964  25.405  1.00  0.00     0.065 A 
ATOM      9  C   UNL A   1      32.358  18.928  23.358  1.00  0.00     0.046 C 
ATOM     10  C   UNL A   1      32.632  20.339  23.801  1.00  0.00    -0.025 A 
ATOM     11  C   UNL A   1      32.224  21.403  22.975  1.00  0.00     0.031 A 
ATOM     12  C   UNL A   1      33.277  20.613  25.022  1.00  0.00     0.047 A 
ATOM     13  C   UNL A   1      32.391  22.740  23.344  1.00  0.00     0.036 A 
ATOM     14  C   UNL A   1      32.919  22.982  24.611  1.00  0.00     0.041 A 
BRANCH  12  15
ATOM     15  N   UNL A   1      33.832  19.556  25.757  1.00  0.00    -0.398 N 
ATOM     16  H   UNL A   1      34.681  19.684  26.238  1.00  0.00     0.156 HD
ATOM     17  H   UNL A   1      33.373  18.686  25.790  1.00  0.00     0.156 HD
ENDBRANCH  12  15
BRANCH  13  18
ATOM     18  N   UNL A   1      31.965  23.733  22.484  1.00  0.00    -0.378 N 
ATOM     19  H   UNL A   1      30.993  23.869  22.412  1.00  0.00     0.161 HD
BRANCH  18  20
ATOM     20  C   UNL A   1      32.809  24.604  21.672  1.00  0.00     0.188 C 
BRANCH  20  21
ATOM     21  C   UNL A   1      33.118  25.937  22.268  1.00  0.00     0.122 A 
ATOM     22  C   UNL A   1      32.775  26.553  23.456  1.00  0.00     0.047 A 
ATOM     23  O   UNL A   1      33.836  26.804  21.490  1.00  0.00    -0.467 OA
ATOM     24  C   UNL A   1      33.290  27.871  23.390  1.00  0.00     0.042 A 
ATOM     25  C   UNL A   1      33.929  27.972  22.176  1.00  0.00     0.195 A 
ENDBRANCH  20  21
ENDBRANCH  18  20
ENDBRANCH  13  18
ENDBRANCH   5   8
ENDBRANCH   3   4
ENDBRANCH   2   3
ENDBRANCH   1   2
BRANCH   1  26
ATOM     26  C   UNL A   1      37.292  20.838  24.923  1.00  0.00     0.002 C 
BRANCH  26  27
ATOM     27  C   UNL A   1      38.381  19.780  25.124  1.00  0.00     0.021 C 
BRANCH  27  28
ATOM     28  C   UNL A   1      39.723  20.350  25.568  1.00  0.00     0.116 C 
BRANCH  28  29
ATOM     29  N   UNL A   1      40.594  19.308  26.088  1.00  0.00    -0.352 N 
ATOM     30  C   UNL A   1      41.908  19.392  26.475  1.00  0.00     0.251 C 
ATOM     31  H   UNL A   1      40.184  18.417  26.173  1.00  0.00     0.163 HD
ATOM     32  O   UNL A   1      42.567  18.371  26.639  1.00  0.00    -0.269 OA
BRANCH  30  33
ATOM     33  C   UNL A   1      42.522  20.718  26.688  1.00  0.00     0.039 A 
ATOM     34  C   UNL A   1      42.984  21.440  25.586  1.00  0.00     0.014 A 
ATOM     35  C   UNL A   1      42.655  21.240  27.980  1.00  0.00     0.014 A 
ATOM     36  C   UNL A   1      43.534  22.710  25.775  1.00  0.00     0.010 A 
ATOM     37  C   UNL A   1      43.136  22.533  28.158  1.00  0.00     0.010 A 
ATOM     38  C   UNL A   1      43.588  23.278  27.058  1.00  0.00    -0.014 A 
BRANCH  38  39
ATOM     39  C   UNL A   1      44.118  24.648  27.272  1.00  0.00     0.031 A 
ATOM     40  C   UNL A   1      43.186  25.768  27.651  1.00  0.00     0.074 A 
ATOM     41  C   UNL A   1      45.427  24.895  27.065  1.00  0.00     0.049 A 
ATOM     42  N   UNL A   1      43.451  27.037  27.823  1.00  0.00    -0.248 NA
ATOM     43  C   UNL A   1      41.767  25.421  27.840  1.00  0.00     0.031 C 
ATOM     44  C   UNL A   1      46.423  23.901  26.656  1.00  0.00     0.029 A 
ATOM     45  N   UNL A   1      46.145  26.060  27.164  1.00  0.00    -0.354 N 
ATOM     46  C   UNL A   1      42.235  27.642  28.121  1.00  0.00     0.074 A 
ATOM     47  C   UNL A   1      41.223  26.610  28.061  1.00  0.00     0.031 C 
ATOM     48  C   UNL A   1      47.624  24.493  26.566  1.00  0.00     0.029 A 
ATOM     49  C   UNL A   1      47.479  25.914  26.864  1.00  0.00     0.049 A 
ATOM     50  H   UNL A   1      45.742  26.921  27.423  1.00  0.00     0.167 HD
ATOM     51  C   UNL A   1      41.986  28.935  28.436  1.00  0.00     0.031 A 
ATOM     52  C   UNL A   1      48.474  26.823  26.826  1.00  0.00     0.031 A 
ATOM     53  C   UNL A   1      42.999  29.954  28.510  1.00  0.00     0.049 A 
ATOM     54  C   UNL A   1      48.168  28.256  27.170  1.00  0.00     0.074 A 
ATOM     55  C   UNL A   1      42.857  31.281  28.877  1.00  0.00     0.029 A 
ATOM     56  N   UNL A   1      44.339  29.763  28.212  1.00  0.00    -0.354 N 
ATOM     57  N   UNL A   1      47.022  28.793  27.515  1.00  0.00    -0.248 NA
ATOM     58  C   UNL A   1      49.291  29.202  27.131  1.00  0.00     0.031 C 
ATOM     59  C   UNL A   1      44.101  31.905  28.746  1.00  0.00     0.029 A 
ATOM     60  C   UNL A   1      45.031  30.953  28.361  1.00  0.00     0.049 A 
ATOM     61  H   UNL A   1      44.741  28.908  27.934  1.00  0.00     0.167 HD
ATOM     62  C   UNL A   1      47.294  30.134  27.765  1.00  0.00     0.074 A 
ATOM     63  C   UNL A   1      48.713  30.321  27.546  1.00  0.00     0.031 C 
ATOM     64  C   UNL A   1      46.445  31.121  28.144  1.00  0.00     0.031 A 
BRANCH  51  65
ATOM     65  C   UNL A   1      40.560  29.326  28.725  1.00  0.00    -0.014 A 
ATOM     66  C   UNL A   1      39.598  29.376  27.700  1.00  0.00     0.010 A 
ATOM     67  C   UNL A   1      40.162  29.585  30.050  1.00  0.00     0.010 A 
ATOM     68  C   UNL A   1      38.272  29.709  27.990  1.00  0.00     0.020 A 
ATOM     69  C   UNL A   1      38.831  29.889  30.348  1.00  0.00     0.020 A 
ATOM     70  C   UNL A   1      37.897  29.963  29.313  1.00  0.00     0.054 A 
BRANCH  70  71
ATOM     71  S   UNL A   1      36.160  30.351  29.664  1.00  0.00     0.124 S 
ATOM     72  O   UNL A   1      35.929  29.604  30.898  1.00  0.00    -0.237 OA
ATOM     73  O   UNL A   1      36.180  31.805  29.806  1.00  0.00    -0.237 OA
ATOM     74  O   UNL A   1      35.448  29.852  28.491  1.00  0.00    -0.744 OA
ENDBRANCH  70  71
ENDBRANCH  51  65
BRANCH  52  75
ATOM     75  C   UNL A   1      49.853  26.406  26.452  1.00  0.00    -0.014 A 
ATOM     76  C   UNL A   1      50.764  25.980  27.434  1.00  0.00     0.010 A 
ATOM     77  C   UNL A   1      50.265  26.439  25.107  1.00  0.00     0.010 A 
ATOM     78  C   UNL A   1      52.070  25.622  27.083  1.00  0.00     0.020 A 
ATOM     79  C   UNL A   1      51.559  26.051  24.747  1.00  0.00     0.020 A 
ATOM     80  C   UNL A   1      52.458  25.661  25.741  1.00  0.00     0.054 A 
BRANCH  80  81
ATOM     81  S   UNL A   1      54.146  25.160  25.302  1.00  0.00     0.124 S 
ATOM     82  O   UNL A   1      54.461  26.080  24.214  1.00  0.00    -0.237 OA
ATOM     83  O   UNL A   1      54.874  25.377  26.549  1.00  0.00    -0.237 OA
ATOM     84  O   UNL A   1      53.995  23.759  24.914  1.00  0.00    -0.744 OA
ENDBRANCH  80  81
ENDBRANCH  52  75
BRANCH  64  85
ATOM     85  C   UNL A   1      47.033  32.487  28.388  1.00  0.00    -0.014 A 
ATOM     86  C   UNL A   1      47.569  32.840  29.639  1.00  0.00     0.010 A 
ATOM     87  C   UNL A   1      47.099  33.409  27.328  1.00  0.00     0.010 A 
ATOM     88  C   UNL A   1      48.132  34.104  29.834  1.00  0.00     0.020 A 
ATOM     89  C   UNL A   1      47.689  34.662  27.510  1.00  0.00     0.020 A 
ATOM     90  C   UNL A   1      48.189  35.007  28.767  1.00  0.00     0.054 A 
BRANCH  90  91
ATOM     91  S   UNL A   1      48.965  36.623  29.033  1.00  0.00     0.124 S 
ATOM     92  O   UNL A   1      48.703  37.299  27.765  1.00  0.00    -0.237 OA
ATOM     93  O   UNL A   1      48.234  37.144  30.186  1.00  0.00    -0.237 OA
ATOM     94  O   UNL A   1      50.367  36.298  29.288  1.00  0.00    -0.744 OA
ENDBRANCH  90  91
ENDBRANCH  64  85
ENDBRANCH  38  39
ENDBRANCH  30  33
ENDBRANCH  28  29
ENDBRANCH  27  28
ENDBRANCH  26  27
ENDBRANCH   1  26
TORSDOF 20
ENDMDL
