MODEL 1
REMARK VINA RESULT:     -12.2      0.000      0.000
REMARK SMILES O=C(NCCCCCCNC(=O)c1ccc(N2C(=O)[C@@H]3N=NC(c4ccccc4)=C3[C@H]2c2cccc(Br)c2)cc1)c1ccc(-c2c3nc(c(-c4ccc(S(=O)(=O)[O-])cc4)c4ccc([nH]4)c(-c4ccc(S(=O)(=O)[O-])cc4)c4nc(c(-c5ccc(S(=O)(=O)[O-])cc5)c5ccc2[nH]5)C=C4)C=C3)cc1
REMARK SMILES IDX 6 1 5 2 4 3 3 4 1 5 2 6 41 8 42 9 100 10 43 11 99 12 44 13
REMARK SMILES IDX 45 14 46 15 93 16 47 17 98 18 92 19 94 20 48 21 97 22 91 23
REMARK SMILES IDX 90 24 49 26 79 27 60 28 78 29 61 30 64 31 77 32 95 33 62 34
REMARK SMILES IDX 63 35 76 37 96 38 65 39 50 40 51 41 59 42 52 43 58 44 53 45
REMARK SMILES IDX 54 46 55 47 56 48 57 49 80 50 81 51 89 52 82 53 88 54 83 55
REMARK SMILES IDX 84 56 85 57 86 58 87 59 66 60 67 61 75 62 68 63 74 64 69 65
REMARK SMILES IDX 70 66 71 67 72 68 73 69 7 70 8 71 9 72 10 73 11 74 12 76
REMARK SMILES IDX 13 77 14 78 40 79 15 80 39 81 16 82 17 83 18 84 31 85 20 86
REMARK SMILES IDX 19 87 30 88 21 89 23 90 22 91 32 92 33 93 38 94 34 95 36 96
REMARK SMILES IDX 35 97 37 98 24 99 25 100 29 101 26 102 28 103 27 104
REMARK H PARENT 3 7 94 25 64 36 10 75
REMARK Flexibility Score: inf
ROOT
ATOM      1  C   UNL A   1      35.207  31.288  27.776  1.00  0.00     0.002 C 
ENDROOT
BRANCH   1   2
ATOM      2  C   UNL A   1      34.071  32.307  27.941  1.00  0.00     0.021 C 
BRANCH   2   3
ATOM      3  C   UNL A   1      34.347  33.419  28.954  1.00  0.00     0.116 C 
BRANCH   3   4
ATOM      4  N   UNL A   1      33.988  33.080  30.314  1.00  0.00    -0.352 N 
ATOM      5  O   UNL A   1      34.045  32.607  32.465  1.00  0.00    -0.269 OA
ATOM      6  C   UNL A   1      34.674  32.624  31.404  1.00  0.00     0.251 C 
ATOM      7  H   UNL A   1      33.030  33.207  30.496  1.00  0.00     0.163 HD
BRANCH   6   8
ATOM      8  C   UNL A   1      36.066  32.093  31.387  1.00  0.00     0.039 A 
ATOM      9  C   UNL A   1      37.237  32.853  31.377  1.00  0.00     0.014 A 
ATOM     10  C   UNL A   1      36.178  30.691  31.325  1.00  0.00     0.014 A 
ATOM     11  C   UNL A   1      38.477  32.238  31.214  1.00  0.00     0.010 A 
ATOM     12  C   UNL A   1      37.411  30.071  31.170  1.00  0.00     0.010 A 
ATOM     13  C   UNL A   1      38.558  30.850  31.072  1.00  0.00    -0.014 A 
BRANCH  13  14
ATOM     14  C   UNL A   1      39.877  30.236  30.962  1.00  0.00     0.031 A 
ATOM     15  C   UNL A   1      40.637  30.169  32.246  1.00  0.00     0.074 A 
ATOM     16  C   UNL A   1      40.319  29.631  29.840  1.00  0.00     0.049 A 
ATOM     17  N   UNL A   1      41.775  30.712  32.536  1.00  0.00    -0.248 NA
ATOM     18  C   UNL A   1      39.984  29.509  33.389  1.00  0.00     0.031 C 
ATOM     19  C   UNL A   1      39.572  29.358  28.609  1.00  0.00     0.029 A 
ATOM     20  N   UNL A   1      41.514  29.016  29.610  1.00  0.00    -0.354 N 
ATOM     21  C   UNL A   1      42.078  30.302  33.834  1.00  0.00     0.074 A 
ATOM     22  C   UNL A   1      40.882  29.694  34.356  1.00  0.00     0.031 C 
ATOM     23  C   UNL A   1      40.236  28.433  27.879  1.00  0.00     0.029 A 
ATOM     24  C   UNL A   1      41.513  28.155  28.516  1.00  0.00     0.049 A 
ATOM     25  H   UNL A   1      42.309  29.166  30.171  1.00  0.00     0.167 HD
ATOM     26  C   UNL A   1      43.355  30.296  34.314  1.00  0.00     0.031 A 
ATOM     27  C   UNL A   1      42.461  27.234  28.199  1.00  0.00     0.031 A 
ATOM     28  C   UNL A   1      44.233  31.102  33.512  1.00  0.00     0.049 A 
ATOM     29  C   UNL A   1      43.702  27.617  28.915  1.00  0.00     0.074 A 
ATOM     30  C   UNL A   1      44.295  32.440  33.175  1.00  0.00     0.029 A 
ATOM     31  N   UNL A   1      45.037  30.447  32.609  1.00  0.00    -0.354 N 
ATOM     32  N   UNL A   1      44.371  28.706  28.659  1.00  0.00    -0.248 NA
ATOM     33  C   UNL A   1      43.944  27.027  30.222  1.00  0.00     0.031 C 
ATOM     34  C   UNL A   1      44.717  32.452  31.815  1.00  0.00     0.029 A 
ATOM     35  C   UNL A   1      44.955  31.131  31.425  1.00  0.00     0.049 A 
ATOM     36  H   UNL A   1      45.573  29.639  32.781  1.00  0.00     0.167 HD
ATOM     37  C   UNL A   1      44.777  29.173  29.902  1.00  0.00     0.074 A 
ATOM     38  C   UNL A   1      44.557  28.055  30.817  1.00  0.00     0.031 C 
ATOM     39  C   UNL A   1      44.995  30.503  30.122  1.00  0.00     0.031 A 
BRANCH  26  40
ATOM     40  C   UNL A   1      43.887  29.247  35.265  1.00  0.00    -0.014 A 
ATOM     41  C   UNL A   1      44.402  29.661  36.513  1.00  0.00     0.010 A 
ATOM     42  C   UNL A   1      44.174  27.927  34.863  1.00  0.00     0.010 A 
ATOM     43  C   UNL A   1      45.243  28.830  37.265  1.00  0.00     0.020 A 
ATOM     44  C   UNL A   1      44.977  27.076  35.626  1.00  0.00     0.020 A 
ATOM     45  C   UNL A   1      45.541  27.548  36.803  1.00  0.00     0.054 A 
BRANCH  45  46
ATOM     46  S   UNL A   1      46.737  26.535  37.706  1.00  0.00     0.124 S 
ATOM     47  O   UNL A   1      46.288  25.184  37.384  1.00  0.00    -0.237 OA
ATOM     48  O   UNL A   1      48.003  26.943  37.104  1.00  0.00    -0.237 OA
ATOM     49  O   UNL A   1      46.553  26.944  39.096  1.00  0.00    -0.744 OA
ENDBRANCH  45  46
ENDBRANCH  26  40
BRANCH  27  50
ATOM     50  C   UNL A   1      42.255  25.876  27.628  1.00  0.00    -0.014 A 
ATOM     51  C   UNL A   1      42.760  25.521  26.362  1.00  0.00     0.010 A 
ATOM     52  C   UNL A   1      41.800  24.831  28.461  1.00  0.00     0.010 A 
ATOM     53  C   UNL A   1      42.853  24.173  25.967  1.00  0.00     0.020 A 
ATOM     54  C   UNL A   1      41.885  23.488  28.072  1.00  0.00     0.020 A 
ATOM     55  C   UNL A   1      42.431  23.162  26.835  1.00  0.00     0.054 A 
BRANCH  55  56
ATOM     56  S   UNL A   1      42.707  21.418  26.394  1.00  0.00     0.124 S 
ATOM     57  O   UNL A   1      42.356  20.726  27.631  1.00  0.00    -0.237 OA
ATOM     58  O   UNL A   1      41.787  21.221  25.277  1.00  0.00    -0.237 OA
ATOM     59  O   UNL A   1      44.125  21.372  26.040  1.00  0.00    -0.744 OA
ENDBRANCH  55  56
ENDBRANCH  27  50
BRANCH  39  60
ATOM     60  C   UNL A   1      45.046  31.440  28.939  1.00  0.00    -0.014 A 
ATOM     61  C   UNL A   1      45.912  31.267  27.841  1.00  0.00     0.010 A 
ATOM     62  C   UNL A   1      44.045  32.424  28.856  1.00  0.00     0.010 A 
ATOM     63  C   UNL A   1      45.781  32.068  26.694  1.00  0.00     0.020 A 
ATOM     64  C   UNL A   1      43.898  33.210  27.713  1.00  0.00     0.020 A 
ATOM     65  C   UNL A   1      44.769  33.031  26.637  1.00  0.00     0.054 A 
BRANCH  65  66
ATOM     66  S   UNL A   1      44.549  34.011  25.124  1.00  0.00     0.124 S 
ATOM     67  O   UNL A   1      45.868  34.607  24.935  1.00  0.00    -0.237 OA
ATOM     68  O   UNL A   1      44.166  33.003  24.136  1.00  0.00    -0.237 OA
ATOM     69  O   UNL A   1      43.487  34.956  25.471  1.00  0.00    -0.744 OA
ENDBRANCH  65  66
ENDBRANCH  39  60
ENDBRANCH  13  14
ENDBRANCH   6   8
ENDBRANCH   3   4
ENDBRANCH   2   3
ENDBRANCH   1   2
BRANCH   1  70
ATOM     70  C   UNL A   1      34.784  29.816  27.730  1.00  0.00     0.002 C 
BRANCH  70  71
ATOM     71  C   UNL A   1      34.392  29.277  26.348  1.00  0.00     0.021 C 
BRANCH  71  72
ATOM     72  C   UNL A   1      32.893  29.283  26.039  1.00  0.00     0.116 C 
BRANCH  72  73
ATOM     73  N   UNL A   1      32.620  29.635  24.656  1.00  0.00    -0.352 N 
ATOM     74  C   UNL A   1      32.415  28.815  23.576  1.00  0.00     0.251 C 
ATOM     75  H   UNL A   1      32.575  30.601  24.467  1.00  0.00     0.163 HD
ATOM     76  O   UNL A   1      32.380  29.289  22.442  1.00  0.00    -0.269 OA
BRANCH  74  77
ATOM     77  C   UNL A   1      32.288  27.348  23.751  1.00  0.00     0.039 A 
ATOM     78  C   UNL A   1      33.464  26.609  23.846  1.00  0.00     0.016 A 
ATOM     79  C   UNL A   1      31.050  26.690  23.791  1.00  0.00     0.016 A 
ATOM     80  C   UNL A   1      33.397  25.231  24.061  1.00  0.00     0.027 A 
ATOM     81  C   UNL A   1      30.985  25.294  23.994  1.00  0.00     0.027 A 
ATOM     82  C   UNL A   1      32.160  24.560  24.162  1.00  0.00     0.045 A 
BRANCH  82  83
ATOM     83  N   UNL A   1      32.138  23.171  24.532  1.00  0.00    -0.299 N 
ATOM     84  C   UNL A   1      31.667  22.925  25.873  1.00  0.00     0.259 C 
ATOM     85  C   UNL A   1      33.302  22.301  24.218  1.00  0.00     0.152 C 
ATOM     86  C   UNL A   1      32.596  21.926  26.503  1.00  0.00     0.248 C 
ATOM     87  O   UNL A   1      30.740  23.472  26.433  1.00  0.00    -0.271 OA
ATOM     88  C   UNL A   1      33.762  22.132  25.614  1.00  0.00     0.021 C 
ATOM     89  N   UNL A   1      33.153  22.287  27.815  1.00  0.00    -0.170 NA
ATOM     90  C   UNL A   1      34.815  22.312  26.401  1.00  0.00     0.097 C 
ATOM     91  N   UNL A   1      34.416  22.353  27.725  1.00  0.00    -0.154 NA
BRANCH  85  92
ATOM     92  C   UNL A   1      32.985  20.911  23.611  1.00  0.00    -0.020 A 
ATOM     93  C   UNL A   1      32.186  20.787  22.440  1.00  0.00     0.006 A 
ATOM     94  C   UNL A   1      33.373  19.715  24.232  1.00  0.00     0.022 A 
ATOM     95  C   UNL A   1      31.819  19.557  21.896  1.00  0.00     0.002 A 
ATOM     96  C   UNL A   1      32.968  18.475  23.699  1.00  0.00     0.018 A 
ATOM     97  C   UNL A   1      32.203  18.392  22.535  1.00  0.00     0.016 A 
ATOM     98  Br  UNL A   1      33.424  16.865  24.585  1.00  0.00    -0.051 Br
ENDBRANCH  85  92
BRANCH  90  99
ATOM     99  C   UNL A   1      36.203  22.625  26.074  1.00  0.00     0.002 A 
ATOM    100  C   UNL A   1      37.094  21.609  25.701  1.00  0.00     0.010 A 
ATOM    101  C   UNL A   1      36.701  23.897  26.383  1.00  0.00     0.010 A 
ATOM    102  C   UNL A   1      38.472  21.839  25.743  1.00  0.00     0.001 A 
ATOM    103  C   UNL A   1      38.077  24.122  26.422  1.00  0.00     0.001 A 
ATOM    104  C   UNL A   1      38.962  23.086  26.132  1.00  0.00     0.000 A 
ENDBRANCH  90  99
ENDBRANCH  82  83
ENDBRANCH  74  77
ENDBRANCH  72  73
ENDBRANCH  71  72
ENDBRANCH  70  71
ENDBRANCH   1  70
TORSDOF 19
ENDMDL
MODEL 2
REMARK VINA RESULT:     -11.3      4.264      9.084
REMARK SMILES O=C(NCCCCCCNC(=O)c1ccc(N2C(=O)[C@@H]3N=NC(c4ccccc4)=C3[C@H]2c2cccc(Br)c2)cc1)c1ccc(-c2c3nc(c(-c4ccc(S(=O)(=O)[O-])cc4)c4ccc([nH]4)c(-c4ccc(S(=O)(=O)[O-])cc4)c4nc(c(-c5ccc(S(=O)(=O)[O-])cc5)c5ccc2[nH]5)C=C4)C=C3)cc1
REMARK SMILES IDX 6 1 5 2 4 3 3 4 1 5 2 6 41 8 42 9 100 10 43 11 99 12 44 13
REMARK SMILES IDX 45 14 46 15 93 16 47 17 98 18 92 19 94 20 48 21 97 22 91 23
REMARK SMILES IDX 90 24 49 26 79 27 60 28 78 29 61 30 64 31 77 32 95 33 62 34
REMARK SMILES IDX 63 35 76 37 96 38 65 39 50 40 51 41 59 42 52 43 58 44 53 45
REMARK SMILES IDX 54 46 55 47 56 48 57 49 80 50 81 51 89 52 82 53 88 54 83 55
REMARK SMILES IDX 84 56 85 57 86 58 87 59 66 60 67 61 75 62 68 63 74 64 69 65
REMARK SMILES IDX 70 66 71 67 72 68 73 69 7 70 8 71 9 72 10 73 11 74 12 76
REMARK SMILES IDX 13 77 14 78 40 79 15 80 39 81 16 82 17 83 18 84 31 85 20 86
REMARK SMILES IDX 19 87 30 88 21 89 23 90 22 91 32 92 33 93 38 94 34 95 36 96
REMARK SMILES IDX 35 97 37 98 24 99 25 100 29 101 26 102 28 103 27 104
REMARK H PARENT 3 7 94 25 64 36 10 75
REMARK Flexibility Score: inf
ROOT
ATOM      1  C   UNL A   1      35.411  23.794  24.766  1.00  0.00     0.002 C 
ENDROOT
BRANCH   1   2
ATOM      2  C   UNL A   1      36.231  23.964  26.052  1.00  0.00     0.021 C 
BRANCH   2   3
ATOM      3  C   UNL A   1      37.747  23.927  25.858  1.00  0.00     0.116 C 
BRANCH   3   4
ATOM      4  N   UNL A   1      38.296  22.593  25.758  1.00  0.00    -0.352 N 
ATOM      5  O   UNL A   1      39.521  20.780  26.021  1.00  0.00    -0.269 OA
ATOM      6  C   UNL A   1      39.476  22.009  26.124  1.00  0.00     0.251 C 
ATOM      7  H   UNL A   1      37.679  21.960  25.325  1.00  0.00     0.163 HD
BRANCH   6   8
ATOM      8  C   UNL A   1      40.701  22.737  26.559  1.00  0.00     0.039 A 
ATOM      9  C   UNL A   1      42.009  22.461  26.159  1.00  0.00     0.014 A 
ATOM     10  C   UNL A   1      40.491  23.762  27.501  1.00  0.00     0.014 A 
ATOM     11  C   UNL A   1      43.083  23.122  26.751  1.00  0.00     0.010 A 
ATOM     12  C   UNL A   1      41.557  24.431  28.090  1.00  0.00     0.010 A 
ATOM     13  C   UNL A   1      42.857  24.078  27.744  1.00  0.00    -0.014 A 
BRANCH  13  14
ATOM     14  C   UNL A   1      44.002  24.792  28.300  1.00  0.00     0.031 A 
ATOM     15  C   UNL A   1      44.152  24.664  29.780  1.00  0.00     0.074 A 
ATOM     16  C   UNL A   1      44.943  25.387  27.538  1.00  0.00     0.049 A 
ATOM     17  N   UNL A   1      44.127  25.596  30.676  1.00  0.00    -0.248 NA
ATOM     18  C   UNL A   1      44.220  23.303  30.341  1.00  0.00     0.031 C 
ATOM     19  C   UNL A   1      45.086  25.337  26.080  1.00  0.00     0.029 A 
ATOM     20  N   UNL A   1      46.056  26.072  27.927  1.00  0.00    -0.354 N 
ATOM     21  C   UNL A   1      44.372  24.968  31.896  1.00  0.00     0.074 A 
ATOM     22  C   UNL A   1      44.272  23.552  31.649  1.00  0.00     0.031 C 
ATOM     23  C   UNL A   1      46.330  25.743  25.739  1.00  0.00     0.029 A 
ATOM     24  C   UNL A   1      47.018  26.211  26.931  1.00  0.00     0.049 A 
ATOM     25  H   UNL A   1      46.170  26.435  28.834  1.00  0.00     0.167 HD
ATOM     26  C   UNL A   1      44.852  25.644  32.978  1.00  0.00     0.031 A 
ATOM     27  C   UNL A   1      48.306  26.616  27.088  1.00  0.00     0.031 A 
ATOM     28  C   UNL A   1      44.691  27.065  32.837  1.00  0.00     0.049 A 
ATOM     29  C   UNL A   1      48.385  27.333  28.384  1.00  0.00     0.074 A 
ATOM     30  C   UNL A   1      43.612  27.916  32.701  1.00  0.00     0.029 A 
ATOM     31  N   UNL A   1      45.794  27.787  32.448  1.00  0.00    -0.354 N 
ATOM     32  N   UNL A   1      47.779  28.463  28.616  1.00  0.00    -0.248 NA
ATOM     33  C   UNL A   1      48.759  26.569  29.564  1.00  0.00     0.031 C 
ATOM     34  C   UNL A   1      44.050  28.910  31.780  1.00  0.00     0.029 A 
ATOM     35  C   UNL A   1      45.386  28.648  31.465  1.00  0.00     0.049 A 
ATOM     36  H   UNL A   1      46.706  27.702  32.809  1.00  0.00     0.167 HD
ATOM     37  C   UNL A   1      47.312  28.354  29.919  1.00  0.00     0.074 A 
ATOM     38  C   UNL A   1      48.018  27.202  30.478  1.00  0.00     0.031 C 
ATOM     39  C   UNL A   1      46.203  29.033  30.334  1.00  0.00     0.031 A 
BRANCH  26  40
ATOM     40  C   UNL A   1      45.824  25.050  33.974  1.00  0.00    -0.014 A 
ATOM     41  C   UNL A   1      47.173  24.888  33.591  1.00  0.00     0.010 A 
ATOM     42  C   UNL A   1      45.407  24.375  35.139  1.00  0.00     0.010 A 
ATOM     43  C   UNL A   1      48.026  24.017  34.282  1.00  0.00     0.020 A 
ATOM     44  C   UNL A   1      46.262  23.539  35.860  1.00  0.00     0.020 A 
ATOM     45  C   UNL A   1      47.556  23.332  35.402  1.00  0.00     0.054 A 
BRANCH  45  46
ATOM     46  S   UNL A   1      48.617  22.106  36.203  1.00  0.00     0.124 S 
ATOM     47  O   UNL A   1      48.112  20.858  35.638  1.00  0.00    -0.237 OA
ATOM     48  O   UNL A   1      49.948  22.511  35.756  1.00  0.00    -0.237 OA
ATOM     49  O   UNL A   1      48.355  22.304  37.626  1.00  0.00    -0.744 OA
ENDBRANCH  45  46
ENDBRANCH  26  40
BRANCH  27  50
ATOM     50  C   UNL A   1      49.513  26.107  26.382  1.00  0.00    -0.014 A 
ATOM     51  C   UNL A   1      49.921  26.635  25.142  1.00  0.00     0.010 A 
ATOM     52  C   UNL A   1      50.431  25.288  27.072  1.00  0.00     0.010 A 
ATOM     53  C   UNL A   1      51.214  26.394  24.638  1.00  0.00     0.020 A 
ATOM     54  C   UNL A   1      51.717  25.039  26.574  1.00  0.00     0.020 A 
ATOM     55  C   UNL A   1      52.111  25.611  25.369  1.00  0.00     0.054 A 
BRANCH  55  56
ATOM     56  S   UNL A   1      53.832  25.441  24.801  1.00  0.00     0.124 S 
ATOM     57  O   UNL A   1      54.037  23.996  24.862  1.00  0.00    -0.237 OA
ATOM     58  O   UNL A   1      53.785  26.016  23.460  1.00  0.00    -0.237 OA
ATOM     59  O   UNL A   1      54.596  26.215  25.778  1.00  0.00    -0.744 OA
ENDBRANCH  55  56
ENDBRANCH  27  50
BRANCH  39  60
ATOM     60  C   UNL A   1      45.632  30.112  29.444  1.00  0.00    -0.014 A 
ATOM     61  C   UNL A   1      45.864  31.488  29.635  1.00  0.00     0.010 A 
ATOM     62  C   UNL A   1      44.994  29.697  28.262  1.00  0.00     0.010 A 
ATOM     63  C   UNL A   1      45.457  32.423  28.669  1.00  0.00     0.020 A 
ATOM     64  C   UNL A   1      44.604  30.618  27.290  1.00  0.00     0.020 A 
ATOM     65  C   UNL A   1      44.834  31.979  27.498  1.00  0.00     0.054 A 
BRANCH  65  66
ATOM     66  S   UNL A   1      44.381  33.179  26.213  1.00  0.00     0.124 S 
ATOM     67  O   UNL A   1      43.617  32.365  25.272  1.00  0.00    -0.237 OA
ATOM     68  O   UNL A   1      43.609  34.174  26.956  1.00  0.00    -0.237 OA
ATOM     69  O   UNL A   1      45.669  33.658  25.713  1.00  0.00    -0.744 OA
ENDBRANCH  65  66
ENDBRANCH  39  60
ENDBRANCH  13  14
ENDBRANCH   6   8
ENDBRANCH   3   4
ENDBRANCH   2   3
ENDBRANCH   1   2
BRANCH   1  70
ATOM     70  C   UNL A   1      34.483  24.958  24.404  1.00  0.00     0.002 C 
BRANCH  70  71
ATOM     71  C   UNL A   1      33.297  25.185  25.349  1.00  0.00     0.021 C 
BRANCH  71  72
ATOM     72  C   UNL A   1      33.326  26.494  26.142  1.00  0.00     0.116 C 
BRANCH  72  73
ATOM     73  N   UNL A   1      32.602  27.558  25.469  1.00  0.00    -0.352 N 
ATOM     74  C   UNL A   1      32.673  28.914  25.663  1.00  0.00     0.251 C 
ATOM     75  H   UNL A   1      31.970  27.264  24.773  1.00  0.00     0.163 HD
ATOM     76  O   UNL A   1      31.851  29.655  25.130  1.00  0.00    -0.269 OA
BRANCH  74  77
ATOM     77  C   UNL A   1      33.702  29.499  26.557  1.00  0.00     0.039 A 
ATOM     78  C   UNL A   1      33.423  30.735  27.134  1.00  0.00     0.016 A 
ATOM     79  C   UNL A   1      34.934  28.877  26.811  1.00  0.00     0.016 A 
ATOM     80  C   UNL A   1      34.339  31.304  28.021  1.00  0.00     0.027 A 
ATOM     81  C   UNL A   1      35.865  29.461  27.697  1.00  0.00     0.027 A 
ATOM     82  C   UNL A   1      35.558  30.665  28.333  1.00  0.00     0.045 A 
BRANCH  82  83
ATOM     83  N   UNL A   1      36.399  31.212  29.363  1.00  0.00    -0.299 N 
ATOM     84  C   UNL A   1      36.170  30.653  30.672  1.00  0.00     0.259 C 
ATOM     85  C   UNL A   1      36.603  32.682  29.450  1.00  0.00     0.152 C 
ATOM     86  C   UNL A   1      36.132  31.791  31.651  1.00  0.00     0.248 C 
ATOM     87  O   UNL A   1      35.964  29.487  30.942  1.00  0.00    -0.271 OA
ATOM     88  C   UNL A   1      35.831  32.881  30.696  1.00  0.00     0.021 C 
ATOM     89  N   UNL A   1      34.967  31.846  32.546  1.00  0.00    -0.170 NA
ATOM     90  C   UNL A   1      34.802  33.553  31.197  1.00  0.00     0.097 C 
ATOM     91  N   UNL A   1      34.337  32.927  32.338  1.00  0.00    -0.154 NA
BRANCH  85  92
ATOM     92  C   UNL A   1      38.058  33.169  29.667  1.00  0.00    -0.020 A 
ATOM     93  C   UNL A   1      38.429  34.517  29.399  1.00  0.00     0.006 A 
ATOM     94  C   UNL A   1      39.095  32.297  30.030  1.00  0.00     0.022 A 
ATOM     95  C   UNL A   1      39.738  34.983  29.514  1.00  0.00     0.002 A 
ATOM     96  C   UNL A   1      40.421  32.765  30.110  1.00  0.00     0.018 A 
ATOM     97  C   UNL A   1      40.744  34.100  29.862  1.00  0.00     0.016 A 
ATOM     98  Br  UNL A   1      41.828  31.567  30.521  1.00  0.00    -0.051 Br
ENDBRANCH  85  92
BRANCH  90  99
ATOM     99  C   UNL A   1      34.043  34.675  30.651  1.00  0.00     0.002 A 
ATOM    100  C   UNL A   1      33.932  34.853  29.265  1.00  0.00     0.010 A 
ATOM    101  C   UNL A   1      33.648  35.708  31.510  1.00  0.00     0.010 A 
ATOM    102  C   UNL A   1      33.532  36.090  28.750  1.00  0.00     0.001 A 
ATOM    103  C   UNL A   1      33.248  36.939  30.992  1.00  0.00     0.001 A 
ATOM    104  C   UNL A   1      33.220  37.140  29.614  1.00  0.00     0.000 A 
ENDBRANCH  90  99
ENDBRANCH  82  83
ENDBRANCH  74  77
ENDBRANCH  72  73
ENDBRANCH  71  72
ENDBRANCH  70  71
ENDBRANCH   1  70
TORSDOF 19
ENDMDL
MODEL 3
REMARK VINA RESULT:     -11.1      6.139     11.615
REMARK SMILES O=C(NCCCCCCNC(=O)c1ccc(N2C(=O)[C@@H]3N=NC(c4ccccc4)=C3[C@H]2c2cccc(Br)c2)cc1)c1ccc(-c2c3nc(c(-c4ccc(S(=O)(=O)[O-])cc4)c4ccc([nH]4)c(-c4ccc(S(=O)(=O)[O-])cc4)c4nc(c(-c5ccc(S(=O)(=O)[O-])cc5)c5ccc2[nH]5)C=C4)C=C3)cc1
REMARK SMILES IDX 6 1 5 2 4 3 3 4 1 5 2 6 41 8 42 9 100 10 43 11 99 12 44 13
REMARK SMILES IDX 45 14 46 15 93 16 47 17 98 18 92 19 94 20 48 21 97 22 91 23
REMARK SMILES IDX 90 24 49 26 79 27 60 28 78 29 61 30 64 31 77 32 95 33 62 34
REMARK SMILES IDX 63 35 76 37 96 38 65 39 50 40 51 41 59 42 52 43 58 44 53 45
REMARK SMILES IDX 54 46 55 47 56 48 57 49 80 50 81 51 89 52 82 53 88 54 83 55
REMARK SMILES IDX 84 56 85 57 86 58 87 59 66 60 67 61 75 62 68 63 74 64 69 65
REMARK SMILES IDX 70 66 71 67 72 68 73 69 7 70 8 71 9 72 10 73 11 74 12 76
REMARK SMILES IDX 13 77 14 78 40 79 15 80 39 81 16 82 17 83 18 84 31 85 20 86
REMARK SMILES IDX 19 87 30 88 21 89 23 90 22 91 32 92 33 93 38 94 34 95 36 96
REMARK SMILES IDX 35 97 37 98 24 99 25 100 29 101 26 102 28 103 27 104
REMARK H PARENT 3 7 94 25 64 36 10 75
REMARK Flexibility Score: inf
ROOT
ATOM      1  C   UNL A   1      47.429  36.649  30.186  1.00  0.00     0.002 C 
ENDROOT
BRANCH   1   2
ATOM      2  C   UNL A   1      47.116  38.084  30.631  1.00  0.00     0.021 C 
BRANCH   2   3
ATOM      3  C   UNL A   1      47.210  38.325  32.137  1.00  0.00     0.116 C 
BRANCH   3   4
ATOM      4  N   UNL A   1      46.282  39.317  32.635  1.00  0.00    -0.352 N 
ATOM      5  O   UNL A   1      44.652  40.347  33.702  1.00  0.00    -0.269 OA
ATOM      6  C   UNL A   1      45.078  39.268  33.279  1.00  0.00     0.251 C 
ATOM      7  H   UNL A   1      46.588  40.238  32.472  1.00  0.00     0.163 HD
BRANCH   6   8
ATOM      8  C   UNL A   1      44.234  38.052  33.441  1.00  0.00     0.039 A 
ATOM      9  C   UNL A   1      43.735  37.253  32.410  1.00  0.00     0.014 A 
ATOM     10  C   UNL A   1      43.881  37.733  34.766  1.00  0.00     0.014 A 
ATOM     11  C   UNL A   1      42.836  36.225  32.686  1.00  0.00     0.010 A 
ATOM     12  C   UNL A   1      42.991  36.705  35.049  1.00  0.00     0.010 A 
ATOM     13  C   UNL A   1      42.435  35.978  34.002  1.00  0.00    -0.014 A 
BRANCH  13  14
ATOM     14  C   UNL A   1      41.537  34.856  34.259  1.00  0.00     0.031 A 
ATOM     15  C   UNL A   1      41.946  33.575  33.611  1.00  0.00     0.074 A 
ATOM     16  C   UNL A   1      40.513  34.916  35.135  1.00  0.00     0.049 A 
ATOM     17  N   UNL A   1      41.303  32.876  32.733  1.00  0.00    -0.248 NA
ATOM     18  C   UNL A   1      43.302  33.073  33.892  1.00  0.00     0.031 C 
ATOM     19  C   UNL A   1      40.178  36.004  36.058  1.00  0.00     0.029 A 
ATOM     20  N   UNL A   1      39.614  33.948  35.472  1.00  0.00    -0.354 N 
ATOM     21  C   UNL A   1      42.081  31.744  32.494  1.00  0.00     0.074 A 
ATOM     22  C   UNL A   1      43.356  31.991  33.116  1.00  0.00     0.031 C 
ATOM     23  C   UNL A   1      39.326  35.543  37.002  1.00  0.00     0.029 A 
ATOM     24  C   UNL A   1      38.947  34.179  36.672  1.00  0.00     0.049 A 
ATOM     25  H   UNL A   1      39.452  33.152  34.916  1.00  0.00     0.167 HD
ATOM     26  C   UNL A   1      41.553  30.593  31.988  1.00  0.00     0.031 A 
ATOM     27  C   UNL A   1      38.196  33.291  37.375  1.00  0.00     0.031 A 
ATOM     28  C   UNL A   1      40.268  30.813  31.384  1.00  0.00     0.049 A 
ATOM     29  C   UNL A   1      37.809  32.207  36.440  1.00  0.00     0.074 A 
ATOM     30  C   UNL A   1      39.803  31.570  30.327  1.00  0.00     0.029 A 
ATOM     31  N   UNL A   1      39.159  30.477  32.125  1.00  0.00    -0.354 N 
ATOM     32  N   UNL A   1      37.020  32.388  35.419  1.00  0.00    -0.248 NA
ATOM     33  C   UNL A   1      38.660  31.030  36.372  1.00  0.00     0.031 C 
ATOM     34  C   UNL A   1      38.537  32.059  30.760  1.00  0.00     0.029 A 
ATOM     35  C   UNL A   1      38.275  31.518  32.022  1.00  0.00     0.049 A 
ATOM     36  H   UNL A   1      39.026  29.645  32.634  1.00  0.00     0.167 HD
ATOM     37  C   UNL A   1      37.570  31.616  34.405  1.00  0.00     0.074 A 
ATOM     38  C   UNL A   1      38.527  30.738  35.075  1.00  0.00     0.031 C 
ATOM     39  C   UNL A   1      37.399  31.946  33.091  1.00  0.00     0.031 A 
BRANCH  26  40
ATOM     40  C   UNL A   1      42.013  29.211  32.395  1.00  0.00    -0.014 A 
ATOM     41  C   UNL A   1      41.491  28.642  33.576  1.00  0.00     0.010 A 
ATOM     42  C   UNL A   1      43.146  28.588  31.835  1.00  0.00     0.010 A 
ATOM     43  C   UNL A   1      42.133  27.572  34.214  1.00  0.00     0.020 A 
ATOM     44  C   UNL A   1      43.768  27.493  32.439  1.00  0.00     0.020 A 
ATOM     45  C   UNL A   1      43.280  27.018  33.649  1.00  0.00     0.054 A 
BRANCH  45  46
ATOM     46  S   UNL A   1      44.181  25.732  34.548  1.00  0.00     0.124 S 
ATOM     47  O   UNL A   1      43.666  24.516  33.925  1.00  0.00    -0.237 OA
ATOM     48  O   UNL A   1      45.572  26.060  34.244  1.00  0.00    -0.237 OA
ATOM     49  O   UNL A   1      43.785  25.943  35.937  1.00  0.00    -0.744 OA
ENDBRANCH  45  46
ENDBRANCH  26  40
BRANCH  27  50
ATOM     50  C   UNL A   1      38.113  33.140  38.853  1.00  0.00    -0.014 A 
ATOM     51  C   UNL A   1      36.926  32.724  39.488  1.00  0.00     0.010 A 
ATOM     52  C   UNL A   1      39.296  33.130  39.621  1.00  0.00     0.010 A 
ATOM     53  C   UNL A   1      36.933  32.271  40.821  1.00  0.00     0.020 A 
ATOM     54  C   UNL A   1      39.310  32.685  40.950  1.00  0.00     0.020 A 
ATOM     55  C   UNL A   1      38.132  32.237  41.538  1.00  0.00     0.054 A 
BRANCH  55  56
ATOM     56  S   UNL A   1      38.171  31.494  43.199  1.00  0.00     0.124 S 
ATOM     57  O   UNL A   1      36.902  31.939  43.769  1.00  0.00    -0.237 OA
ATOM     58  O   UNL A   1      38.267  30.066  42.908  1.00  0.00    -0.237 OA
ATOM     59  O   UNL A   1      39.363  32.080  43.811  1.00  0.00    -0.744 OA
ENDBRANCH  55  56
ENDBRANCH  27  50
BRANCH  39  60
ATOM     60  C   UNL A   1      36.388  33.009  32.731  1.00  0.00    -0.014 A 
ATOM     61  C   UNL A   1      35.115  32.729  32.196  1.00  0.00     0.010 A 
ATOM     62  C   UNL A   1      36.674  34.326  33.129  1.00  0.00     0.010 A 
ATOM     63  C   UNL A   1      34.159  33.749  32.056  1.00  0.00     0.020 A 
ATOM     64  C   UNL A   1      35.723  35.340  33.010  1.00  0.00     0.020 A 
ATOM     65  C   UNL A   1      34.469  35.048  32.471  1.00  0.00     0.054 A 
BRANCH  65  66
ATOM     66  S   UNL A   1      33.206  36.348  32.364  1.00  0.00     0.124 S 
ATOM     67  O   UNL A   1      31.961  35.585  32.375  1.00  0.00    -0.237 OA
ATOM     68  O   UNL A   1      33.464  37.150  33.559  1.00  0.00    -0.237 OA
ATOM     69  O   UNL A   1      33.506  37.024  31.102  1.00  0.00    -0.744 OA
ENDBRANCH  65  66
ENDBRANCH  39  60
ENDBRANCH  13  14
ENDBRANCH   6   8
ENDBRANCH   3   4
ENDBRANCH   2   3
ENDBRANCH   1   2
BRANCH   1  70
ATOM     70  C   UNL A   1      46.537  35.554  30.779  1.00  0.00     0.002 C 
BRANCH  70  71
ATOM     71  C   UNL A   1      46.325  34.316  29.898  1.00  0.00     0.021 C 
BRANCH  71  72
ATOM     72  C   UNL A   1      44.975  34.239  29.182  1.00  0.00     0.116 C 
BRANCH  72  73
ATOM     73  N   UNL A   1      45.055  34.705  27.809  1.00  0.00    -0.352 N 
ATOM     74  C   UNL A   1      45.143  33.979  26.649  1.00  0.00     0.251 C 
ATOM     75  H   UNL A   1      45.044  35.684  27.694  1.00  0.00     0.163 HD
ATOM     76  O   UNL A   1      45.388  34.546  25.586  1.00  0.00    -0.269 OA
BRANCH  74  77
ATOM     77  C   UNL A   1      44.999  32.504  26.666  1.00  0.00     0.039 A 
ATOM     78  C   UNL A   1      46.160  31.744  26.543  1.00  0.00     0.016 A 
ATOM     79  C   UNL A   1      43.757  31.859  26.767  1.00  0.00     0.016 A 
ATOM     80  C   UNL A   1      46.083  30.351  26.603  1.00  0.00     0.027 A 
ATOM     81  C   UNL A   1      43.679  30.450  26.812  1.00  0.00     0.027 A 
ATOM     82  C   UNL A   1      44.847  29.688  26.763  1.00  0.00     0.045 A 
BRANCH  82  83
ATOM     83  N   UNL A   1      44.831  28.265  26.969  1.00  0.00    -0.299 N 
ATOM     84  C   UNL A   1      44.846  27.491  25.753  1.00  0.00     0.259 C 
ATOM     85  C   UNL A   1      43.892  27.670  27.957  1.00  0.00     0.152 C 
ATOM     86  C   UNL A   1      43.825  26.400  25.898  1.00  0.00     0.248 C 
ATOM     87  O   UNL A   1      45.500  27.714  24.755  1.00  0.00    -0.271 OA
ATOM     88  C   UNL A   1      43.008  27.015  26.969  1.00  0.00     0.021 C 
ATOM     89  N   UNL A   1      42.844  26.272  24.809  1.00  0.00    -0.170 NA
ATOM     90  C   UNL A   1      41.745  26.958  26.566  1.00  0.00     0.097 C 
ATOM     91  N   UNL A   1      41.680  26.461  25.277  1.00  0.00    -0.154 NA
BRANCH  85  92
ATOM     92  C   UNL A   1      44.478  26.598  28.910  1.00  0.00    -0.020 A 
ATOM     93  C   UNL A   1      43.685  25.503  29.358  1.00  0.00     0.006 A 
ATOM     94  C   UNL A   1      45.764  26.703  29.460  1.00  0.00     0.022 A 
ATOM     95  C   UNL A   1      44.146  24.552  30.268  1.00  0.00     0.002 A 
ATOM     96  C   UNL A   1      46.211  25.760  30.406  1.00  0.00     0.018 A 
ATOM     97  C   UNL A   1      45.414  24.686  30.805  1.00  0.00     0.016 A 
ATOM     98  Br  UNL A   1      47.916  25.952  31.206  1.00  0.00    -0.051 Br
ENDBRANCH  85  92
BRANCH  90  99
ATOM     99  C   UNL A   1      40.527  27.473  27.184  1.00  0.00     0.002 A 
ATOM    100  C   UNL A   1      40.033  28.739  26.839  1.00  0.00     0.010 A 
ATOM    101  C   UNL A   1      40.001  26.812  28.300  1.00  0.00     0.010 A 
ATOM    102  C   UNL A   1      39.104  29.375  27.668  1.00  0.00     0.001 A 
ATOM    103  C   UNL A   1      39.073  27.449  29.123  1.00  0.00     0.001 A 
ATOM    104  C   UNL A   1      38.649  28.742  28.824  1.00  0.00     0.000 A 
ENDBRANCH  90  99
ENDBRANCH  82  83
ENDBRANCH  74  77
ENDBRANCH  72  73
ENDBRANCH  71  72
ENDBRANCH  70  71
ENDBRANCH   1  70
TORSDOF 19
ENDMDL
