MODEL 1
REMARK VINA RESULT:     -11.4      0.000      0.000
REMARK SMILES N#CCC[NH+]1CCN(c2ccc(NS(=O)(=O)c3ccccc3Cl)cc2C(=O)NCCCCCCNC(=O)c2ccc(-c3c4nc(c(-c5ccc(S(=O)(=O)[O-])cc5)c5ccc([nH]5)c(-c5ccc(S(=O)(=O)[O-])cc5)c5nc(c(-c6ccc(S(=O)(=O)[O-])cc6)c6ccc3[nH]6)C=C5)C=C4)cc2)CC1
REMARK SMILES IDX 31 1 30 2 29 3 28 4 26 5 27 6 25 8 9 9 10 10 11 11 24 12
REMARK SMILES IDX 12 13 8 14 5 15 6 16 99 17 7 19 98 20 4 21 3 22 2 23 1 24
REMARK SMILES IDX 13 25 14 27 15 28 16 29 17 30 18 31 22 32 19 33 21 34 23 35
REMARK SMILES IDX 20 36 32 37 33 38 34 39 35 40 36 41 37 43 38 44 39 45 97 46
REMARK SMILES IDX 40 47 96 48 41 49 42 50 43 51 90 52 44 53 95 54 89 55 91 56
REMARK SMILES IDX 45 57 94 58 88 59 87 60 46 62 76 63 57 64 75 65 58 66 61 67
REMARK SMILES IDX 74 68 92 69 59 70 60 71 73 73 93 74 62 75 47 76 48 77 56 78
REMARK SMILES IDX 49 79 55 80 50 81 51 82 52 83 53 84 54 85 77 86 78 87 86 88
REMARK SMILES IDX 79 89 85 90 80 91 81 92 82 93 83 94 84 95 63 96 64 97 72 98
REMARK SMILES IDX 65 99 71 100 66 101 67 102 68 103 69 104 70 105
REMARK H PARENT 28 7 5 18 13 26 35 42 91 61 61 72
REMARK Flexibility Score: inf
ROOT
ATOM      1  C   UNL A   1      38.798  22.266  25.991  1.00  0.00     0.002 C 
ENDROOT
BRANCH   1   2
ATOM      2  C   UNL A   1      37.631  21.759  25.083  1.00  0.00     0.021 C 
BRANCH   2   3
ATOM      3  C   UNL A   1      36.198  22.409  25.081  1.00  0.00     0.116 C 
BRANCH   3   4
ATOM      4  N   UNL A   1      35.542  22.192  26.398  1.00  0.00    -0.352 N 
ATOM      5  C   UNL A   1      34.347  22.321  27.074  1.00  0.00     0.253 C 
ATOM      6  O   UNL A   1      34.458  21.959  28.260  1.00  0.00    -0.269 OA
ATOM      7  H   UNL A   1      36.209  21.817  27.017  1.00  0.00     0.163 HD
BRANCH   5   8
ATOM      8  C   UNL A   1      32.951  22.757  26.657  1.00  0.00     0.065 A 
ATOM      9  C   UNL A   1      31.967  22.054  25.943  1.00  0.00     0.050 A 
ATOM     10  C   UNL A   1      30.674  22.610  25.799  1.00  0.00     0.029 A 
ATOM     11  C   UNL A   1      30.398  23.927  26.147  1.00  0.00     0.029 A 
ATOM     12  C   UNL A   1      32.653  24.122  26.923  1.00  0.00     0.042 A 
ATOM     13  C   UNL A   1      31.437  24.729  26.572  1.00  0.00     0.050 A 
BRANCH   9  14
ATOM     14  N   UNL A   1      32.277  20.976  25.147  1.00  0.00    -0.360 N 
ATOM     15  N   UNL A   1      32.395  18.512  23.849  1.00  0.00    -0.331 N 
ATOM     16  C   UNL A   1      32.489  18.614  25.321  1.00  0.00     0.284 C 
ATOM     17  C   UNL A   1      32.313  19.746  23.043  1.00  0.00     0.284 C 
ATOM     18  H   UNL A   1      31.427  18.197  23.778  1.00  0.00     0.348 HD
ATOM     19  C   UNL A   1      33.032  19.929  25.839  1.00  0.00     0.178 C 
ATOM     20  C   UNL A   1      32.616  21.090  23.735  1.00  0.00     0.178 C 
BRANCH  15  21
ATOM     21  C   UNL A   1      33.206  17.477  23.263  1.00  0.00     0.277 C 
BRANCH  21  22
ATOM     22  C   UNL A   1      34.186  16.927  24.232  1.00  0.00     0.181 C 
BRANCH  22  23
ATOM     23  C   UNL A   1      33.696  15.611  24.813  1.00  0.00     0.068 C 
ATOM     24  N   UNL A   1      33.289  14.519  25.296  1.00  0.00    -0.198 NA
ENDBRANCH  22  23
ENDBRANCH  21  22
ENDBRANCH  15  21
ENDBRANCH   9  14
BRANCH  13  25
ATOM     25  N   UNL A   1      31.370  26.154  26.630  1.00  0.00    -0.280 N 
ATOM     26  H   UNL A   1      30.749  26.546  27.285  1.00  0.00     0.180 HD
BRANCH  25  27
ATOM     27  S   UNL A   1      32.254  27.222  25.685  1.00  0.00     0.263 S 
ATOM     28  O   UNL A   1      31.511  28.473  25.660  1.00  0.00    -0.201 OA
ATOM     29  O   UNL A   1      33.612  27.193  26.171  1.00  0.00    -0.201 OA
BRANCH  27  30
ATOM     30  C   UNL A   1      32.275  26.596  24.022  1.00  0.00     0.106 A 
ATOM     31  C   UNL A   1      33.526  26.237  23.483  1.00  0.00     0.024 A 
ATOM     32  C   UNL A   1      31.130  26.520  23.230  1.00  0.00     0.061 A 
ATOM     33  C   UNL A   1      33.639  25.864  22.144  1.00  0.00     0.002 A 
ATOM     34  C   UNL A   1      31.256  26.149  21.883  1.00  0.00     0.022 A 
ATOM     35  Cl  UNL A   1      29.538  26.852  23.803  1.00  0.00    -0.083 Cl
ATOM     36  C   UNL A   1      32.505  25.835  21.339  1.00  0.00     0.002 A 
ENDBRANCH  27  30
ENDBRANCH  25  27
ENDBRANCH  13  25
ENDBRANCH   5   8
ENDBRANCH   3   4
ENDBRANCH   2   3
ENDBRANCH   1   2
BRANCH   1  37
ATOM     37  C   UNL A   1      39.928  21.295  26.357  1.00  0.00     0.002 C 
BRANCH  37  38
ATOM     38  C   UNL A   1      41.416  21.728  26.142  1.00  0.00     0.021 C 
BRANCH  38  39
ATOM     39  C   UNL A   1      41.973  23.053  26.717  1.00  0.00     0.116 C 
BRANCH  39  40
ATOM     40  N   UNL A   1      42.255  24.080  25.729  1.00  0.00    -0.352 N 
ATOM     41  C   UNL A   1      42.196  25.459  25.776  1.00  0.00     0.251 C 
ATOM     42  H   UNL A   1      42.544  23.725  24.858  1.00  0.00     0.163 HD
ATOM     43  O   UNL A   1      42.458  26.069  24.738  1.00  0.00    -0.269 OA
BRANCH  41  44
ATOM     44  C   UNL A   1      41.807  26.265  26.979  1.00  0.00     0.039 A 
ATOM     45  C   UNL A   1      42.614  27.374  27.293  1.00  0.00     0.014 A 
ATOM     46  C   UNL A   1      40.811  25.904  27.891  1.00  0.00     0.014 A 
ATOM     47  C   UNL A   1      42.410  28.125  28.466  1.00  0.00     0.010 A 
ATOM     48  C   UNL A   1      40.591  26.673  29.061  1.00  0.00     0.010 A 
ATOM     49  C   UNL A   1      41.385  27.796  29.366  1.00  0.00    -0.014 A 
BRANCH  49  50
ATOM     50  C   UNL A   1      41.151  28.635  30.591  1.00  0.00     0.031 A 
ATOM     51  C   UNL A   1      40.047  29.667  30.652  1.00  0.00     0.074 A 
ATOM     52  C   UNL A   1      41.929  28.475  31.684  1.00  0.00     0.049 A 
ATOM     53  N   UNL A   1      39.728  30.481  31.631  1.00  0.00    -0.248 NA
ATOM     54  C   UNL A   1      39.191  29.799  29.465  1.00  0.00     0.031 C 
ATOM     55  C   UNL A   1      43.020  27.509  31.808  1.00  0.00     0.029 A 
ATOM     56  N   UNL A   1      41.922  29.123  32.901  1.00  0.00    -0.354 N 
ATOM     57  C   UNL A   1      38.644  31.227  31.180  1.00  0.00     0.074 A 
ATOM     58  C   UNL A   1      38.376  30.783  29.826  1.00  0.00     0.031 C 
ATOM     59  C   UNL A   1      43.571  27.622  33.029  1.00  0.00     0.029 A 
ATOM     60  C   UNL A   1      42.902  28.692  33.767  1.00  0.00     0.049 A 
ATOM     61  H   UNL A   1      41.274  29.828  33.131  1.00  0.00     0.167 HD
ATOM     62  C   UNL A   1      37.929  32.186  31.823  1.00  0.00     0.031 A 
ATOM     63  C   UNL A   1      43.246  29.109  35.004  1.00  0.00     0.031 A 
ATOM     64  C   UNL A   1      38.175  32.644  33.169  1.00  0.00     0.049 A 
ATOM     65  C   UNL A   1      42.481  30.217  35.676  1.00  0.00     0.074 A 
ATOM     66  C   UNL A   1      37.469  33.592  33.896  1.00  0.00     0.029 A 
ATOM     67  N   UNL A   1      39.200  32.203  33.989  1.00  0.00    -0.354 N 
ATOM     68  N   UNL A   1      41.442  30.882  35.236  1.00  0.00    -0.248 NA
ATOM     69  C   UNL A   1      42.933  30.628  37.016  1.00  0.00     0.031 C 
ATOM     70  C   UNL A   1      38.099  33.760  35.134  1.00  0.00     0.029 A 
ATOM     71  C   UNL A   1      39.163  32.879  35.200  1.00  0.00     0.049 A 
ATOM     72  H   UNL A   1      39.858  31.511  33.748  1.00  0.00     0.167 HD
ATOM     73  C   UNL A   1      41.098  31.767  36.255  1.00  0.00     0.074 A 
ATOM     74  C   UNL A   1      42.036  31.552  37.336  1.00  0.00     0.031 C 
ATOM     75  C   UNL A   1      40.089  32.671  36.286  1.00  0.00     0.031 A 
BRANCH  62  76
ATOM     76  C   UNL A   1      36.800  32.842  31.068  1.00  0.00    -0.014 A 
ATOM     77  C   UNL A   1      37.037  33.916  30.192  1.00  0.00     0.010 A 
ATOM     78  C   UNL A   1      35.494  32.329  31.182  1.00  0.00     0.010 A 
ATOM     79  C   UNL A   1      35.982  34.493  29.477  1.00  0.00     0.020 A 
ATOM     80  C   UNL A   1      34.440  32.887  30.452  1.00  0.00     0.020 A 
ATOM     81  C   UNL A   1      34.689  33.979  29.618  1.00  0.00     0.054 A 
BRANCH  81  82
ATOM     82  S   UNL A   1      33.340  34.740  28.673  1.00  0.00     0.124 S 
ATOM     83  O   UNL A   1      32.408  35.118  29.733  1.00  0.00    -0.237 OA
ATOM     84  O   UNL A   1      34.005  35.851  27.998  1.00  0.00    -0.237 OA
ATOM     85  O   UNL A   1      32.882  33.667  27.795  1.00  0.00    -0.744 OA
ENDBRANCH  81  82
ENDBRANCH  62  76
BRANCH  63  86
ATOM     86  C   UNL A   1      44.406  28.478  35.696  1.00  0.00    -0.014 A 
ATOM     87  C   UNL A   1      44.227  27.359  36.528  1.00  0.00     0.010 A 
ATOM     88  C   UNL A   1      45.699  29.002  35.521  1.00  0.00     0.010 A 
ATOM     89  C   UNL A   1      45.321  26.780  37.178  1.00  0.00     0.020 A 
ATOM     90  C   UNL A   1      46.798  28.411  36.149  1.00  0.00     0.020 A 
ATOM     91  C   UNL A   1      46.601  27.307  36.981  1.00  0.00     0.054 A 
BRANCH  91  92
ATOM     92  S   UNL A   1      48.019  26.501  37.777  1.00  0.00     0.124 S 
ATOM     93  O   UNL A   1      49.120  27.378  37.392  1.00  0.00    -0.237 OA
ATOM     94  O   UNL A   1      47.646  26.530  39.189  1.00  0.00    -0.237 OA
ATOM     95  O   UNL A   1      48.034  25.172  37.172  1.00  0.00    -0.744 OA
ENDBRANCH  91  92
ENDBRANCH  63  86
BRANCH  75  96
ATOM     96  C   UNL A   1      39.903  33.487  37.539  1.00  0.00    -0.014 A 
ATOM     97  C   UNL A   1      40.418  34.791  37.646  1.00  0.00     0.010 A 
ATOM     98  C   UNL A   1      39.132  32.969  38.597  1.00  0.00     0.010 A 
ATOM     99  C   UNL A   1      40.175  35.556  38.792  1.00  0.00     0.020 A 
ATOM    100  C   UNL A   1      38.869  33.738  39.735  1.00  0.00     0.020 A 
ATOM    101  C   UNL A   1      39.399  35.026  39.828  1.00  0.00     0.054 A 
BRANCH 101 102
ATOM    102  S   UNL A   1      39.039  36.065  41.273  1.00  0.00     0.124 S 
ATOM    103  O   UNL A   1      37.744  35.546  41.707  1.00  0.00    -0.237 OA
ATOM    104  O   UNL A   1      40.160  35.777  42.163  1.00  0.00    -0.237 OA
ATOM    105  O   UNL A   1      39.016  37.421  40.728  1.00  0.00    -0.744 OA
ENDBRANCH 101 102
ENDBRANCH  75  96
ENDBRANCH  49  50
ENDBRANCH  41  44
ENDBRANCH  39  40
ENDBRANCH  38  39
ENDBRANCH  37  38
ENDBRANCH   1  37
TORSDOF 23
ENDMDL
MODEL 2
REMARK VINA RESULT:     -11.3      0.429      7.603
REMARK SMILES N#CCC[NH+]1CCN(c2ccc(NS(=O)(=O)c3ccccc3Cl)cc2C(=O)NCCCCCCNC(=O)c2ccc(-c3c4nc(c(-c5ccc(S(=O)(=O)[O-])cc5)c5ccc([nH]5)c(-c5ccc(S(=O)(=O)[O-])cc5)c5nc(c(-c6ccc(S(=O)(=O)[O-])cc6)c6ccc3[nH]6)C=C5)C=C4)cc2)CC1
REMARK SMILES IDX 31 1 30 2 29 3 28 4 26 5 27 6 25 8 9 9 10 10 11 11 24 12
REMARK SMILES IDX 12 13 8 14 5 15 6 16 99 17 7 19 98 20 4 21 3 22 2 23 1 24
REMARK SMILES IDX 13 25 14 27 15 28 16 29 17 30 18 31 22 32 19 33 21 34 23 35
REMARK SMILES IDX 20 36 32 37 33 38 34 39 35 40 36 41 37 43 38 44 39 45 97 46
REMARK SMILES IDX 40 47 96 48 41 49 42 50 43 51 90 52 44 53 95 54 89 55 91 56
REMARK SMILES IDX 45 57 94 58 88 59 87 60 46 62 76 63 57 64 75 65 58 66 61 67
REMARK SMILES IDX 74 68 92 69 59 70 60 71 73 73 93 74 62 75 47 76 48 77 56 78
REMARK SMILES IDX 49 79 55 80 50 81 51 82 52 83 53 84 54 85 77 86 78 87 86 88
REMARK SMILES IDX 79 89 85 90 80 91 81 92 82 93 83 94 84 95 63 96 64 97 72 98
REMARK SMILES IDX 65 99 71 100 66 101 67 102 68 103 69 104 70 105
REMARK H PARENT 28 7 5 18 13 26 35 42 91 61 61 72
REMARK Flexibility Score: inf
ROOT
ATOM      1  C   UNL A   1      39.023  22.200  25.885  1.00  0.00     0.002 C 
ENDROOT
BRANCH   1   2
ATOM      2  C   UNL A   1      37.690  21.900  25.126  1.00  0.00     0.021 C 
BRANCH   2   3
ATOM      3  C   UNL A   1      36.374  22.738  25.333  1.00  0.00     0.116 C 
BRANCH   3   4
ATOM      4  N   UNL A   1      35.595  22.184  26.472  1.00  0.00    -0.352 N 
ATOM      5  C   UNL A   1      34.335  22.134  27.031  1.00  0.00     0.253 C 
ATOM      6  O   UNL A   1      34.336  21.473  28.086  1.00  0.00    -0.269 OA
ATOM      7  H   UNL A   1      36.206  21.658  27.038  1.00  0.00     0.163 HD
BRANCH   5   8
ATOM      8  C   UNL A   1      32.978  22.667  26.601  1.00  0.00     0.065 A 
ATOM      9  C   UNL A   1      31.985  22.064  25.812  1.00  0.00     0.050 A 
ATOM     10  C   UNL A   1      30.728  22.694  25.665  1.00  0.00     0.029 A 
ATOM     11  C   UNL A   1      30.505  23.998  26.091  1.00  0.00     0.029 A 
ATOM     12  C   UNL A   1      32.739  24.026  26.948  1.00  0.00     0.042 A 
ATOM     13  C   UNL A   1      31.567  24.717  26.600  1.00  0.00     0.050 A 
BRANCH   9  14
ATOM     14  N   UNL A   1      32.269  21.025  24.956  1.00  0.00    -0.360 N 
ATOM     15  N   UNL A   1      32.327  18.635  23.523  1.00  0.00    -0.331 N 
ATOM     16  C   UNL A   1      32.427  18.653  24.998  1.00  0.00     0.284 C 
ATOM     17  C   UNL A   1      32.272  19.913  22.788  1.00  0.00     0.284 C 
ATOM     18  H   UNL A   1      31.352  18.346  23.438  1.00  0.00     0.348 HD
ATOM     19  C   UNL A   1      33.001  19.925  25.586  1.00  0.00     0.178 C 
ATOM     20  C   UNL A   1      32.606  21.209  23.552  1.00  0.00     0.178 C 
BRANCH  15  21
ATOM     21  C   UNL A   1      33.114  17.615  22.878  1.00  0.00     0.277 C 
BRANCH  21  22
ATOM     22  C   UNL A   1      34.174  17.087  23.771  1.00  0.00     0.181 C 
BRANCH  22  23
ATOM     23  C   UNL A   1      33.680  15.874  24.541  1.00  0.00     0.068 C 
ATOM     24  N   UNL A   1      33.270  14.867  25.181  1.00  0.00    -0.198 NA
ENDBRANCH  22  23
ENDBRANCH  21  22
ENDBRANCH  15  21
ENDBRANCH   9  14
BRANCH  13  25
ATOM     25  N   UNL A   1      31.569  26.137  26.750  1.00  0.00    -0.280 N 
ATOM     26  H   UNL A   1      31.125  26.502  27.549  1.00  0.00     0.180 HD
BRANCH  25  27
ATOM     27  S   UNL A   1      32.259  27.240  25.690  1.00  0.00     0.263 S 
ATOM     28  O   UNL A   1      31.354  28.377  25.621  1.00  0.00    -0.201 OA
ATOM     29  O   UNL A   1      33.628  27.425  26.106  1.00  0.00    -0.201 OA
BRANCH  27  30
ATOM     30  C   UNL A   1      32.293  26.501  24.075  1.00  0.00     0.106 A 
ATOM     31  C   UNL A   1      33.534  26.030  23.605  1.00  0.00     0.024 A 
ATOM     32  C   UNL A   1      31.171  26.442  23.248  1.00  0.00     0.061 A 
ATOM     33  C   UNL A   1      33.666  25.561  22.299  1.00  0.00     0.002 A 
ATOM     34  C   UNL A   1      31.316  25.972  21.934  1.00  0.00     0.022 A 
ATOM     35  Cl  UNL A   1      29.586  26.909  23.741  1.00  0.00    -0.083 Cl
ATOM     36  C   UNL A   1      32.559  25.547  21.458  1.00  0.00     0.002 A 
ENDBRANCH  27  30
ENDBRANCH  25  27
ENDBRANCH  13  25
ENDBRANCH   5   8
ENDBRANCH   3   4
ENDBRANCH   2   3
ENDBRANCH   1   2
BRANCH   1  37
ATOM     37  C   UNL A   1      39.935  21.030  26.271  1.00  0.00     0.002 C 
BRANCH  37  38
ATOM     38  C   UNL A   1      41.397  21.317  26.752  1.00  0.00     0.021 C 
BRANCH  38  39
ATOM     39  C   UNL A   1      41.854  22.734  27.174  1.00  0.00     0.116 C 
BRANCH  39  40
ATOM     40  N   UNL A   1      42.062  23.665  26.079  1.00  0.00    -0.352 N 
ATOM     41  C   UNL A   1      41.954  25.038  25.991  1.00  0.00     0.251 C 
ATOM     42  H   UNL A   1      42.330  23.233  25.236  1.00  0.00     0.163 HD
ATOM     43  O   UNL A   1      42.155  25.548  24.887  1.00  0.00    -0.269 OA
BRANCH  41  44
ATOM     44  C   UNL A   1      41.582  25.949  27.122  1.00  0.00     0.039 A 
ATOM     45  C   UNL A   1      42.471  26.998  27.417  1.00  0.00     0.014 A 
ATOM     46  C   UNL A   1      40.511  25.736  27.996  1.00  0.00     0.014 A 
ATOM     47  C   UNL A   1      42.279  27.835  28.532  1.00  0.00     0.010 A 
ATOM     48  C   UNL A   1      40.306  26.593  29.106  1.00  0.00     0.010 A 
ATOM     49  C   UNL A   1      41.184  27.656  29.390  1.00  0.00    -0.014 A 
BRANCH  49  50
ATOM     50  C   UNL A   1      40.967  28.587  30.551  1.00  0.00     0.031 A 
ATOM     51  C   UNL A   1      41.791  28.491  31.815  1.00  0.00     0.074 A 
ATOM     52  C   UNL A   1      40.024  29.552  30.482  1.00  0.00     0.049 A 
ATOM     53  N   UNL A   1      41.713  29.209  32.911  1.00  0.00    -0.248 NA
ATOM     54  C   UNL A   1      42.836  27.459  31.853  1.00  0.00     0.031 C 
ATOM     55  C   UNL A   1      39.158  29.805  29.330  1.00  0.00     0.029 A 
ATOM     56  N   UNL A   1      39.632  30.500  31.403  1.00  0.00    -0.354 N 
ATOM     57  C   UNL A   1      42.688  28.715  33.771  1.00  0.00     0.074 A 
ATOM     58  C   UNL A   1      43.329  27.616  33.076  1.00  0.00     0.031 C 
ATOM     59  C   UNL A   1      38.346  30.838  29.609  1.00  0.00     0.029 A 
ATOM     60  C   UNL A   1      38.601  31.304  30.971  1.00  0.00     0.049 A 
ATOM     61  H   UNL A   1      40.053  30.596  32.288  1.00  0.00     0.167 HD
ATOM     62  C   UNL A   1      43.031  29.132  35.018  1.00  0.00     0.031 A 
ATOM     63  C   UNL A   1      37.919  32.291  31.590  1.00  0.00     0.031 A 
ATOM     64  C   UNL A   1      42.410  30.223  35.729  1.00  0.00     0.049 A 
ATOM     65  C   UNL A   1      38.272  32.696  32.996  1.00  0.00     0.074 A 
ATOM     66  C   UNL A   1      42.728  30.721  36.985  1.00  0.00     0.029 A 
ATOM     67  N   UNL A   1      41.348  30.980  35.263  1.00  0.00    -0.354 N 
ATOM     68  N   UNL A   1      39.218  32.230  33.773  1.00  0.00    -0.248 NA
ATOM     69  C   UNL A   1      37.466  33.766  33.608  1.00  0.00     0.031 C 
ATOM     70  C   UNL A   1      41.825  31.742  37.298  1.00  0.00     0.029 A 
ATOM     71  C   UNL A   1      40.980  31.919  36.217  1.00  0.00     0.049 A 
ATOM     72  H   UNL A   1      40.918  30.869  34.385  1.00  0.00     0.167 HD
ATOM     73  C   UNL A   1      39.141  32.969  34.950  1.00  0.00     0.074 A 
ATOM     74  C   UNL A   1      38.058  33.915  34.785  1.00  0.00     0.031 C 
ATOM     75  C   UNL A   1      39.908  32.869  36.063  1.00  0.00     0.031 A 
BRANCH  62  76
ATOM     76  C   UNL A   1      44.133  28.385  35.727  1.00  0.00    -0.014 A 
ATOM     77  C   UNL A   1      45.475  28.790  35.617  1.00  0.00     0.010 A 
ATOM     78  C   UNL A   1      43.811  27.308  36.575  1.00  0.00     0.010 A 
ATOM     79  C   UNL A   1      46.480  28.104  36.305  1.00  0.00     0.020 A 
ATOM     80  C   UNL A   1      44.810  26.634  37.284  1.00  0.00     0.020 A 
ATOM     81  C   UNL A   1      46.142  27.025  37.129  1.00  0.00     0.054 A 
BRANCH  81  82
ATOM     82  S   UNL A   1      47.464  26.158  38.018  1.00  0.00     0.124 S 
ATOM     83  O   UNL A   1      46.722  25.505  39.094  1.00  0.00    -0.237 OA
ATOM     84  O   UNL A   1      48.007  25.264  36.999  1.00  0.00    -0.237 OA
ATOM     85  O   UNL A   1      48.360  27.230  38.442  1.00  0.00    -0.744 OA
ENDBRANCH  81  82
ENDBRANCH  62  76
BRANCH  63  86
ATOM     86  C   UNL A   1      36.796  32.966  30.880  1.00  0.00    -0.014 A 
ATOM     87  C   UNL A   1      37.043  33.991  29.950  1.00  0.00     0.010 A 
ATOM     88  C   UNL A   1      35.468  32.579  31.136  1.00  0.00     0.010 A 
ATOM     89  C   UNL A   1      35.981  34.622  29.295  1.00  0.00     0.020 A 
ATOM     90  C   UNL A   1      34.406  33.189  30.464  1.00  0.00     0.020 A 
ATOM     91  C   UNL A   1      34.669  34.214  29.553  1.00  0.00     0.054 A 
BRANCH  91  92
ATOM     92  S   UNL A   1      33.307  34.997  28.643  1.00  0.00     0.124 S 
ATOM     93  O   UNL A   1      32.731  33.863  27.928  1.00  0.00    -0.237 OA
ATOM     94  O   UNL A   1      32.489  35.554  29.717  1.00  0.00    -0.237 OA
ATOM     95  O   UNL A   1      33.985  35.987  27.810  1.00  0.00    -0.744 OA
ENDBRANCH  91  92
ENDBRANCH  63  86
BRANCH  75  96
ATOM     96  C   UNL A   1      39.643  33.826  37.197  1.00  0.00    -0.014 A 
ATOM     97  C   UNL A   1      38.875  33.446  38.311  1.00  0.00     0.010 A 
ATOM     98  C   UNL A   1      40.240  35.101  37.183  1.00  0.00     0.010 A 
ATOM     99  C   UNL A   1      38.700  34.327  39.384  1.00  0.00     0.020 A 
ATOM    100  C   UNL A   1      40.085  35.976  38.262  1.00  0.00     0.020 A 
ATOM    101  C   UNL A   1      39.309  35.586  39.355  1.00  0.00     0.054 A 
BRANCH 101 102
ATOM    102  S   UNL A   1      39.125  36.683  40.789  1.00  0.00     0.124 S 
ATOM    103  O   UNL A   1      38.149  35.961  41.601  1.00  0.00    -0.237 OA
ATOM    104  O   UNL A   1      40.481  36.730  41.333  1.00  0.00    -0.237 OA
ATOM    105  O   UNL A   1      38.650  37.936  40.210  1.00  0.00    -0.744 OA
ENDBRANCH 101 102
ENDBRANCH  75  96
ENDBRANCH  49  50
ENDBRANCH  41  44
ENDBRANCH  39  40
ENDBRANCH  38  39
ENDBRANCH  37  38
ENDBRANCH   1  37
TORSDOF 23
ENDMDL
MODEL 3
REMARK VINA RESULT:     -11.1      5.837      8.175
REMARK SMILES N#CCC[NH+]1CCN(c2ccc(NS(=O)(=O)c3ccccc3Cl)cc2C(=O)NCCCCCCNC(=O)c2ccc(-c3c4nc(c(-c5ccc(S(=O)(=O)[O-])cc5)c5ccc([nH]5)c(-c5ccc(S(=O)(=O)[O-])cc5)c5nc(c(-c6ccc(S(=O)(=O)[O-])cc6)c6ccc3[nH]6)C=C5)C=C4)cc2)CC1
REMARK SMILES IDX 31 1 30 2 29 3 28 4 26 5 27 6 25 8 9 9 10 10 11 11 24 12
REMARK SMILES IDX 12 13 8 14 5 15 6 16 99 17 7 19 98 20 4 21 3 22 2 23 1 24
REMARK SMILES IDX 13 25 14 27 15 28 16 29 17 30 18 31 22 32 19 33 21 34 23 35
REMARK SMILES IDX 20 36 32 37 33 38 34 39 35 40 36 41 37 43 38 44 39 45 97 46
REMARK SMILES IDX 40 47 96 48 41 49 42 50 43 51 90 52 44 53 95 54 89 55 91 56
REMARK SMILES IDX 45 57 94 58 88 59 87 60 46 62 76 63 57 64 75 65 58 66 61 67
REMARK SMILES IDX 74 68 92 69 59 70 60 71 73 73 93 74 62 75 47 76 48 77 56 78
REMARK SMILES IDX 49 79 55 80 50 81 51 82 52 83 53 84 54 85 77 86 78 87 86 88
REMARK SMILES IDX 79 89 85 90 80 91 81 92 82 93 83 94 84 95 63 96 64 97 72 98
REMARK SMILES IDX 65 99 71 100 66 101 67 102 68 103 69 104 70 105
REMARK H PARENT 28 7 5 18 13 26 35 42 91 61 61 72
REMARK Flexibility Score: inf
ROOT
ATOM      1  C   UNL A   1      36.991  21.823  24.846  1.00  0.00     0.002 C 
ENDROOT
BRANCH   1   2
ATOM      2  C   UNL A   1      36.793  22.607  23.509  1.00  0.00     0.021 C 
BRANCH   2   3
ATOM      3  C   UNL A   1      35.444  23.317  23.119  1.00  0.00     0.116 C 
BRANCH   3   4
ATOM      4  N   UNL A   1      35.184  24.452  24.043  1.00  0.00    -0.352 N 
ATOM      5  C   UNL A   1      34.192  25.272  24.539  1.00  0.00     0.253 C 
ATOM      6  O   UNL A   1      34.655  26.115  25.328  1.00  0.00    -0.269 OA
ATOM      7  H   UNL A   1      36.039  24.718  24.455  1.00  0.00     0.163 HD
BRANCH   5   8
ATOM      8  C   UNL A   1      32.683  25.316  24.355  1.00  0.00     0.065 A 
ATOM      9  C   UNL A   1      31.711  24.355  24.679  1.00  0.00     0.050 A 
ATOM     10  C   UNL A   1      30.339  24.677  24.556  1.00  0.00     0.029 A 
ATOM     11  C   UNL A   1      29.910  25.833  23.915  1.00  0.00     0.029 A 
ATOM     12  C   UNL A   1      32.207  26.446  23.633  1.00  0.00     0.042 A 
ATOM     13  C   UNL A   1      30.853  26.646  23.319  1.00  0.00     0.050 A 
BRANCH   9  14
ATOM     14  N   UNL A   1      32.030  23.028  24.853  1.00  0.00    -0.360 N 
ATOM     15  N   UNL A   1      33.138  20.473  24.750  1.00  0.00    -0.331 N 
ATOM     16  C   UNL A   1      32.601  21.130  23.540  1.00  0.00     0.284 C 
ATOM     17  C   UNL A   1      33.017  21.153  26.055  1.00  0.00     0.284 C 
ATOM     18  H   UNL A   1      34.133  20.617  24.575  1.00  0.00     0.348 HD
ATOM     19  C   UNL A   1      31.516  22.155  23.795  1.00  0.00     0.178 C 
ATOM     20  C   UNL A   1      32.088  22.379  26.155  1.00  0.00     0.178 C 
BRANCH  15  21
ATOM     21  C   UNL A   1      32.934  19.049  24.805  1.00  0.00     0.277 C 
BRANCH  21  22
ATOM     22  C   UNL A   1      32.597  18.487  23.474  1.00  0.00     0.181 C 
BRANCH  22  23
ATOM     23  C   UNL A   1      33.482  17.295  23.147  1.00  0.00     0.068 C 
ATOM     24  N   UNL A   1      34.217  16.307  22.877  1.00  0.00    -0.198 NA
ENDBRANCH  22  23
ENDBRANCH  21  22
ENDBRANCH  15  21
ENDBRANCH   9  14
BRANCH  13  25
ATOM     25  N   UNL A   1      30.542  27.653  22.356  1.00  0.00    -0.280 N 
ATOM     26  H   UNL A   1      30.939  27.555  21.462  1.00  0.00     0.180 HD
BRANCH  25  27
ATOM     27  S   UNL A   1      29.559  28.990  22.610  1.00  0.00     0.263 S 
ATOM     28  O   UNL A   1      29.610  29.785  21.393  1.00  0.00    -0.201 OA
ATOM     29  O   UNL A   1      28.296  28.498  23.105  1.00  0.00    -0.201 OA
BRANCH  27  30
ATOM     30  C   UNL A   1      30.287  29.969  23.903  1.00  0.00     0.106 A 
ATOM     31  C   UNL A   1      31.368  29.406  24.609  1.00  0.00     0.024 A 
ATOM     32  C   UNL A   1      29.786  31.215  24.279  1.00  0.00     0.061 A 
ATOM     33  C   UNL A   1      31.904  30.055  25.720  1.00  0.00     0.002 A 
ATOM     34  C   UNL A   1      30.329  31.857  25.401  1.00  0.00     0.022 A 
ATOM     35  Cl  UNL A   1      28.525  32.040  23.440  1.00  0.00    -0.083 Cl
ATOM     36  C   UNL A   1      31.373  31.275  26.126  1.00  0.00     0.002 A 
ENDBRANCH  27  30
ENDBRANCH  25  27
ENDBRANCH  13  25
ENDBRANCH   5   8
ENDBRANCH   3   4
ENDBRANCH   2   3
ENDBRANCH   1   2
BRANCH   1  37
ATOM     37  C   UNL A   1      36.946  20.290  24.820  1.00  0.00     0.002 C 
BRANCH  37  38
ATOM     38  C   UNL A   1      38.266  19.475  25.022  1.00  0.00     0.021 C 
BRANCH  38  39
ATOM     39  C   UNL A   1      39.400  19.974  25.952  1.00  0.00     0.116 C 
BRANCH  39  40
ATOM     40  N   UNL A   1      40.542  19.083  26.061  1.00  0.00    -0.352 N 
ATOM     41  C   UNL A   1      41.892  19.317  26.224  1.00  0.00     0.251 C 
ATOM     42  H   UNL A   1      40.307  18.129  26.006  1.00  0.00     0.163 HD
ATOM     43  O   UNL A   1      42.635  18.333  26.237  1.00  0.00    -0.269 OA
BRANCH  41  44
ATOM     44  C   UNL A   1      42.524  20.670  26.355  1.00  0.00     0.039 A 
ATOM     45  C   UNL A   1      42.531  21.251  27.636  1.00  0.00     0.014 A 
ATOM     46  C   UNL A   1      42.956  21.454  25.281  1.00  0.00     0.014 A 
ATOM     47  C   UNL A   1      42.990  22.564  27.847  1.00  0.00     0.010 A 
ATOM     48  C   UNL A   1      43.439  22.769  25.497  1.00  0.00     0.010 A 
ATOM     49  C   UNL A   1      43.465  23.344  26.782  1.00  0.00    -0.014 A 
BRANCH  49  50
ATOM     50  C   UNL A   1      43.994  24.729  27.030  1.00  0.00     0.031 A 
ATOM     51  C   UNL A   1      43.088  25.866  27.447  1.00  0.00     0.074 A 
ATOM     52  C   UNL A   1      45.313  24.988  26.894  1.00  0.00     0.049 A 
ATOM     53  N   UNL A   1      43.390  27.122  27.682  1.00  0.00    -0.248 NA
ATOM     54  C   UNL A   1      41.664  25.553  27.625  1.00  0.00     0.031 C 
ATOM     55  C   UNL A   1      46.332  24.006  26.526  1.00  0.00     0.029 A 
ATOM     56  N   UNL A   1      46.025  26.159  27.048  1.00  0.00    -0.354 N 
ATOM     57  C   UNL A   1      42.198  27.751  28.027  1.00  0.00     0.074 A 
ATOM     58  C   UNL A   1      41.162  26.740  27.945  1.00  0.00     0.031 C 
ATOM     59  C   UNL A   1      47.532  24.609  26.489  1.00  0.00     0.029 A 
ATOM     60  C   UNL A   1      47.372  26.030  26.793  1.00  0.00     0.049 A 
ATOM     61  H   UNL A   1      45.609  27.009  27.318  1.00  0.00     0.167 HD
ATOM     62  C   UNL A   1      41.976  29.042  28.385  1.00  0.00     0.031 A 
ATOM     63  C   UNL A   1      48.370  26.939  26.784  1.00  0.00     0.031 A 
ATOM     64  C   UNL A   1      42.990  30.065  28.475  1.00  0.00     0.049 A 
ATOM     65  C   UNL A   1      48.092  28.379  27.122  1.00  0.00     0.074 A 
ATOM     66  C   UNL A   1      42.841  31.390  28.862  1.00  0.00     0.029 A 
ATOM     67  N   UNL A   1      44.330  29.893  28.172  1.00  0.00    -0.354 N 
ATOM     68  N   UNL A   1      46.960  28.938  27.473  1.00  0.00    -0.248 NA
ATOM     69  C   UNL A   1      49.231  29.312  27.068  1.00  0.00     0.031 C 
ATOM     70  C   UNL A   1      44.080  32.028  28.742  1.00  0.00     0.029 A 
ATOM     71  C   UNL A   1      45.011  31.091  28.334  1.00  0.00     0.049 A 
ATOM     72  H   UNL A   1      44.739  29.045  27.884  1.00  0.00     0.167 HD
ATOM     73  C   UNL A   1      47.256  30.278  27.710  1.00  0.00     0.074 A 
ATOM     74  C   UNL A   1      48.673  30.447  27.467  1.00  0.00     0.031 C 
ATOM     75  C   UNL A   1      46.422  31.272  28.100  1.00  0.00     0.031 A 
BRANCH  62  76
ATOM     76  C   UNL A   1      40.557  29.449  28.694  1.00  0.00    -0.014 A 
ATOM     77  C   UNL A   1      40.211  29.993  29.943  1.00  0.00     0.010 A 
ATOM     78  C   UNL A   1      39.572  29.353  27.693  1.00  0.00     0.010 A 
ATOM     79  C   UNL A   1      38.896  30.392  30.201  1.00  0.00     0.020 A 
ATOM     80  C   UNL A   1      38.261  29.774  27.939  1.00  0.00     0.020 A 
ATOM     81  C   UNL A   1      37.927  30.273  29.200  1.00  0.00     0.054 A 
BRANCH  81  82
ATOM     82  S   UNL A   1      36.231  30.806  29.558  1.00  0.00     0.124 S 
ATOM     83  O   UNL A   1      35.446  29.849  28.781  1.00  0.00    -0.237 OA
ATOM     84  O   UNL A   1      36.144  30.657  31.008  1.00  0.00    -0.237 OA
ATOM     85  O   UNL A   1      36.189  32.184  29.074  1.00  0.00    -0.744 OA
ENDBRANCH  81  82
ENDBRANCH  62  76
BRANCH  63  86
ATOM     86  C   UNL A   1      49.749  26.513  26.415  1.00  0.00    -0.014 A 
ATOM     87  C   UNL A   1      50.633  26.010  27.387  1.00  0.00     0.010 A 
ATOM     88  C   UNL A   1      50.183  26.610  25.081  1.00  0.00     0.010 A 
ATOM     89  C   UNL A   1      51.927  25.620  27.031  1.00  0.00     0.020 A 
ATOM     90  C   UNL A   1      51.466  26.196  24.717  1.00  0.00     0.020 A 
ATOM     91  C   UNL A   1      52.334  25.711  25.696  1.00  0.00     0.054 A 
BRANCH  91  92
ATOM     92  S   UNL A   1      53.994  25.136  25.240  1.00  0.00     0.124 S 
ATOM     93  O   UNL A   1      54.757  25.424  26.450  1.00  0.00    -0.237 OA
ATOM     94  O   UNL A   1      53.770  23.723  24.950  1.00  0.00    -0.237 OA
ATOM     95  O   UNL A   1      54.327  25.956  24.077  1.00  0.00    -0.744 OA
ENDBRANCH  91  92
ENDBRANCH  63  86
BRANCH  75  96
ATOM     96  C   UNL A   1      47.007  32.641  28.331  1.00  0.00    -0.014 A 
ATOM     97  C   UNL A   1      47.400  33.062  29.613  1.00  0.00     0.010 A 
ATOM     98  C   UNL A   1      47.243  33.490  27.232  1.00  0.00     0.010 A 
ATOM     99  C   UNL A   1      48.005  34.311  29.794  1.00  0.00     0.020 A 
ATOM    100  C   UNL A   1      47.866  34.729  27.406  1.00  0.00     0.020 A 
ATOM    101  C   UNL A   1      48.238  35.136  28.688  1.00  0.00     0.054 A 
BRANCH 101 102
ATOM    102  S   UNL A   1      49.089  36.719  28.940  1.00  0.00     0.124 S 
ATOM    103  O   UNL A   1      49.295  36.729  30.386  1.00  0.00    -0.237 OA
ATOM    104  O   UNL A   1      50.299  36.565  28.136  1.00  0.00    -0.237 OA
ATOM    105  O   UNL A   1      48.138  37.708  28.439  1.00  0.00    -0.744 OA
ENDBRANCH 101 102
ENDBRANCH  75  96
ENDBRANCH  49  50
ENDBRANCH  41  44
ENDBRANCH  39  40
ENDBRANCH  38  39
ENDBRANCH  37  38
ENDBRANCH   1  37
TORSDOF 23
ENDMDL
