MODEL 1
REMARK VINA RESULT:     -12.9      0.000      0.000
REMARK SMILES Cc1ccc(C[C@@H](Cc2cc(F)cc(Br)c2)C(=O)NCCCCCCNC(=O)c2ccc(-c3c4nc(c(-c5ccc(S(=O)(=O)[O-])cc5)c5ccc([nH]5)c(-c5ccc(S(=O)(=O)[O-])cc5)c5nc(c(-c6ccc(S(=O)(=O)[O-])cc6)c6ccc3[nH]6)C=C5)C=C4)cc2)cc1
REMARK SMILES IDX 23 1 22 2 21 3 20 4 19 5 17 6 18 7 7 9 6 10 5 11 1 12 2 13
REMARK SMILES IDX 3 14 90 15 4 16 89 17 8 18 9 19 10 20 16 21 11 22 14 23
REMARK SMILES IDX 12 24 13 25 15 26 24 27 25 28 26 29 27 30 28 32 29 33 30 34
REMARK SMILES IDX 88 35 31 36 87 37 32 38 33 39 34 40 81 41 35 42 86 43 80 44
REMARK SMILES IDX 82 45 36 46 85 47 79 48 78 49 37 51 67 52 48 53 66 54 49 55
REMARK SMILES IDX 52 56 65 57 83 58 50 59 51 60 64 62 84 63 53 64 38 65 39 66
REMARK SMILES IDX 47 67 40 68 46 69 41 70 42 71 43 72 44 73 45 74 68 75 69 76
REMARK SMILES IDX 77 77 70 78 76 79 71 80 72 81 73 82 74 83 75 84 54 85 55 86
REMARK SMILES IDX 63 87 56 88 62 89 57 90 58 91 59 92 60 93 61 94
REMARK H PARENT 19 8 26 31 82 50 52 61
REMARK Flexibility Score: inf
ROOT
ATOM      1  C   UNL A   1      33.338  28.703  25.194  1.00  0.00     0.002 C 
ENDROOT
BRANCH   1   2
ATOM      2  C   UNL A   1      31.853  28.932  24.853  1.00  0.00     0.002 C 
BRANCH   2   3
ATOM      3  C   UNL A   1      31.381  28.511  23.455  1.00  0.00     0.021 C 
BRANCH   3   4
ATOM      4  C   UNL A   1      31.530  27.026  23.150  1.00  0.00     0.116 C 
BRANCH   4   5
ATOM      5  N   UNL A   1      32.123  26.783  21.848  1.00  0.00    -0.356 N 
ATOM      6  C   UNL A   1      32.779  25.688  21.376  1.00  0.00     0.223 C 
ATOM      7  O   UNL A   1      33.055  25.654  20.173  1.00  0.00    -0.275 OA
ATOM      8  H   UNL A   1      32.037  27.525  21.208  1.00  0.00     0.163 HD
BRANCH   6   9
ATOM      9  C   UNL A   1      33.205  24.536  22.283  1.00  0.00     0.087 C 
BRANCH   9  10
ATOM     10  C   UNL A   1      34.169  25.134  23.344  1.00  0.00     0.049 C 
BRANCH  10  11
ATOM     11  C   UNL A   1      35.302  24.286  23.882  1.00  0.00    -0.047 A 
ATOM     12  C   UNL A   1      38.151  21.541  25.641  1.00  0.00     0.044 C 
ATOM     13  C   UNL A   1      37.179  22.510  25.037  1.00  0.00    -0.051 A 
ATOM     14  C   UNL A   1      36.787  22.362  23.704  1.00  0.00     0.004 A 
ATOM     15  C   UNL A   1      36.646  23.564  25.784  1.00  0.00     0.004 A 
ATOM     16  C   UNL A   1      35.847  23.229  23.141  1.00  0.00     0.004 A 
ATOM     17  C   UNL A   1      35.721  24.444  25.211  1.00  0.00     0.004 A 
ENDBRANCH  10  11
ENDBRANCH   9  10
BRANCH   9  18
ATOM     18  C   UNL A   1      32.077  23.644  22.854  1.00  0.00     0.049 C 
BRANCH  18  19
ATOM     19  C   UNL A   1      32.311  22.457  23.768  1.00  0.00    -0.043 A 
ATOM     20  C   UNL A   1      32.180  21.175  23.199  1.00  0.00     0.043 A 
ATOM     21  C   UNL A   1      32.684  22.536  25.117  1.00  0.00     0.019 A 
ATOM     22  C   UNL A   1      32.516  20.033  23.920  1.00  0.00     0.124 A 
ATOM     23  C   UNL A   1      33.057  21.379  25.815  1.00  0.00     0.021 A 
ATOM     24  F   UNL A   1      32.403  18.833  23.336  1.00  0.00    -0.207 F 
ATOM     25  C   UNL A   1      32.986  20.124  25.219  1.00  0.00     0.055 A 
ATOM     26  Br  UNL A   1      33.720  21.527  27.581  1.00  0.00    -0.051 Br
ENDBRANCH  18  19
ENDBRANCH   9  18
ENDBRANCH   6   9
ENDBRANCH   4   5
ENDBRANCH   3   4
ENDBRANCH   2   3
ENDBRANCH   1   2
BRANCH   1  27
ATOM     27  C   UNL A   1      33.704  28.504  26.669  1.00  0.00     0.021 C 
BRANCH  27  28
ATOM     28  C   UNL A   1      34.040  29.777  27.424  1.00  0.00     0.116 C 
BRANCH  28  29
ATOM     29  N   UNL A   1      35.175  30.535  26.937  1.00  0.00    -0.352 N 
ATOM     30  C   UNL A   1      36.146  30.862  27.891  1.00  0.00     0.251 C 
ATOM     31  H   UNL A   1      35.258  30.804  25.994  1.00  0.00     0.163 HD
ATOM     32  O   UNL A   1      36.073  31.794  28.680  1.00  0.00    -0.269 OA
BRANCH  30  33
ATOM     33  C   UNL A   1      37.066  29.735  28.146  1.00  0.00     0.039 A 
ATOM     34  C   UNL A   1      37.142  29.095  29.380  1.00  0.00     0.014 A 
ATOM     35  C   UNL A   1      38.037  29.537  27.162  1.00  0.00     0.014 A 
ATOM     36  C   UNL A   1      38.277  28.332  29.673  1.00  0.00     0.010 A 
ATOM     37  C   UNL A   1      39.198  28.875  27.491  1.00  0.00     0.010 A 
ATOM     38  C   UNL A   1      39.332  28.293  28.756  1.00  0.00    -0.014 A 
BRANCH  38  39
ATOM     39  C   UNL A   1      40.646  27.718  29.021  1.00  0.00     0.031 A 
ATOM     40  C   UNL A   1      40.952  26.333  28.591  1.00  0.00     0.074 A 
ATOM     41  C   UNL A   1      41.634  28.496  29.515  1.00  0.00     0.049 A 
ATOM     42  N   UNL A   1      41.909  25.613  29.077  1.00  0.00    -0.248 NA
ATOM     43  C   UNL A   1      40.158  25.629  27.588  1.00  0.00     0.031 C 
ATOM     44  C   UNL A   1      43.066  28.207  29.504  1.00  0.00     0.029 A 
ATOM     45  N   UNL A   1      41.527  29.623  30.331  1.00  0.00    -0.354 N 
ATOM     46  C   UNL A   1      42.046  24.509  28.265  1.00  0.00     0.074 A 
ATOM     47  C   UNL A   1      40.885  24.524  27.405  1.00  0.00     0.031 C 
ATOM     48  C   UNL A   1      43.649  28.902  30.493  1.00  0.00     0.029 A 
ATOM     49  C   UNL A   1      42.586  29.540  31.251  1.00  0.00     0.049 A 
ATOM     50  H   UNL A   1      40.847  30.334  30.274  1.00  0.00     0.167 HD
ATOM     51  C   UNL A   1      43.196  23.775  28.298  1.00  0.00     0.031 A 
ATOM     52  C   UNL A   1      42.422  29.454  32.604  1.00  0.00     0.031 A 
ATOM     53  C   UNL A   1      44.126  24.269  29.310  1.00  0.00     0.049 A 
ATOM     54  C   UNL A   1      43.075  28.227  33.202  1.00  0.00     0.074 A 
ATOM     55  C   UNL A   1      45.252  25.074  29.243  1.00  0.00     0.029 A 
ATOM     56  N   UNL A   1      43.787  24.173  30.654  1.00  0.00    -0.354 N 
ATOM     57  N   UNL A   1      43.468  27.199  32.503  1.00  0.00    -0.248 NA
ATOM     58  C   UNL A   1      43.295  28.040  34.634  1.00  0.00     0.031 C 
ATOM     59  C   UNL A   1      45.547  25.524  30.555  1.00  0.00     0.029 A 
ATOM     60  C   UNL A   1      44.616  24.971  31.418  1.00  0.00     0.049 A 
ATOM     61  H   UNL A   1      43.057  23.616  31.010  1.00  0.00     0.167 HD
ATOM     62  C   UNL A   1      43.973  26.237  33.337  1.00  0.00     0.074 A 
ATOM     63  C   UNL A   1      43.854  26.816  34.662  1.00  0.00     0.031 C 
ATOM     64  C   UNL A   1      44.438  25.044  32.861  1.00  0.00     0.031 A 
BRANCH  51  65
ATOM     65  C   UNL A   1      43.589  22.799  27.211  1.00  0.00    -0.014 A 
ATOM     66  C   UNL A   1      42.760  21.690  26.937  1.00  0.00     0.010 A 
ATOM     67  C   UNL A   1      44.778  22.885  26.463  1.00  0.00     0.010 A 
ATOM     68  C   UNL A   1      43.145  20.672  26.053  1.00  0.00     0.020 A 
ATOM     69  C   UNL A   1      45.196  21.854  25.605  1.00  0.00     0.020 A 
ATOM     70  C   UNL A   1      44.381  20.744  25.416  1.00  0.00     0.054 A 
BRANCH  70  71
ATOM     71  S   UNL A   1      44.906  19.372  24.355  1.00  0.00     0.124 S 
ATOM     72  O   UNL A   1      44.152  18.245  24.899  1.00  0.00    -0.237 OA
ATOM     73  O   UNL A   1      44.495  19.824  23.030  1.00  0.00    -0.237 OA
ATOM     74  O   UNL A   1      46.351  19.303  24.569  1.00  0.00    -0.744 OA
ENDBRANCH  70  71
ENDBRANCH  51  65
BRANCH  52  75
ATOM     75  C   UNL A   1      41.175  30.097  33.109  1.00  0.00    -0.014 A 
ATOM     76  C   UNL A   1      41.163  31.506  33.175  1.00  0.00     0.010 A 
ATOM     77  C   UNL A   1      39.952  29.406  33.041  1.00  0.00     0.010 A 
ATOM     78  C   UNL A   1      39.978  32.213  32.959  1.00  0.00     0.020 A 
ATOM     79  C   UNL A   1      38.761  30.116  32.835  1.00  0.00     0.020 A 
ATOM     80  C   UNL A   1      38.802  31.508  32.706  1.00  0.00     0.054 A 
BRANCH  80  81
ATOM     81  S   UNL A   1      37.388  32.416  32.007  1.00  0.00     0.124 S 
ATOM     82  O   UNL A   1      37.136  33.438  33.017  1.00  0.00    -0.237 OA
ATOM     83  O   UNL A   1      37.935  32.899  30.735  1.00  0.00    -0.237 OA
ATOM     84  O   UNL A   1      36.359  31.389  31.880  1.00  0.00    -0.744 OA
ENDBRANCH  80  81
ENDBRANCH  52  75
BRANCH  64  85
ATOM     85  C   UNL A   1      44.843  23.844  33.687  1.00  0.00    -0.014 A 
ATOM     86  C   UNL A   1      43.973  22.807  34.058  1.00  0.00     0.010 A 
ATOM     87  C   UNL A   1      46.212  23.674  34.011  1.00  0.00     0.010 A 
ATOM     88  C   UNL A   1      44.434  21.687  34.766  1.00  0.00     0.020 A 
ATOM     89  C   UNL A   1      46.690  22.541  34.677  1.00  0.00     0.020 A 
ATOM     90  C   UNL A   1      45.789  21.562  35.074  1.00  0.00     0.054 A 
BRANCH  90  91
ATOM     91  S   UNL A   1      46.388  20.078  35.922  1.00  0.00     0.124 S 
ATOM     92  O   UNL A   1      45.805  20.237  37.252  1.00  0.00    -0.237 OA
ATOM     93  O   UNL A   1      45.828  18.992  35.120  1.00  0.00    -0.237 OA
ATOM     94  O   UNL A   1      47.841  20.209  35.853  1.00  0.00    -0.744 OA
ENDBRANCH  90  91
ENDBRANCH  64  85
ENDBRANCH  38  39
ENDBRANCH  30  33
ENDBRANCH  28  29
ENDBRANCH  27  28
ENDBRANCH   1  27
TORSDOF 20
ENDMDL
MODEL 2
REMARK VINA RESULT:     -12.9      4.812     11.080
REMARK SMILES Cc1ccc(C[C@@H](Cc2cc(F)cc(Br)c2)C(=O)NCCCCCCNC(=O)c2ccc(-c3c4nc(c(-c5ccc(S(=O)(=O)[O-])cc5)c5ccc([nH]5)c(-c5ccc(S(=O)(=O)[O-])cc5)c5nc(c(-c6ccc(S(=O)(=O)[O-])cc6)c6ccc3[nH]6)C=C5)C=C4)cc2)cc1
REMARK SMILES IDX 23 1 22 2 21 3 20 4 19 5 17 6 18 7 7 9 6 10 5 11 1 12 2 13
REMARK SMILES IDX 3 14 90 15 4 16 89 17 8 18 9 19 10 20 16 21 11 22 14 23
REMARK SMILES IDX 12 24 13 25 15 26 24 27 25 28 26 29 27 30 28 32 29 33 30 34
REMARK SMILES IDX 88 35 31 36 87 37 32 38 33 39 34 40 81 41 35 42 86 43 80 44
REMARK SMILES IDX 82 45 36 46 85 47 79 48 78 49 37 51 67 52 48 53 66 54 49 55
REMARK SMILES IDX 52 56 65 57 83 58 50 59 51 60 64 62 84 63 53 64 38 65 39 66
REMARK SMILES IDX 47 67 40 68 46 69 41 70 42 71 43 72 44 73 45 74 68 75 69 76
REMARK SMILES IDX 77 77 70 78 76 79 71 80 72 81 73 82 74 83 75 84 54 85 55 86
REMARK SMILES IDX 63 87 56 88 62 89 57 90 58 91 59 92 60 93 61 94
REMARK H PARENT 19 8 26 31 82 50 52 61
REMARK Flexibility Score: inf
ROOT
ATOM      1  C   UNL A   1      36.120  21.511  24.680  1.00  0.00     0.002 C 
ENDROOT
BRANCH   1   2
ATOM      2  C   UNL A   1      35.269  20.350  25.231  1.00  0.00     0.002 C 
BRANCH   2   3
ATOM      3  C   UNL A   1      33.932  20.067  24.534  1.00  0.00     0.021 C 
BRANCH   3   4
ATOM      4  C   UNL A   1      32.703  20.222  25.421  1.00  0.00     0.116 C 
BRANCH   4   5
ATOM      5  N   UNL A   1      33.008  20.870  26.684  1.00  0.00    -0.356 N 
ATOM      6  C   UNL A   1      32.891  22.175  27.048  1.00  0.00     0.223 C 
ATOM      7  O   UNL A   1      33.062  22.462  28.237  1.00  0.00    -0.275 OA
ATOM      8  H   UNL A   1      33.353  20.271  27.385  1.00  0.00     0.163 HD
BRANCH   6   9
ATOM      9  C   UNL A   1      32.591  23.281  26.039  1.00  0.00     0.087 C 
BRANCH   9  10
ATOM     10  C   UNL A   1      31.495  24.180  26.672  1.00  0.00     0.049 C 
BRANCH  10  11
ATOM     11  C   UNL A   1      30.959  25.363  25.893  1.00  0.00    -0.047 A 
ATOM     12  C   UNL A   1      29.919  28.757  23.414  1.00  0.00     0.044 C 
ATOM     13  C   UNL A   1      30.266  27.591  24.290  1.00  0.00    -0.051 A 
ATOM     14  C   UNL A   1      29.914  26.298  23.900  1.00  0.00     0.004 A 
ATOM     15  C   UNL A   1      30.947  27.769  25.499  1.00  0.00     0.004 A 
ATOM     16  C   UNL A   1      30.272  25.197  24.683  1.00  0.00     0.004 A 
ATOM     17  C   UNL A   1      31.286  26.667  26.292  1.00  0.00     0.004 A 
ENDBRANCH  10  11
ENDBRANCH   9  10
BRANCH   9  18
ATOM     18  C   UNL A   1      33.805  24.043  25.456  1.00  0.00     0.049 C 
BRANCH  18  19
ATOM     19  C   UNL A   1      33.752  24.899  24.206  1.00  0.00    -0.043 A 
ATOM     20  C   UNL A   1      33.401  24.254  23.003  1.00  0.00     0.043 A 
ATOM     21  C   UNL A   1      33.984  26.280  24.161  1.00  0.00     0.019 A 
ATOM     22  C   UNL A   1      33.186  24.982  21.836  1.00  0.00     0.124 A 
ATOM     23  C   UNL A   1      33.724  27.003  22.987  1.00  0.00     0.021 A 
ATOM     24  F   UNL A   1      32.828  24.337  20.719  1.00  0.00    -0.207 F 
ATOM     25  C   UNL A   1      33.314  26.360  21.824  1.00  0.00     0.055 A 
ATOM     26  Br  UNL A   1      33.880  28.888  22.997  1.00  0.00    -0.051 Br
ENDBRANCH  18  19
ENDBRANCH   9  18
ENDBRANCH   6   9
ENDBRANCH   4   5
ENDBRANCH   3   4
ENDBRANCH   2   3
ENDBRANCH   1   2
BRANCH   1  27
ATOM     27  C   UNL A   1      37.598  21.558  25.080  1.00  0.00     0.021 C 
BRANCH  27  28
ATOM     28  C   UNL A   1      38.065  22.881  25.659  1.00  0.00     0.116 C 
BRANCH  28  29
ATOM     29  N   UNL A   1      38.728  22.824  26.945  1.00  0.00    -0.352 N 
ATOM     30  C   UNL A   1      39.914  23.559  27.056  1.00  0.00     0.251 C 
ATOM     31  H   UNL A   1      38.366  22.299  27.696  1.00  0.00     0.163 HD
ATOM     32  O   UNL A   1      41.011  23.189  26.661  1.00  0.00    -0.269 OA
BRANCH  30  33
ATOM     33  C   UNL A   1      39.651  24.990  27.305  1.00  0.00     0.039 A 
ATOM     34  C   UNL A   1      40.185  26.000  26.510  1.00  0.00     0.014 A 
ATOM     35  C   UNL A   1      39.062  25.272  28.540  1.00  0.00     0.014 A 
ATOM     36  C   UNL A   1      40.233  27.302  27.018  1.00  0.00     0.010 A 
ATOM     37  C   UNL A   1      39.206  26.530  29.080  1.00  0.00     0.010 A 
ATOM     38  C   UNL A   1      39.815  27.542  28.330  1.00  0.00    -0.014 A 
BRANCH  38  39
ATOM     39  C   UNL A   1      40.007  28.795  29.051  1.00  0.00     0.031 A 
ATOM     40  C   UNL A   1      38.990  29.869  28.959  1.00  0.00     0.074 A 
ATOM     41  C   UNL A   1      41.030  28.920  29.925  1.00  0.00     0.049 A 
ATOM     42  N   UNL A   1      39.212  31.112  29.235  1.00  0.00    -0.248 NA
ATOM     43  C   UNL A   1      37.626  29.621  28.497  1.00  0.00     0.031 C 
ATOM     44  C   UNL A   1      41.168  29.926  30.975  1.00  0.00     0.029 A 
ATOM     45  N   UNL A   1      42.271  28.285  29.906  1.00  0.00    -0.354 N 
ATOM     46  C   UNL A   1      37.992  31.747  29.287  1.00  0.00     0.074 A 
ATOM     47  C   UNL A   1      37.047  30.800  28.742  1.00  0.00     0.031 C 
ATOM     48  C   UNL A   1      42.470  30.060  31.268  1.00  0.00     0.029 A 
ATOM     49  C   UNL A   1      43.208  29.248  30.315  1.00  0.00     0.049 A 
ATOM     50  H   UNL A   1      42.455  27.349  29.656  1.00  0.00     0.167 HD
ATOM     51  C   UNL A   1      37.875  32.951  29.918  1.00  0.00     0.031 A 
ATOM     52  C   UNL A   1      44.246  29.687  29.543  1.00  0.00     0.031 A 
ATOM     53  C   UNL A   1      39.163  33.437  30.404  1.00  0.00     0.049 A 
ATOM     54  C   UNL A   1      44.232  31.185  29.330  1.00  0.00     0.074 A 
ATOM     55  C   UNL A   1      39.765  33.425  31.652  1.00  0.00     0.029 A 
ATOM     56  N   UNL A   1      40.151  33.783  29.491  1.00  0.00    -0.354 N 
ATOM     57  N   UNL A   1      43.198  31.943  29.566  1.00  0.00    -0.248 NA
ATOM     58  C   UNL A   1      45.361  31.940  28.794  1.00  0.00     0.031 C 
ATOM     59  C   UNL A   1      41.146  33.696  31.474  1.00  0.00     0.029 A 
ATOM     60  C   UNL A   1      41.374  33.898  30.123  1.00  0.00     0.049 A 
ATOM     61  H   UNL A   1      40.000  33.926  28.528  1.00  0.00     0.167 HD
ATOM     62  C   UNL A   1      43.487  33.239  29.230  1.00  0.00     0.074 A 
ATOM     63  C   UNL A   1      44.860  33.188  28.762  1.00  0.00     0.031 C 
ATOM     64  C   UNL A   1      42.566  34.239  29.360  1.00  0.00     0.031 A 
BRANCH  51  65
ATOM     65  C   UNL A   1      36.548  33.537  30.347  1.00  0.00    -0.014 A 
ATOM     66  C   UNL A   1      35.643  34.006  29.370  1.00  0.00     0.010 A 
ATOM     67  C   UNL A   1      36.153  33.703  31.689  1.00  0.00     0.010 A 
ATOM     68  C   UNL A   1      34.471  34.696  29.710  1.00  0.00     0.020 A 
ATOM     69  C   UNL A   1      35.003  34.427  32.044  1.00  0.00     0.020 A 
ATOM     70  C   UNL A   1      34.175  34.933  31.049  1.00  0.00     0.054 A 
BRANCH  70  71
ATOM     71  S   UNL A   1      32.709  35.913  31.467  1.00  0.00     0.124 S 
ATOM     72  O   UNL A   1      33.286  37.068  32.151  1.00  0.00    -0.237 OA
ATOM     73  O   UNL A   1      32.127  36.183  30.156  1.00  0.00    -0.237 OA
ATOM     74  O   UNL A   1      31.928  35.022  32.322  1.00  0.00    -0.744 OA
ENDBRANCH  70  71
ENDBRANCH  51  65
BRANCH  52  75
ATOM     75  C   UNL A   1      44.739  28.683  28.558  1.00  0.00    -0.014 A 
ATOM     76  C   UNL A   1      44.129  28.684  27.285  1.00  0.00     0.010 A 
ATOM     77  C   UNL A   1      46.025  28.134  28.698  1.00  0.00     0.010 A 
ATOM     78  C   UNL A   1      44.868  28.346  26.148  1.00  0.00     0.020 A 
ATOM     79  C   UNL A   1      46.763  27.784  27.558  1.00  0.00     0.020 A 
ATOM     80  C   UNL A   1      46.206  27.981  26.290  1.00  0.00     0.054 A 
BRANCH  80  81
ATOM     81  S   UNL A   1      47.257  27.970  24.805  1.00  0.00     0.124 S 
ATOM     82  O   UNL A   1      46.652  29.011  23.981  1.00  0.00    -0.237 OA
ATOM     83  O   UNL A   1      48.576  28.285  25.362  1.00  0.00    -0.237 OA
ATOM     84  O   UNL A   1      47.114  26.607  24.303  1.00  0.00    -0.744 OA
ENDBRANCH  80  81
ENDBRANCH  52  75
BRANCH  64  85
ATOM     85  C   UNL A   1      42.702  35.658  28.856  1.00  0.00    -0.014 A 
ATOM     86  C   UNL A   1      42.103  36.143  27.683  1.00  0.00     0.010 A 
ATOM     87  C   UNL A   1      43.371  36.606  29.669  1.00  0.00     0.010 A 
ATOM     88  C   UNL A   1      42.214  37.491  27.311  1.00  0.00     0.020 A 
ATOM     89  C   UNL A   1      43.449  37.961  29.332  1.00  0.00     0.020 A 
ATOM     90  C   UNL A   1      42.888  38.392  28.136  1.00  0.00     0.054 A 
BRANCH  90  91
ATOM     91  S   UNL A   1      42.963  40.144  27.686  1.00  0.00     0.124 S 
ATOM     92  O   UNL A   1      43.996  40.642  28.591  1.00  0.00    -0.237 OA
ATOM     93  O   UNL A   1      43.334  40.106  26.274  1.00  0.00    -0.237 OA
ATOM     94  O   UNL A   1      41.609  40.623  27.954  1.00  0.00    -0.744 OA
ENDBRANCH  90  91
ENDBRANCH  64  85
ENDBRANCH  38  39
ENDBRANCH  30  33
ENDBRANCH  28  29
ENDBRANCH  27  28
ENDBRANCH   1  27
TORSDOF 20
ENDMDL
MODEL 3
REMARK VINA RESULT:     -12.7      4.620     11.144
REMARK SMILES Cc1ccc(C[C@@H](Cc2cc(F)cc(Br)c2)C(=O)NCCCCCCNC(=O)c2ccc(-c3c4nc(c(-c5ccc(S(=O)(=O)[O-])cc5)c5ccc([nH]5)c(-c5ccc(S(=O)(=O)[O-])cc5)c5nc(c(-c6ccc(S(=O)(=O)[O-])cc6)c6ccc3[nH]6)C=C5)C=C4)cc2)cc1
REMARK SMILES IDX 23 1 22 2 21 3 20 4 19 5 17 6 18 7 7 9 6 10 5 11 1 12 2 13
REMARK SMILES IDX 3 14 90 15 4 16 89 17 8 18 9 19 10 20 16 21 11 22 14 23
REMARK SMILES IDX 12 24 13 25 15 26 24 27 25 28 26 29 27 30 28 32 29 33 30 34
REMARK SMILES IDX 88 35 31 36 87 37 32 38 33 39 34 40 81 41 35 42 86 43 80 44
REMARK SMILES IDX 82 45 36 46 85 47 79 48 78 49 37 51 67 52 48 53 66 54 49 55
REMARK SMILES IDX 52 56 65 57 83 58 50 59 51 60 64 62 84 63 53 64 38 65 39 66
REMARK SMILES IDX 47 67 40 68 46 69 41 70 42 71 43 72 44 73 45 74 68 75 69 76
REMARK SMILES IDX 77 77 70 78 76 79 71 80 72 81 73 82 74 83 75 84 54 85 55 86
REMARK SMILES IDX 63 87 56 88 62 89 57 90 58 91 59 92 60 93 61 94
REMARK H PARENT 19 8 26 31 82 50 52 61
REMARK Flexibility Score: inf
ROOT
ATOM      1  C   UNL A   1      35.326  23.190  26.138  1.00  0.00     0.002 C 
ENDROOT
BRANCH   1   2
ATOM      2  C   UNL A   1      34.402  22.642  25.033  1.00  0.00     0.002 C 
BRANCH   2   3
ATOM      3  C   UNL A   1      33.401  21.549  25.431  1.00  0.00     0.021 C 
BRANCH   3   4
ATOM      4  C   UNL A   1      31.952  21.844  25.065  1.00  0.00     0.116 C 
BRANCH   4   5
ATOM      5  N   UNL A   1      31.104  21.997  26.233  1.00  0.00    -0.356 N 
ATOM      6  C   UNL A   1      30.426  23.086  26.685  1.00  0.00     0.223 C 
ATOM      7  O   UNL A   1      29.637  22.928  27.621  1.00  0.00    -0.275 OA
ATOM      8  H   UNL A   1      31.005  21.186  26.782  1.00  0.00     0.163 HD
BRANCH   6   9
ATOM      9  C   UNL A   1      30.636  24.480  26.099  1.00  0.00     0.087 C 
BRANCH   9  10
ATOM     10  C   UNL A   1      32.066  24.927  26.506  1.00  0.00     0.049 C 
BRANCH  10  11
ATOM     11  C   UNL A   1      32.411  26.402  26.518  1.00  0.00    -0.047 A 
ATOM     12  C   UNL A   1      33.558  30.539  27.075  1.00  0.00     0.044 C 
ATOM     13  C   UNL A   1      33.143  29.114  26.868  1.00  0.00    -0.051 A 
ATOM     14  C   UNL A   1      34.029  28.208  26.282  1.00  0.00     0.004 A 
ATOM     15  C   UNL A   1      31.878  28.663  27.258  1.00  0.00     0.004 A 
ATOM     16  C   UNL A   1      33.674  26.866  26.126  1.00  0.00     0.004 A 
ATOM     17  C   UNL A   1      31.515  27.322  27.081  1.00  0.00     0.004 A 
ENDBRANCH  10  11
ENDBRANCH   9  10
BRANCH   9  18
ATOM     18  C   UNL A   1      30.293  24.667  24.602  1.00  0.00     0.049 C 
BRANCH  18  19
ATOM     19  C   UNL A   1      30.645  25.902  23.796  1.00  0.00    -0.043 A 
ATOM     20  C   UNL A   1      31.802  25.833  22.994  1.00  0.00     0.043 A 
ATOM     21  C   UNL A   1      29.894  27.083  23.755  1.00  0.00     0.019 A 
ATOM     22  C   UNL A   1      32.125  26.861  22.112  1.00  0.00     0.124 A 
ATOM     23  C   UNL A   1      30.210  28.091  22.832  1.00  0.00     0.021 A 
ATOM     24  F   UNL A   1      33.218  26.748  21.347  1.00  0.00    -0.207 F 
ATOM     25  C   UNL A   1      31.319  27.981  22.000  1.00  0.00     0.055 A 
ATOM     26  Br  UNL A   1      29.083  29.602  22.677  1.00  0.00    -0.051 Br
ENDBRANCH  18  19
ENDBRANCH   9  18
ENDBRANCH   6   9
ENDBRANCH   4   5
ENDBRANCH   3   4
ENDBRANCH   2   3
ENDBRANCH   1   2
BRANCH   1  27
ATOM     27  C   UNL A   1      36.537  24.020  25.703  1.00  0.00     0.021 C 
BRANCH  27  28
ATOM     28  C   UNL A   1      37.864  23.284  25.730  1.00  0.00     0.116 C 
BRANCH  28  29
ATOM     29  N   UNL A   1      38.546  23.230  27.007  1.00  0.00    -0.352 N 
ATOM     30  C   UNL A   1      39.778  23.891  27.071  1.00  0.00     0.251 C 
ATOM     31  H   UNL A   1      38.166  22.756  27.782  1.00  0.00     0.163 HD
ATOM     32  O   UNL A   1      40.842  23.438  26.671  1.00  0.00    -0.269 OA
BRANCH  30  33
ATOM     33  C   UNL A   1      39.610  25.344  27.274  1.00  0.00     0.039 A 
ATOM     34  C   UNL A   1      40.291  26.290  26.512  1.00  0.00     0.014 A 
ATOM     35  C   UNL A   1      38.942  25.700  28.447  1.00  0.00     0.014 A 
ATOM     36  C   UNL A   1      40.400  27.595  27.001  1.00  0.00     0.010 A 
ATOM     37  C   UNL A   1      39.140  26.954  28.977  1.00  0.00     0.010 A 
ATOM     38  C   UNL A   1      39.890  27.898  28.268  1.00  0.00    -0.014 A 
BRANCH  38  39
ATOM     39  C   UNL A   1      40.119  29.149  28.982  1.00  0.00     0.031 A 
ATOM     40  C   UNL A   1      39.071  30.195  29.004  1.00  0.00     0.074 A 
ATOM     41  C   UNL A   1      41.220  29.291  29.753  1.00  0.00     0.049 A 
ATOM     42  N   UNL A   1      39.287  31.440  29.273  1.00  0.00    -0.248 NA
ATOM     43  C   UNL A   1      37.675  29.915  28.675  1.00  0.00     0.031 C 
ATOM     44  C   UNL A   1      41.435  30.291  30.797  1.00  0.00     0.029 A 
ATOM     45  N   UNL A   1      42.470  28.691  29.604  1.00  0.00    -0.354 N 
ATOM     46  C   UNL A   1      38.062  32.042  29.452  1.00  0.00     0.074 A 
ATOM     47  C   UNL A   1      37.093  31.075  28.991  1.00  0.00     0.031 C 
ATOM     48  C   UNL A   1      42.756  30.457  30.963  1.00  0.00     0.029 A 
ATOM     49  C   UNL A   1      43.417  29.675  29.932  1.00  0.00     0.049 A 
ATOM     50  H   UNL A   1      42.652  27.763  29.325  1.00  0.00     0.167 HD
ATOM     51  C   UNL A   1      37.976  33.236  30.107  1.00  0.00     0.031 A 
ATOM     52  C   UNL A   1      44.362  30.149  29.067  1.00  0.00     0.031 A 
ATOM     53  C   UNL A   1      39.293  33.752  30.471  1.00  0.00     0.049 A 
ATOM     54  C   UNL A   1      44.288  31.649  28.875  1.00  0.00     0.074 A 
ATOM     55  C   UNL A   1      40.015  33.743  31.653  1.00  0.00     0.029 A 
ATOM     56  N   UNL A   1      40.177  34.134  29.470  1.00  0.00    -0.354 N 
ATOM     57  N   UNL A   1      43.263  32.376  29.221  1.00  0.00    -0.248 NA
ATOM     58  C   UNL A   1      45.339  32.439  28.240  1.00  0.00     0.031 C 
ATOM     59  C   UNL A   1      41.365  34.053  31.344  1.00  0.00     0.029 A 
ATOM     60  C   UNL A   1      41.453  34.275  29.980  1.00  0.00     0.049 A 
ATOM     61  H   UNL A   1      39.928  34.282  28.528  1.00  0.00     0.167 HD
ATOM     62  C   UNL A   1      43.484  33.683  28.875  1.00  0.00     0.074 A 
ATOM     63  C   UNL A   1      44.805  33.674  28.274  1.00  0.00     0.031 C 
ATOM     64  C   UNL A   1      42.554  34.656  29.108  1.00  0.00     0.031 A 
BRANCH  51  65
ATOM     65  C   UNL A   1      36.683  33.781  30.673  1.00  0.00    -0.014 A 
ATOM     66  C   UNL A   1      35.597  34.035  29.809  1.00  0.00     0.010 A 
ATOM     67  C   UNL A   1      36.489  34.113  32.027  1.00  0.00     0.010 A 
ATOM     68  C   UNL A   1      34.432  34.682  30.246  1.00  0.00     0.020 A 
ATOM     69  C   UNL A   1      35.346  34.797  32.472  1.00  0.00     0.020 A 
ATOM     70  C   UNL A   1      34.327  35.090  31.572  1.00  0.00     0.054 A 
BRANCH  70  71
ATOM     71  S   UNL A   1      32.859  36.013  32.097  1.00  0.00     0.124 S 
ATOM     72  O   UNL A   1      31.942  34.947  32.496  1.00  0.00    -0.237 OA
ATOM     73  O   UNL A   1      33.377  36.837  33.184  1.00  0.00    -0.237 OA
ATOM     74  O   UNL A   1      32.461  36.746  30.896  1.00  0.00    -0.744 OA
ENDBRANCH  70  71
ENDBRANCH  51  65
BRANCH  52  75
ATOM     75  C   UNL A   1      44.781  29.170  28.025  1.00  0.00    -0.014 A 
ATOM     76  C   UNL A   1      45.644  28.131  28.434  1.00  0.00     0.010 A 
ATOM     77  C   UNL A   1      43.996  28.991  26.873  1.00  0.00     0.010 A 
ATOM     78  C   UNL A   1      45.564  26.870  27.838  1.00  0.00     0.020 A 
ATOM     79  C   UNL A   1      43.924  27.728  26.267  1.00  0.00     0.020 A 
ATOM     80  C   UNL A   1      44.641  26.659  26.814  1.00  0.00     0.054 A 
BRANCH  80  81
ATOM     81  S   UNL A   1      44.242  24.944  26.354  1.00  0.00     0.124 S 
ATOM     82  O   UNL A   1      45.548  24.398  26.002  1.00  0.00    -0.237 OA
ATOM     83  O   UNL A   1      43.648  24.427  27.591  1.00  0.00    -0.237 OA
ATOM     84  O   UNL A   1      43.306  25.103  25.245  1.00  0.00    -0.744 OA
ENDBRANCH  80  81
ENDBRANCH  52  75
BRANCH  64  85
ATOM     85  C   UNL A   1      42.603  36.083  28.611  1.00  0.00    -0.014 A 
ATOM     86  C   UNL A   1      43.454  37.073  29.127  1.00  0.00     0.010 A 
ATOM     87  C   UNL A   1      41.839  36.431  27.470  1.00  0.00     0.010 A 
ATOM     88  C   UNL A   1      43.497  38.360  28.570  1.00  0.00     0.020 A 
ATOM     89  C   UNL A   1      41.907  37.697  26.879  1.00  0.00     0.020 A 
ATOM     90  C   UNL A   1      42.722  38.665  27.451  1.00  0.00     0.054 A 
BRANCH  90  91
ATOM     91  S   UNL A   1      42.839  40.306  26.693  1.00  0.00     0.124 S 
ATOM     92  O   UNL A   1      41.578  40.389  25.962  1.00  0.00    -0.237 OA
ATOM     93  O   UNL A   1      42.953  41.194  27.847  1.00  0.00    -0.237 OA
ATOM     94  O   UNL A   1      44.040  40.214  25.867  1.00  0.00    -0.744 OA
ENDBRANCH  90  91
ENDBRANCH  64  85
ENDBRANCH  38  39
ENDBRANCH  30  33
ENDBRANCH  28  29
ENDBRANCH  27  28
ENDBRANCH   1  27
TORSDOF 20
ENDMDL
