MODEL 1
REMARK VINA RESULT:     -12.1      0.000      0.000
REMARK SMILES Cc1sc(NC(=O)[C@@H]2[C@@H](C(=O)NCCCCCCNC(=O)c3ccc(-c4c5nc(c(-c6ccc(S(=O)(=O)[O-])cc6)c6ccc([nH]6)c(-c6ccc(S(=O)(=O)[O-])cc6)c6nc(c(-c7ccc(S(=O)(=O)[O-])cc7)c7ccc4[nH]7)C=C6)C=C5)cc3)[C@@H]3C=C[C@H]2C3)c(C#N)c1C
REMARK SMILES IDX 15 1 14 2 13 3 12 4 10 5 11 6 9 8 8 9 85 10 82 11 84 12
REMARK SMILES IDX 86 13 83 14 6 15 5 16 7 18 4 19 1 20 2 21 3 22 90 23 87 24
REMARK SMILES IDX 91 25 88 26 89 27 16 28 17 29 18 30 19 31 20 32 21 34 22 35
REMARK SMILES IDX 23 36 81 37 24 38 80 39 25 40 26 41 27 42 74 43 28 44 79 45
REMARK SMILES IDX 73 46 75 47 29 48 78 49 72 50 71 51 30 53 60 54 41 55 59 56
REMARK SMILES IDX 42 57 45 58 58 59 76 60 43 61 44 62 57 64 77 65 46 66 31 67
REMARK SMILES IDX 32 68 40 69 33 70 39 71 34 72 35 73 36 74 37 75 38 76 61 77
REMARK SMILES IDX 62 78 70 79 63 80 69 81 64 82 65 83 66 84 67 85 68 86 47 87
REMARK SMILES IDX 48 88 56 89 49 90 55 91 50 92 51 93 52 94 53 95 54 96
REMARK H PARENT 12 7 5 17 19 33 75 52 45 63
REMARK Flexibility Score: inf
ROOT
ATOM      1  C   UNL A   1      39.484  22.597  25.993  1.00  0.00     0.002 C 
ENDROOT
BRANCH   1   2
ATOM      2  C   UNL A   1      37.978  22.857  26.078  1.00  0.00     0.021 C 
BRANCH   2   3
ATOM      3  C   UNL A   1      37.066  21.735  25.597  1.00  0.00     0.116 C 
BRANCH   3   4
ATOM      4  N   UNL A   1      35.935  21.437  26.448  1.00  0.00    -0.356 N 
ATOM      5  C   UNL A   1      34.616  21.285  26.122  1.00  0.00     0.224 C 
ATOM      6  O   UNL A   1      33.869  20.940  27.043  1.00  0.00    -0.275 OA
ATOM      7  H   UNL A   1      36.146  21.328  27.403  1.00  0.00     0.163 HD
BRANCH   5   8
ATOM      8  C   UNL A   1      34.063  21.586  24.705  1.00  0.00     0.098 C 
ATOM      9  C   UNL A   1      33.880  23.154  24.514  1.00  0.00     0.099 C 
ATOM     10  C   UNL A   1      32.317  23.243  24.293  1.00  0.00     0.025 C 
ATOM     11  C   UNL A   1      32.616  21.066  24.492  1.00  0.00     0.025 C 
ATOM     12  C   UNL A   1      32.003  22.620  22.941  1.00  0.00    -0.027 C 
ATOM     13  C   UNL A   1      31.788  22.141  25.189  1.00  0.00     0.017 C 
ATOM     14  C   UNL A   1      32.233  21.308  23.056  1.00  0.00    -0.027 C 
BRANCH   9  15
ATOM     15  C   UNL A   1      34.438  24.025  23.386  1.00  0.00     0.229 C 
ATOM     16  N   UNL A   1      34.381  25.350  23.184  1.00  0.00    -0.316 N 
ATOM     17  H   UNL A   1      35.198  25.693  22.753  1.00  0.00     0.170 HD
ATOM     18  O   UNL A   1      35.105  23.448  22.500  1.00  0.00    -0.274 OA
BRANCH  16  19
ATOM     19  C   UNL A   1      33.472  26.349  23.429  1.00  0.00     0.113 A 
ATOM     20  C   UNL A   1      31.471  29.089  25.365  1.00  0.00     0.057 C 
ATOM     21  C   UNL A   1      32.009  28.064  24.421  1.00  0.00     0.008 A 
ATOM     22  S   UNL A   1      33.395  27.169  24.896  1.00  0.00    -0.122 S 
ATOM     23  C   UNL A   1      31.549  27.685  23.168  1.00  0.00    -0.017 A 
ATOM     24  C   UNL A   1      32.425  26.699  22.592  1.00  0.00     0.090 A 
ATOM     25  C   UNL A   1      30.316  28.188  22.479  1.00  0.00     0.047 C 
BRANCH  24  26
ATOM     26  C   UNL A   1      32.213  26.088  21.316  1.00  0.00     0.103 C 
ATOM     27  N   UNL A   1      32.062  25.627  20.250  1.00  0.00    -0.192 NA
ENDBRANCH  24  26
ENDBRANCH  16  19
ENDBRANCH   9  15
ENDBRANCH   5   8
ENDBRANCH   3   4
ENDBRANCH   2   3
ENDBRANCH   1   2
BRANCH   1  28
ATOM     28  C   UNL A   1      40.082  21.564  26.961  1.00  0.00     0.002 C 
BRANCH  28  29
ATOM     29  C   UNL A   1      40.690  20.288  26.357  1.00  0.00     0.021 C 
BRANCH  29  30
ATOM     30  C   UNL A   1      41.900  19.741  27.098  1.00  0.00     0.116 C 
BRANCH  30  31
ATOM     31  N   UNL A   1      43.071  19.521  26.240  1.00  0.00    -0.352 N 
ATOM     32  C   UNL A   1      43.730  20.441  25.431  1.00  0.00     0.251 C 
ATOM     33  H   UNL A   1      43.435  18.606  26.237  1.00  0.00     0.163 HD
ATOM     34  O   UNL A   1      44.410  20.067  24.482  1.00  0.00    -0.269 OA
BRANCH  32  35
ATOM     35  C   UNL A   1      43.642  21.877  25.774  1.00  0.00     0.039 A 
ATOM     36  C   UNL A   1      43.034  22.851  24.971  1.00  0.00     0.014 A 
ATOM     37  C   UNL A   1      44.169  22.232  27.002  1.00  0.00     0.014 A 
ATOM     38  C   UNL A   1      42.995  24.175  25.436  1.00  0.00     0.010 A 
ATOM     39  C   UNL A   1      43.761  23.396  27.572  1.00  0.00     0.010 A 
ATOM     40  C   UNL A   1      43.402  24.443  26.751  1.00  0.00    -0.014 A 
BRANCH  40  41
ATOM     41  C   UNL A   1      43.251  25.721  27.445  1.00  0.00     0.031 A 
ATOM     42  C   UNL A   1      44.332  26.656  27.040  1.00  0.00     0.074 A 
ATOM     43  C   UNL A   1      42.115  26.070  28.113  1.00  0.00     0.049 A 
ATOM     44  N   UNL A   1      45.415  26.904  27.700  1.00  0.00    -0.248 NA
ATOM     45  C   UNL A   1      44.382  27.139  25.641  1.00  0.00     0.031 C 
ATOM     46  C   UNL A   1      40.888  25.278  28.316  1.00  0.00     0.029 A 
ATOM     47  N   UNL A   1      41.771  27.250  28.714  1.00  0.00    -0.354 N 
ATOM     48  C   UNL A   1      46.091  27.852  26.939  1.00  0.00     0.074 A 
ATOM     49  C   UNL A   1      45.588  27.714  25.602  1.00  0.00     0.031 C 
ATOM     50  C   UNL A   1      39.885  26.066  28.785  1.00  0.00     0.029 A 
ATOM     51  C   UNL A   1      40.416  27.387  29.068  1.00  0.00     0.049 A 
ATOM     52  H   UNL A   1      42.431  27.959  28.888  1.00  0.00     0.167 HD
ATOM     53  C   UNL A   1      46.676  28.923  27.547  1.00  0.00     0.031 A 
ATOM     54  C   UNL A   1      39.799  28.492  29.591  1.00  0.00     0.031 A 
ATOM     55  C   UNL A   1      46.689  28.731  28.977  1.00  0.00     0.049 A 
ATOM     56  C   UNL A   1      40.879  29.315  30.177  1.00  0.00     0.074 A 
ATOM     57  C   UNL A   1      47.306  27.875  29.863  1.00  0.00     0.029 A 
ATOM     58  N   UNL A   1      45.565  29.222  29.595  1.00  0.00    -0.354 N 
ATOM     59  N   UNL A   1      41.584  28.920  31.199  1.00  0.00    -0.248 NA
ATOM     60  C   UNL A   1      41.492  30.338  29.346  1.00  0.00     0.031 C 
ATOM     61  C   UNL A   1      46.357  27.661  30.908  1.00  0.00     0.029 A 
ATOM     62  C   UNL A   1      45.245  28.476  30.692  1.00  0.00     0.049 A 
ATOM     63  H   UNL A   1      45.057  30.008  29.287  1.00  0.00     0.167 HD
ATOM     64  C   UNL A   1      42.882  29.282  30.880  1.00  0.00     0.074 A 
ATOM     65  C   UNL A   1      42.745  30.270  29.808  1.00  0.00     0.031 C 
ATOM     66  C   UNL A   1      43.927  28.505  31.294  1.00  0.00     0.031 A 
BRANCH  53  67
ATOM     67  C   UNL A   1      46.703  30.325  26.965  1.00  0.00    -0.014 A 
ATOM     68  C   UNL A   1      47.900  31.065  27.072  1.00  0.00     0.010 A 
ATOM     69  C   UNL A   1      45.551  31.043  26.577  1.00  0.00     0.010 A 
ATOM     70  C   UNL A   1      47.931  32.450  26.851  1.00  0.00     0.020 A 
ATOM     71  C   UNL A   1      45.577  32.418  26.325  1.00  0.00     0.020 A 
ATOM     72  C   UNL A   1      46.765  33.118  26.482  1.00  0.00     0.054 A 
BRANCH  72  73
ATOM     73  S   UNL A   1      46.809  34.910  26.241  1.00  0.00     0.124 S 
ATOM     74  O   UNL A   1      47.452  35.368  27.468  1.00  0.00    -0.237 OA
ATOM     75  O   UNL A   1      47.601  35.034  25.020  1.00  0.00    -0.237 OA
ATOM     76  O   UNL A   1      45.399  35.270  26.101  1.00  0.00    -0.744 OA
ENDBRANCH  72  73
ENDBRANCH  53  67
BRANCH  54  77
ATOM     77  C   UNL A   1      38.430  29.069  29.390  1.00  0.00    -0.014 A 
ATOM     78  C   UNL A   1      37.748  29.786  30.404  1.00  0.00     0.010 A 
ATOM     79  C   UNL A   1      37.941  29.210  28.078  1.00  0.00     0.010 A 
ATOM     80  C   UNL A   1      36.662  30.645  30.107  1.00  0.00     0.020 A 
ATOM     81  C   UNL A   1      36.868  30.068  27.774  1.00  0.00     0.020 A 
ATOM     82  C   UNL A   1      36.242  30.798  28.785  1.00  0.00     0.054 A 
BRANCH  82  83
ATOM     83  S   UNL A   1      34.958  32.027  28.362  1.00  0.00     0.124 S 
ATOM     84  O   UNL A   1      35.719  33.043  27.641  1.00  0.00    -0.237 OA
ATOM     85  O   UNL A   1      34.019  31.251  27.556  1.00  0.00    -0.237 OA
ATOM     86  O   UNL A   1      34.446  32.451  29.664  1.00  0.00    -0.744 OA
ENDBRANCH  82  83
ENDBRANCH  54  77
BRANCH  66  87
ATOM     87  C   UNL A   1      43.673  27.523  32.412  1.00  0.00    -0.014 A 
ATOM     88  C   UNL A   1      42.897  27.774  33.563  1.00  0.00     0.010 A 
ATOM     89  C   UNL A   1      44.178  26.229  32.212  1.00  0.00     0.010 A 
ATOM     90  C   UNL A   1      42.666  26.753  34.502  1.00  0.00     0.020 A 
ATOM     91  C   UNL A   1      43.936  25.209  33.128  1.00  0.00     0.020 A 
ATOM     92  C   UNL A   1      43.195  25.477  34.278  1.00  0.00     0.054 A 
BRANCH  92  93
ATOM     93  S   UNL A   1      42.907  24.149  35.483  1.00  0.00     0.124 S 
ATOM     94  O   UNL A   1      41.472  24.254  35.732  1.00  0.00    -0.237 OA
ATOM     95  O   UNL A   1      43.335  22.954  34.758  1.00  0.00    -0.237 OA
ATOM     96  O   UNL A   1      43.759  24.515  36.613  1.00  0.00    -0.744 OA
ENDBRANCH  92  93
ENDBRANCH  66  87
ENDBRANCH  40  41
ENDBRANCH  32  35
ENDBRANCH  30  31
ENDBRANCH  29  30
ENDBRANCH  28  29
ENDBRANCH   1  28
TORSDOF 19
ENDMDL
MODEL 2
REMARK VINA RESULT:     -12.0      3.692      9.182
REMARK SMILES Cc1sc(NC(=O)[C@@H]2[C@@H](C(=O)NCCCCCCNC(=O)c3ccc(-c4c5nc(c(-c6ccc(S(=O)(=O)[O-])cc6)c6ccc([nH]6)c(-c6ccc(S(=O)(=O)[O-])cc6)c6nc(c(-c7ccc(S(=O)(=O)[O-])cc7)c7ccc4[nH]7)C=C6)C=C5)cc3)[C@@H]3C=C[C@H]2C3)c(C#N)c1C
REMARK SMILES IDX 15 1 14 2 13 3 12 4 10 5 11 6 9 8 8 9 85 10 82 11 84 12
REMARK SMILES IDX 86 13 83 14 6 15 5 16 7 18 4 19 1 20 2 21 3 22 90 23 87 24
REMARK SMILES IDX 91 25 88 26 89 27 16 28 17 29 18 30 19 31 20 32 21 34 22 35
REMARK SMILES IDX 23 36 81 37 24 38 80 39 25 40 26 41 27 42 74 43 28 44 79 45
REMARK SMILES IDX 73 46 75 47 29 48 78 49 72 50 71 51 30 53 60 54 41 55 59 56
REMARK SMILES IDX 42 57 45 58 58 59 76 60 43 61 44 62 57 64 77 65 46 66 31 67
REMARK SMILES IDX 32 68 40 69 33 70 39 71 34 72 35 73 36 74 37 75 38 76 61 77
REMARK SMILES IDX 62 78 70 79 63 80 69 81 64 82 65 83 66 84 67 85 68 86 47 87
REMARK SMILES IDX 48 88 56 89 49 90 55 91 50 92 51 93 52 94 53 95 54 96
REMARK H PARENT 12 7 5 17 19 33 75 52 45 63
REMARK Flexibility Score: inf
ROOT
ATOM      1  C   UNL A   1      34.026  29.297  27.612  1.00  0.00     0.002 C 
ENDROOT
BRANCH   1   2
ATOM      2  C   UNL A   1      34.095  28.564  26.271  1.00  0.00     0.021 C 
BRANCH   2   3
ATOM      3  C   UNL A   1      33.434  29.252  25.084  1.00  0.00     0.116 C 
BRANCH   3   4
ATOM      4  N   UNL A   1      33.920  28.860  23.780  1.00  0.00    -0.356 N 
ATOM      5  C   UNL A   1      33.574  27.786  23.006  1.00  0.00     0.224 C 
ATOM      6  O   UNL A   1      34.085  27.743  21.883  1.00  0.00    -0.275 OA
ATOM      7  H   UNL A   1      34.601  29.454  23.390  1.00  0.00     0.163 HD
BRANCH   5   8
ATOM      8  C   UNL A   1      32.650  26.651  23.517  1.00  0.00     0.098 C 
ATOM      9  C   UNL A   1      33.524  25.467  24.120  1.00  0.00     0.099 C 
ATOM     10  C   UNL A   1      33.134  24.287  23.144  1.00  0.00     0.025 C 
ATOM     11  C   UNL A   1      31.880  25.932  22.376  1.00  0.00     0.025 C 
ATOM     12  C   UNL A   1      31.685  23.915  23.421  1.00  0.00    -0.027 C 
ATOM     13  C   UNL A   1      32.947  24.995  21.817  1.00  0.00     0.017 C 
ATOM     14  C   UNL A   1      30.936  24.937  22.996  1.00  0.00    -0.027 C 
BRANCH   9  15
ATOM     15  C   UNL A   1      33.395  24.827  25.505  1.00  0.00     0.229 C 
ATOM     16  N   UNL A   1      34.007  23.763  26.045  1.00  0.00    -0.316 N 
ATOM     17  H   UNL A   1      34.167  23.880  27.010  1.00  0.00     0.170 HD
ATOM     18  O   UNL A   1      32.629  25.386  26.319  1.00  0.00    -0.274 OA
BRANCH  16  19
ATOM     19  C   UNL A   1      34.469  22.552  25.591  1.00  0.00     0.113 A 
ATOM     20  C   UNL A   1      34.471  18.785  24.560  1.00  0.00     0.057 C 
ATOM     21  C   UNL A   1      34.775  20.193  24.956  1.00  0.00     0.008 A 
ATOM     22  S   UNL A   1      33.464  21.223  25.366  1.00  0.00    -0.122 S 
ATOM     23  C   UNL A   1      35.998  20.839  25.066  1.00  0.00    -0.017 A 
ATOM     24  C   UNL A   1      35.802  22.221  25.417  1.00  0.00     0.090 A 
ATOM     25  C   UNL A   1      37.352  20.226  24.873  1.00  0.00     0.047 C 
BRANCH  24  26
ATOM     26  C   UNL A   1      36.869  23.152  25.628  1.00  0.00     0.103 C 
ATOM     27  N   UNL A   1      37.765  23.893  25.762  1.00  0.00    -0.192 NA
ENDBRANCH  24  26
ENDBRANCH  16  19
ENDBRANCH   9  15
ENDBRANCH   5   8
ENDBRANCH   3   4
ENDBRANCH   2   3
ENDBRANCH   1   2
BRANCH   1  28
ATOM     28  C   UNL A   1      34.235  30.820  27.601  1.00  0.00     0.002 C 
BRANCH  28  29
ATOM     29  C   UNL A   1      32.995  31.712  27.761  1.00  0.00     0.021 C 
BRANCH  29  30
ATOM     30  C   UNL A   1      33.066  33.048  27.037  1.00  0.00     0.116 C 
BRANCH  30  31
ATOM     31  N   UNL A   1      32.743  34.201  27.887  1.00  0.00    -0.352 N 
ATOM     32  C   UNL A   1      33.207  34.483  29.167  1.00  0.00     0.251 C 
ATOM     33  H   UNL A   1      32.119  34.857  27.501  1.00  0.00     0.163 HD
ATOM     34  O   UNL A   1      32.578  35.225  29.913  1.00  0.00    -0.269 OA
BRANCH  32  35
ATOM     35  C   UNL A   1      34.505  33.914  29.592  1.00  0.00     0.039 A 
ATOM     36  C   UNL A   1      34.687  33.096  30.714  1.00  0.00     0.014 A 
ATOM     37  C   UNL A   1      35.580  34.198  28.769  1.00  0.00     0.014 A 
ATOM     38  C   UNL A   1      35.972  32.600  30.982  1.00  0.00     0.010 A 
ATOM     39  C   UNL A   1      36.675  33.396  28.831  1.00  0.00     0.010 A 
ATOM     40  C   UNL A   1      36.984  32.791  30.030  1.00  0.00    -0.014 A 
BRANCH  40  41
ATOM     41  C   UNL A   1      38.314  32.184  30.067  1.00  0.00     0.031 A 
ATOM     42  C   UNL A   1      38.252  30.782  29.580  1.00  0.00     0.074 A 
ATOM     43  C   UNL A   1      39.454  32.912  30.235  1.00  0.00     0.049 A 
ATOM     44  N   UNL A   1      38.206  29.719  30.314  1.00  0.00    -0.248 NA
ATOM     45  C   UNL A   1      37.903  30.525  28.164  1.00  0.00     0.031 C 
ATOM     46  C   UNL A   1      39.595  34.364  30.449  1.00  0.00     0.029 A 
ATOM     47  N   UNL A   1      40.765  32.523  30.185  1.00  0.00    -0.354 N 
ATOM     48  C   UNL A   1      38.185  28.660  29.413  1.00  0.00     0.074 A 
ATOM     49  C   UNL A   1      37.695  29.204  28.178  1.00  0.00     0.031 C 
ATOM     50  C   UNL A   1      40.889  34.745  30.291  1.00  0.00     0.029 A 
ATOM     51  C   UNL A   1      41.711  33.562  30.113  1.00  0.00     0.049 A 
ATOM     52  H   UNL A   1      41.030  31.576  30.199  1.00  0.00     0.167 HD
ATOM     53  C   UNL A   1      38.957  27.558  29.638  1.00  0.00     0.031 A 
ATOM     54  C   UNL A   1      43.067  33.445  29.961  1.00  0.00     0.031 A 
ATOM     55  C   UNL A   1      39.499  27.602  30.974  1.00  0.00     0.049 A 
ATOM     56  C   UNL A   1      43.402  32.070  30.389  1.00  0.00     0.074 A 
ATOM     57  C   UNL A   1      38.999  27.530  32.256  1.00  0.00     0.029 A 
ATOM     58  N   UNL A   1      40.712  28.243  31.041  1.00  0.00    -0.354 N 
ATOM     59  N   UNL A   1      43.256  31.664  31.619  1.00  0.00    -0.248 NA
ATOM     60  C   UNL A   1      43.433  31.024  29.381  1.00  0.00     0.031 C 
ATOM     61  C   UNL A   1      39.822  28.399  33.034  1.00  0.00     0.029 A 
ATOM     62  C   UNL A   1      40.862  28.882  32.238  1.00  0.00     0.049 A 
ATOM     63  H   UNL A   1      41.384  28.242  30.321  1.00  0.00     0.167 HD
ATOM     64  C   UNL A   1      42.715  30.396  31.499  1.00  0.00     0.074 A 
ATOM     65  C   UNL A   1      42.979  30.002  30.114  1.00  0.00     0.031 C 
ATOM     66  C   UNL A   1      41.831  29.940  32.437  1.00  0.00     0.031 A 
BRANCH  53  67
ATOM     67  C   UNL A   1      39.674  26.782  28.547  1.00  0.00    -0.014 A 
ATOM     68  C   UNL A   1      39.873  25.398  28.740  1.00  0.00     0.010 A 
ATOM     69  C   UNL A   1      40.396  27.381  27.493  1.00  0.00     0.010 A 
ATOM     70  C   UNL A   1      40.778  24.669  27.956  1.00  0.00     0.020 A 
ATOM     71  C   UNL A   1      41.279  26.658  26.685  1.00  0.00     0.020 A 
ATOM     72  C   UNL A   1      41.478  25.307  26.934  1.00  0.00     0.054 A 
BRANCH  72  73
ATOM     73  S   UNL A   1      42.674  24.365  25.956  1.00  0.00     0.124 S 
ATOM     74  O   UNL A   1      41.905  23.180  25.592  1.00  0.00    -0.237 OA
ATOM     75  O   UNL A   1      42.973  25.290  24.866  1.00  0.00    -0.237 OA
ATOM     76  O   UNL A   1      43.774  24.136  26.891  1.00  0.00    -0.744 OA
ENDBRANCH  72  73
ENDBRANCH  53  67
BRANCH  54  77
ATOM     77  C   UNL A   1      44.071  34.273  29.217  1.00  0.00    -0.014 A 
ATOM     78  C   UNL A   1      45.453  34.256  29.526  1.00  0.00     0.010 A 
ATOM     79  C   UNL A   1      43.709  34.816  27.970  1.00  0.00     0.010 A 
ATOM     80  C   UNL A   1      46.428  34.713  28.606  1.00  0.00     0.020 A 
ATOM     81  C   UNL A   1      44.672  35.264  27.047  1.00  0.00     0.020 A 
ATOM     82  C   UNL A   1      46.030  35.195  27.358  1.00  0.00     0.054 A 
BRANCH  82  83
ATOM     83  S   UNL A   1      47.278  35.629  26.096  1.00  0.00     0.124 S 
ATOM     84  O   UNL A   1      46.844  36.954  25.664  1.00  0.00    -0.237 OA
ATOM     85  O   UNL A   1      48.529  35.588  26.849  1.00  0.00    -0.237 OA
ATOM     86  O   UNL A   1      47.130  34.576  25.091  1.00  0.00    -0.744 OA
ENDBRANCH  82  83
ENDBRANCH  54  77
BRANCH  66  87
ATOM     87  C   UNL A   1      41.788  30.654  33.767  1.00  0.00    -0.014 A 
ATOM     88  C   UNL A   1      41.022  31.802  34.056  1.00  0.00     0.010 A 
ATOM     89  C   UNL A   1      42.501  30.043  34.810  1.00  0.00     0.010 A 
ATOM     90  C   UNL A   1      41.001  32.335  35.357  1.00  0.00     0.020 A 
ATOM     91  C   UNL A   1      42.469  30.554  36.104  1.00  0.00     0.020 A 
ATOM     92  C   UNL A   1      41.733  31.708  36.372  1.00  0.00     0.054 A 
BRANCH  92  93
ATOM     93  S   UNL A   1      41.720  32.385  38.056  1.00  0.00     0.124 S 
ATOM     94  O   UNL A   1      42.308  33.709  37.869  1.00  0.00    -0.237 OA
ATOM     95  O   UNL A   1      40.300  32.369  38.401  1.00  0.00    -0.237 OA
ATOM     96  O   UNL A   1      42.543  31.445  38.815  1.00  0.00    -0.744 OA
ENDBRANCH  92  93
ENDBRANCH  66  87
ENDBRANCH  40  41
ENDBRANCH  32  35
ENDBRANCH  30  31
ENDBRANCH  29  30
ENDBRANCH  28  29
ENDBRANCH   1  28
TORSDOF 19
ENDMDL
MODEL 3
REMARK VINA RESULT:     -11.9      2.337      3.741
REMARK SMILES Cc1sc(NC(=O)[C@@H]2[C@@H](C(=O)NCCCCCCNC(=O)c3ccc(-c4c5nc(c(-c6ccc(S(=O)(=O)[O-])cc6)c6ccc([nH]6)c(-c6ccc(S(=O)(=O)[O-])cc6)c6nc(c(-c7ccc(S(=O)(=O)[O-])cc7)c7ccc4[nH]7)C=C6)C=C5)cc3)[C@@H]3C=C[C@H]2C3)c(C#N)c1C
REMARK SMILES IDX 15 1 14 2 13 3 12 4 10 5 11 6 9 8 8 9 85 10 82 11 84 12
REMARK SMILES IDX 86 13 83 14 6 15 5 16 7 18 4 19 1 20 2 21 3 22 90 23 87 24
REMARK SMILES IDX 91 25 88 26 89 27 16 28 17 29 18 30 19 31 20 32 21 34 22 35
REMARK SMILES IDX 23 36 81 37 24 38 80 39 25 40 26 41 27 42 74 43 28 44 79 45
REMARK SMILES IDX 73 46 75 47 29 48 78 49 72 50 71 51 30 53 60 54 41 55 59 56
REMARK SMILES IDX 42 57 45 58 58 59 76 60 43 61 44 62 57 64 77 65 46 66 31 67
REMARK SMILES IDX 32 68 40 69 33 70 39 71 34 72 35 73 36 74 37 75 38 76 61 77
REMARK SMILES IDX 62 78 70 79 63 80 69 81 64 82 65 83 66 84 67 85 68 86 47 87
REMARK SMILES IDX 48 88 56 89 49 90 55 91 50 92 51 93 52 94 53 95 54 96
REMARK H PARENT 12 7 5 17 19 33 75 52 45 63
REMARK Flexibility Score: inf
ROOT
ATOM      1  C   UNL A   1      34.248  21.518  24.473  1.00  0.00     0.002 C 
ENDROOT
BRANCH   1   2
ATOM      2  C   UNL A   1      33.458  21.129  25.725  1.00  0.00     0.021 C 
BRANCH   2   3
ATOM      3  C   UNL A   1      33.531  22.092  26.902  1.00  0.00     0.116 C 
BRANCH   3   4
ATOM      4  N   UNL A   1      32.265  22.616  27.364  1.00  0.00    -0.356 N 
ATOM      5  C   UNL A   1      31.426  23.519  26.771  1.00  0.00     0.224 C 
ATOM      6  O   UNL A   1      30.354  23.722  27.350  1.00  0.00    -0.275 OA
ATOM      7  H   UNL A   1      31.961  22.273  28.235  1.00  0.00     0.163 HD
BRANCH   5   8
ATOM      8  C   UNL A   1      31.808  24.297  25.485  1.00  0.00     0.098 C 
ATOM      9  C   UNL A   1      32.230  25.784  25.853  1.00  0.00     0.099 C 
ATOM     10  C   UNL A   1      31.120  26.605  25.084  1.00  0.00     0.025 C 
ATOM     11  C   UNL A   1      30.603  24.532  24.534  1.00  0.00     0.025 C 
ATOM     12  C   UNL A   1      31.382  26.456  23.593  1.00  0.00    -0.027 C 
ATOM     13  C   UNL A   1      29.901  25.711  25.200  1.00  0.00     0.017 C 
ATOM     14  C   UNL A   1      31.113  25.186  23.278  1.00  0.00    -0.027 C 
BRANCH   9  15
ATOM     15  C   UNL A   1      33.523  26.507  25.468  1.00  0.00     0.229 C 
ATOM     16  N   UNL A   1      34.064  27.649  25.919  1.00  0.00    -0.316 N 
ATOM     17  H   UNL A   1      35.048  27.612  25.931  1.00  0.00     0.170 HD
ATOM     18  O   UNL A   1      34.252  25.952  24.618  1.00  0.00    -0.274 OA
BRANCH  16  19
ATOM     19  C   UNL A   1      33.591  28.856  26.371  1.00  0.00     0.113 A 
ATOM     20  C   UNL A   1      31.290  31.993  26.714  1.00  0.00     0.057 C 
ATOM     21  C   UNL A   1      32.373  30.965  26.735  1.00  0.00     0.008 A 
ATOM     22  S   UNL A   1      32.131  29.511  25.854  1.00  0.00    -0.122 S 
ATOM     23  C   UNL A   1      33.608  30.992  27.366  1.00  0.00    -0.017 A 
ATOM     24  C   UNL A   1      34.299  29.745  27.163  1.00  0.00     0.090 A 
ATOM     25  C   UNL A   1      34.190  32.133  28.144  1.00  0.00     0.047 C 
BRANCH  24  26
ATOM     26  C   UNL A   1      35.609  29.464  27.667  1.00  0.00     0.103 C 
ATOM     27  N   UNL A   1      36.693  29.219  28.034  1.00  0.00    -0.192 NA
ENDBRANCH  24  26
ENDBRANCH  16  19
ENDBRANCH   9  15
ENDBRANCH   5   8
ENDBRANCH   3   4
ENDBRANCH   2   3
ENDBRANCH   1   2
BRANCH   1  28
ATOM     28  C   UNL A   1      35.762  21.735  24.627  1.00  0.00     0.002 C 
BRANCH  28  29
ATOM     29  C   UNL A   1      36.285  23.178  24.573  1.00  0.00     0.021 C 
BRANCH  29  30
ATOM     30  C   UNL A   1      37.705  23.365  25.086  1.00  0.00     0.116 C 
BRANCH  30  31
ATOM     31  N   UNL A   1      38.337  22.123  25.548  1.00  0.00    -0.352 N 
ATOM     32  C   UNL A   1      39.548  21.970  26.216  1.00  0.00     0.251 C 
ATOM     33  H   UNL A   1      37.841  21.294  25.361  1.00  0.00     0.163 HD
ATOM     34  O   UNL A   1      40.149  20.903  26.187  1.00  0.00    -0.269 OA
BRANCH  32  35
ATOM     35  C   UNL A   1      40.067  23.105  27.011  1.00  0.00     0.039 A 
ATOM     36  C   UNL A   1      41.410  23.280  27.365  1.00  0.00     0.014 A 
ATOM     37  C   UNL A   1      39.133  24.059  27.370  1.00  0.00     0.014 A 
ATOM     38  C   UNL A   1      41.768  24.423  28.098  1.00  0.00     0.010 A 
ATOM     39  C   UNL A   1      39.570  25.301  27.708  1.00  0.00     0.010 A 
ATOM     40  C   UNL A   1      40.810  25.428  28.295  1.00  0.00    -0.014 A 
BRANCH  40  41
ATOM     41  C   UNL A   1      41.067  26.748  28.868  1.00  0.00     0.031 A 
ATOM     42  C   UNL A   1      42.199  27.402  28.161  1.00  0.00     0.074 A 
ATOM     43  C   UNL A   1      40.194  27.373  29.707  1.00  0.00     0.049 A 
ATOM     44  N   UNL A   1      43.425  27.451  28.565  1.00  0.00    -0.248 NA
ATOM     45  C   UNL A   1      42.042  27.777  26.738  1.00  0.00     0.031 C 
ATOM     46  C   UNL A   1      38.907  26.879  30.229  1.00  0.00     0.029 A 
ATOM     47  N   UNL A   1      40.227  28.634  30.236  1.00  0.00    -0.354 N 
ATOM     48  C   UNL A   1      44.096  28.183  27.591  1.00  0.00     0.074 A 
ATOM     49  C   UNL A   1      43.300  28.075  26.401  1.00  0.00     0.031 C 
ATOM     50  C   UNL A   1      38.204  27.891  30.802  1.00  0.00     0.029 A 
ATOM     51  C   UNL A   1      39.035  29.082  30.834  1.00  0.00     0.049 A 
ATOM     52  H   UNL A   1      41.036  29.194  30.202  1.00  0.00     0.167 HD
ATOM     53  C   UNL A   1      44.999  29.138  27.956  1.00  0.00     0.031 A 
ATOM     54  C   UNL A   1      38.775  30.323  31.350  1.00  0.00     0.031 A 
ATOM     55  C   UNL A   1      45.280  29.035  29.367  1.00  0.00     0.049 A 
ATOM     56  C   UNL A   1      40.096  30.928  31.622  1.00  0.00     0.074 A 
ATOM     57  C   UNL A   1      45.891  28.122  30.198  1.00  0.00     0.029 A 
ATOM     58  N   UNL A   1      44.435  29.794  30.140  1.00  0.00    -0.354 N 
ATOM     59  N   UNL A   1      40.912  30.454  32.521  1.00  0.00    -0.248 NA
ATOM     60  C   UNL A   1      40.707  31.743  30.585  1.00  0.00     0.031 C 
ATOM     61  C   UNL A   1      45.166  28.182  31.427  1.00  0.00     0.029 A 
ATOM     62  C   UNL A   1      44.217  29.202  31.351  1.00  0.00     0.049 A 
ATOM     63  H   UNL A   1      44.039  30.650  29.857  1.00  0.00     0.167 HD
ATOM     64  C   UNL A   1      42.157  30.508  31.916  1.00  0.00     0.074 A 
ATOM     65  C   UNL A   1      41.991  31.435  30.794  1.00  0.00     0.031 C 
ATOM     66  C   UNL A   1      43.092  29.551  32.194  1.00  0.00     0.031 A 
BRANCH  53  67
ATOM     67  C   UNL A   1      45.176  30.463  27.236  1.00  0.00    -0.014 A 
ATOM     68  C   UNL A   1      46.491  30.926  27.013  1.00  0.00     0.010 A 
ATOM     69  C   UNL A   1      44.136  31.393  27.023  1.00  0.00     0.010 A 
ATOM     70  C   UNL A   1      46.750  32.255  26.647  1.00  0.00     0.020 A 
ATOM     71  C   UNL A   1      44.382  32.712  26.628  1.00  0.00     0.020 A 
ATOM     72  C   UNL A   1      45.691  33.140  26.460  1.00  0.00     0.054 A 
BRANCH  72  73
ATOM     73  S   UNL A   1      46.041  34.862  26.027  1.00  0.00     0.124 S 
ATOM     74  O   UNL A   1      46.503  34.742  24.648  1.00  0.00    -0.237 OA
ATOM     75  O   UNL A   1      44.737  35.493  26.210  1.00  0.00    -0.237 OA
ATOM     76  O   UNL A   1      47.061  35.257  26.997  1.00  0.00    -0.744 OA
ENDBRANCH  72  73
ENDBRANCH  53  67
BRANCH  54  77
ATOM     77  C   UNL A   1      37.537  31.167  31.365  1.00  0.00    -0.014 A 
ATOM     78  C   UNL A   1      36.565  31.079  32.391  1.00  0.00     0.010 A 
ATOM     79  C   UNL A   1      37.488  32.311  30.546  1.00  0.00     0.010 A 
ATOM     80  C   UNL A   1      35.624  32.112  32.619  1.00  0.00     0.020 A 
ATOM     81  C   UNL A   1      36.562  33.346  30.770  1.00  0.00     0.020 A 
ATOM     82  C   UNL A   1      35.644  33.254  31.816  1.00  0.00     0.054 A 
BRANCH  82  83
ATOM     83  S   UNL A   1      34.553  34.669  32.200  1.00  0.00     0.124 S 
ATOM     84  O   UNL A   1      34.134  35.115  30.875  1.00  0.00    -0.237 OA
ATOM     85  O   UNL A   1      33.509  34.061  33.021  1.00  0.00    -0.237 OA
ATOM     86  O   UNL A   1      35.431  35.597  32.911  1.00  0.00    -0.744 OA
ENDBRANCH  82  83
ENDBRANCH  54  77
BRANCH  66  87
ATOM     87  C   UNL A   1      42.895  28.717  33.437  1.00  0.00    -0.014 A 
ATOM     88  C   UNL A   1      42.107  27.551  33.525  1.00  0.00     0.010 A 
ATOM     89  C   UNL A   1      43.652  29.101  34.555  1.00  0.00     0.010 A 
ATOM     90  C   UNL A   1      42.061  26.811  34.720  1.00  0.00     0.020 A 
ATOM     91  C   UNL A   1      43.626  28.362  35.734  1.00  0.00     0.020 A 
ATOM     92  C   UNL A   1      42.819  27.228  35.820  1.00  0.00     0.054 A 
BRANCH  92  93
ATOM     93  S   UNL A   1      42.768  26.285  37.371  1.00  0.00     0.124 S 
ATOM     94  O   UNL A   1      43.241  24.968  36.955  1.00  0.00    -0.237 OA
ATOM     95  O   UNL A   1      43.674  27.036  38.237  1.00  0.00    -0.237 OA
ATOM     96  O   UNL A   1      41.361  26.340  37.765  1.00  0.00    -0.744 OA
ENDBRANCH  92  93
ENDBRANCH  66  87
ENDBRANCH  40  41
ENDBRANCH  32  35
ENDBRANCH  30  31
ENDBRANCH  29  30
ENDBRANCH  28  29
ENDBRANCH   1  28
TORSDOF 19
ENDMDL
