MODEL 1
REMARK VINA RESULT:     -13.1      0.000      0.000
REMARK SMILES C[N@@H+]1CCN(C(=O)c2ccc3[nH]c4c(c3c2)CSCC4)C[C@H]1C(=O)NCCCCCCNC(=O)c1ccc(-c2c3nc(c(-c4ccc(S(=O)(=O)[O-])cc4)c4ccc([nH]4)c(-c4ccc(S(=O)(=O)[O-])cc4)c4nc(c(-c5ccc(S(=O)(=O)[O-])cc5)c5ccc2[nH]5)C=C4)C=C3)cc1
REMARK SMILES IDX 29 1 28 2 27 3 26 4 25 5 23 6 24 7 22 9 1 10 2 11 3 12 4 14
REMARK SMILES IDX 21 15 5 16 6 17 7 18 8 19 9 20 16 21 10 22 15 23 11 24 14 25
REMARK SMILES IDX 12 26 13 27 17 28 20 30 18 31 19 32 30 33 31 34 32 35 33 36
REMARK SMILES IDX 34 38 35 39 36 40 94 41 37 42 93 43 38 44 39 45 40 46 87 47
REMARK SMILES IDX 41 48 92 49 86 50 88 51 42 52 91 53 85 54 84 55 43 57 73 58
REMARK SMILES IDX 54 59 72 60 55 61 58 62 71 63 89 64 56 65 57 66 70 68 90 69
REMARK SMILES IDX 59 70 44 71 45 72 53 73 46 74 52 75 47 76 48 77 49 78 50 79
REMARK SMILES IDX 51 80 74 81 75 82 83 83 76 84 82 85 77 86 78 87 79 88 80 89
REMARK SMILES IDX 81 90 60 91 61 92 69 93 62 94 68 95 63 96 64 97 65 98 66 99
REMARK SMILES IDX 67 100
REMARK H PARENT 25 8 2 13 12 29 32 37 88 56 58 67
REMARK Flexibility Score: inf
ROOT
ATOM      1  C   UNL A   1      40.059  22.414  27.225  1.00  0.00     0.002 C 
ENDROOT
BRANCH   1   2
ATOM      2  C   UNL A   1      39.448  23.806  27.419  1.00  0.00     0.002 C 
BRANCH   2   3
ATOM      3  C   UNL A   1      38.494  24.259  26.311  1.00  0.00     0.021 C 
BRANCH   3   4
ATOM      4  C   UNL A   1      37.480  23.202  25.891  1.00  0.00     0.116 C 
BRANCH   4   5
ATOM      5  N   UNL A   1      37.093  23.357  24.500  1.00  0.00    -0.351 N 
ATOM      6  C   UNL A   1      35.902  23.078  23.898  1.00  0.00     0.280 C 
ATOM      7  O   UNL A   1      35.821  23.206  22.673  1.00  0.00    -0.268 OA
ATOM      8  H   UNL A   1      37.792  23.714  23.905  1.00  0.00     0.163 HD
BRANCH   6   9
ATOM      9  C   UNL A   1      34.677  22.653  24.720  1.00  0.00     0.293 C 
ATOM     10  C   UNL A   1      35.387  20.318  24.902  1.00  0.00     0.333 C 
ATOM     11  N   UNL A   1      34.973  21.512  25.642  1.00  0.00    -0.324 N 
ATOM     12  C   UNL A   1      33.771  21.220  26.454  1.00  0.00     0.284 C 
ATOM     13  H   UNL A   1      35.747  21.779  26.251  1.00  0.00     0.348 HD
ATOM     14  C   UNL A   1      33.238  22.452  27.210  1.00  0.00     0.181 C 
ATOM     15  C   UNL A   1      34.125  23.905  25.436  1.00  0.00     0.195 C 
ATOM     16  N   UNL A   1      32.996  23.584  26.316  1.00  0.00    -0.326 N 
BRANCH  16  17
ATOM     17  C   UNL A   1      31.915  24.425  26.577  1.00  0.00     0.254 C 
ATOM     18  O   UNL A   1      30.960  24.101  27.269  1.00  0.00    -0.269 OA
BRANCH  17  19
ATOM     19  C   UNL A   1      31.927  25.792  26.006  1.00  0.00     0.040 A 
ATOM     20  C   UNL A   1      33.032  26.630  26.184  1.00  0.00     0.016 A 
ATOM     21  C   UNL A   1      30.808  26.212  25.274  1.00  0.00     0.024 A 
ATOM     22  C   UNL A   1      33.013  27.944  25.709  1.00  0.00     0.027 A 
ATOM     23  C   UNL A   1      30.785  27.523  24.758  1.00  0.00     0.004 A 
ATOM     24  C   UNL A   1      31.876  28.360  25.004  1.00  0.00     0.046 A 
ATOM     25  C   UNL A   1      29.847  28.262  23.971  1.00  0.00    -0.009 A 
ATOM     26  N   UNL A   1      31.586  29.581  24.438  1.00  0.00    -0.358 N 
ATOM     27  C   UNL A   1      30.396  29.515  23.774  1.00  0.00     0.021 A 
ATOM     28  C   UNL A   1      28.543  27.774  23.425  1.00  0.00     0.107 C 
ATOM     29  H   UNL A   1      32.154  30.383  24.502  1.00  0.00     0.166 HD
ATOM     30  C   UNL A   1      29.815  30.633  22.984  1.00  0.00     0.065 C 
ATOM     31  S   UNL A   1      27.603  28.999  22.447  1.00  0.00    -0.157 SA
ATOM     32  C   UNL A   1      28.949  30.080  21.851  1.00  0.00     0.076 C 
ENDBRANCH  17  19
ENDBRANCH  16  17
ENDBRANCH   6   9
ENDBRANCH   4   5
ENDBRANCH   3   4
ENDBRANCH   2   3
ENDBRANCH   1   2
BRANCH   1  33
ATOM     33  C   UNL A   1      41.461  22.220  27.813  1.00  0.00     0.021 C 
BRANCH  33  34
ATOM     34  C   UNL A   1      42.387  21.331  26.984  1.00  0.00     0.116 C 
BRANCH  34  35
ATOM     35  N   UNL A   1      42.742  21.886  25.693  1.00  0.00    -0.352 N 
ATOM     36  C   UNL A   1      43.047  23.136  25.233  1.00  0.00     0.251 C 
ATOM     37  H   UNL A   1      42.768  21.204  24.984  1.00  0.00     0.163 HD
ATOM     38  O   UNL A   1      43.478  23.192  24.078  1.00  0.00    -0.269 OA
BRANCH  36  39
ATOM     39  C   UNL A   1      42.830  24.408  25.980  1.00  0.00     0.039 A 
ATOM     40  C   UNL A   1      43.398  24.742  27.208  1.00  0.00     0.014 A 
ATOM     41  C   UNL A   1      41.911  25.309  25.403  1.00  0.00     0.014 A 
ATOM     42  C   UNL A   1      42.974  25.880  27.891  1.00  0.00     0.010 A 
ATOM     43  C   UNL A   1      41.498  26.457  26.072  1.00  0.00     0.010 A 
ATOM     44  C   UNL A   1      41.997  26.718  27.341  1.00  0.00    -0.014 A 
BRANCH  44  45
ATOM     45  C   UNL A   1      41.654  27.937  28.071  1.00  0.00     0.031 A 
ATOM     46  C   UNL A   1      42.671  29.016  27.948  1.00  0.00     0.074 A 
ATOM     47  C   UNL A   1      40.510  28.148  28.756  1.00  0.00     0.049 A 
ATOM     48  N   UNL A   1      43.441  29.470  28.879  1.00  0.00    -0.248 NA
ATOM     49  C   UNL A   1      42.969  29.548  26.610  1.00  0.00     0.031 C 
ATOM     50  C   UNL A   1      39.301  27.324  28.786  1.00  0.00     0.029 A 
ATOM     51  N   UNL A   1      40.160  29.226  29.519  1.00  0.00    -0.354 N 
ATOM     52  C   UNL A   1      44.198  30.482  28.298  1.00  0.00     0.074 A 
ATOM     53  C   UNL A   1      43.973  30.385  26.878  1.00  0.00     0.031 C 
ATOM     54  C   UNL A   1      38.285  28.040  29.324  1.00  0.00     0.029 A 
ATOM     55  C   UNL A   1      38.801  29.310  29.809  1.00  0.00     0.049 A 
ATOM     56  H   UNL A   1      40.815  29.888  29.838  1.00  0.00     0.167 HD
ATOM     57  C   UNL A   1      44.802  31.442  29.054  1.00  0.00     0.031 A 
ATOM     58  C   UNL A   1      38.146  30.368  30.358  1.00  0.00     0.031 A 
ATOM     59  C   UNL A   1      44.870  31.058  30.440  1.00  0.00     0.049 A 
ATOM     60  C   UNL A   1      39.153  31.183  31.081  1.00  0.00     0.074 A 
ATOM     61  C   UNL A   1      45.443  30.000  31.119  1.00  0.00     0.029 A 
ATOM     62  N   UNL A   1      43.951  31.611  31.299  1.00  0.00    -0.354 N 
ATOM     63  N   UNL A   1      39.754  30.784  32.166  1.00  0.00    -0.248 NA
ATOM     64  C   UNL A   1      39.809  32.257  30.354  1.00  0.00     0.031 C 
ATOM     65  C   UNL A   1      44.500  29.668  32.133  1.00  0.00     0.029 A 
ATOM     66  C   UNL A   1      43.458  30.596  32.076  1.00  0.00     0.049 A 
ATOM     67  H   UNL A   1      43.694  32.561  31.347  1.00  0.00     0.167 HD
ATOM     68  C   UNL A   1      41.062  31.218  32.013  1.00  0.00     0.074 A 
ATOM     69  C   UNL A   1      41.016  32.192  30.923  1.00  0.00     0.031 C 
ATOM     70  C   UNL A   1      42.105  30.547  32.586  1.00  0.00     0.031 A 
BRANCH  57  71
ATOM     71  C   UNL A   1      45.017  32.865  28.606  1.00  0.00    -0.014 A 
ATOM     72  C   UNL A   1      43.968  33.783  28.402  1.00  0.00     0.010 A 
ATOM     73  C   UNL A   1      46.327  33.392  28.623  1.00  0.00     0.010 A 
ATOM     74  C   UNL A   1      44.202  35.148  28.226  1.00  0.00     0.020 A 
ATOM     75  C   UNL A   1      46.571  34.766  28.493  1.00  0.00     0.020 A 
ATOM     76  C   UNL A   1      45.502  35.633  28.286  1.00  0.00     0.054 A 
BRANCH  76  77
ATOM     77  S   UNL A   1      45.757  37.418  28.138  1.00  0.00     0.124 S 
ATOM     78  O   UNL A   1      47.212  37.504  28.056  1.00  0.00    -0.237 OA
ATOM     79  O   UNL A   1      45.036  37.735  26.910  1.00  0.00    -0.237 OA
ATOM     80  O   UNL A   1      45.167  37.952  29.363  1.00  0.00    -0.744 OA
ENDBRANCH  76  77
ENDBRANCH  57  71
BRANCH  58  81
ATOM     81  C   UNL A   1      36.835  30.947  29.948  1.00  0.00    -0.014 A 
ATOM     82  C   UNL A   1      36.602  31.288  28.603  1.00  0.00     0.010 A 
ATOM     83  C   UNL A   1      35.959  31.483  30.919  1.00  0.00     0.010 A 
ATOM     84  C   UNL A   1      35.621  32.220  28.248  1.00  0.00     0.020 A 
ATOM     85  C   UNL A   1      34.974  32.423  30.571  1.00  0.00     0.020 A 
ATOM     86  C   UNL A   1      34.848  32.822  29.240  1.00  0.00     0.054 A 
BRANCH  86  87
ATOM     87  S   UNL A   1      33.778  34.211  28.766  1.00  0.00     0.124 S 
ATOM     88  O   UNL A   1      32.875  33.582  27.806  1.00  0.00    -0.237 OA
ATOM     89  O   UNL A   1      33.170  34.592  30.039  1.00  0.00    -0.237 OA
ATOM     90  O   UNL A   1      34.705  35.191  28.204  1.00  0.00    -0.744 OA
ENDBRANCH  86  87
ENDBRANCH  58  81
BRANCH  70  91
ATOM     91  C   UNL A   1      41.837  29.495  33.642  1.00  0.00    -0.014 A 
ATOM     92  C   UNL A   1      42.273  29.786  34.948  1.00  0.00     0.010 A 
ATOM     93  C   UNL A   1      41.378  28.192  33.366  1.00  0.00     0.010 A 
ATOM     94  C   UNL A   1      42.299  28.804  35.937  1.00  0.00     0.020 A 
ATOM     95  C   UNL A   1      41.368  27.207  34.367  1.00  0.00     0.020 A 
ATOM     96  C   UNL A   1      41.856  27.516  35.639  1.00  0.00     0.054 A 
BRANCH  96  97
ATOM     97  S   UNL A   1      41.962  26.259  36.942  1.00  0.00     0.124 S 
ATOM     98  O   UNL A   1      42.431  25.090  36.202  1.00  0.00    -0.237 OA
ATOM     99  O   UNL A   1      42.927  26.842  37.873  1.00  0.00    -0.237 OA
ATOM    100  O   UNL A   1      40.596  26.162  37.453  1.00  0.00    -0.744 OA
ENDBRANCH  96  97
ENDBRANCH  70  91
ENDBRANCH  44  45
ENDBRANCH  36  39
ENDBRANCH  34  35
ENDBRANCH  33  34
ENDBRANCH   1  33
TORSDOF 18
ENDMDL
MODEL 2
REMARK VINA RESULT:     -12.1      2.360      4.503
REMARK SMILES C[N@@H+]1CCN(C(=O)c2ccc3[nH]c4c(c3c2)CSCC4)C[C@H]1C(=O)NCCCCCCNC(=O)c1ccc(-c2c3nc(c(-c4ccc(S(=O)(=O)[O-])cc4)c4ccc([nH]4)c(-c4ccc(S(=O)(=O)[O-])cc4)c4nc(c(-c5ccc(S(=O)(=O)[O-])cc5)c5ccc2[nH]5)C=C4)C=C3)cc1
REMARK SMILES IDX 29 1 28 2 27 3 26 4 25 5 23 6 24 7 22 9 1 10 2 11 3 12 4 14
REMARK SMILES IDX 21 15 5 16 6 17 7 18 8 19 9 20 16 21 10 22 15 23 11 24 14 25
REMARK SMILES IDX 12 26 13 27 17 28 20 30 18 31 19 32 30 33 31 34 32 35 33 36
REMARK SMILES IDX 34 38 35 39 36 40 94 41 37 42 93 43 38 44 39 45 40 46 87 47
REMARK SMILES IDX 41 48 92 49 86 50 88 51 42 52 91 53 85 54 84 55 43 57 73 58
REMARK SMILES IDX 54 59 72 60 55 61 58 62 71 63 89 64 56 65 57 66 70 68 90 69
REMARK SMILES IDX 59 70 44 71 45 72 53 73 46 74 52 75 47 76 48 77 49 78 50 79
REMARK SMILES IDX 51 80 74 81 75 82 83 83 76 84 82 85 77 86 78 87 79 88 80 89
REMARK SMILES IDX 81 90 60 91 61 92 69 93 62 94 68 95 63 96 64 97 65 98 66 99
REMARK SMILES IDX 67 100
REMARK H PARENT 25 8 2 13 12 29 32 37 88 56 58 67
REMARK Flexibility Score: inf
ROOT
ATOM      1  C   UNL A   1      36.784  22.292  23.784  1.00  0.00     0.002 C 
ENDROOT
BRANCH   1   2
ATOM      2  C   UNL A   1      35.469  22.667  23.092  1.00  0.00     0.002 C 
BRANCH   2   3
ATOM      3  C   UNL A   1      34.919  24.052  23.444  1.00  0.00     0.021 C 
BRANCH   3   4
ATOM      4  C   UNL A   1      33.665  24.441  22.670  1.00  0.00     0.116 C 
BRANCH   4   5
ATOM      5  N   UNL A   1      33.682  25.844  22.300  1.00  0.00    -0.351 N 
ATOM      6  C   UNL A   1      33.250  26.930  23.004  1.00  0.00     0.280 C 
ATOM      7  O   UNL A   1      33.281  28.034  22.454  1.00  0.00    -0.268 OA
ATOM      8  H   UNL A   1      34.058  26.042  21.411  1.00  0.00     0.163 HD
BRANCH   6   9
ATOM      9  C   UNL A   1      32.775  26.794  24.457  1.00  0.00     0.293 C 
ATOM     10  C   UNL A   1      33.024  29.179  24.948  1.00  0.00     0.333 C 
ATOM     11  N   UNL A   1      32.109  28.036  24.961  1.00  0.00    -0.324 N 
ATOM     12  C   UNL A   1      31.609  27.796  26.333  1.00  0.00     0.284 C 
ATOM     13  H   UNL A   1      31.330  28.260  24.342  1.00  0.00     0.348 HD
ATOM     14  C   UNL A   1      30.690  26.564  26.434  1.00  0.00     0.181 C 
ATOM     15  C   UNL A   1      31.893  25.531  24.556  1.00  0.00     0.195 C 
ATOM     16  N   UNL A   1      31.322  25.360  25.896  1.00  0.00    -0.326 N 
BRANCH  16  17
ATOM     17  C   UNL A   1      31.063  24.135  26.510  1.00  0.00     0.254 C 
ATOM     18  O   UNL A   1      30.036  23.894  27.129  1.00  0.00    -0.269 OA
BRANCH  17  19
ATOM     19  C   UNL A   1      32.072  23.056  26.393  1.00  0.00     0.040 A 
ATOM     20  C   UNL A   1      33.165  23.004  27.263  1.00  0.00     0.016 A 
ATOM     21  C   UNL A   1      31.890  22.086  25.398  1.00  0.00     0.024 A 
ATOM     22  C   UNL A   1      34.155  22.031  27.106  1.00  0.00     0.027 A 
ATOM     23  C   UNL A   1      32.860  21.075  25.247  1.00  0.00     0.004 A 
ATOM     24  C   UNL A   1      33.975  21.085  26.089  1.00  0.00     0.046 A 
ATOM     25  C   UNL A   1      32.987  19.946  24.379  1.00  0.00    -0.009 A 
ATOM     26  N   UNL A   1      34.779  20.034  25.708  1.00  0.00    -0.358 N 
ATOM     27  C   UNL A   1      34.170  19.317  24.718  1.00  0.00     0.021 A 
ATOM     28  C   UNL A   1      32.018  19.497  23.333  1.00  0.00     0.107 C 
ATOM     29  H   UNL A   1      35.662  19.829  26.093  1.00  0.00     0.166 HD
ATOM     30  C   UNL A   1      34.725  18.072  24.125  1.00  0.00     0.065 C 
ATOM     31  S   UNL A   1      32.507  17.994  22.414  1.00  0.00    -0.157 SA
ATOM     32  C   UNL A   1      33.588  17.172  23.636  1.00  0.00     0.076 C 
ENDBRANCH  17  19
ENDBRANCH  16  17
ENDBRANCH   6   9
ENDBRANCH   4   5
ENDBRANCH   3   4
ENDBRANCH   2   3
ENDBRANCH   1   2
BRANCH   1  33
ATOM     33  C   UNL A   1      37.076  23.032  25.094  1.00  0.00     0.021 C 
BRANCH  33  34
ATOM     34  C   UNL A   1      37.892  22.237  26.112  1.00  0.00     0.116 C 
BRANCH  34  35
ATOM     35  N   UNL A   1      39.313  22.199  25.832  1.00  0.00    -0.352 N 
ATOM     36  C   UNL A   1      40.407  22.863  26.312  1.00  0.00     0.251 C 
ATOM     37  H   UNL A   1      39.543  21.543  25.135  1.00  0.00     0.163 HD
ATOM     38  O   UNL A   1      41.502  22.426  25.947  1.00  0.00    -0.269 OA
BRANCH  36  39
ATOM     39  C   UNL A   1      40.370  24.090  27.158  1.00  0.00     0.039 A 
ATOM     40  C   UNL A   1      39.408  25.096  27.096  1.00  0.00     0.014 A 
ATOM     41  C   UNL A   1      41.452  24.255  28.047  1.00  0.00     0.014 A 
ATOM     42  C   UNL A   1      39.584  26.280  27.810  1.00  0.00     0.010 A 
ATOM     43  C   UNL A   1      41.622  25.427  28.778  1.00  0.00     0.010 A 
ATOM     44  C   UNL A   1      40.710  26.461  28.623  1.00  0.00    -0.014 A 
BRANCH  44  45
ATOM     45  C   UNL A   1      40.795  27.692  29.406  1.00  0.00     0.031 A 
ATOM     46  C   UNL A   1      41.812  28.654  28.903  1.00  0.00     0.074 A 
ATOM     47  C   UNL A   1      40.009  28.013  30.455  1.00  0.00     0.049 A 
ATOM     48  N   UNL A   1      42.914  28.996  29.483  1.00  0.00    -0.248 NA
ATOM     49  C   UNL A   1      41.663  29.181  27.539  1.00  0.00     0.031 C 
ATOM     50  C   UNL A   1      38.808  27.328  30.936  1.00  0.00     0.029 A 
ATOM     51  N   UNL A   1      40.082  29.104  31.274  1.00  0.00    -0.354 N 
ATOM     52  C   UNL A   1      43.517  29.932  28.650  1.00  0.00     0.074 A 
ATOM     53  C   UNL A   1      42.784  29.894  27.409  1.00  0.00     0.031 C 
ATOM     54  C   UNL A   1      38.143  28.140  31.793  1.00  0.00     0.029 A 
ATOM     55  C   UNL A   1      38.939  29.332  32.036  1.00  0.00     0.049 A 
ATOM     56  H   UNL A   1      40.878  29.681  31.322  1.00  0.00     0.167 HD
ATOM     57  C   UNL A   1      44.459  30.799  29.118  1.00  0.00     0.031 A 
ATOM     58  C   UNL A   1      38.652  30.443  32.766  1.00  0.00     0.031 A 
ATOM     59  C   UNL A   1      44.980  30.376  30.391  1.00  0.00     0.049 A 
ATOM     60  C   UNL A   1      39.937  31.122  33.060  1.00  0.00     0.074 A 
ATOM     61  C   UNL A   1      45.637  29.245  30.835  1.00  0.00     0.029 A 
ATOM     62  N   UNL A   1      44.503  31.008  31.515  1.00  0.00    -0.354 N 
ATOM     63  N   UNL A   1      40.842  30.633  33.859  1.00  0.00    -0.248 NA
ATOM     64  C   UNL A   1      40.402  32.134  32.125  1.00  0.00     0.031 C 
ATOM     65  C   UNL A   1      45.095  28.996  32.127  1.00  0.00     0.029 A 
ATOM     66  C   UNL A   1      44.215  30.035  32.436  1.00  0.00     0.049 A 
ATOM     67  H   UNL A   1      44.390  31.978  31.636  1.00  0.00     0.167 HD
ATOM     68  C   UNL A   1      42.045  30.922  33.235  1.00  0.00     0.074 A 
ATOM     69  C   UNL A   1      41.717  31.922  32.218  1.00  0.00     0.031 C 
ATOM     70  C   UNL A   1      43.142  30.125  33.403  1.00  0.00     0.031 A 
BRANCH  57  71
ATOM     71  C   UNL A   1      44.656  32.200  28.596  1.00  0.00    -0.014 A 
ATOM     72  C   UNL A   1      43.707  33.229  28.755  1.00  0.00     0.010 A 
ATOM     73  C   UNL A   1      45.938  32.583  28.146  1.00  0.00     0.010 A 
ATOM     74  C   UNL A   1      44.010  34.565  28.483  1.00  0.00     0.020 A 
ATOM     75  C   UNL A   1      46.267  33.925  27.913  1.00  0.00     0.020 A 
ATOM     76  C   UNL A   1      45.293  34.906  28.077  1.00  0.00     0.054 A 
BRANCH  76  77
ATOM     77  S   UNL A   1      45.671  36.656  27.817  1.00  0.00     0.124 S 
ATOM     78  O   UNL A   1      45.021  36.912  26.534  1.00  0.00    -0.237 OA
ATOM     79  O   UNL A   1      45.048  37.285  28.977  1.00  0.00    -0.237 OA
ATOM     80  O   UNL A   1      47.131  36.693  27.796  1.00  0.00    -0.744 OA
ENDBRANCH  76  77
ENDBRANCH  57  71
BRANCH  58  81
ATOM     81  C   UNL A   1      37.355  31.175  32.849  1.00  0.00    -0.014 A 
ATOM     82  C   UNL A   1      36.531  31.282  31.714  1.00  0.00     0.010 A 
ATOM     83  C   UNL A   1      37.101  32.051  33.928  1.00  0.00     0.010 A 
ATOM     84  C   UNL A   1      35.577  32.300  31.603  1.00  0.00     0.020 A 
ATOM     85  C   UNL A   1      36.147  33.078  33.822  1.00  0.00     0.020 A 
ATOM     86  C   UNL A   1      35.428  33.224  32.636  1.00  0.00     0.054 A 
BRANCH  86  87
ATOM     87  S   UNL A   1      34.374  34.674  32.341  1.00  0.00     0.124 S 
ATOM     88  O   UNL A   1      33.101  34.242  32.911  1.00  0.00    -0.237 OA
ATOM     89  O   UNL A   1      35.067  35.725  33.085  1.00  0.00    -0.237 OA
ATOM     90  O   UNL A   1      34.390  34.829  30.889  1.00  0.00    -0.744 OA
ENDBRANCH  86  87
ENDBRANCH  58  81
BRANCH  70  91
ATOM     91  C   UNL A   1      43.158  29.084  34.502  1.00  0.00    -0.014 A 
ATOM     92  C   UNL A   1      43.817  29.436  35.695  1.00  0.00     0.010 A 
ATOM     93  C   UNL A   1      42.748  27.747  34.335  1.00  0.00     0.010 A 
ATOM     94  C   UNL A   1      44.102  28.483  36.672  1.00  0.00     0.020 A 
ATOM     95  C   UNL A   1      43.001  26.788  35.331  1.00  0.00     0.020 A 
ATOM     96  C   UNL A   1      43.702  27.161  36.480  1.00  0.00     0.054 A 
BRANCH  96  97
ATOM     97  S   UNL A   1      44.146  25.947  37.752  1.00  0.00     0.124 S 
ATOM     98  O   UNL A   1      45.586  25.805  37.549  1.00  0.00    -0.237 OA
ATOM     99  O   UNL A   1      43.750  26.618  38.989  1.00  0.00    -0.237 OA
ATOM    100  O   UNL A   1      43.352  24.768  37.411  1.00  0.00    -0.744 OA
ENDBRANCH  96  97
ENDBRANCH  70  91
ENDBRANCH  44  45
ENDBRANCH  36  39
ENDBRANCH  34  35
ENDBRANCH  33  34
ENDBRANCH   1  33
TORSDOF 18
ENDMDL
MODEL 3
REMARK VINA RESULT:     -12.1      2.999      9.618
REMARK SMILES C[N@@H+]1CCN(C(=O)c2ccc3[nH]c4c(c3c2)CSCC4)C[C@H]1C(=O)NCCCCCCNC(=O)c1ccc(-c2c3nc(c(-c4ccc(S(=O)(=O)[O-])cc4)c4ccc([nH]4)c(-c4ccc(S(=O)(=O)[O-])cc4)c4nc(c(-c5ccc(S(=O)(=O)[O-])cc5)c5ccc2[nH]5)C=C4)C=C3)cc1
REMARK SMILES IDX 29 1 28 2 27 3 26 4 25 5 23 6 24 7 22 9 1 10 2 11 3 12 4 14
REMARK SMILES IDX 21 15 5 16 6 17 7 18 8 19 9 20 16 21 10 22 15 23 11 24 14 25
REMARK SMILES IDX 12 26 13 27 17 28 20 30 18 31 19 32 30 33 31 34 32 35 33 36
REMARK SMILES IDX 34 38 35 39 36 40 94 41 37 42 93 43 38 44 39 45 40 46 87 47
REMARK SMILES IDX 41 48 92 49 86 50 88 51 42 52 91 53 85 54 84 55 43 57 73 58
REMARK SMILES IDX 54 59 72 60 55 61 58 62 71 63 89 64 56 65 57 66 70 68 90 69
REMARK SMILES IDX 59 70 44 71 45 72 53 73 46 74 52 75 47 76 48 77 49 78 50 79
REMARK SMILES IDX 51 80 74 81 75 82 83 83 76 84 82 85 77 86 78 87 79 88 80 89
REMARK SMILES IDX 81 90 60 91 61 92 69 93 62 94 68 95 63 96 64 97 65 98 66 99
REMARK SMILES IDX 67 100
REMARK H PARENT 25 8 2 13 12 29 32 37 88 56 58 67
REMARK Flexibility Score: inf
ROOT
ATOM      1  C   UNL A   1      34.532  32.126  27.609  1.00  0.00     0.002 C 
ENDROOT
BRANCH   1   2
ATOM      2  C   UNL A   1      34.438  30.726  28.227  1.00  0.00     0.002 C 
BRANCH   2   3
ATOM      3  C   UNL A   1      35.243  29.641  27.507  1.00  0.00     0.021 C 
BRANCH   3   4
ATOM      4  C   UNL A   1      34.390  28.638  26.738  1.00  0.00     0.116 C 
BRANCH   4   5
ATOM      5  N   UNL A   1      33.199  28.271  27.483  1.00  0.00    -0.351 N 
ATOM      6  C   UNL A   1      31.908  28.170  27.053  1.00  0.00     0.280 C 
ATOM      7  O   UNL A   1      31.031  27.925  27.887  1.00  0.00    -0.268 OA
ATOM      8  H   UNL A   1      33.342  28.067  28.435  1.00  0.00     0.163 HD
BRANCH   6   9
ATOM      9  C   UNL A   1      31.553  28.316  25.567  1.00  0.00     0.293 C 
ATOM     10  C   UNL A   1      31.217  30.737  25.703  1.00  0.00     0.333 C 
ATOM     11  N   UNL A   1      31.929  29.656  25.017  1.00  0.00    -0.324 N 
ATOM     12  C   UNL A   1      31.631  29.687  23.568  1.00  0.00     0.284 C 
ATOM     13  H   UNL A   1      32.927  29.801  25.169  1.00  0.00     0.348 HD
ATOM     14  C   UNL A   1      32.294  28.535  22.791  1.00  0.00     0.181 C 
ATOM     15  C   UNL A   1      32.185  27.131  24.806  1.00  0.00     0.195 C 
ATOM     16  N   UNL A   1      31.967  27.227  23.359  1.00  0.00    -0.326 N 
BRANCH  16  17
ATOM     17  C   UNL A   1      31.803  26.144  22.496  1.00  0.00     0.254 C 
ATOM     18  O   UNL A   1      31.369  26.248  21.357  1.00  0.00    -0.269 OA
BRANCH  17  19
ATOM     19  C   UNL A   1      32.191  24.795  22.970  1.00  0.00     0.040 A 
ATOM     20  C   UNL A   1      31.267  23.747  22.976  1.00  0.00     0.016 A 
ATOM     21  C   UNL A   1      33.512  24.600  23.396  1.00  0.00     0.024 A 
ATOM     22  C   UNL A   1      31.612  22.495  23.491  1.00  0.00     0.027 A 
ATOM     23  C   UNL A   1      33.889  23.334  23.886  1.00  0.00     0.004 A 
ATOM     24  C   UNL A   1      32.927  22.322  23.940  1.00  0.00     0.046 A 
ATOM     25  C   UNL A   1      35.117  22.784  24.373  1.00  0.00    -0.009 A 
ATOM     26  N   UNL A   1      33.533  21.216  24.494  1.00  0.00    -0.358 N 
ATOM     27  C   UNL A   1      34.857  21.470  24.708  1.00  0.00     0.021 A 
ATOM     28  C   UNL A   1      36.441  23.474  24.466  1.00  0.00     0.107 C 
ATOM     29  H   UNL A   1      33.079  20.368  24.703  1.00  0.00     0.166 HD
ATOM     30  C   UNL A   1      35.827  20.468  25.225  1.00  0.00     0.065 C 
ATOM     31  S   UNL A   1      37.803  22.453  25.131  1.00  0.00    -0.157 SA
ATOM     32  C   UNL A   1      37.230  20.775  24.695  1.00  0.00     0.076 C 
ENDBRANCH  17  19
ENDBRANCH  16  17
ENDBRANCH   6   9
ENDBRANCH   4   5
ENDBRANCH   3   4
ENDBRANCH   2   3
ENDBRANCH   1   2
BRANCH   1  33
ATOM     33  C   UNL A   1      35.574  33.057  28.239  1.00  0.00     0.021 C 
BRANCH  33  34
ATOM     34  C   UNL A   1      35.014  34.060  29.245  1.00  0.00     0.116 C 
BRANCH  34  35
ATOM     35  N   UNL A   1      34.480  33.456  30.450  1.00  0.00    -0.352 N 
ATOM     36  C   UNL A   1      34.976  32.615  31.406  1.00  0.00     0.251 C 
ATOM     37  H   UNL A   1      33.545  33.711  30.617  1.00  0.00     0.163 HD
ATOM     38  O   UNL A   1      34.263  32.455  32.401  1.00  0.00    -0.269 OA
BRANCH  36  39
ATOM     39  C   UNL A   1      36.244  31.839  31.299  1.00  0.00     0.039 A 
ATOM     40  C   UNL A   1      37.527  32.378  31.211  1.00  0.00     0.014 A 
ATOM     41  C   UNL A   1      36.102  30.439  31.218  1.00  0.00     0.014 A 
ATOM     42  C   UNL A   1      38.616  31.555  30.931  1.00  0.00     0.010 A 
ATOM     43  C   UNL A   1      37.189  29.609  30.958  1.00  0.00     0.010 A 
ATOM     44  C   UNL A   1      38.442  30.175  30.767  1.00  0.00    -0.014 A 
BRANCH  44  45
ATOM     45  C   UNL A   1      39.636  29.358  30.554  1.00  0.00     0.031 A 
ATOM     46  C   UNL A   1      40.427  29.118  31.791  1.00  0.00     0.074 A 
ATOM     47  C   UNL A   1      40.003  28.792  29.385  1.00  0.00     0.049 A 
ATOM     48  N   UNL A   1      41.602  29.577  32.065  1.00  0.00    -0.248 NA
ATOM     49  C   UNL A   1      39.782  28.413  32.909  1.00  0.00     0.031 C 
ATOM     50  C   UNL A   1      39.242  28.701  28.139  1.00  0.00     0.029 A 
ATOM     51  N   UNL A   1      41.136  28.086  29.098  1.00  0.00    -0.354 N 
ATOM     52  C   UNL A   1      41.937  29.067  33.314  1.00  0.00     0.074 A 
ATOM     53  C   UNL A   1      40.730  28.486  33.846  1.00  0.00     0.031 C 
ATOM     54  C   UNL A   1      39.824  27.788  27.324  1.00  0.00     0.029 A 
ATOM     55  C   UNL A   1      41.072  27.342  27.923  1.00  0.00     0.049 A 
ATOM     56  H   UNL A   1      41.934  28.101  29.676  1.00  0.00     0.167 HD
ATOM     57  C   UNL A   1      43.233  28.997  33.730  1.00  0.00     0.031 A 
ATOM     58  C   UNL A   1      41.953  26.395  27.505  1.00  0.00     0.031 A 
ATOM     59  C   UNL A   1      44.092  29.825  32.924  1.00  0.00     0.049 A 
ATOM     60  C   UNL A   1      43.239  26.652  28.199  1.00  0.00     0.074 A 
ATOM     61  C   UNL A   1      44.137  31.175  32.638  1.00  0.00     0.029 A 
ATOM     62  N   UNL A   1      44.850  29.204  31.960  1.00  0.00    -0.354 N 
ATOM     63  N   UNL A   1      43.990  27.689  27.958  1.00  0.00    -0.248 NA
ATOM     64  C   UNL A   1      43.472  25.985  29.469  1.00  0.00     0.031 C 
ATOM     65  C   UNL A   1      44.488  31.242  31.260  1.00  0.00     0.029 A 
ATOM     66  C   UNL A   1      44.730  29.942  30.811  1.00  0.00     0.049 A 
ATOM     67  H   UNL A   1      45.381  28.382  32.073  1.00  0.00     0.167 HD
ATOM     68  C   UNL A   1      44.452  28.076  29.206  1.00  0.00     0.074 A 
ATOM     69  C   UNL A   1      44.173  26.941  30.086  1.00  0.00     0.031 C 
ATOM     70  C   UNL A   1      44.758  29.379  29.478  1.00  0.00     0.031 A 
BRANCH  57  71
ATOM     71  C   UNL A   1      43.777  27.922  34.637  1.00  0.00    -0.014 A 
ATOM     72  C   UNL A   1      43.538  26.548  34.443  1.00  0.00     0.010 A 
ATOM     73  C   UNL A   1      44.769  28.268  35.580  1.00  0.00     0.010 A 
ATOM     74  C   UNL A   1      44.244  25.567  35.143  1.00  0.00     0.020 A 
ATOM     75  C   UNL A   1      45.515  27.293  36.256  1.00  0.00     0.020 A 
ATOM     76  C   UNL A   1      45.239  25.946  36.036  1.00  0.00     0.054 A 
BRANCH  76  77
ATOM     77  S   UNL A   1      46.188  24.647  36.860  1.00  0.00     0.124 S 
ATOM     78  O   UNL A   1      45.199  23.578  36.967  1.00  0.00    -0.237 OA
ATOM     79  O   UNL A   1      47.275  24.408  35.916  1.00  0.00    -0.237 OA
ATOM     80  O   UNL A   1      46.585  25.260  38.125  1.00  0.00    -0.744 OA
ENDBRANCH  76  77
ENDBRANCH  57  71
BRANCH  58  81
ATOM     81  C   UNL A   1      41.652  25.062  26.908  1.00  0.00    -0.014 A 
ATOM     82  C   UNL A   1      40.746  24.192  27.543  1.00  0.00     0.010 A 
ATOM     83  C   UNL A   1      42.504  24.515  25.923  1.00  0.00     0.010 A 
ATOM     84  C   UNL A   1      40.773  22.814  27.302  1.00  0.00     0.020 A 
ATOM     85  C   UNL A   1      42.540  23.131  25.680  1.00  0.00     0.020 A 
ATOM     86  C   UNL A   1      41.705  22.286  26.411  1.00  0.00     0.054 A 
BRANCH  86  87
ATOM     87  S   UNL A   1      41.883  20.479  26.328  1.00  0.00     0.124 S 
ATOM     88  O   UNL A   1      40.534  20.061  25.954  1.00  0.00    -0.237 OA
ATOM     89  O   UNL A   1      42.900  20.307  25.294  1.00  0.00    -0.237 OA
ATOM     90  O   UNL A   1      42.301  20.107  27.678  1.00  0.00    -0.744 OA
ENDBRANCH  86  87
ENDBRANCH  58  81
BRANCH  70  91
ATOM     91  C   UNL A   1      44.887  30.376  28.346  1.00  0.00    -0.014 A 
ATOM     92  C   UNL A   1      46.111  31.065  28.248  1.00  0.00     0.010 A 
ATOM     93  C   UNL A   1      43.816  30.798  27.533  1.00  0.00     0.010 A 
ATOM     94  C   UNL A   1      46.254  32.167  27.406  1.00  0.00     0.020 A 
ATOM     95  C   UNL A   1      43.965  31.885  26.657  1.00  0.00     0.020 A 
ATOM     96  C   UNL A   1      45.177  32.579  26.621  1.00  0.00     0.054 A 
BRANCH  96  97
ATOM     97  S   UNL A   1      45.395  34.051  25.585  1.00  0.00     0.124 S 
ATOM     98  O   UNL A   1      46.849  34.111  25.443  1.00  0.00    -0.237 OA
ATOM     99  O   UNL A   1      44.661  33.700  24.371  1.00  0.00    -0.237 OA
ATOM    100  O   UNL A   1      44.804  35.130  26.372  1.00  0.00    -0.744 OA
ENDBRANCH  96  97
ENDBRANCH  70  91
ENDBRANCH  44  45
ENDBRANCH  36  39
ENDBRANCH  34  35
ENDBRANCH  33  34
ENDBRANCH   1  33
TORSDOF 18
ENDMDL
