MODEL 1
REMARK VINA RESULT:     -12.5      0.000      0.000
REMARK SMILES COc1ccc2c(c1)c(CC(=O)NCCCCCCNC(=O)c1ccc(-c3c4nc(c(-c5ccc(S(=O)(=O)[O-])cc5)c5ccc([nH]5)c(-c5ccc(S(=O)(=O)[O-])cc5)c5nc(c(-c6ccc(S(=O)(=O)[O-])cc6)c6ccc3[nH]6)C=C5)C=C4)cc1)c(C(F)(F)F)n2C(=O)c1ccc(Cl)cc1
REMARK SMILES IDX 16 1 15 2 14 3 13 4 11 5 12 6 10 8 9 9 3 10 4 11 8 12 5 13
REMARK SMILES IDX 7 14 6 15 88 16 83 17 2 18 1 19 89 20 90 21 91 22 92 23
REMARK SMILES IDX 97 24 93 25 96 26 94 27 95 28 84 29 85 30 86 31 87 32 17 33
REMARK SMILES IDX 18 34 19 35 20 36 21 37 22 39 23 40 24 41 82 42 25 43 81 44
REMARK SMILES IDX 26 45 27 46 28 47 75 48 29 49 80 50 74 51 76 52 30 53 79 54
REMARK SMILES IDX 73 55 72 56 31 58 61 59 42 60 60 61 43 62 46 63 59 64 77 65
REMARK SMILES IDX 44 66 45 67 58 69 78 70 47 71 32 72 33 73 41 74 34 75 40 76
REMARK SMILES IDX 35 77 36 78 37 79 38 80 39 81 62 82 63 83 71 84 64 85 70 86
REMARK SMILES IDX 65 87 66 88 67 89 68 90 69 91 48 92 49 93 57 94 50 95 56 96
REMARK SMILES IDX 51 97 52 98 53 99 54 100 55 101
REMARK H PARENT 13 7 20 38 76 57 46 68
REMARK Flexibility Score: inf
ROOT
ATOM      1  C   UNL A   1      31.396  27.039  27.136  1.00  0.00     0.002 C 
ENDROOT
BRANCH   1   2
ATOM      2  C   UNL A   1      30.905  26.618  25.746  1.00  0.00     0.021 C 
BRANCH   2   3
ATOM      3  C   UNL A   1      30.223  25.250  25.730  1.00  0.00     0.116 C 
BRANCH   3   4
ATOM      4  N   UNL A   1      30.403  24.592  24.449  1.00  0.00    -0.356 N 
ATOM      5  C   UNL A   1      31.036  23.414  24.177  1.00  0.00     0.224 C 
ATOM      6  O   UNL A   1      31.129  23.047  23.005  1.00  0.00    -0.275 OA
ATOM      7  H   UNL A   1      30.018  25.059  23.673  1.00  0.00     0.163 HD
BRANCH   5   8
ATOM      8  C   UNL A   1      31.571  22.561  25.318  1.00  0.00     0.138 C 
BRANCH   8   9
ATOM      9  C   UNL A   1      33.005  22.138  25.139  1.00  0.00     0.000 A 
ATOM     10  C   UNL A   1      33.543  18.392  24.620  1.00  0.00     0.119 A 
ATOM     11  C   UNL A   1      34.927  18.441  24.606  1.00  0.00     0.048 A 
ATOM     12  C   UNL A   1      32.809  19.571  24.766  1.00  0.00     0.057 A 
ATOM     13  C   UNL A   1      35.602  19.658  24.743  1.00  0.00     0.031 A 
ATOM     14  C   UNL A   1      33.468  20.813  24.904  1.00  0.00     0.008 A 
ATOM     15  C   UNL A   1      34.865  20.854  24.849  1.00  0.00     0.057 A 
ATOM     16  N   UNL A   1      35.244  22.205  24.844  1.00  0.00    -0.271 N 
ATOM     17  C   UNL A   1      34.135  22.945  25.250  1.00  0.00     0.135 A 
BRANCH  10  18
ATOM     18  O   UNL A   1      32.805  17.250  24.469  1.00  0.00    -0.497 OA
ATOM     19  C   UNL A   1      32.545  16.543  25.677  1.00  0.00     0.278 C 
ENDBRANCH  10  18
BRANCH  16  20
ATOM     20  C   UNL A   1      36.504  22.733  24.451  1.00  0.00     0.262 C 
ATOM     21  O   UNL A   1      36.605  23.219  23.327  1.00  0.00    -0.268 OA
BRANCH  20  22
ATOM     22  C   UNL A   1      37.726  22.703  25.270  1.00  0.00     0.040 A 
ATOM     23  C   UNL A   1      38.471  21.524  25.383  1.00  0.00     0.015 A 
ATOM     24  C   UNL A   1      38.088  23.853  25.980  1.00  0.00     0.015 A 
ATOM     25  C   UNL A   1      39.539  21.475  26.283  1.00  0.00     0.021 A 
ATOM     26  C   UNL A   1      39.163  23.800  26.868  1.00  0.00     0.021 A 
ATOM     27  C   UNL A   1      39.871  22.607  27.031  1.00  0.00     0.041 A 
ATOM     28  Cl  UNL A   1      41.141  22.522  28.189  1.00  0.00    -0.084 Cl
ENDBRANCH  20  22
ENDBRANCH  16  20
BRANCH  17  29
ATOM     29  C   UNL A   1      34.222  24.376  25.670  1.00  0.00     0.432 C 
ATOM     30  F   UNL A   1      33.913  25.222  24.661  1.00  0.00    -0.165 F 
ATOM     31  F   UNL A   1      33.328  24.626  26.668  1.00  0.00    -0.165 F 
ATOM     32  F   UNL A   1      35.426  24.723  26.184  1.00  0.00    -0.165 F 
ENDBRANCH  17  29
ENDBRANCH   8   9
ENDBRANCH   5   8
ENDBRANCH   3   4
ENDBRANCH   2   3
ENDBRANCH   1   2
BRANCH   1  33
ATOM     33  C   UNL A   1      31.741  28.526  27.275  1.00  0.00     0.002 C 
BRANCH  33  34
ATOM     34  C   UNL A   1      32.108  29.238  25.966  1.00  0.00     0.021 C 
BRANCH  34  35
ATOM     35  C   UNL A   1      33.406  30.041  26.033  1.00  0.00     0.116 C 
BRANCH  35  36
ATOM     36  N   UNL A   1      33.438  31.001  27.118  1.00  0.00    -0.352 N 
ATOM     37  C   UNL A   1      34.400  31.455  27.975  1.00  0.00     0.251 C 
ATOM     38  H   UNL A   1      32.563  31.425  27.273  1.00  0.00     0.163 HD
ATOM     39  O   UNL A   1      34.059  32.369  28.731  1.00  0.00    -0.269 OA
BRANCH  37  40
ATOM     40  C   UNL A   1      35.771  30.891  28.102  1.00  0.00     0.039 A 
ATOM     41  C   UNL A   1      36.123  29.552  27.925  1.00  0.00     0.014 A 
ATOM     42  C   UNL A   1      36.773  31.801  28.490  1.00  0.00     0.014 A 
ATOM     43  C   UNL A   1      37.404  29.113  28.242  1.00  0.00     0.010 A 
ATOM     44  C   UNL A   1      38.061  31.372  28.784  1.00  0.00     0.010 A 
ATOM     45  C   UNL A   1      38.357  30.016  28.714  1.00  0.00    -0.014 A 
BRANCH  45  46
ATOM     46  C   UNL A   1      39.680  29.498  29.044  1.00  0.00     0.031 A 
ATOM     47  C   UNL A   1      40.052  29.580  30.485  1.00  0.00     0.074 A 
ATOM     48  C   UNL A   1      40.481  28.891  28.145  1.00  0.00     0.049 A 
ATOM     49  N   UNL A   1      41.037  30.221  31.023  1.00  0.00    -0.248 NA
ATOM     50  C   UNL A   1      39.138  28.961  31.457  1.00  0.00     0.031 C 
ATOM     51  C   UNL A   1      40.159  28.485  26.775  1.00  0.00     0.029 A 
ATOM     52  N   UNL A   1      41.740  28.401  28.321  1.00  0.00    -0.354 N 
ATOM     53  C   UNL A   1      40.980  29.944  32.388  1.00  0.00     0.074 A 
ATOM     54  C   UNL A   1      39.719  29.285  32.612  1.00  0.00     0.031 C 
ATOM     55  C   UNL A   1      41.089  27.601  26.343  1.00  0.00     0.029 A 
ATOM     56  C   UNL A   1      42.141  27.503  27.339  1.00  0.00     0.049 A 
ATOM     57  H   UNL A   1      42.315  28.659  29.078  1.00  0.00     0.167 HD
ATOM     58  C   UNL A   1      42.055  30.110  33.211  1.00  0.00     0.031 A 
ATOM     59  C   UNL A   1      43.220  26.681  27.385  1.00  0.00     0.031 A 
ATOM     60  C   UNL A   1      43.048  30.971  32.628  1.00  0.00     0.049 A 
ATOM     61  C   UNL A   1      44.163  27.248  28.380  1.00  0.00     0.074 A 
ATOM     62  C   UNL A   1      43.058  32.288  32.212  1.00  0.00     0.029 A 
ATOM     63  N   UNL A   1      44.147  30.385  32.048  1.00  0.00    -0.354 N 
ATOM     64  N   UNL A   1      44.782  28.384  28.220  1.00  0.00    -0.248 NA
ATOM     65  C   UNL A   1      44.088  26.764  29.749  1.00  0.00     0.031 C 
ATOM     66  C   UNL A   1      43.851  32.292  31.030  1.00  0.00     0.029 A 
ATOM     67  C   UNL A   1      44.336  30.996  30.834  1.00  0.00     0.049 A 
ATOM     68  H   UNL A   1      44.695  29.662  32.431  1.00  0.00     0.167 HD
ATOM     69  C   UNL A   1      44.790  28.963  29.480  1.00  0.00     0.074 A 
ATOM     70  C   UNL A   1      44.436  27.878  30.395  1.00  0.00     0.031 C 
ATOM     71  C   UNL A   1      44.809  30.319  29.642  1.00  0.00     0.031 A 
BRANCH  58  72
ATOM     72  C   UNL A   1      42.343  29.228  34.403  1.00  0.00    -0.014 A 
ATOM     73  C   UNL A   1      42.473  27.828  34.310  1.00  0.00     0.010 A 
ATOM     74  C   UNL A   1      42.746  29.822  35.619  1.00  0.00     0.010 A 
ATOM     75  C   UNL A   1      42.981  27.056  35.356  1.00  0.00     0.020 A 
ATOM     76  C   UNL A   1      43.300  29.062  36.659  1.00  0.00     0.020 A 
ATOM     77  C   UNL A   1      43.411  27.679  36.519  1.00  0.00     0.054 A 
BRANCH  77  78
ATOM     78  S   UNL A   1      44.193  26.658  37.791  1.00  0.00     0.124 S 
ATOM     79  O   UNL A   1      43.037  26.014  38.410  1.00  0.00    -0.237 OA
ATOM     80  O   UNL A   1      45.056  25.783  37.003  1.00  0.00    -0.237 OA
ATOM     81  O   UNL A   1      44.891  27.630  38.629  1.00  0.00    -0.744 OA
ENDBRANCH  77  78
ENDBRANCH  58  72
BRANCH  59  82
ATOM     82  C   UNL A   1      43.258  25.248  26.991  1.00  0.00    -0.014 A 
ATOM     83  C   UNL A   1      44.178  24.375  27.607  1.00  0.00     0.010 A 
ATOM     84  C   UNL A   1      42.633  24.812  25.807  1.00  0.00     0.010 A 
ATOM     85  C   UNL A   1      44.531  23.156  27.021  1.00  0.00     0.020 A 
ATOM     86  C   UNL A   1      42.985  23.589  25.209  1.00  0.00     0.020 A 
ATOM     87  C   UNL A   1      43.965  22.790  25.803  1.00  0.00     0.054 A 
BRANCH  87  88
ATOM     88  S   UNL A   1      44.610  21.310  24.970  1.00  0.00     0.124 S 
ATOM     89  O   UNL A   1      45.932  21.175  25.576  1.00  0.00    -0.237 OA
ATOM     90  O   UNL A   1      43.640  20.286  25.350  1.00  0.00    -0.237 OA
ATOM     91  O   UNL A   1      44.603  21.676  23.556  1.00  0.00    -0.744 OA
ENDBRANCH  87  88
ENDBRANCH  59  82
BRANCH  71  92
ATOM     92  C   UNL A   1      45.066  31.206  28.439  1.00  0.00    -0.014 A 
ATOM     93  C   UNL A   1      46.287  31.904  28.396  1.00  0.00     0.010 A 
ATOM     94  C   UNL A   1      44.077  31.534  27.489  1.00  0.00     0.010 A 
ATOM     95  C   UNL A   1      46.501  32.927  27.469  1.00  0.00     0.020 A 
ATOM     96  C   UNL A   1      44.297  32.543  26.536  1.00  0.00     0.020 A 
ATOM     97  C   UNL A   1      45.500  33.252  26.553  1.00  0.00     0.054 A 
BRANCH  97  98
ATOM     98  S   UNL A   1      45.795  34.635  25.417  1.00  0.00     0.124 S 
ATOM     99  O   UNL A   1      45.342  35.782  26.202  1.00  0.00    -0.237 OA
ATOM    100  O   UNL A   1      47.237  34.566  25.193  1.00  0.00    -0.237 OA
ATOM    101  O   UNL A   1      44.973  34.320  24.251  1.00  0.00    -0.744 OA
ENDBRANCH  97  98
ENDBRANCH  71  92
ENDBRANCH  45  46
ENDBRANCH  37  40
ENDBRANCH  35  36
ENDBRANCH  34  35
ENDBRANCH  33  34
ENDBRANCH   1  33
TORSDOF 21
ENDMDL
MODEL 2
REMARK VINA RESULT:     -12.4      2.925      9.606
REMARK SMILES COc1ccc2c(c1)c(CC(=O)NCCCCCCNC(=O)c1ccc(-c3c4nc(c(-c5ccc(S(=O)(=O)[O-])cc5)c5ccc([nH]5)c(-c5ccc(S(=O)(=O)[O-])cc5)c5nc(c(-c6ccc(S(=O)(=O)[O-])cc6)c6ccc3[nH]6)C=C5)C=C4)cc1)c(C(F)(F)F)n2C(=O)c1ccc(Cl)cc1
REMARK SMILES IDX 16 1 15 2 14 3 13 4 11 5 12 6 10 8 9 9 3 10 4 11 8 12 5 13
REMARK SMILES IDX 7 14 6 15 88 16 83 17 2 18 1 19 89 20 90 21 91 22 92 23
REMARK SMILES IDX 97 24 93 25 96 26 94 27 95 28 84 29 85 30 86 31 87 32 17 33
REMARK SMILES IDX 18 34 19 35 20 36 21 37 22 39 23 40 24 41 82 42 25 43 81 44
REMARK SMILES IDX 26 45 27 46 28 47 75 48 29 49 80 50 74 51 76 52 30 53 79 54
REMARK SMILES IDX 73 55 72 56 31 58 61 59 42 60 60 61 43 62 46 63 59 64 77 65
REMARK SMILES IDX 44 66 45 67 58 69 78 70 47 71 32 72 33 73 41 74 34 75 40 76
REMARK SMILES IDX 35 77 36 78 37 79 38 80 39 81 62 82 63 83 71 84 64 85 70 86
REMARK SMILES IDX 65 87 66 88 67 89 68 90 69 91 48 92 49 93 57 94 50 95 56 96
REMARK SMILES IDX 51 97 52 98 53 99 54 100 55 101
REMARK H PARENT 13 7 20 38 76 57 46 68
REMARK Flexibility Score: inf
ROOT
ATOM      1  C   UNL A   1      33.723  21.346  24.643  1.00  0.00     0.002 C 
ENDROOT
BRANCH   1   2
ATOM      2  C   UNL A   1      32.768  21.267  23.447  1.00  0.00     0.021 C 
BRANCH   2   3
ATOM      3  C   UNL A   1      32.553  22.612  22.751  1.00  0.00     0.116 C 
BRANCH   3   4
ATOM      4  N   UNL A   1      31.217  23.120  23.001  1.00  0.00    -0.356 N 
ATOM      5  C   UNL A   1      30.790  24.416  23.032  1.00  0.00     0.224 C 
ATOM      6  O   UNL A   1      29.613  24.646  23.317  1.00  0.00    -0.275 OA
ATOM      7  H   UNL A   1      30.527  22.439  23.172  1.00  0.00     0.163 HD
BRANCH   5   8
ATOM      8  C   UNL A   1      31.752  25.539  22.674  1.00  0.00     0.138 C 
BRANCH   8   9
ATOM      9  C   UNL A   1      31.658  26.732  23.588  1.00  0.00     0.000 A 
ATOM     10  C   UNL A   1      29.314  29.506  22.408  1.00  0.00     0.119 A 
ATOM     11  C   UNL A   1      29.601  30.392  23.434  1.00  0.00     0.048 A 
ATOM     12  C   UNL A   1      29.926  28.252  22.382  1.00  0.00     0.057 A 
ATOM     13  C   UNL A   1      30.504  30.046  24.445  1.00  0.00     0.031 A 
ATOM     14  C   UNL A   1      30.841  27.880  23.392  1.00  0.00     0.008 A 
ATOM     15  C   UNL A   1      31.093  28.767  24.445  1.00  0.00     0.057 A 
ATOM     16  N   UNL A   1      31.895  28.091  25.378  1.00  0.00    -0.271 N 
ATOM     17  C   UNL A   1      32.408  26.964  24.739  1.00  0.00     0.135 A 
BRANCH  10  18
ATOM     18  O   UNL A   1      28.427  29.754  21.396  1.00  0.00    -0.497 OA
ATOM     19  C   UNL A   1      28.130  31.130  21.186  1.00  0.00     0.278 C 
ENDBRANCH  10  18
BRANCH  16  20
ATOM     20  C   UNL A   1      32.107  28.453  26.736  1.00  0.00     0.262 C 
ATOM     21  O   UNL A   1      31.399  27.931  27.594  1.00  0.00    -0.268 OA
BRANCH  20  22
ATOM     22  C   UNL A   1      33.083  29.451  27.202  1.00  0.00     0.040 A 
ATOM     23  C   UNL A   1      32.745  30.808  27.236  1.00  0.00     0.015 A 
ATOM     24  C   UNL A   1      34.369  29.022  27.548  1.00  0.00     0.015 A 
ATOM     25  C   UNL A   1      33.732  31.751  27.536  1.00  0.00     0.021 A 
ATOM     26  C   UNL A   1      35.347  29.969  27.858  1.00  0.00     0.021 A 
ATOM     27  C   UNL A   1      35.030  31.329  27.831  1.00  0.00     0.041 A 
ATOM     28  Cl  UNL A   1      36.259  32.495  28.131  1.00  0.00    -0.084 Cl
ENDBRANCH  20  22
ENDBRANCH  16  20
BRANCH  17  29
ATOM     29  C   UNL A   1      33.544  26.165  25.291  1.00  0.00     0.432 C 
ATOM     30  F   UNL A   1      33.195  25.493  26.412  1.00  0.00    -0.165 F 
ATOM     31  F   UNL A   1      33.936  25.223  24.387  1.00  0.00    -0.165 F 
ATOM     32  F   UNL A   1      34.656  26.895  25.542  1.00  0.00    -0.165 F 
ENDBRANCH  17  29
ENDBRANCH   8   9
ENDBRANCH   5   8
ENDBRANCH   3   4
ENDBRANCH   2   3
ENDBRANCH   1   2
BRANCH   1  33
ATOM     33  C   UNL A   1      34.927  22.276  24.446  1.00  0.00     0.002 C 
BRANCH  33  34
ATOM     34  C   UNL A   1      36.134  21.983  25.347  1.00  0.00     0.021 C 
BRANCH  34  35
ATOM     35  C   UNL A   1      37.384  22.789  24.998  1.00  0.00     0.116 C 
BRANCH  35  36
ATOM     36  N   UNL A   1      38.620  22.130  25.369  1.00  0.00    -0.352 N 
ATOM     37  C   UNL A   1      39.621  22.392  26.262  1.00  0.00     0.251 C 
ATOM     38  H   UNL A   1      38.775  21.302  24.859  1.00  0.00     0.163 HD
ATOM     39  O   UNL A   1      40.496  21.526  26.358  1.00  0.00    -0.269 OA
BRANCH  37  40
ATOM     40  C   UNL A   1      39.759  23.644  27.053  1.00  0.00     0.039 A 
ATOM     41  C   UNL A   1      38.900  24.743  26.999  1.00  0.00     0.014 A 
ATOM     42  C   UNL A   1      40.897  23.723  27.880  1.00  0.00     0.014 A 
ATOM     43  C   UNL A   1      39.228  25.926  27.653  1.00  0.00     0.010 A 
ATOM     44  C   UNL A   1      41.216  24.894  28.555  1.00  0.00     0.010 A 
ATOM     45  C   UNL A   1      40.409  26.013  28.392  1.00  0.00    -0.014 A 
BRANCH  45  46
ATOM     46  C   UNL A   1      40.710  27.282  29.046  1.00  0.00     0.031 A 
ATOM     47  C   UNL A   1      41.959  27.952  28.585  1.00  0.00     0.074 A 
ATOM     48  C   UNL A   1      39.880  27.873  29.928  1.00  0.00     0.049 A 
ATOM     49  N   UNL A   1      43.009  28.253  29.276  1.00  0.00    -0.248 NA
ATOM     50  C   UNL A   1      42.095  28.215  27.144  1.00  0.00     0.031 C 
ATOM     51  C   UNL A   1      38.508  27.493  30.276  1.00  0.00     0.029 A 
ATOM     52  N   UNL A   1      40.063  29.029  30.626  1.00  0.00    -0.354 N 
ATOM     53  C   UNL A   1      43.874  28.907  28.401  1.00  0.00     0.074 A 
ATOM     54  C   UNL A   1      43.322  28.729  27.082  1.00  0.00     0.031 C 
ATOM     55  C   UNL A   1      37.907  28.527  30.909  1.00  0.00     0.029 A 
ATOM     56  C   UNL A   1      38.892  29.569  31.145  1.00  0.00     0.049 A 
ATOM     57  H   UNL A   1      40.945  29.447  30.750  1.00  0.00     0.167 HD
ATOM     58  C   UNL A   1      44.887  29.707  28.840  1.00  0.00     0.031 A 
ATOM     59  C   UNL A   1      38.732  30.815  31.657  1.00  0.00     0.031 A 
ATOM     60  C   UNL A   1      45.212  29.453  30.217  1.00  0.00     0.049 A 
ATOM     61  C   UNL A   1      40.076  31.307  32.044  1.00  0.00     0.074 A 
ATOM     62  C   UNL A   1      45.670  28.351  30.913  1.00  0.00     0.029 A 
ATOM     63  N   UNL A   1      44.717  30.316  31.165  1.00  0.00    -0.354 N 
ATOM     64  N   UNL A   1      40.786  30.786  33.005  1.00  0.00    -0.248 NA
ATOM     65  C   UNL A   1      40.818  32.104  31.080  1.00  0.00     0.031 C 
ATOM     66  C   UNL A   1      44.980  28.392  32.157  1.00  0.00     0.029 A 
ATOM     67  C   UNL A   1      44.199  29.551  32.178  1.00  0.00     0.049 A 
ATOM     68  H   UNL A   1      44.732  31.300  31.124  1.00  0.00     0.167 HD
ATOM     69  C   UNL A   1      42.091  30.816  32.537  1.00  0.00     0.074 A 
ATOM     70  C   UNL A   1      42.059  31.725  31.392  1.00  0.00     0.031 C 
ATOM     71  C   UNL A   1      43.017  29.897  32.942  1.00  0.00     0.031 A 
BRANCH  58  72
ATOM     72  C   UNL A   1      45.358  30.942  28.108  1.00  0.00    -0.014 A 
ATOM     73  C   UNL A   1      46.109  30.890  26.918  1.00  0.00     0.010 A 
ATOM     74  C   UNL A   1      44.831  32.201  28.470  1.00  0.00     0.010 A 
ATOM     75  C   UNL A   1      46.324  32.017  26.122  1.00  0.00     0.020 A 
ATOM     76  C   UNL A   1      45.001  33.330  27.655  1.00  0.00     0.020 A 
ATOM     77  C   UNL A   1      45.751  33.228  26.484  1.00  0.00     0.054 A 
BRANCH  77  78
ATOM     78  S   UNL A   1      45.935  34.627  25.352  1.00  0.00     0.124 S 
ATOM     79  O   UNL A   1      45.407  35.730  26.151  1.00  0.00    -0.237 OA
ATOM     80  O   UNL A   1      47.375  34.652  25.117  1.00  0.00    -0.237 OA
ATOM     81  O   UNL A   1      45.123  34.245  24.200  1.00  0.00    -0.744 OA
ENDBRANCH  77  78
ENDBRANCH  58  72
BRANCH  59  82
ATOM     82  C   UNL A   1      37.600  31.742  31.393  1.00  0.00    -0.014 A 
ATOM     83  C   UNL A   1      37.836  33.128  31.293  1.00  0.00     0.010 A 
ATOM     84  C   UNL A   1      36.268  31.314  31.559  1.00  0.00     0.010 A 
ATOM     85  C   UNL A   1      36.802  34.058  31.445  1.00  0.00     0.020 A 
ATOM     86  C   UNL A   1      35.223  32.242  31.716  1.00  0.00     0.020 A 
ATOM     87  C   UNL A   1      35.508  33.609  31.699  1.00  0.00     0.054 A 
BRANCH  87  88
ATOM     88  S   UNL A   1      34.240  34.844  32.106  1.00  0.00     0.124 S 
ATOM     89  O   UNL A   1      33.279  34.051  32.866  1.00  0.00    -0.237 OA
ATOM     90  O   UNL A   1      34.993  35.827  32.881  1.00  0.00    -0.237 OA
ATOM     91  O   UNL A   1      33.776  35.309  30.800  1.00  0.00    -0.744 OA
ENDBRANCH  87  88
ENDBRANCH  59  82
BRANCH  71  92
ATOM     92  C   UNL A   1      42.686  28.972  34.098  1.00  0.00    -0.014 A 
ATOM     93  C   UNL A   1      43.478  29.073  35.257  1.00  0.00     0.010 A 
ATOM     94  C   UNL A   1      41.789  27.889  33.996  1.00  0.00     0.010 A 
ATOM     95  C   UNL A   1      43.415  28.104  36.261  1.00  0.00     0.020 A 
ATOM     96  C   UNL A   1      41.701  26.926  35.016  1.00  0.00     0.020 A 
ATOM     97  C   UNL A   1      42.537  27.027  36.129  1.00  0.00     0.054 A 
BRANCH  97  98
ATOM     98  S   UNL A   1      42.543  25.756  37.423  1.00  0.00     0.124 S 
ATOM     99  O   UNL A   1      43.235  26.432  38.518  1.00  0.00    -0.237 OA
ATOM    100  O   UNL A   1      41.119  25.512  37.643  1.00  0.00    -0.237 OA
ATOM    101  O   UNL A   1      43.275  24.641  36.824  1.00  0.00    -0.744 OA
ENDBRANCH  97  98
ENDBRANCH  71  92
ENDBRANCH  45  46
ENDBRANCH  37  40
ENDBRANCH  35  36
ENDBRANCH  34  35
ENDBRANCH  33  34
ENDBRANCH   1  33
TORSDOF 21
ENDMDL
MODEL 3
REMARK VINA RESULT:     -11.9      2.847      9.251
REMARK SMILES COc1ccc2c(c1)c(CC(=O)NCCCCCCNC(=O)c1ccc(-c3c4nc(c(-c5ccc(S(=O)(=O)[O-])cc5)c5ccc([nH]5)c(-c5ccc(S(=O)(=O)[O-])cc5)c5nc(c(-c6ccc(S(=O)(=O)[O-])cc6)c6ccc3[nH]6)C=C5)C=C4)cc1)c(C(F)(F)F)n2C(=O)c1ccc(Cl)cc1
REMARK SMILES IDX 16 1 15 2 14 3 13 4 11 5 12 6 10 8 9 9 3 10 4 11 8 12 5 13
REMARK SMILES IDX 7 14 6 15 88 16 83 17 2 18 1 19 89 20 90 21 91 22 92 23
REMARK SMILES IDX 97 24 93 25 96 26 94 27 95 28 84 29 85 30 86 31 87 32 17 33
REMARK SMILES IDX 18 34 19 35 20 36 21 37 22 39 23 40 24 41 82 42 25 43 81 44
REMARK SMILES IDX 26 45 27 46 28 47 75 48 29 49 80 50 74 51 76 52 30 53 79 54
REMARK SMILES IDX 73 55 72 56 31 58 61 59 42 60 60 61 43 62 46 63 59 64 77 65
REMARK SMILES IDX 44 66 45 67 58 69 78 70 47 71 32 72 33 73 41 74 34 75 40 76
REMARK SMILES IDX 35 77 36 78 37 79 38 80 39 81 62 82 63 83 71 84 64 85 70 86
REMARK SMILES IDX 65 87 66 88 67 89 68 90 69 91 48 92 49 93 57 94 50 95 56 96
REMARK SMILES IDX 51 97 52 98 53 99 54 100 55 101
REMARK H PARENT 13 7 20 38 76 57 46 68
REMARK Flexibility Score: inf
ROOT
ATOM      1  C   UNL A   1      39.869  22.007  26.584  1.00  0.00     0.002 C 
ENDROOT
BRANCH   1   2
ATOM      2  C   UNL A   1      39.701  23.341  27.320  1.00  0.00     0.021 C 
BRANCH   2   3
ATOM      3  C   UNL A   1      38.762  24.315  26.606  1.00  0.00     0.116 C 
BRANCH   3   4
ATOM      4  N   UNL A   1      38.291  23.759  25.351  1.00  0.00    -0.356 N 
ATOM      5  C   UNL A   1      37.019  23.718  24.861  1.00  0.00     0.224 C 
ATOM      6  O   UNL A   1      36.814  23.150  23.787  1.00  0.00    -0.275 OA
ATOM      7  H   UNL A   1      38.983  23.357  24.777  1.00  0.00     0.163 HD
BRANCH   5   8
ATOM      8  C   UNL A   1      35.893  24.408  25.618  1.00  0.00     0.138 C 
BRANCH   8   9
ATOM      9  C   UNL A   1      34.519  23.925  25.235  1.00  0.00     0.000 A 
ATOM     10  C   UNL A   1      32.848  25.860  22.397  1.00  0.00     0.119 A 
ATOM     11  C   UNL A   1      31.640  25.185  22.447  1.00  0.00     0.048 A 
ATOM     12  C   UNL A   1      33.880  25.500  23.265  1.00  0.00     0.057 A 
ATOM     13  C   UNL A   1      31.438  24.147  23.362  1.00  0.00     0.031 A 
ATOM     14  C   UNL A   1      33.700  24.454  24.198  1.00  0.00     0.008 A 
ATOM     15  C   UNL A   1      32.490  23.753  24.212  1.00  0.00     0.057 A 
ATOM     16  N   UNL A   1      32.639  22.679  25.103  1.00  0.00    -0.271 N 
ATOM     17  C   UNL A   1      33.773  22.936  25.872  1.00  0.00     0.135 A 
BRANCH  10  18
ATOM     18  O   UNL A   1      33.138  26.867  21.518  1.00  0.00    -0.497 OA
ATOM     19  C   UNL A   1      33.850  27.964  22.081  1.00  0.00     0.278 C 
ENDBRANCH  10  18
BRANCH  16  20
ATOM     20  C   UNL A   1      31.822  21.519  25.179  1.00  0.00     0.262 C 
ATOM     21  O   UNL A   1      30.706  21.625  25.681  1.00  0.00    -0.268 OA
BRANCH  20  22
ATOM     22  C   UNL A   1      32.224  20.171  24.744  1.00  0.00     0.040 A 
ATOM     23  C   UNL A   1      32.637  19.220  25.682  1.00  0.00     0.015 A 
ATOM     24  C   UNL A   1      32.245  19.886  23.374  1.00  0.00     0.015 A 
ATOM     25  C   UNL A   1      33.158  18.002  25.237  1.00  0.00     0.021 A 
ATOM     26  C   UNL A   1      32.756  18.663  22.937  1.00  0.00     0.021 A 
ATOM     27  C   UNL A   1      33.228  17.735  23.868  1.00  0.00     0.041 A 
ATOM     28  Cl  UNL A   1      33.934  16.264  23.321  1.00  0.00    -0.084 Cl
ENDBRANCH  20  22
ENDBRANCH  16  20
BRANCH  17  29
ATOM     29  C   UNL A   1      34.087  22.194  27.130  1.00  0.00     0.432 C 
ATOM     30  F   UNL A   1      34.847  21.099  26.897  1.00  0.00    -0.165 F 
ATOM     31  F   UNL A   1      34.804  22.987  27.974  1.00  0.00    -0.165 F 
ATOM     32  F   UNL A   1      32.992  21.829  27.838  1.00  0.00    -0.165 F 
ENDBRANCH  17  29
ENDBRANCH   8   9
ENDBRANCH   5   8
ENDBRANCH   3   4
ENDBRANCH   2   3
ENDBRANCH   1   2
BRANCH   1  33
ATOM     33  C   UNL A   1      40.773  20.991  27.292  1.00  0.00     0.002 C 
BRANCH  33  34
ATOM     34  C   UNL A   1      41.169  19.771  26.450  1.00  0.00     0.021 C 
BRANCH  34  35
ATOM     35  C   UNL A   1      42.655  19.420  26.517  1.00  0.00     0.116 C 
BRANCH  35  36
ATOM     36  N   UNL A   1      43.410  19.869  25.365  1.00  0.00    -0.352 N 
ATOM     37  C   UNL A   1      43.948  21.061  24.971  1.00  0.00     0.251 C 
ATOM     38  H   UNL A   1      43.572  19.147  24.715  1.00  0.00     0.163 HD
ATOM     39  O   UNL A   1      44.618  21.033  23.935  1.00  0.00    -0.269 OA
BRANCH  37  40
ATOM     40  C   UNL A   1      43.730  22.367  25.651  1.00  0.00     0.039 A 
ATOM     41  C   UNL A   1      42.996  23.439  25.145  1.00  0.00     0.014 A 
ATOM     42  C   UNL A   1      44.382  22.527  26.890  1.00  0.00     0.014 A 
ATOM     43  C   UNL A   1      43.009  24.671  25.791  1.00  0.00     0.010 A 
ATOM     44  C   UNL A   1      44.378  23.748  27.553  1.00  0.00     0.010 A 
ATOM     45  C   UNL A   1      43.738  24.834  26.970  1.00  0.00    -0.014 A 
BRANCH  45  46
ATOM     46  C   UNL A   1      43.728  26.151  27.598  1.00  0.00     0.031 A 
ATOM     47  C   UNL A   1      44.939  26.983  27.346  1.00  0.00     0.074 A 
ATOM     48  C   UNL A   1      42.669  26.639  28.274  1.00  0.00     0.049 A 
ATOM     49  N   UNL A   1      45.783  27.452  28.206  1.00  0.00    -0.248 NA
ATOM     50  C   UNL A   1      45.316  27.223  25.945  1.00  0.00     0.031 C 
ATOM     51  C   UNL A   1      41.322  26.073  28.376  1.00  0.00     0.029 A 
ATOM     52  N   UNL A   1      42.552  27.828  28.929  1.00  0.00    -0.354 N 
ATOM     53  C   UNL A   1      46.704  28.201  27.476  1.00  0.00     0.074 A 
ATOM     54  C   UNL A   1      46.449  27.909  26.088  1.00  0.00     0.031 C 
ATOM     55  C   UNL A   1      40.472  27.025  28.827  1.00  0.00     0.029 A 
ATOM     56  C   UNL A   1      41.239  28.205  29.187  1.00  0.00     0.049 A 
ATOM     57  H   UNL A   1      43.327  28.372  29.195  1.00  0.00     0.167 HD
ATOM     58  C   UNL A   1      47.492  29.151  28.054  1.00  0.00     0.031 A 
ATOM     59  C   UNL A   1      40.813  29.428  29.591  1.00  0.00     0.031 A 
ATOM     60  C   UNL A   1      47.574  28.984  29.480  1.00  0.00     0.049 A 
ATOM     61  C   UNL A   1      41.975  30.121  30.198  1.00  0.00     0.074 A 
ATOM     62  C   UNL A   1      48.035  27.980  30.309  1.00  0.00     0.029 A 
ATOM     63  N   UNL A   1      46.790  29.792  30.268  1.00  0.00    -0.354 N 
ATOM     64  N   UNL A   1      42.548  29.734  31.303  1.00  0.00    -0.248 NA
ATOM     65  C   UNL A   1      42.774  30.991  29.350  1.00  0.00     0.031 C 
ATOM     66  C   UNL A   1      47.116  27.954  31.396  1.00  0.00     0.029 A 
ATOM     67  C   UNL A   1      46.194  28.987  31.205  1.00  0.00     0.049 A 
ATOM     68  H   UNL A   1      46.677  30.766  30.177  1.00  0.00     0.167 HD
ATOM     69  C   UNL A   1      43.904  29.942  31.089  1.00  0.00     0.074 A 
ATOM     70  C   UNL A   1      43.971  30.805  29.910  1.00  0.00     0.031 C 
ATOM     71  C   UNL A   1      44.849  29.178  31.712  1.00  0.00     0.031 A 
BRANCH  58  72
ATOM     72  C   UNL A   1      47.922  30.422  27.359  1.00  0.00    -0.014 A 
ATOM     73  C   UNL A   1      47.024  31.452  27.016  1.00  0.00     0.010 A 
ATOM     74  C   UNL A   1      49.298  30.723  27.261  1.00  0.00     0.010 A 
ATOM     75  C   UNL A   1      47.458  32.714  26.606  1.00  0.00     0.020 A 
ATOM     76  C   UNL A   1      49.745  32.001  26.895  1.00  0.00     0.020 A 
ATOM     77  C   UNL A   1      48.818  32.989  26.567  1.00  0.00     0.054 A 
BRANCH  77  78
ATOM     78  S   UNL A   1      49.332  34.676  26.169  1.00  0.00     0.124 S 
ATOM     79  O   UNL A   1      50.121  35.035  27.344  1.00  0.00    -0.237 OA
ATOM     80  O   UNL A   1      50.088  34.490  24.934  1.00  0.00    -0.237 OA
ATOM     81  O   UNL A   1      48.068  35.394  26.021  1.00  0.00    -0.744 OA
ENDBRANCH  77  78
ENDBRANCH  58  72
BRANCH  59  82
ATOM     82  C   UNL A   1      39.637  30.174  29.067  1.00  0.00    -0.014 A 
ATOM     83  C   UNL A   1      39.139  31.286  29.775  1.00  0.00     0.010 A 
ATOM     84  C   UNL A   1      38.819  29.612  28.068  1.00  0.00     0.010 A 
ATOM     85  C   UNL A   1      37.842  31.765  29.563  1.00  0.00     0.020 A 
ATOM     86  C   UNL A   1      37.513  30.086  27.850  1.00  0.00     0.020 A 
ATOM     87  C   UNL A   1      37.022  31.134  28.631  1.00  0.00     0.054 A 
BRANCH  87  88
ATOM     88  S   UNL A   1      35.281  31.644  28.542  1.00  0.00     0.124 S 
ATOM     89  O   UNL A   1      35.347  32.783  27.629  1.00  0.00    -0.237 OA
ATOM     90  O   UNL A   1      34.629  30.452  28.008  1.00  0.00    -0.237 OA
ATOM     91  O   UNL A   1      34.942  31.969  29.925  1.00  0.00    -0.744 OA
ENDBRANCH  87  88
ENDBRANCH  59  82
BRANCH  71  92
ATOM     92  C   UNL A   1      44.430  28.247  32.833  1.00  0.00    -0.014 A 
ATOM     93  C   UNL A   1      43.889  26.999  32.473  1.00  0.00     0.010 A 
ATOM     94  C   UNL A   1      44.350  28.642  34.184  1.00  0.00     0.010 A 
ATOM     95  C   UNL A   1      43.247  26.190  33.414  1.00  0.00     0.020 A 
ATOM     96  C   UNL A   1      43.731  27.822  35.142  1.00  0.00     0.020 A 
ATOM     97  C   UNL A   1      43.158  26.612  34.742  1.00  0.00     0.054 A 
BRANCH  97  98
ATOM     98  S   UNL A   1      42.253  25.564  35.913  1.00  0.00     0.124 S 
ATOM     99  O   UNL A   1      42.771  24.233  35.601  1.00  0.00    -0.237 OA
ATOM    100  O   UNL A   1      42.661  26.101  37.209  1.00  0.00    -0.237 OA
ATOM    101  O   UNL A   1      40.849  25.777  35.570  1.00  0.00    -0.744 OA
ENDBRANCH  97  98
ENDBRANCH  71  92
ENDBRANCH  45  46
ENDBRANCH  37  40
ENDBRANCH  35  36
ENDBRANCH  34  35
ENDBRANCH  33  34
ENDBRANCH   1  33
TORSDOF 21
ENDMDL
