MODEL 1
REMARK VINA RESULT:      -6.8      0.000      0.000
REMARK SMILES O=C(NCCCCCCNC(=O)[C@H](CO)NC(=O)[C@H](Cc1c[nH]c2ccccc12)NC(=O)[C@H](Cc1ccc(O)cc1)NC(=O)c1ccc(F)cc1)c1ccc(-c2c3nc(c(-c4ccc(S(=O)(=O)[O-])cc4)c4ccc([nH]4)c(-c4ccc(S(=O)(=O)[O-])cc4)c4nc(c(-c5ccc(S(=O)(=O)[O-])cc5)c5ccc2[nH]5)C=C4)C=C3)cc1
REMARK SMILES IDX 8 1 7 2 6 3 5 4 4 5 3 6 1 7 2 8 52 10 53 11 111 12 54 13
REMARK SMILES IDX 110 14 55 15 56 16 57 17 104 18 58 19 109 20 103 21 105 22
REMARK SMILES IDX 59 23 108 24 102 25 101 26 60 28 90 29 71 30 89 31 72 32
REMARK SMILES IDX 75 33 88 34 106 35 73 36 74 37 87 39 107 40 76 41 61 42
REMARK SMILES IDX 62 43 70 44 63 45 69 46 64 47 65 48 66 49 67 50 68 51 91 52
REMARK SMILES IDX 92 53 100 54 93 55 99 56 94 57 95 58 96 59 97 60 98 61 77 62
REMARK SMILES IDX 78 63 86 64 79 65 85 66 80 67 81 68 82 69 83 70 84 71 9 72
REMARK SMILES IDX 10 73 11 74 12 76 13 77 16 78 17 79 18 81 19 82 30 83 31 84
REMARK SMILES IDX 32 86 33 87 42 88 43 89 44 91 45 92 46 93 51 94 47 95 50 96
REMARK SMILES IDX 48 97 49 98 34 99 35 100 36 101 41 102 37 103 40 104 38 105
REMARK SMILES IDX 39 106 20 108 21 109 22 110 29 111 23 112 24 113 28 114
REMARK SMILES IDX 25 116 27 117 26 118 14 119 15 120
REMARK H PARENT 3 9 105 27 75 38 10 75 16 80 30 85 42 90 39 107 23 115 15 121
REMARK Flexibility Score: inf
ROOT
ATOM      1  C   UNL A   1      39.553  28.589  28.942  1.00  0.00     0.021 C 
ENDROOT
BRANCH   1   2
ATOM      2  C   UNL A   1      38.106  28.812  29.369  1.00  0.00     0.002 C 
BRANCH   2   3
ATOM      3  C   UNL A   1      37.157  29.160  28.217  1.00  0.00     0.002 C 
BRANCH   3   4
ATOM      4  C   UNL A   1      35.892  29.911  28.637  1.00  0.00     0.021 C 
BRANCH   4   5
ATOM      5  C   UNL A   1      35.768  30.112  30.141  1.00  0.00     0.116 C 
BRANCH   5   6
ATOM      6  N   UNL A   1      35.424  31.486  30.458  1.00  0.00    -0.352 N 
ATOM      7  O   UNL A   1      35.707  33.471  31.490  1.00  0.00    -0.269 OA
ATOM      8  C   UNL A   1      36.211  32.450  31.026  1.00  0.00     0.251 C 
ATOM      9  H   UNL A   1      34.504  31.761  30.234  1.00  0.00     0.163 HD
BRANCH   8  10
ATOM     10  C   UNL A   1      37.671  32.244  31.069  1.00  0.00     0.039 A 
ATOM     11  C   UNL A   1      38.410  32.261  29.880  1.00  0.00     0.014 A 
ATOM     12  C   UNL A   1      38.306  32.063  32.298  1.00  0.00     0.014 A 
ATOM     13  C   UNL A   1      39.773  32.007  29.912  1.00  0.00     0.010 A 
ATOM     14  C   UNL A   1      39.691  31.898  32.336  1.00  0.00     0.010 A 
ATOM     15  C   UNL A   1      40.431  31.874  31.143  1.00  0.00    -0.014 A 
BRANCH  15  16
ATOM     16  C   UNL A   1      41.912  31.885  31.168  1.00  0.00     0.031 A 
ATOM     17  C   UNL A   1      42.697  33.027  30.594  1.00  0.00     0.074 A 
ATOM     18  C   UNL A   1      42.535  30.817  31.705  1.00  0.00     0.049 A 
ATOM     19  N   UNL A   1      43.995  33.162  30.516  1.00  0.00    -0.248 NA
ATOM     20  C   UNL A   1      41.940  34.156  30.032  1.00  0.00     0.031 C 
ATOM     21  C   UNL A   1      41.858  29.645  32.276  1.00  0.00     0.029 A 
ATOM     22  N   UNL A   1      43.866  30.534  31.864  1.00  0.00    -0.354 N 
ATOM     23  C   UNL A   1      44.214  34.374  29.873  1.00  0.00     0.074 A 
ATOM     24  C   UNL A   1      42.913  34.937  29.580  1.00  0.00     0.031 C 
ATOM     25  C   UNL A   1      42.774  28.787  32.743  1.00  0.00     0.029 A 
ATOM     26  C   UNL A   1      44.100  29.306  32.437  1.00  0.00     0.049 A 
ATOM     27  H   UNL A   1      44.585  31.150  31.594  1.00  0.00     0.167 HD
ATOM     28  C   UNL A   1      45.397  34.950  29.554  1.00  0.00     0.031 A 
ATOM     29  C   UNL A   1      45.251  28.644  32.653  1.00  0.00     0.031 A 
ATOM     30  C   UNL A   1      46.681  34.370  29.857  1.00  0.00     0.049 A 
ATOM     31  C   UNL A   1      46.540  29.297  32.247  1.00  0.00     0.074 A 
ATOM     32  C   UNL A   1      47.937  34.911  29.638  1.00  0.00     0.029 A 
ATOM     33  N   UNL A   1      46.879  33.118  30.418  1.00  0.00    -0.354 N 
ATOM     34  N   UNL A   1      46.729  30.485  31.725  1.00  0.00    -0.248 NA
ATOM     35  C   UNL A   1      47.769  28.521  32.451  1.00  0.00     0.031 C 
ATOM     36  C   UNL A   1      48.891  33.956  29.994  1.00  0.00     0.029 A 
ATOM     37  C   UNL A   1      48.235  32.846  30.501  1.00  0.00     0.049 A 
ATOM     38  H   UNL A   1      46.162  32.511  30.713  1.00  0.00     0.167 HD
ATOM     39  C   UNL A   1      48.101  30.601  31.545  1.00  0.00     0.074 A 
ATOM     40  C   UNL A   1      48.695  29.379  32.048  1.00  0.00     0.031 C 
ATOM     41  C   UNL A   1      48.806  31.623  31.001  1.00  0.00     0.031 A 
BRANCH  28  42
ATOM     42  C   UNL A   1      45.384  36.259  28.811  1.00  0.00    -0.014 A 
ATOM     43  C   UNL A   1      45.557  37.483  29.479  1.00  0.00     0.010 A 
ATOM     44  C   UNL A   1      45.322  36.248  27.404  1.00  0.00     0.010 A 
ATOM     45  C   UNL A   1      45.667  38.673  28.753  1.00  0.00     0.020 A 
ATOM     46  C   UNL A   1      45.454  37.432  26.674  1.00  0.00     0.020 A 
ATOM     47  C   UNL A   1      45.624  38.639  27.354  1.00  0.00     0.054 A 
BRANCH  47  48
ATOM     48  S   UNL A   1      45.851  40.189  26.438  1.00  0.00     0.124 S 
ATOM     49  O   UNL A   1      44.510  40.766  26.486  1.00  0.00    -0.237 OA
ATOM     50  O   UNL A   1      46.861  40.883  27.234  1.00  0.00    -0.237 OA
ATOM     51  O   UNL A   1      46.294  39.752  25.117  1.00  0.00    -0.744 OA
ENDBRANCH  47  48
ENDBRANCH  28  42
BRANCH  29  52
ATOM     52  C   UNL A   1      45.228  27.266  33.215  1.00  0.00    -0.014 A 
ATOM     53  C   UNL A   1      45.273  27.049  34.602  1.00  0.00     0.010 A 
ATOM     54  C   UNL A   1      45.178  26.155  32.350  1.00  0.00     0.010 A 
ATOM     55  C   UNL A   1      45.312  25.749  35.112  1.00  0.00     0.020 A 
ATOM     56  C   UNL A   1      45.177  24.855  32.857  1.00  0.00     0.020 A 
ATOM     57  C   UNL A   1      45.268  24.660  34.235  1.00  0.00     0.054 A 
BRANCH  57  58
ATOM     58  S   UNL A   1      45.319  22.981  34.919  1.00  0.00     0.124 S 
ATOM     59  O   UNL A   1      45.111  23.229  36.342  1.00  0.00    -0.237 OA
ATOM     60  O   UNL A   1      44.217  22.323  34.222  1.00  0.00    -0.237 OA
ATOM     61  O   UNL A   1      46.651  22.504  34.555  1.00  0.00    -0.744 OA
ENDBRANCH  57  58
ENDBRANCH  29  52
BRANCH  41  62
ATOM     62  C   UNL A   1      50.301  31.466  30.930  1.00  0.00    -0.014 A 
ATOM     63  C   UNL A   1      50.914  30.910  29.793  1.00  0.00     0.010 A 
ATOM     64  C   UNL A   1      51.103  31.934  31.985  1.00  0.00     0.010 A 
ATOM     65  C   UNL A   1      52.305  30.806  29.723  1.00  0.00     0.020 A 
ATOM     66  C   UNL A   1      52.495  31.862  31.905  1.00  0.00     0.020 A 
ATOM     67  C   UNL A   1      53.086  31.289  30.777  1.00  0.00     0.054 A 
BRANCH  67  68
ATOM     68  S   UNL A   1      54.891  31.202  30.629  1.00  0.00     0.124 S 
ATOM     69  O   UNL A   1      55.070  31.027  29.189  1.00  0.00    -0.237 OA
ATOM     70  O   UNL A   1      55.318  32.493  31.163  1.00  0.00    -0.237 OA
ATOM     71  O   UNL A   1      55.252  30.045  31.446  1.00  0.00    -0.744 OA
ENDBRANCH  67  68
ENDBRANCH  41  62
ENDBRANCH  15  16
ENDBRANCH   8  10
ENDBRANCH   5   6
ENDBRANCH   4   5
ENDBRANCH   3   4
ENDBRANCH   2   3
ENDBRANCH   1   2
BRANCH   1  72
ATOM     72  C   UNL A   1      39.944  27.121  28.872  1.00  0.00     0.116 C 
BRANCH  72  73
ATOM     73  N   UNL A   1      41.305  26.909  29.295  1.00  0.00    -0.354 N 
ATOM     74  C   UNL A   1      42.331  26.306  28.636  1.00  0.00     0.244 C 
ATOM     75  H   UNL A   1      41.524  27.249  30.192  1.00  0.00     0.163 HD
ATOM     76  O   UNL A   1      43.375  26.131  29.276  1.00  0.00    -0.273 OA
BRANCH  74  77
ATOM     77  C   UNL A   1      42.147  25.701  27.225  1.00  0.00     0.197 C 
BRANCH  77  78
ATOM     78  N   UNL A   1      41.901  26.666  26.156  1.00  0.00    -0.340 N 
ATOM     79  C   UNL A   1      42.743  27.528  25.517  1.00  0.00     0.243 C 
ATOM     80  H   UNL A   1      40.969  26.698  25.842  1.00  0.00     0.164 HD
ATOM     81  O   UNL A   1      42.190  28.415  24.860  1.00  0.00    -0.273 OA
BRANCH  79  82
ATOM     82  C   UNL A   1      44.295  27.519  25.739  1.00  0.00     0.175 C 
BRANCH  82  83
ATOM     83  N   UNL A   1      45.176  27.906  24.617  1.00  0.00    -0.342 N 
ATOM     84  C   UNL A   1      46.501  27.820  24.323  1.00  0.00     0.243 C 
ATOM     85  H   UNL A   1      44.670  28.339  23.891  1.00  0.00     0.164 HD
ATOM     86  O   UNL A   1      46.860  28.535  23.379  1.00  0.00    -0.273 OA
BRANCH  84  87
ATOM     87  C   UNL A   1      47.551  27.044  25.163  1.00  0.00     0.176 C 
BRANCH  87  88
ATOM     88  N   UNL A   1      47.135  25.689  25.526  1.00  0.00    -0.340 N 
ATOM     89  C   UNL A   1      47.420  24.850  26.563  1.00  0.00     0.251 C 
ATOM     90  H   UNL A   1      46.507  25.295  24.878  1.00  0.00     0.164 HD
ATOM     91  O   UNL A   1      47.087  23.674  26.403  1.00  0.00    -0.269 OA
BRANCH  89  92
ATOM     92  C   UNL A   1      48.051  25.252  27.853  1.00  0.00     0.040 A 
ATOM     93  C   UNL A   1      47.406  25.931  28.892  1.00  0.00     0.017 A 
ATOM     94  C   UNL A   1      49.362  24.791  28.077  1.00  0.00     0.017 A 
ATOM     95  C   UNL A   1      48.033  26.130  30.125  1.00  0.00     0.040 A 
ATOM     96  C   UNL A   1      49.995  24.996  29.306  1.00  0.00     0.040 A 
ATOM     97  C   UNL A   1      49.320  25.658  30.321  1.00  0.00     0.123 A 
ATOM     98  F   UNL A   1      49.912  25.830  31.509  1.00  0.00    -0.207 F 
ENDBRANCH  89  92
ENDBRANCH  87  88
BRANCH  87  99
ATOM     99  C   UNL A   1      48.894  26.936  24.386  1.00  0.00     0.070 C 
BRANCH  99 100
ATOM    100  C   UNL A   1      50.084  27.035  25.310  1.00  0.00    -0.045 A 
ATOM    101  C   UNL A   1      51.162  26.149  25.168  1.00  0.00     0.007 A 
ATOM    102  C   UNL A   1      50.098  27.977  26.346  1.00  0.00     0.007 A 
ATOM    103  C   UNL A   1      52.245  26.208  26.045  1.00  0.00     0.046 A 
ATOM    104  C   UNL A   1      51.182  28.036  27.222  1.00  0.00     0.046 A 
ATOM    105  C   UNL A   1      52.245  27.154  27.065  1.00  0.00     0.115 A 
BRANCH 105 106
ATOM    106  O   UNL A   1      53.284  27.248  27.943  1.00  0.00    -0.508 OA
ATOM    107  H   UNL A   1      54.105  26.844  27.743  1.00  0.00     0.293 HD
ENDBRANCH 105 106
ENDBRANCH  99 100
ENDBRANCH  87  99
ENDBRANCH  84  87
ENDBRANCH  82  83
BRANCH  82 108
ATOM    108  C   UNL A   1      44.654  28.386  26.981  1.00  0.00     0.072 C 
BRANCH 108 109
ATOM    109  C   UNL A   1      44.802  29.883  26.778  1.00  0.00    -0.020 A 
ATOM    110  C   UNL A   1      43.818  30.842  26.610  1.00  0.00     0.087 A 
ATOM    111  C   UNL A   1      46.052  30.602  26.808  1.00  0.00     0.003 A 
ATOM    112  N   UNL A   1      44.409  32.075  26.524  1.00  0.00    -0.361 N 
ATOM    113  C   UNL A   1      45.770  31.959  26.646  1.00  0.00     0.046 A 
ATOM    114  C   UNL A   1      47.401  30.226  26.991  1.00  0.00     0.010 A 
ATOM    115  H   UNL A   1      43.927  32.922  26.391  1.00  0.00     0.166 HD
ATOM    116  C   UNL A   1      46.756  32.955  26.653  1.00  0.00     0.026 A 
ATOM    117  C   UNL A   1      48.401  31.209  27.007  1.00  0.00     0.001 A 
ATOM    118  C   UNL A   1      48.080  32.552  26.840  1.00  0.00     0.002 A 
ENDBRANCH 108 109
ENDBRANCH  82 108
ENDBRANCH  79  82
ENDBRANCH  77  78
BRANCH  77 119
ATOM    119  C   UNL A   1      43.390  24.857  26.878  1.00  0.00     0.191 C 
BRANCH 119 120
ATOM    120  O   UNL A   1      43.503  23.720  27.740  1.00  0.00    -0.394 OA
ATOM    121  H   UNL A   1      43.303  23.985  28.652  1.00  0.00     0.210 HD
ENDBRANCH 119 120
ENDBRANCH  77 119
ENDBRANCH  74  77
ENDBRANCH  72  73
ENDBRANCH   1  72
TORSDOF 29
ENDMDL
MODEL 2
REMARK VINA RESULT:      -6.0      5.709      9.996
REMARK SMILES O=C(NCCCCCCNC(=O)[C@H](CO)NC(=O)[C@H](Cc1c[nH]c2ccccc12)NC(=O)[C@H](Cc1ccc(O)cc1)NC(=O)c1ccc(F)cc1)c1ccc(-c2c3nc(c(-c4ccc(S(=O)(=O)[O-])cc4)c4ccc([nH]4)c(-c4ccc(S(=O)(=O)[O-])cc4)c4nc(c(-c5ccc(S(=O)(=O)[O-])cc5)c5ccc2[nH]5)C=C4)C=C3)cc1
REMARK SMILES IDX 8 1 7 2 6 3 5 4 4 5 3 6 1 7 2 8 52 10 53 11 111 12 54 13
REMARK SMILES IDX 110 14 55 15 56 16 57 17 104 18 58 19 109 20 103 21 105 22
REMARK SMILES IDX 59 23 108 24 102 25 101 26 60 28 90 29 71 30 89 31 72 32
REMARK SMILES IDX 75 33 88 34 106 35 73 36 74 37 87 39 107 40 76 41 61 42
REMARK SMILES IDX 62 43 70 44 63 45 69 46 64 47 65 48 66 49 67 50 68 51 91 52
REMARK SMILES IDX 92 53 100 54 93 55 99 56 94 57 95 58 96 59 97 60 98 61 77 62
REMARK SMILES IDX 78 63 86 64 79 65 85 66 80 67 81 68 82 69 83 70 84 71 9 72
REMARK SMILES IDX 10 73 11 74 12 76 13 77 16 78 17 79 18 81 19 82 30 83 31 84
REMARK SMILES IDX 32 86 33 87 42 88 43 89 44 91 45 92 46 93 51 94 47 95 50 96
REMARK SMILES IDX 48 97 49 98 34 99 35 100 36 101 41 102 37 103 40 104 38 105
REMARK SMILES IDX 39 106 20 108 21 109 22 110 29 111 23 112 24 113 28 114
REMARK SMILES IDX 25 116 27 117 26 118 14 119 15 120
REMARK H PARENT 3 9 105 27 75 38 10 75 16 80 30 85 42 90 39 107 23 115 15 121
REMARK Flexibility Score: inf
ROOT
ATOM      1  C   UNL A   1      43.839  23.021  26.627  1.00  0.00     0.021 C 
ENDROOT
BRANCH   1   2
ATOM      2  C   UNL A   1      42.636  23.029  27.564  1.00  0.00     0.002 C 
BRANCH   2   3
ATOM      3  C   UNL A   1      42.983  23.320  29.028  1.00  0.00     0.002 C 
BRANCH   3   4
ATOM      4  C   UNL A   1      43.822  24.580  29.247  1.00  0.00     0.021 C 
BRANCH   4   5
ATOM      5  C   UNL A   1      43.924  25.005  30.705  1.00  0.00     0.116 C 
BRANCH   5   6
ATOM      6  N   UNL A   1      44.142  23.858  31.569  1.00  0.00    -0.352 N 
ATOM      7  O   UNL A   1      44.852  22.825  33.443  1.00  0.00    -0.269 OA
ATOM      8  C   UNL A   1      44.415  23.843  32.909  1.00  0.00     0.251 C 
ATOM      9  H   UNL A   1      44.087  22.976  31.132  1.00  0.00     0.163 HD
BRANCH   8  10
ATOM     10  C   UNL A   1      44.173  25.064  33.700  1.00  0.00     0.039 A 
ATOM     11  C   UNL A   1      44.899  26.228  33.418  1.00  0.00     0.014 A 
ATOM     12  C   UNL A   1      43.203  25.056  34.702  1.00  0.00     0.014 A 
ATOM     13  C   UNL A   1      44.718  27.359  34.200  1.00  0.00     0.010 A 
ATOM     14  C   UNL A   1      42.958  26.222  35.428  1.00  0.00     0.010 A 
ATOM     15  C   UNL A   1      43.712  27.381  35.177  1.00  0.00    -0.014 A 
BRANCH  15  16
ATOM     16  C   UNL A   1      43.347  28.674  35.800  1.00  0.00     0.031 A 
ATOM     17  C   UNL A   1      42.203  29.496  35.288  1.00  0.00     0.074 A 
ATOM     18  C   UNL A   1      44.099  29.100  36.835  1.00  0.00     0.049 A 
ATOM     19  N   UNL A   1      41.786  30.661  35.711  1.00  0.00    -0.248 NA
ATOM     20  C   UNL A   1      41.431  28.956  34.159  1.00  0.00     0.031 C 
ATOM     21  C   UNL A   1      45.247  28.377  37.398  1.00  0.00     0.029 A 
ATOM     22  N   UNL A   1      44.020  30.234  37.601  1.00  0.00    -0.354 N 
ATOM     23  C   UNL A   1      40.724  31.009  34.887  1.00  0.00     0.074 A 
ATOM     24  C   UNL A   1      40.558  29.931  33.935  1.00  0.00     0.031 C 
ATOM     25  C   UNL A   1      45.745  29.071  38.431  1.00  0.00     0.029 A 
ATOM     26  C   UNL A   1      45.007  30.320  38.555  1.00  0.00     0.049 A 
ATOM     27  H   UNL A   1      43.325  30.921  37.479  1.00  0.00     0.167 HD
ATOM     28  C   UNL A   1      39.968  32.131  34.925  1.00  0.00     0.031 A 
ATOM     29  C   UNL A   1      45.317  31.313  39.408  1.00  0.00     0.031 A 
ATOM     30  C   UNL A   1      40.151  33.192  35.884  1.00  0.00     0.049 A 
ATOM     31  C   UNL A   1      44.483  32.560  39.391  1.00  0.00     0.074 A 
ATOM     32  C   UNL A   1      39.389  34.337  36.048  1.00  0.00     0.029 A 
ATOM     33  N   UNL A   1      41.171  33.254  36.819  1.00  0.00    -0.354 N 
ATOM     34  N   UNL A   1      43.423  32.828  38.666  1.00  0.00    -0.248 NA
ATOM     35  C   UNL A   1      44.886  33.640  40.300  1.00  0.00     0.031 C 
ATOM     36  C   UNL A   1      39.995  35.126  37.028  1.00  0.00     0.029 A 
ATOM     37  C   UNL A   1      41.093  34.443  37.526  1.00  0.00     0.049 A 
ATOM     38  H   UNL A   1      41.853  32.557  36.961  1.00  0.00     0.167 HD
ATOM     39  C   UNL A   1      43.029  34.106  39.038  1.00  0.00     0.074 A 
ATOM     40  C   UNL A   1      43.940  34.541  40.077  1.00  0.00     0.031 C 
ATOM     41  C   UNL A   1      42.011  34.859  38.554  1.00  0.00     0.031 A 
BRANCH  28  42
ATOM     42  C   UNL A   1      38.889  32.309  33.890  1.00  0.00    -0.014 A 
ATOM     43  C   UNL A   1      39.186  32.749  32.589  1.00  0.00     0.010 A 
ATOM     44  C   UNL A   1      37.575  31.905  34.194  1.00  0.00     0.010 A 
ATOM     45  C   UNL A   1      38.187  32.786  31.612  1.00  0.00     0.020 A 
ATOM     46  C   UNL A   1      36.579  31.917  33.213  1.00  0.00     0.020 A 
ATOM     47  C   UNL A   1      36.891  32.361  31.927  1.00  0.00     0.054 A 
BRANCH  47  48
ATOM     48  S   UNL A   1      35.637  32.342  30.616  1.00  0.00     0.124 S 
ATOM     49  O   UNL A   1      34.396  32.362  31.387  1.00  0.00    -0.237 OA
ATOM     50  O   UNL A   1      35.934  33.566  29.875  1.00  0.00    -0.237 OA
ATOM     51  O   UNL A   1      35.904  31.100  29.896  1.00  0.00    -0.744 OA
ENDBRANCH  47  48
ENDBRANCH  28  42
BRANCH  29  52
ATOM     52  C   UNL A   1      46.509  31.194  40.292  1.00  0.00    -0.014 A 
ATOM     53  C   UNL A   1      47.781  31.594  39.849  1.00  0.00     0.010 A 
ATOM     54  C   UNL A   1      46.374  30.658  41.587  1.00  0.00     0.010 A 
ATOM     55  C   UNL A   1      48.900  31.420  40.668  1.00  0.00     0.020 A 
ATOM     56  C   UNL A   1      47.483  30.520  42.423  1.00  0.00     0.020 A 
ATOM     57  C   UNL A   1      48.743  30.880  41.948  1.00  0.00     0.054 A 
BRANCH  57  58
ATOM     58  S   UNL A   1      50.209  30.665  42.994  1.00  0.00     0.124 S 
ATOM     59  O   UNL A   1      49.783  29.599  43.895  1.00  0.00    -0.237 OA
ATOM     60  O   UNL A   1      51.239  30.301  42.023  1.00  0.00    -0.237 OA
ATOM     61  O   UNL A   1      50.383  31.976  43.613  1.00  0.00    -0.744 OA
ENDBRANCH  57  58
ENDBRANCH  29  52
BRANCH  41  62
ATOM     62  C   UNL A   1      41.824  36.228  39.150  1.00  0.00    -0.014 A 
ATOM     63  C   UNL A   1      40.885  36.447  40.173  1.00  0.00     0.010 A 
ATOM     64  C   UNL A   1      42.639  37.292  38.725  1.00  0.00     0.010 A 
ATOM     65  C   UNL A   1      40.749  37.713  40.746  1.00  0.00     0.020 A 
ATOM     66  C   UNL A   1      42.528  38.551  39.317  1.00  0.00     0.020 A 
ATOM     67  C   UNL A   1      41.576  38.755  40.318  1.00  0.00     0.054 A 
BRANCH  67  68
ATOM     68  S   UNL A   1      41.424  40.371  41.127  1.00  0.00     0.124 S 
ATOM     69  O   UNL A   1      40.345  40.993  40.363  1.00  0.00    -0.237 OA
ATOM     70  O   UNL A   1      41.093  40.010  42.503  1.00  0.00    -0.237 OA
ATOM     71  O   UNL A   1      42.743  40.975  40.946  1.00  0.00    -0.744 OA
ENDBRANCH  67  68
ENDBRANCH  41  62
ENDBRANCH  15  16
ENDBRANCH   8  10
ENDBRANCH   5   6
ENDBRANCH   4   5
ENDBRANCH   3   4
ENDBRANCH   2   3
ENDBRANCH   1   2
BRANCH   1  72
ATOM     72  C   UNL A   1      43.886  24.219  25.691  1.00  0.00     0.116 C 
BRANCH  72  73
ATOM     73  N   UNL A   1      45.204  24.421  25.145  1.00  0.00    -0.354 N 
ATOM     74  C   UNL A   1      45.958  25.553  25.102  1.00  0.00     0.244 C 
ATOM     75  H   UNL A   1      45.619  23.624  24.744  1.00  0.00     0.163 HD
ATOM     76  O   UNL A   1      47.010  25.495  24.454  1.00  0.00    -0.273 OA
BRANCH  74  77
ATOM     77  C   UNL A   1      45.442  26.895  25.671  1.00  0.00     0.197 C 
BRANCH  77  78
ATOM     78  N   UNL A   1      45.482  27.016  27.126  1.00  0.00    -0.340 N 
ATOM     79  C   UNL A   1      44.756  27.794  27.979  1.00  0.00     0.243 C 
ATOM     80  H   UNL A   1      46.145  26.437  27.566  1.00  0.00     0.164 HD
ATOM     81  O   UNL A   1      45.211  27.887  29.124  1.00  0.00    -0.273 OA
BRANCH  79  82
ATOM     82  C   UNL A   1      43.535  28.657  27.509  1.00  0.00     0.175 C 
BRANCH  82  83
ATOM     83  N   UNL A   1      43.781  29.811  26.618  1.00  0.00    -0.342 N 
ATOM     84  C   UNL A   1      44.134  31.116  26.762  1.00  0.00     0.243 C 
ATOM     85  H   UNL A   1      43.657  29.571  25.671  1.00  0.00     0.164 HD
ATOM     86  O   UNL A   1      43.952  31.808  25.752  1.00  0.00    -0.273 OA
BRANCH  84  87
ATOM     87  C   UNL A   1      44.575  31.777  28.096  1.00  0.00     0.176 C 
BRANCH  87  88
ATOM     88  N   UNL A   1      45.612  31.033  28.812  1.00  0.00    -0.340 N 
ATOM     89  C   UNL A   1      46.064  31.026  30.099  1.00  0.00     0.251 C 
ATOM     90  H   UNL A   1      46.089  30.393  28.236  1.00  0.00     0.164 HD
ATOM     91  O   UNL A   1      47.138  30.450  30.282  1.00  0.00    -0.269 OA
BRANCH  89  92
ATOM     92  C   UNL A   1      45.351  31.614  31.269  1.00  0.00     0.040 A 
ATOM     93  C   UNL A   1      45.863  32.605  32.114  1.00  0.00     0.017 A 
ATOM     94  C   UNL A   1      44.011  31.222  31.444  1.00  0.00     0.017 A 
ATOM     95  C   UNL A   1      45.064  33.204  33.092  1.00  0.00     0.040 A 
ATOM     96  C   UNL A   1      43.212  31.812  32.427  1.00  0.00     0.040 A 
ATOM     97  C   UNL A   1      43.746  32.804  33.237  1.00  0.00     0.123 A 
ATOM     98  F   UNL A   1      42.976  33.394  34.159  1.00  0.00    -0.207 F 
ENDBRANCH  89  92
ENDBRANCH  87  88
BRANCH  87  99
ATOM     99  C   UNL A   1      45.114  33.213  27.838  1.00  0.00     0.070 C 
BRANCH  99 100
ATOM    100  C   UNL A   1      44.703  34.169  28.931  1.00  0.00    -0.045 A 
ATOM    101  C   UNL A   1      43.384  34.169  29.409  1.00  0.00     0.007 A 
ATOM    102  C   UNL A   1      45.620  35.097  29.440  1.00  0.00     0.007 A 
ATOM    103  C   UNL A   1      42.988  35.079  30.389  1.00  0.00     0.046 A 
ATOM    104  C   UNL A   1      45.223  36.005  30.422  1.00  0.00     0.046 A 
ATOM    105  C   UNL A   1      43.914  35.990  30.888  1.00  0.00     0.115 A 
BRANCH 105 106
ATOM    106  O   UNL A   1      43.570  36.895  31.847  1.00  0.00    -0.508 OA
ATOM    107  H   UNL A   1      44.229  37.423  32.252  1.00  0.00     0.293 HD
ENDBRANCH 105 106
ENDBRANCH  99 100
ENDBRANCH  87  99
ENDBRANCH  84  87
ENDBRANCH  82  83
BRANCH  82 108
ATOM    108  C   UNL A   1      42.461  27.738  26.856  1.00  0.00     0.072 C 
BRANCH 108 109
ATOM    109  C   UNL A   1      41.295  27.291  27.720  1.00  0.00    -0.020 A 
ATOM    110  C   UNL A   1      40.707  26.041  27.811  1.00  0.00     0.087 A 
ATOM    111  C   UNL A   1      40.625  28.115  28.695  1.00  0.00     0.003 A 
ATOM    112  N   UNL A   1      39.724  26.082  28.766  1.00  0.00    -0.361 N 
ATOM    113  C   UNL A   1      39.656  27.332  29.324  1.00  0.00     0.046 A 
ATOM    114  C   UNL A   1      40.775  29.452  29.126  1.00  0.00     0.010 A 
ATOM    115  H   UNL A   1      39.149  25.323  29.014  1.00  0.00     0.166 HD
ATOM    116  C   UNL A   1      38.830  27.810  30.351  1.00  0.00     0.026 A 
ATOM    117  C   UNL A   1      39.963  29.945  30.157  1.00  0.00     0.001 A 
ATOM    118  C   UNL A   1      39.005  29.134  30.758  1.00  0.00     0.002 A 
ENDBRANCH 108 109
ENDBRANCH  82 108
ENDBRANCH  79  82
ENDBRANCH  77  78
BRANCH  77 119
ATOM    119  C   UNL A   1      46.248  28.048  25.038  1.00  0.00     0.191 C 
BRANCH 119 120
ATOM    120  O   UNL A   1      46.190  27.998  23.608  1.00  0.00    -0.394 OA
ATOM    121  H   UNL A   1      46.877  27.398  23.277  1.00  0.00     0.210 HD
ENDBRANCH 119 120
ENDBRANCH  77 119
ENDBRANCH  74  77
ENDBRANCH  72  73
ENDBRANCH   1  72
TORSDOF 29
ENDMDL
MODEL 3
REMARK VINA RESULT:      -5.9      5.899     10.818
REMARK SMILES O=C(NCCCCCCNC(=O)[C@H](CO)NC(=O)[C@H](Cc1c[nH]c2ccccc12)NC(=O)[C@H](Cc1ccc(O)cc1)NC(=O)c1ccc(F)cc1)c1ccc(-c2c3nc(c(-c4ccc(S(=O)(=O)[O-])cc4)c4ccc([nH]4)c(-c4ccc(S(=O)(=O)[O-])cc4)c4nc(c(-c5ccc(S(=O)(=O)[O-])cc5)c5ccc2[nH]5)C=C4)C=C3)cc1
REMARK SMILES IDX 8 1 7 2 6 3 5 4 4 5 3 6 1 7 2 8 52 10 53 11 111 12 54 13
REMARK SMILES IDX 110 14 55 15 56 16 57 17 104 18 58 19 109 20 103 21 105 22
REMARK SMILES IDX 59 23 108 24 102 25 101 26 60 28 90 29 71 30 89 31 72 32
REMARK SMILES IDX 75 33 88 34 106 35 73 36 74 37 87 39 107 40 76 41 61 42
REMARK SMILES IDX 62 43 70 44 63 45 69 46 64 47 65 48 66 49 67 50 68 51 91 52
REMARK SMILES IDX 92 53 100 54 93 55 99 56 94 57 95 58 96 59 97 60 98 61 77 62
REMARK SMILES IDX 78 63 86 64 79 65 85 66 80 67 81 68 82 69 83 70 84 71 9 72
REMARK SMILES IDX 10 73 11 74 12 76 13 77 16 78 17 79 18 81 19 82 30 83 31 84
REMARK SMILES IDX 32 86 33 87 42 88 43 89 44 91 45 92 46 93 51 94 47 95 50 96
REMARK SMILES IDX 48 97 49 98 34 99 35 100 36 101 41 102 37 103 40 104 38 105
REMARK SMILES IDX 39 106 20 108 21 109 22 110 29 111 23 112 24 113 28 114
REMARK SMILES IDX 25 116 27 117 26 118 14 119 15 120
REMARK H PARENT 3 9 105 27 75 38 10 75 16 80 30 85 42 90 39 107 23 115 15 121
REMARK Flexibility Score: inf
ROOT
ATOM      1  C   UNL A   1      45.874  25.453  30.689  1.00  0.00     0.021 C 
ENDROOT
BRANCH   1   2
ATOM      2  C   UNL A   1      46.433  26.550  29.789  1.00  0.00     0.002 C 
BRANCH   2   3
ATOM      3  C   UNL A   1      45.388  27.566  29.314  1.00  0.00     0.002 C 
BRANCH   3   4
ATOM      4  C   UNL A   1      45.064  27.497  27.821  1.00  0.00     0.021 C 
BRANCH   4   5
ATOM      5  C   UNL A   1      43.958  26.508  27.478  1.00  0.00     0.116 C 
BRANCH   5   6
ATOM      6  N   UNL A   1      43.136  27.003  26.387  1.00  0.00    -0.352 N 
ATOM      7  O   UNL A   1      41.252  27.841  25.474  1.00  0.00    -0.269 OA
ATOM      8  C   UNL A   1      41.984  27.738  26.457  1.00  0.00     0.251 C 
ATOM      9  H   UNL A   1      43.448  26.780  25.480  1.00  0.00     0.163 HD
BRANCH   8  10
ATOM     10  C   UNL A   1      41.639  28.404  27.727  1.00  0.00     0.039 A 
ATOM     11  C   UNL A   1      40.816  27.752  28.652  1.00  0.00     0.014 A 
ATOM     12  C   UNL A   1      42.162  29.668  28.006  1.00  0.00     0.014 A 
ATOM     13  C   UNL A   1      40.441  28.401  29.818  1.00  0.00     0.010 A 
ATOM     14  C   UNL A   1      41.856  30.282  29.221  1.00  0.00     0.010 A 
ATOM     15  C   UNL A   1      40.997  29.648  30.136  1.00  0.00    -0.014 A 
BRANCH  15  16
ATOM     16  C   UNL A   1      40.807  30.192  31.500  1.00  0.00     0.031 A 
ATOM     17  C   UNL A   1      39.607  31.017  31.855  1.00  0.00     0.074 A 
ATOM     18  C   UNL A   1      41.769  29.939  32.411  1.00  0.00     0.049 A 
ATOM     19  N   UNL A   1      39.320  31.585  32.997  1.00  0.00    -0.248 NA
ATOM     20  C   UNL A   1      38.602  31.241  30.804  1.00  0.00     0.031 C 
ATOM     21  C   UNL A   1      42.986  29.158  32.158  1.00  0.00     0.029 A 
ATOM     22  N   UNL A   1      41.882  30.303  33.727  1.00  0.00    -0.354 N 
ATOM     23  C   UNL A   1      38.121  32.257  32.799  1.00  0.00     0.074 A 
ATOM     24  C   UNL A   1      37.731  32.028  31.424  1.00  0.00     0.031 C 
ATOM     25  C   UNL A   1      43.707  29.081  33.284  1.00  0.00     0.029 A 
ATOM     26  C   UNL A   1      43.047  29.868  34.316  1.00  0.00     0.049 A 
ATOM     27  H   UNL A   1      41.198  30.824  34.204  1.00  0.00     0.167 HD
ATOM     28  C   UNL A   1      37.423  33.002  33.688  1.00  0.00     0.031 A 
ATOM     29  C   UNL A   1      43.556  30.113  35.537  1.00  0.00     0.031 A 
ATOM     30  C   UNL A   1      37.830  33.216  35.053  1.00  0.00     0.049 A 
ATOM     31  C   UNL A   1      42.772  30.978  36.480  1.00  0.00     0.074 A 
ATOM     32  C   UNL A   1      37.153  33.896  36.051  1.00  0.00     0.029 A 
ATOM     33  N   UNL A   1      39.023  32.780  35.608  1.00  0.00    -0.354 N 
ATOM     34  N   UNL A   1      41.594  31.527  36.303  1.00  0.00    -0.248 NA
ATOM     35  C   UNL A   1      43.386  31.264  37.783  1.00  0.00     0.031 C 
ATOM     36  C   UNL A   1      37.970  33.937  37.183  1.00  0.00     0.029 A 
ATOM     37  C   UNL A   1      39.127  33.223  36.916  1.00  0.00     0.049 A 
ATOM     38  H   UNL A   1      39.698  32.235  35.141  1.00  0.00     0.167 HD
ATOM     39  C   UNL A   1      41.323  32.217  37.477  1.00  0.00     0.074 A 
ATOM     40  C   UNL A   1      42.441  31.985  38.369  1.00  0.00     0.031 C 
ATOM     41  C   UNL A   1      40.250  32.985  37.786  1.00  0.00     0.031 A 
BRANCH  28  42
ATOM     42  C   UNL A   1      36.159  33.677  33.226  1.00  0.00    -0.014 A 
ATOM     43  C   UNL A   1      34.900  33.082  33.411  1.00  0.00     0.010 A 
ATOM     44  C   UNL A   1      36.229  34.987  32.713  1.00  0.00     0.010 A 
ATOM     45  C   UNL A   1      33.734  33.783  33.088  1.00  0.00     0.020 A 
ATOM     46  C   UNL A   1      35.066  35.700  32.411  1.00  0.00     0.020 A 
ATOM     47  C   UNL A   1      33.824  35.092  32.599  1.00  0.00     0.054 A 
BRANCH  47  48
ATOM     48  S   UNL A   1      32.292  36.005  32.267  1.00  0.00     0.124 S 
ATOM     49  O   UNL A   1      31.273  35.003  32.572  1.00  0.00    -0.237 OA
ATOM     50  O   UNL A   1      32.377  37.120  33.206  1.00  0.00    -0.237 OA
ATOM     51  O   UNL A   1      32.402  36.371  30.857  1.00  0.00    -0.744 OA
ENDBRANCH  47  48
ENDBRANCH  28  42
BRANCH  29  52
ATOM     52  C   UNL A   1      44.900  29.591  35.906  1.00  0.00    -0.014 A 
ATOM     53  C   UNL A   1      45.051  28.317  36.477  1.00  0.00     0.010 A 
ATOM     54  C   UNL A   1      46.044  30.387  35.698  1.00  0.00     0.010 A 
ATOM     55  C   UNL A   1      46.312  27.866  36.874  1.00  0.00     0.020 A 
ATOM     56  C   UNL A   1      47.311  29.924  36.057  1.00  0.00     0.020 A 
ATOM     57  C   UNL A   1      47.434  28.675  36.664  1.00  0.00     0.054 A 
BRANCH  57  58
ATOM     58  S   UNL A   1      49.062  28.068  37.185  1.00  0.00     0.124 S 
ATOM     59  O   UNL A   1      49.950  29.102  36.663  1.00  0.00    -0.237 OA
ATOM     60  O   UNL A   1      48.930  28.021  38.639  1.00  0.00    -0.237 OA
ATOM     61  O   UNL A   1      49.166  26.765  36.533  1.00  0.00    -0.744 OA
ENDBRANCH  57  58
ENDBRANCH  29  52
BRANCH  41  62
ATOM     62  C   UNL A   1      40.230  33.623  39.148  1.00  0.00    -0.014 A 
ATOM     63  C   UNL A   1      39.585  32.996  40.229  1.00  0.00     0.010 A 
ATOM     64  C   UNL A   1      40.914  34.832  39.362  1.00  0.00     0.010 A 
ATOM     65  C   UNL A   1      39.608  33.580  41.498  1.00  0.00     0.020 A 
ATOM     66  C   UNL A   1      40.967  35.402  40.636  1.00  0.00     0.020 A 
ATOM     67  C   UNL A   1      40.304  34.776  41.694  1.00  0.00     0.054 A 
BRANCH  67  68
ATOM     68  S   UNL A   1      40.374  35.475  43.365  1.00  0.00     0.124 S 
ATOM     69  O   UNL A   1      39.851  34.378  44.176  1.00  0.00    -0.237 OA
ATOM     70  O   UNL A   1      41.796  35.760  43.534  1.00  0.00    -0.237 OA
ATOM     71  O   UNL A   1      39.513  36.654  43.284  1.00  0.00    -0.744 OA
ENDBRANCH  67  68
ENDBRANCH  41  62
ENDBRANCH  15  16
ENDBRANCH   8  10
ENDBRANCH   5   6
ENDBRANCH   4   5
ENDBRANCH   3   4
ENDBRANCH   2   3
ENDBRANCH   1   2
BRANCH   1  72
ATOM     72  C   UNL A   1      46.232  25.633  32.156  1.00  0.00     0.116 C 
BRANCH  72  73
ATOM     73  N   UNL A   1      45.071  25.922  32.959  1.00  0.00    -0.354 N 
ATOM     74  C   UNL A   1      44.580  25.257  34.039  1.00  0.00     0.244 C 
ATOM     75  H   UNL A   1      44.558  26.717  32.686  1.00  0.00     0.163 HD
ATOM     76  O   UNL A   1      43.484  25.635  34.473  1.00  0.00    -0.273 OA
BRANCH  74  77
ATOM     77  C   UNL A   1      45.257  23.978  34.584  1.00  0.00     0.197 C 
BRANCH  77  78
ATOM     78  N   UNL A   1      46.382  24.201  35.489  1.00  0.00    -0.340 N 
ATOM     79  C   UNL A   1      47.394  23.374  35.878  1.00  0.00     0.243 C 
ATOM     80  H   UNL A   1      46.415  25.101  35.885  1.00  0.00     0.164 HD
ATOM     81  O   UNL A   1      48.030  23.749  36.868  1.00  0.00    -0.273 OA
BRANCH  79  82
ATOM     82  C   UNL A   1      47.630  21.962  35.239  1.00  0.00     0.175 C 
BRANCH  82  83
ATOM     83  N   UNL A   1      48.812  21.761  34.374  1.00  0.00    -0.342 N 
ATOM     84  C   UNL A   1      49.889  22.494  33.984  1.00  0.00     0.243 C 
ATOM     85  H   UNL A   1      48.822  20.861  33.976  1.00  0.00     0.164 HD
ATOM     86  O   UNL A   1      50.497  22.028  33.012  1.00  0.00    -0.273 OA
BRANCH  84  87
ATOM     87  C   UNL A   1      50.274  23.885  34.556  1.00  0.00     0.176 C 
BRANCH  87  88
ATOM     88  N   UNL A   1      51.685  24.003  34.927  1.00  0.00    -0.340 N 
ATOM     89  C   UNL A   1      52.525  23.280  35.723  1.00  0.00     0.251 C 
ATOM     90  H   UNL A   1      52.127  24.777  34.509  1.00  0.00     0.164 HD
ATOM     91  O   UNL A   1      53.590  23.830  36.010  1.00  0.00    -0.269 OA
BRANCH  89  92
ATOM     92  C   UNL A   1      52.269  21.898  36.220  1.00  0.00     0.040 A 
ATOM     93  C   UNL A   1      51.331  21.550  37.199  1.00  0.00     0.017 A 
ATOM     94  C   UNL A   1      52.941  20.859  35.549  1.00  0.00     0.017 A 
ATOM     95  C   UNL A   1      51.053  20.212  37.490  1.00  0.00     0.040 A 
ATOM     96  C   UNL A   1      52.671  19.520  35.844  1.00  0.00     0.040 A 
ATOM     97  C   UNL A   1      51.723  19.211  36.808  1.00  0.00     0.123 A 
ATOM     98  F   UNL A   1      51.440  17.929  37.073  1.00  0.00    -0.207 F 
ENDBRANCH  89  92
ENDBRANCH  87  88
BRANCH  87  99
ATOM     99  C   UNL A   1      49.961  25.003  33.521  1.00  0.00     0.070 C 
BRANCH  99 100
ATOM    100  C   UNL A   1      51.218  25.682  33.034  1.00  0.00    -0.045 A 
ATOM    101  C   UNL A   1      51.502  27.000  33.422  1.00  0.00     0.007 A 
ATOM    102  C   UNL A   1      52.082  25.022  32.153  1.00  0.00     0.007 A 
ATOM    103  C   UNL A   1      52.640  27.648  32.940  1.00  0.00     0.046 A 
ATOM    104  C   UNL A   1      53.221  25.670  31.674  1.00  0.00     0.046 A 
ATOM    105  C   UNL A   1      53.491  26.974  32.070  1.00  0.00     0.115 A 
BRANCH 105 106
ATOM    106  O   UNL A   1      54.614  27.569  31.578  1.00  0.00    -0.508 OA
ATOM    107  H   UNL A   1      55.403  27.572  32.083  1.00  0.00     0.293 HD
ENDBRANCH 105 106
ENDBRANCH  99 100
ENDBRANCH  87  99
ENDBRANCH  84  87
ENDBRANCH  82  83
BRANCH  82 108
ATOM    108  C   UNL A   1      47.632  20.874  36.352  1.00  0.00     0.072 C 
BRANCH 108 109
ATOM    109  C   UNL A   1      46.522  19.839  36.331  1.00  0.00    -0.020 A 
ATOM    110  C   UNL A   1      45.732  19.429  35.270  1.00  0.00     0.087 A 
ATOM    111  C   UNL A   1      46.141  19.012  37.449  1.00  0.00     0.003 A 
ATOM    112  N   UNL A   1      44.901  18.426  35.697  1.00  0.00    -0.361 N 
ATOM    113  C   UNL A   1      45.132  18.148  37.020  1.00  0.00     0.046 A 
ATOM    114  C   UNL A   1      46.584  18.895  38.785  1.00  0.00     0.010 A 
ATOM    115  H   UNL A   1      44.233  17.972  35.136  1.00  0.00     0.166 HD
ATOM    116  C   UNL A   1      44.543  17.184  37.848  1.00  0.00     0.026 A 
ATOM    117  C   UNL A   1      46.011  17.931  39.626  1.00  0.00     0.001 A 
ATOM    118  C   UNL A   1      45.006  17.089  39.162  1.00  0.00     0.002 A 
ENDBRANCH 108 109
ENDBRANCH  82 108
ENDBRANCH  79  82
ENDBRANCH  77  78
BRANCH  77 119
ATOM    119  C   UNL A   1      44.194  23.112  35.290  1.00  0.00     0.191 C 
BRANCH 119 120
ATOM    120  O   UNL A   1      43.252  22.580  34.352  1.00  0.00    -0.394 OA
ATOM    121  H   UNL A   1      43.632  22.610  33.459  1.00  0.00     0.210 HD
ENDBRANCH 119 120
ENDBRANCH  77 119
ENDBRANCH  74  77
ENDBRANCH  72  73
ENDBRANCH   1  72
TORSDOF 29
ENDMDL
