MODEL 1
REMARK VINA RESULT:     -10.7      0.000      0.000
REMARK SMILES CC(C)CCOc1ccccc1-c1cc(C(=O)NCCCCCCNC(=O)c2ccc(-c3c4nc(c(-c5ccc(S(=O)(=O)[O-])cc5)c5ccc([nH]5)c(-c5ccc(S(=O)(=O)[O-])cc5)c5nc(c(-c6ccc(S(=O)(=O)[O-])cc6)c6ccc3[nH]6)C=C5)C=C4)cc2)no1
REMARK SMILES IDX 20 1 19 2 18 3 16 4 17 5 15 7 13 8 14 9 89 10 88 11 12 12
REMARK SMILES IDX 7 13 8 14 9 15 11 16 10 17 6 18 5 19 4 20 2 21 1 22 3 23
REMARK SMILES IDX 21 24 22 25 23 26 24 27 25 28 26 29 27 31 28 32 29 33 87 34
REMARK SMILES IDX 30 35 86 36 31 37 32 38 33 39 80 40 34 41 85 42 79 43 81 44
REMARK SMILES IDX 35 45 84 46 78 47 77 48 36 50 66 51 47 52 65 53 48 54 51 55
REMARK SMILES IDX 64 56 82 57 49 58 50 59 63 61 83 62 52 63 37 64 38 65 46 66
REMARK SMILES IDX 39 67 45 68 40 69 41 70 42 71 43 72 44 73 67 74 68 75 76 76
REMARK SMILES IDX 69 77 75 78 70 79 71 80 72 81 73 82 74 83 53 84 54 85 62 86
REMARK SMILES IDX 55 87 61 88 56 89 57 90 58 91 59 92 60 93
REMARK H PARENT 18 6 25 30 81 49 51 60
REMARK Flexibility Score: inf
ROOT
ATOM      1  C   UNL A   1      31.773  29.386  26.240  1.00  0.00     0.021 C 
ENDROOT
BRANCH   1   2
ATOM      2  C   UNL A   1      31.677  29.549  24.724  1.00  0.00     0.116 C 
BRANCH   2   3
ATOM      3  N   UNL A   1      30.600  28.761  24.155  1.00  0.00    -0.351 N 
ATOM      4  C   UNL A   1      30.544  27.490  23.631  1.00  0.00     0.273 C 
ATOM      5  O   UNL A   1      29.424  27.082  23.313  1.00  0.00    -0.267 OA
ATOM      6  H   UNL A   1      29.735  29.231  24.142  1.00  0.00     0.163 HD
BRANCH   4   7
ATOM      7  C   UNL A   1      31.748  26.662  23.447  1.00  0.00     0.171 A 
ATOM      8  C   UNL A   1      34.092  25.074  24.108  1.00  0.00     0.171 A 
ATOM      9  C   UNL A   1      32.853  25.932  24.750  1.00  0.00     0.088 A 
ATOM     10  O   UNL A   1      33.998  25.278  22.237  1.00  0.00    -0.355 OA
ATOM     11  N   UNL A   1      32.352  26.374  21.893  1.00  0.00    -0.074 NA
BRANCH   8  12
ATOM     12  C   UNL A   1      34.774  23.895  24.617  1.00  0.00     0.062 A 
ATOM     13  C   UNL A   1      34.304  22.631  24.189  1.00  0.00     0.130 A 
ATOM     14  C   UNL A   1      34.970  21.470  24.560  1.00  0.00     0.047 A 
ATOM     15  C   UNL A   1      36.109  21.564  25.359  1.00  0.00     0.004 A 
ATOM     16  C   UNL A   1      35.906  23.984  25.421  1.00  0.00     0.016 A 
ATOM     17  C   UNL A   1      36.565  22.812  25.800  1.00  0.00     0.001 A 
BRANCH  13  18
ATOM     18  O   UNL A   1      33.129  22.497  23.480  1.00  0.00    -0.493 OA
BRANCH  18  19
ATOM     19  C   UNL A   1      32.069  21.862  24.216  1.00  0.00     0.230 C 
BRANCH  19  20
ATOM     20  C   UNL A   1      31.127  22.896  24.881  1.00  0.00     0.044 C 
BRANCH  20  21
ATOM     21  C   UNL A   1      31.341  22.950  26.566  1.00  0.00    -0.014 C 
ATOM     22  C   UNL A   1      29.689  22.602  27.063  1.00  0.00     0.007 C 
ATOM     23  C   UNL A   1      33.106  22.536  27.925  1.00  0.00     0.007 C 
ENDBRANCH  20  21
ENDBRANCH  19  20
ENDBRANCH  18  19
ENDBRANCH  13  18
ENDBRANCH   8  12
ENDBRANCH   4   7
ENDBRANCH   2   3
ENDBRANCH   1   2
BRANCH   1  24
ATOM     24  C   UNL A   1      33.046  30.012  26.824  1.00  0.00     0.002 C 
BRANCH  24  25
ATOM     25  C   UNL A   1      34.337  29.239  26.521  1.00  0.00     0.002 C 
BRANCH  25  26
ATOM     26  C   UNL A   1      35.295  29.098  27.706  1.00  0.00     0.021 C 
BRANCH  26  27
ATOM     27  C   UNL A   1      35.702  30.429  28.326  1.00  0.00     0.116 C 
BRANCH  27  28
ATOM     28  N   UNL A   1      35.671  30.367  29.782  1.00  0.00    -0.352 N 
ATOM     29  C   UNL A   1      36.658  29.968  30.649  1.00  0.00     0.251 C 
ATOM     30  H   UNL A   1      34.827  30.652  30.200  1.00  0.00     0.163 HD
ATOM     31  O   UNL A   1      36.394  29.722  31.820  1.00  0.00    -0.269 OA
BRANCH  29  32
ATOM     32  C   UNL A   1      38.038  29.831  30.143  1.00  0.00     0.039 A 
ATOM     33  C   UNL A   1      39.053  29.429  31.012  1.00  0.00     0.014 A 
ATOM     34  C   UNL A   1      38.310  30.077  28.795  1.00  0.00     0.014 A 
ATOM     35  C   UNL A   1      40.336  29.205  30.510  1.00  0.00     0.010 A 
ATOM     36  C   UNL A   1      39.565  29.777  28.284  1.00  0.00     0.010 A 
ATOM     37  C   UNL A   1      40.592  29.341  29.135  1.00  0.00    -0.014 A 
BRANCH  37  38
ATOM     38  C   UNL A   1      41.922  29.043  28.550  1.00  0.00     0.031 A 
ATOM     39  C   UNL A   1      42.244  27.638  28.118  1.00  0.00     0.074 A 
ATOM     40  C   UNL A   1      42.863  30.006  28.494  1.00  0.00     0.049 A 
ATOM     41  N   UNL A   1      43.383  27.141  27.716  1.00  0.00    -0.248 NA
ATOM     42  C   UNL A   1      41.144  26.659  28.171  1.00  0.00     0.031 C 
ATOM     43  C   UNL A   1      42.677  31.401  28.899  1.00  0.00     0.029 A 
ATOM     44  N   UNL A   1      44.174  29.953  28.090  1.00  0.00    -0.354 N 
ATOM     45  C   UNL A   1      43.144  25.791  27.485  1.00  0.00     0.074 A 
ATOM     46  C   UNL A   1      41.766  25.537  27.845  1.00  0.00     0.031 C 
ATOM     47  C   UNL A   1      43.822  32.074  28.703  1.00  0.00     0.029 A 
ATOM     48  C   UNL A   1      44.841  31.149  28.216  1.00  0.00     0.049 A 
ATOM     49  H   UNL A   1      44.597  29.134  27.741  1.00  0.00     0.167 HD
ATOM     50  C   UNL A   1      43.989  24.853  26.999  1.00  0.00     0.031 A 
ATOM     51  C   UNL A   1      46.132  31.461  27.985  1.00  0.00     0.031 A 
ATOM     52  C   UNL A   1      45.358  25.114  26.644  1.00  0.00     0.049 A 
ATOM     53  C   UNL A   1      47.068  30.387  27.500  1.00  0.00     0.074 A 
ATOM     54  C   UNL A   1      46.288  24.241  26.109  1.00  0.00     0.029 A 
ATOM     55  N   UNL A   1      45.993  26.339  26.789  1.00  0.00    -0.354 N 
ATOM     56  N   UNL A   1      46.812  29.126  27.243  1.00  0.00    -0.248 NA
ATOM     57  C   UNL A   1      48.466  30.776  27.269  1.00  0.00     0.031 C 
ATOM     58  C   UNL A   1      47.504  24.919  25.991  1.00  0.00     0.029 A 
ATOM     59  C   UNL A   1      47.311  26.237  26.378  1.00  0.00     0.049 A 
ATOM     60  H   UNL A   1      45.571  27.159  27.132  1.00  0.00     0.167 HD
ATOM     61  C   UNL A   1      48.006  28.585  26.778  1.00  0.00     0.074 A 
ATOM     62  C   UNL A   1      48.983  29.652  26.788  1.00  0.00     0.031 C 
ATOM     63  C   UNL A   1      48.267  27.316  26.376  1.00  0.00     0.031 A 
BRANCH  50  64
ATOM     64  C   UNL A   1      43.458  23.452  26.831  1.00  0.00    -0.014 A 
ATOM     65  C   UNL A   1      43.176  22.645  27.948  1.00  0.00     0.010 A 
ATOM     66  C   UNL A   1      43.195  22.953  25.542  1.00  0.00     0.010 A 
ATOM     67  C   UNL A   1      42.681  21.349  27.777  1.00  0.00     0.020 A 
ATOM     68  C   UNL A   1      42.669  21.671  25.369  1.00  0.00     0.020 A 
ATOM     69  C   UNL A   1      42.431  20.870  26.488  1.00  0.00     0.054 A 
BRANCH  69  70
ATOM     70  S   UNL A   1      41.765  19.194  26.301  1.00  0.00     0.124 S 
ATOM     71  O   UNL A   1      41.848  18.683  27.667  1.00  0.00    -0.237 OA
ATOM     72  O   UNL A   1      40.414  19.443  25.805  1.00  0.00    -0.237 OA
ATOM     73  O   UNL A   1      42.671  18.564  25.345  1.00  0.00    -0.744 OA
ENDBRANCH  69  70
ENDBRANCH  50  64
BRANCH  51  74
ATOM     74  C   UNL A   1      46.618  32.852  28.210  1.00  0.00    -0.014 A 
ATOM     75  C   UNL A   1      46.726  33.753  27.136  1.00  0.00     0.010 A 
ATOM     76  C   UNL A   1      46.980  33.283  29.500  1.00  0.00     0.010 A 
ATOM     77  C   UNL A   1      47.212  35.048  27.341  1.00  0.00     0.020 A 
ATOM     78  C   UNL A   1      47.434  34.588  29.715  1.00  0.00     0.020 A 
ATOM     79  C   UNL A   1      47.561  35.457  28.631  1.00  0.00     0.054 A 
BRANCH  79  80
ATOM     80  S   UNL A   1      48.158  37.152  28.877  1.00  0.00     0.124 S 
ATOM     81  O   UNL A   1      47.493  37.531  30.119  1.00  0.00    -0.237 OA
ATOM     82  O   UNL A   1      49.605  36.965  28.963  1.00  0.00    -0.237 OA
ATOM     83  O   UNL A   1      47.698  37.855  27.681  1.00  0.00    -0.744 OA
ENDBRANCH  79  80
ENDBRANCH  51  74
BRANCH  63  84
ATOM     84  C   UNL A   1      49.645  27.013  25.848  1.00  0.00    -0.014 A 
ATOM     85  C   UNL A   1      49.977  27.219  24.499  1.00  0.00     0.010 A 
ATOM     86  C   UNL A   1      50.650  26.614  26.749  1.00  0.00     0.010 A 
ATOM     87  C   UNL A   1      51.290  27.024  24.058  1.00  0.00     0.020 A 
ATOM     88  C   UNL A   1      51.969  26.448  26.320  1.00  0.00     0.020 A 
ATOM     89  C   UNL A   1      52.280  26.650  24.975  1.00  0.00     0.054 A 
BRANCH  89  90
ATOM     90  S   UNL A   1      53.990  26.494  24.393  1.00  0.00     0.124 S 
ATOM     91  O   UNL A   1      54.275  25.086  24.659  1.00  0.00    -0.237 OA
ATOM     92  O   UNL A   1      53.880  26.858  22.983  1.00  0.00    -0.237 OA
ATOM     93  O   UNL A   1      54.728  27.446  25.221  1.00  0.00    -0.744 OA
ENDBRANCH  89  90
ENDBRANCH  63  84
ENDBRANCH  37  38
ENDBRANCH  29  32
ENDBRANCH  27  28
ENDBRANCH  26  27
ENDBRANCH  25  26
ENDBRANCH  24  25
ENDBRANCH   1  24
TORSDOF 21
ENDMDL
MODEL 2
REMARK VINA RESULT:     -10.7      5.115      9.335
REMARK SMILES CC(C)CCOc1ccccc1-c1cc(C(=O)NCCCCCCNC(=O)c2ccc(-c3c4nc(c(-c5ccc(S(=O)(=O)[O-])cc5)c5ccc([nH]5)c(-c5ccc(S(=O)(=O)[O-])cc5)c5nc(c(-c6ccc(S(=O)(=O)[O-])cc6)c6ccc3[nH]6)C=C5)C=C4)cc2)no1
REMARK SMILES IDX 20 1 19 2 18 3 16 4 17 5 15 7 13 8 14 9 89 10 88 11 12 12
REMARK SMILES IDX 7 13 8 14 9 15 11 16 10 17 6 18 5 19 4 20 2 21 1 22 3 23
REMARK SMILES IDX 21 24 22 25 23 26 24 27 25 28 26 29 27 31 28 32 29 33 87 34
REMARK SMILES IDX 30 35 86 36 31 37 32 38 33 39 80 40 34 41 85 42 79 43 81 44
REMARK SMILES IDX 35 45 84 46 78 47 77 48 36 50 66 51 47 52 65 53 48 54 51 55
REMARK SMILES IDX 64 56 82 57 49 58 50 59 63 61 83 62 52 63 37 64 38 65 46 66
REMARK SMILES IDX 39 67 45 68 40 69 41 70 42 71 43 72 44 73 67 74 68 75 76 76
REMARK SMILES IDX 69 77 75 78 70 79 71 80 72 81 73 82 74 83 53 84 54 85 62 86
REMARK SMILES IDX 55 87 61 88 56 89 57 90 58 91 59 92 60 93
REMARK H PARENT 18 6 25 30 81 49 51 60
REMARK Flexibility Score: inf
ROOT
ATOM      1  C   UNL A   1      31.283  29.333  24.217  1.00  0.00     0.021 C 
ENDROOT
BRANCH   1   2
ATOM      2  C   UNL A   1      30.484  28.868  23.001  1.00  0.00     0.116 C 
BRANCH   2   3
ATOM      3  N   UNL A   1      29.331  28.071  23.374  1.00  0.00    -0.351 N 
ATOM      4  C   UNL A   1      29.162  26.731  23.638  1.00  0.00     0.273 C 
ATOM      5  O   UNL A   1      28.044  26.390  24.028  1.00  0.00    -0.267 OA
ATOM      6  H   UNL A   1      28.502  28.595  23.455  1.00  0.00     0.163 HD
BRANCH   4   7
ATOM      7  C   UNL A   1      30.249  25.752  23.459  1.00  0.00     0.171 A 
ATOM      8  C   UNL A   1      32.000  23.494  23.993  1.00  0.00     0.171 A 
ATOM      9  C   UNL A   1      30.720  24.339  24.569  1.00  0.00     0.088 A 
ATOM     10  O   UNL A   1      32.608  24.390  22.451  1.00  0.00    -0.355 OA
ATOM     11  N   UNL A   1      31.333  25.914  22.170  1.00  0.00    -0.074 NA
BRANCH   8  12
ATOM     12  C   UNL A   1      32.314  22.079  24.110  1.00  0.00     0.062 A 
ATOM     13  C   UNL A   1      32.692  21.596  25.385  1.00  0.00     0.130 A 
ATOM     14  C   UNL A   1      32.912  20.239  25.587  1.00  0.00     0.047 A 
ATOM     15  C   UNL A   1      32.754  19.357  24.518  1.00  0.00     0.004 A 
ATOM     16  C   UNL A   1      32.168  21.198  23.045  1.00  0.00     0.016 A 
ATOM     17  C   UNL A   1      32.400  19.835  23.250  1.00  0.00     0.001 A 
BRANCH  13  18
ATOM     18  O   UNL A   1      32.947  22.450  26.437  1.00  0.00    -0.493 OA
BRANCH  18  19
ATOM     19  C   UNL A   1      34.338  22.544  26.790  1.00  0.00     0.230 C 
BRANCH  19  20
ATOM     20  C   UNL A   1      35.022  23.765  26.127  1.00  0.00     0.044 C 
BRANCH  20  21
ATOM     21  C   UNL A   1      36.613  23.412  25.645  1.00  0.00    -0.014 C 
ATOM     22  C   UNL A   1      36.300  22.966  23.971  1.00  0.00     0.007 C 
ATOM     23  C   UNL A   1      38.645  24.153  26.320  1.00  0.00     0.007 C 
ENDBRANCH  20  21
ENDBRANCH  19  20
ENDBRANCH  18  19
ENDBRANCH  13  18
ENDBRANCH   8  12
ENDBRANCH   4   7
ENDBRANCH   2   3
ENDBRANCH   1   2
BRANCH   1  24
ATOM     24  C   UNL A   1      32.340  28.312  24.658  1.00  0.00     0.002 C 
BRANCH  24  25
ATOM     25  C   UNL A   1      32.139  27.753  26.073  1.00  0.00     0.002 C 
BRANCH  25  26
ATOM     26  C   UNL A   1      32.947  28.458  27.164  1.00  0.00     0.021 C 
BRANCH  26  27
ATOM     27  C   UNL A   1      34.100  29.297  26.626  1.00  0.00     0.116 C 
BRANCH  27  28
ATOM     28  N   UNL A   1      33.966  30.695  27.015  1.00  0.00    -0.352 N 
ATOM     29  C   UNL A   1      34.670  31.399  27.960  1.00  0.00     0.251 C 
ATOM     30  H   UNL A   1      33.274  31.204  26.534  1.00  0.00     0.163 HD
ATOM     31  O   UNL A   1      34.267  32.487  28.354  1.00  0.00    -0.269 OA
BRANCH  29  32
ATOM     32  C   UNL A   1      35.917  30.819  28.497  1.00  0.00     0.039 A 
ATOM     33  C   UNL A   1      37.146  31.375  28.140  1.00  0.00     0.014 A 
ATOM     34  C   UNL A   1      35.853  29.738  29.381  1.00  0.00     0.014 A 
ATOM     35  C   UNL A   1      38.315  30.887  28.726  1.00  0.00     0.010 A 
ATOM     36  C   UNL A   1      37.008  29.309  30.021  1.00  0.00     0.010 A 
ATOM     37  C   UNL A   1      38.250  29.876  29.700  1.00  0.00    -0.014 A 
BRANCH  37  38
ATOM     38  C   UNL A   1      39.460  29.380  30.400  1.00  0.00     0.031 A 
ATOM     39  C   UNL A   1      39.943  30.088  31.637  1.00  0.00     0.074 A 
ATOM     40  C   UNL A   1      40.171  28.362  29.876  1.00  0.00     0.049 A 
ATOM     41  N   UNL A   1      41.046  29.905  32.313  1.00  0.00    -0.248 NA
ATOM     42  C   UNL A   1      39.084  31.161  32.166  1.00  0.00     0.031 C 
ATOM     43  C   UNL A   1      39.814  27.608  28.672  1.00  0.00     0.029 A 
ATOM     44  N   UNL A   1      41.354  27.796  30.281  1.00  0.00    -0.354 N 
ATOM     45  C   UNL A   1      41.023  30.848  33.334  1.00  0.00     0.074 A 
ATOM     46  C   UNL A   1      39.824  31.636  33.156  1.00  0.00     0.031 C 
ATOM     47  C   UNL A   1      40.745  26.667  28.450  1.00  0.00     0.029 A 
ATOM     48  C   UNL A   1      41.795  26.787  29.456  1.00  0.00     0.049 A 
ATOM     49  H   UNL A   1      41.841  28.085  31.086  1.00  0.00     0.167 HD
ATOM     50  C   UNL A   1      41.909  31.026  34.341  1.00  0.00     0.031 A 
ATOM     51  C   UNL A   1      42.926  26.056  29.494  1.00  0.00     0.031 A 
ATOM     52  C   UNL A   1      43.099  30.238  34.511  1.00  0.00     0.049 A 
ATOM     53  C   UNL A   1      43.926  26.313  30.590  1.00  0.00     0.074 A 
ATOM     54  C   UNL A   1      44.045  30.315  35.518  1.00  0.00     0.029 A 
ATOM     55  N   UNL A   1      43.509  29.228  33.653  1.00  0.00    -0.354 N 
ATOM     56  N   UNL A   1      43.864  27.177  31.576  1.00  0.00    -0.248 NA
ATOM     57  C   UNL A   1      45.146  25.494  30.585  1.00  0.00     0.031 C 
ATOM     58  C   UNL A   1      45.059  29.397  35.234  1.00  0.00     0.029 A 
ATOM     59  C   UNL A   1      44.706  28.693  34.093  1.00  0.00     0.049 A 
ATOM     60  H   UNL A   1      43.020  28.934  32.850  1.00  0.00     0.167 HD
ATOM     61  C   UNL A   1      45.015  26.975  32.330  1.00  0.00     0.074 A 
ATOM     62  C   UNL A   1      45.753  25.907  31.691  1.00  0.00     0.031 C 
ATOM     63  C   UNL A   1      45.420  27.614  33.455  1.00  0.00     0.031 A 
BRANCH  50  64
ATOM     64  C   UNL A   1      41.628  32.126  35.333  1.00  0.00    -0.014 A 
ATOM     65  C   UNL A   1      40.877  31.880  36.497  1.00  0.00     0.010 A 
ATOM     66  C   UNL A   1      42.160  33.412  35.122  1.00  0.00     0.010 A 
ATOM     67  C   UNL A   1      40.628  32.909  37.409  1.00  0.00     0.020 A 
ATOM     68  C   UNL A   1      41.942  34.434  36.049  1.00  0.00     0.020 A 
ATOM     69  C   UNL A   1      41.162  34.180  37.179  1.00  0.00     0.054 A 
BRANCH  69  70
ATOM     70  S   UNL A   1      40.842  35.487  38.394  1.00  0.00     0.124 S 
ATOM     71  O   UNL A   1      39.382  35.495  38.449  1.00  0.00    -0.237 OA
ATOM     72  O   UNL A   1      41.512  34.980  39.589  1.00  0.00    -0.237 OA
ATOM     73  O   UNL A   1      41.448  36.673  37.798  1.00  0.00    -0.744 OA
ENDBRANCH  69  70
ENDBRANCH  50  64
BRANCH  51  74
ATOM     74  C   UNL A   1      43.178  25.010  28.463  1.00  0.00    -0.014 A 
ATOM     75  C   UNL A   1      43.796  25.342  27.244  1.00  0.00     0.010 A 
ATOM     76  C   UNL A   1      42.796  23.674  28.692  1.00  0.00     0.010 A 
ATOM     77  C   UNL A   1      44.002  24.367  26.264  1.00  0.00     0.020 A 
ATOM     78  C   UNL A   1      43.032  22.690  27.728  1.00  0.00     0.020 A 
ATOM     79  C   UNL A   1      43.622  23.046  26.514  1.00  0.00     0.054 A 
BRANCH  79  80
ATOM     80  S   UNL A   1      43.930  21.792  25.239  1.00  0.00     0.124 S 
ATOM     81  O   UNL A   1      43.840  22.577  24.013  1.00  0.00    -0.237 OA
ATOM     82  O   UNL A   1      45.265  21.312  25.589  1.00  0.00    -0.237 OA
ATOM     83  O   UNL A   1      42.854  20.824  25.444  1.00  0.00    -0.744 OA
ENDBRANCH  79  80
ENDBRANCH  51  74
BRANCH  63  84
ATOM     84  C   UNL A   1      46.689  27.144  34.116  1.00  0.00    -0.014 A 
ATOM     85  C   UNL A   1      46.684  26.103  35.059  1.00  0.00     0.010 A 
ATOM     86  C   UNL A   1      47.919  27.689  33.701  1.00  0.00     0.010 A 
ATOM     87  C   UNL A   1      47.888  25.620  35.582  1.00  0.00     0.020 A 
ATOM     88  C   UNL A   1      49.126  27.188  34.196  1.00  0.00     0.020 A 
ATOM     89  C   UNL A   1      49.101  26.159  35.138  1.00  0.00     0.054 A 
BRANCH  89  90
ATOM     90  S   UNL A   1      50.649  25.450  35.765  1.00  0.00     0.124 S 
ATOM     91  O   UNL A   1      50.854  24.320  34.864  1.00  0.00    -0.237 OA
ATOM     92  O   UNL A   1      51.590  26.557  35.610  1.00  0.00    -0.237 OA
ATOM     93  O   UNL A   1      50.335  25.096  37.147  1.00  0.00    -0.744 OA
ENDBRANCH  89  90
ENDBRANCH  63  84
ENDBRANCH  37  38
ENDBRANCH  29  32
ENDBRANCH  27  28
ENDBRANCH  26  27
ENDBRANCH  25  26
ENDBRANCH  24  25
ENDBRANCH   1  24
TORSDOF 21
ENDMDL
MODEL 3
REMARK VINA RESULT:      -9.4      3.755      5.709
REMARK SMILES CC(C)CCOc1ccccc1-c1cc(C(=O)NCCCCCCNC(=O)c2ccc(-c3c4nc(c(-c5ccc(S(=O)(=O)[O-])cc5)c5ccc([nH]5)c(-c5ccc(S(=O)(=O)[O-])cc5)c5nc(c(-c6ccc(S(=O)(=O)[O-])cc6)c6ccc3[nH]6)C=C5)C=C4)cc2)no1
REMARK SMILES IDX 20 1 19 2 18 3 16 4 17 5 15 7 13 8 14 9 89 10 88 11 12 12
REMARK SMILES IDX 7 13 8 14 9 15 11 16 10 17 6 18 5 19 4 20 2 21 1 22 3 23
REMARK SMILES IDX 21 24 22 25 23 26 24 27 25 28 26 29 27 31 28 32 29 33 87 34
REMARK SMILES IDX 30 35 86 36 31 37 32 38 33 39 80 40 34 41 85 42 79 43 81 44
REMARK SMILES IDX 35 45 84 46 78 47 77 48 36 50 66 51 47 52 65 53 48 54 51 55
REMARK SMILES IDX 64 56 82 57 49 58 50 59 63 61 83 62 52 63 37 64 38 65 46 66
REMARK SMILES IDX 39 67 45 68 40 69 41 70 42 71 43 72 44 73 67 74 68 75 76 76
REMARK SMILES IDX 69 77 75 78 70 79 71 80 72 81 73 82 74 83 53 84 54 85 62 86
REMARK SMILES IDX 55 87 61 88 56 89 57 90 58 91 59 92 60 93
REMARK H PARENT 18 6 25 30 81 49 51 60
REMARK Flexibility Score: inf
ROOT
ATOM      1  C   UNL A   1      34.965  34.626  33.903  1.00  0.00     0.021 C 
ENDROOT
BRANCH   1   2
ATOM      2  C   UNL A   1      35.255  35.471  32.664  1.00  0.00     0.116 C 
BRANCH   2   3
ATOM      3  N   UNL A   1      34.067  36.130  32.158  1.00  0.00    -0.351 N 
ATOM      4  C   UNL A   1      33.350  36.005  30.990  1.00  0.00     0.273 C 
ATOM      5  O   UNL A   1      32.311  36.664  30.917  1.00  0.00    -0.267 OA
ATOM      6  H   UNL A   1      33.699  36.803  32.775  1.00  0.00     0.163 HD
BRANCH   4   7
ATOM      7  C   UNL A   1      33.797  35.141  29.883  1.00  0.00     0.171 A 
ATOM      8  C   UNL A   1      34.607  32.745  28.451  1.00  0.00     0.171 A 
ATOM      9  C   UNL A   1      34.118  33.312  29.908  1.00  0.00     0.088 A 
ATOM     10  O   UNL A   1      34.794  34.233  27.310  1.00  0.00    -0.355 OA
ATOM     11  N   UNL A   1      34.204  35.820  28.388  1.00  0.00    -0.074 NA
BRANCH   8  12
ATOM     12  C   UNL A   1      34.379  31.451  27.828  1.00  0.00     0.062 A 
ATOM     13  C   UNL A   1      35.476  30.562  27.744  1.00  0.00     0.130 A 
ATOM     14  C   UNL A   1      35.304  29.276  27.249  1.00  0.00     0.047 A 
ATOM     15  C   UNL A   1      34.035  28.870  26.835  1.00  0.00     0.004 A 
ATOM     16  C   UNL A   1      33.118  31.045  27.405  1.00  0.00     0.016 A 
ATOM     17  C   UNL A   1      32.952  29.754  26.897  1.00  0.00     0.001 A 
BRANCH  13  18
ATOM     18  O   UNL A   1      36.758  30.962  28.056  1.00  0.00    -0.493 OA
BRANCH  18  19
ATOM     19  C   UNL A   1      37.382  30.178  29.088  1.00  0.00     0.230 C 
BRANCH  19  20
ATOM     20  C   UNL A   1      38.909  30.426  29.159  1.00  0.00     0.044 C 
BRANCH  20  21
ATOM     21  C   UNL A   1      39.790  29.112  28.538  1.00  0.00    -0.014 C 
ATOM     22  C   UNL A   1      38.778  27.799  29.130  1.00  0.00     0.007 C 
ATOM     23  C   UNL A   1      41.139  28.856  26.735  1.00  0.00     0.007 C 
ENDBRANCH  20  21
ENDBRANCH  19  20
ENDBRANCH  18  19
ENDBRANCH  13  18
ENDBRANCH   8  12
ENDBRANCH   4   7
ENDBRANCH   2   3
ENDBRANCH   1   2
BRANCH   1  24
ATOM     24  C   UNL A   1      34.777  33.140  33.577  1.00  0.00     0.002 C 
BRANCH  24  25
ATOM     25  C   UNL A   1      35.722  32.597  32.495  1.00  0.00     0.002 C 
BRANCH  25  26
ATOM     26  C   UNL A   1      37.187  32.481  32.921  1.00  0.00     0.021 C 
BRANCH  26  27
ATOM     27  C   UNL A   1      37.623  31.056  33.235  1.00  0.00     0.116 C 
BRANCH  27  28
ATOM     28  N   UNL A   1      38.255  30.970  34.546  1.00  0.00    -0.352 N 
ATOM     29  C   UNL A   1      39.454  30.398  34.889  1.00  0.00     0.251 C 
ATOM     30  H   UNL A   1      37.751  31.379  35.286  1.00  0.00     0.163 HD
ATOM     31  O   UNL A   1      39.723  30.175  36.064  1.00  0.00    -0.269 OA
BRANCH  29  32
ATOM     32  C   UNL A   1      40.409  30.050  33.819  1.00  0.00     0.039 A 
ATOM     33  C   UNL A   1      40.503  30.861  32.687  1.00  0.00     0.014 A 
ATOM     34  C   UNL A   1      41.231  28.928  33.962  1.00  0.00     0.014 A 
ATOM     35  C   UNL A   1      41.475  30.585  31.725  1.00  0.00     0.010 A 
ATOM     36  C   UNL A   1      42.247  28.703  33.043  1.00  0.00     0.010 A 
ATOM     37  C   UNL A   1      42.378  29.526  31.915  1.00  0.00    -0.014 A 
BRANCH  37  38
ATOM     38  C   UNL A   1      43.471  29.243  30.953  1.00  0.00     0.031 A 
ATOM     39  C   UNL A   1      43.423  27.989  30.123  1.00  0.00     0.074 A 
ATOM     40  C   UNL A   1      44.543  30.058  30.894  1.00  0.00     0.049 A 
ATOM     41  N   UNL A   1      44.335  27.488  29.333  1.00  0.00    -0.248 NA
ATOM     42  C   UNL A   1      42.197  27.178  30.216  1.00  0.00     0.031 C 
ATOM     43  C   UNL A   1      44.714  31.294  31.661  1.00  0.00     0.029 A 
ATOM     44  N   UNL A   1      45.703  29.960  30.165  1.00  0.00    -0.354 N 
ATOM     45  C   UNL A   1      43.802  26.298  28.850  1.00  0.00     0.074 A 
ATOM     46  C   UNL A   1      42.511  26.126  29.478  1.00  0.00     0.031 C 
ATOM     47  C   UNL A   1      45.896  31.848  31.347  1.00  0.00     0.029 A 
ATOM     48  C   UNL A   1      46.594  30.980  30.404  1.00  0.00     0.049 A 
ATOM     49  H   UNL A   1      45.880  29.227  29.531  1.00  0.00     0.167 HD
ATOM     50  C   UNL A   1      44.331  25.439  27.948  1.00  0.00     0.031 A 
ATOM     51  C   UNL A   1      47.840  31.182  29.932  1.00  0.00     0.031 A 
ATOM     52  C   UNL A   1      45.617  25.618  27.328  1.00  0.00     0.049 A 
ATOM     53  C   UNL A   1      48.432  30.181  28.976  1.00  0.00     0.074 A 
ATOM     54  C   UNL A   1      46.229  24.823  26.376  1.00  0.00     0.029 A 
ATOM     55  N   UNL A   1      46.487  26.664  27.599  1.00  0.00    -0.354 N 
ATOM     56  N   UNL A   1      47.894  29.086  28.493  1.00  0.00    -0.248 NA
ATOM     57  C   UNL A   1      49.795  30.443  28.495  1.00  0.00     0.031 C 
ATOM     58  C   UNL A   1      47.497  25.351  26.119  1.00  0.00     0.029 A 
ATOM     59  C   UNL A   1      47.643  26.520  26.852  1.00  0.00     0.049 A 
ATOM     60  H   UNL A   1      46.310  27.399  28.229  1.00  0.00     0.167 HD
ATOM     61  C   UNL A   1      48.837  28.554  27.620  1.00  0.00     0.074 A 
ATOM     62  C   UNL A   1      49.976  29.446  27.638  1.00  0.00     0.031 C 
ATOM     63  C   UNL A   1      48.762  27.429  26.867  1.00  0.00     0.031 A 
BRANCH  50  64
ATOM     64  C   UNL A   1      43.523  24.219  27.586  1.00  0.00    -0.014 A 
ATOM     65  C   UNL A   1      42.758  24.179  26.407  1.00  0.00     0.010 A 
ATOM     66  C   UNL A   1      43.565  23.081  28.413  1.00  0.00     0.010 A 
ATOM     67  C   UNL A   1      42.016  23.040  26.083  1.00  0.00     0.020 A 
ATOM     68  C   UNL A   1      42.852  21.928  28.074  1.00  0.00     0.020 A 
ATOM     69  C   UNL A   1      42.067  21.922  26.919  1.00  0.00     0.054 A 
BRANCH  69  70
ATOM     70  S   UNL A   1      41.114  20.451  26.457  1.00  0.00     0.124 S 
ATOM     71  O   UNL A   1      40.943  19.786  27.747  1.00  0.00    -0.237 OA
ATOM     72  O   UNL A   1      39.901  21.026  25.883  1.00  0.00    -0.237 OA
ATOM     73  O   UNL A   1      41.981  19.756  25.510  1.00  0.00    -0.744 OA
ENDBRANCH  69  70
ENDBRANCH  50  64
BRANCH  51  74
ATOM     74  C   UNL A   1      48.616  32.381  30.356  1.00  0.00    -0.014 A 
ATOM     75  C   UNL A   1      48.474  33.602  29.673  1.00  0.00     0.010 A 
ATOM     76  C   UNL A   1      49.506  32.309  31.445  1.00  0.00     0.010 A 
ATOM     77  C   UNL A   1      49.226  34.719  30.051  1.00  0.00     0.020 A 
ATOM     78  C   UNL A   1      50.234  33.433  31.848  1.00  0.00     0.020 A 
ATOM     79  C   UNL A   1      50.099  34.628  31.138  1.00  0.00     0.054 A 
BRANCH  79  80
ATOM     80  S   UNL A   1      51.039  36.099  31.630  1.00  0.00     0.124 S 
ATOM     81  O   UNL A   1      50.202  36.655  32.688  1.00  0.00    -0.237 OA
ATOM     82  O   UNL A   1      52.312  35.528  32.062  1.00  0.00    -0.237 OA
ATOM     83  O   UNL A   1      51.104  36.890  30.403  1.00  0.00    -0.744 OA
ENDBRANCH  79  80
ENDBRANCH  51  74
BRANCH  63  84
ATOM     84  C   UNL A   1      49.912  27.119  25.945  1.00  0.00    -0.014 A 
ATOM     85  C   UNL A   1      49.988  27.668  24.654  1.00  0.00     0.010 A 
ATOM     86  C   UNL A   1      50.986  26.346  26.427  1.00  0.00     0.010 A 
ATOM     87  C   UNL A   1      51.116  27.443  23.858  1.00  0.00     0.020 A 
ATOM     88  C   UNL A   1      52.128  26.145  25.648  1.00  0.00     0.020 A 
ATOM     89  C   UNL A   1      52.183  26.692  24.365  1.00  0.00     0.054 A 
BRANCH  89  90
ATOM     90  S   UNL A   1      53.669  26.494  23.346  1.00  0.00     0.124 S 
ATOM     91  O   UNL A   1      54.464  25.564  24.143  1.00  0.00    -0.237 OA
ATOM     92  O   UNL A   1      53.130  25.953  22.100  1.00  0.00    -0.237 OA
ATOM     93  O   UNL A   1      54.207  27.849  23.248  1.00  0.00    -0.744 OA
ENDBRANCH  89  90
ENDBRANCH  63  84
ENDBRANCH  37  38
ENDBRANCH  29  32
ENDBRANCH  27  28
ENDBRANCH  26  27
ENDBRANCH  25  26
ENDBRANCH  24  25
ENDBRANCH   1  24
TORSDOF 21
ENDMDL
