MODEL 1
REMARK VINA RESULT:     -12.7      0.000      0.000
REMARK SMILES Cc1cccc(O[C@H](C)C(=O)NNC(=O)[C@H]2[C@@H]3CC[C@@H](C3)[C@@H]2C(=O)NCCCCCCNC(=O)c2ccc(-c3c4nc(c(-c5ccc(S(=O)(=O)[O-])cc5)c5ccc([nH]5)c(-c5ccc(S(=O)(=O)[O-])cc5)c5nc(c(-c6ccc(S(=O)(=O)[O-])cc6)c6ccc3[nH]6)C=C5)C=C4)cc2)c1
REMARK SMILES IDX 27 1 26 2 25 3 23 4 24 5 22 7 16 8 17 9 18 10 21 11 20 12
REMARK SMILES IDX 19 13 14 14 13 15 15 17 12 18 10 19 11 20 8 22 9 23 7 24
REMARK SMILES IDX 6 25 1 26 2 27 3 28 95 29 4 30 5 31 28 32 29 33 30 34 31 35
REMARK SMILES IDX 32 36 33 37 34 39 35 40 36 41 94 42 37 43 93 44 38 45 39 46
REMARK SMILES IDX 40 47 87 48 41 49 92 50 86 51 88 52 42 53 91 54 85 55 84 56
REMARK SMILES IDX 43 58 73 59 54 60 72 61 55 62 58 63 71 64 89 65 56 66 57 67
REMARK SMILES IDX 70 69 90 70 59 71 44 72 45 73 53 74 46 75 52 76 47 77 48 78
REMARK SMILES IDX 49 79 50 80 51 81 74 82 75 83 83 84 76 85 82 86 77 87 78 88
REMARK SMILES IDX 79 89 80 90 81 91 60 92 61 93 69 94 62 95 68 96 63 97 64 98
REMARK SMILES IDX 65 99 66 100 67 101
REMARK H PARENT 25 6 13 16 12 21 32 38 88 57 58 68
REMARK Flexibility Score: inf
ROOT
ATOM      1  C   UNL A   1      33.629  23.191  26.924  1.00  0.00     0.021 C 
ENDROOT
BRANCH   1   2
ATOM      2  C   UNL A   1      33.114  24.542  26.426  1.00  0.00     0.116 C 
BRANCH   2   3
ATOM      3  N   UNL A   1      31.697  24.733  26.687  1.00  0.00    -0.356 N 
ATOM      4  C   UNL A   1      30.738  25.293  25.892  1.00  0.00     0.224 C 
ATOM      5  O   UNL A   1      29.577  25.340  26.293  1.00  0.00    -0.275 OA
ATOM      6  H   UNL A   1      31.383  24.412  27.564  1.00  0.00     0.163 HD
BRANCH   4   7
ATOM      7  C   UNL A   1      31.164  25.813  24.529  1.00  0.00     0.094 C 
ATOM      8  C   UNL A   1      31.715  27.246  24.526  1.00  0.00     0.096 C 
ATOM      9  C   UNL A   1      30.901  27.943  23.407  1.00  0.00     0.002 C 
ATOM     10  C   UNL A   1      29.488  28.223  23.964  1.00  0.00     0.005 C 
ATOM     11  C   UNL A   1      30.580  26.818  22.425  1.00  0.00     0.009 C 
ATOM     12  C   UNL A   1      29.997  25.906  23.510  1.00  0.00     0.002 C 
ATOM     13  C   UNL A   1      28.867  26.816  24.040  1.00  0.00     0.005 C 
BRANCH   8  14
ATOM     14  C   UNL A   1      33.228  27.435  24.422  1.00  0.00     0.242 C 
ATOM     15  N   UNL A   1      34.010  27.038  23.375  1.00  0.00    -0.267 N 
ATOM     16  H   UNL A   1      34.981  27.072  23.536  1.00  0.00     0.191 HD
ATOM     17  O   UNL A   1      33.805  28.024  25.347  1.00  0.00    -0.273 OA
BRANCH  15  18
ATOM     18  N   UNL A   1      33.635  26.598  22.132  1.00  0.00    -0.264 N 
ATOM     19  C   UNL A   1      33.336  25.340  21.713  1.00  0.00     0.279 C 
ATOM     20  O   UNL A   1      32.960  25.273  20.530  1.00  0.00    -0.269 OA
ATOM     21  H   UNL A   1      33.572  27.297  21.441  1.00  0.00     0.191 HD
BRANCH  19  22
ATOM     22  C   UNL A   1      33.495  24.030  22.533  1.00  0.00     0.260 C 
ATOM     23  C   UNL A   1      34.829  24.021  23.289  1.00  0.00     0.064 C 
BRANCH  22  24
ATOM     24  O   UNL A   1      32.459  23.278  23.122  1.00  0.00    -0.481 OA
BRANCH  24  25
ATOM     25  C   UNL A   1      32.306  21.934  23.067  1.00  0.00     0.120 A 
ATOM     26  C   UNL A   1      33.028  19.231  25.662  1.00  0.00     0.044 C 
ATOM     27  C   UNL A   1      32.638  19.901  24.377  1.00  0.00    -0.047 A 
ATOM     28  C   UNL A   1      32.331  19.139  23.248  1.00  0.00     0.003 A 
ATOM     29  C   UNL A   1      32.611  21.296  24.276  1.00  0.00     0.049 A 
ATOM     30  C   UNL A   1      31.985  19.765  22.053  1.00  0.00     0.004 A 
ATOM     31  C   UNL A   1      31.961  21.161  21.964  1.00  0.00     0.046 A 
ENDBRANCH  24  25
ENDBRANCH  22  24
ENDBRANCH  19  22
ENDBRANCH  15  18
ENDBRANCH   8  14
ENDBRANCH   4   7
ENDBRANCH   2   3
ENDBRANCH   1   2
BRANCH   1  32
ATOM     32  C   UNL A   1      35.153  23.025  26.914  1.00  0.00     0.002 C 
BRANCH  32  33
ATOM     33  C   UNL A   1      35.704  21.833  26.119  1.00  0.00     0.002 C 
BRANCH  33  34
ATOM     34  C   UNL A   1      37.116  21.993  25.551  1.00  0.00     0.021 C 
BRANCH  34  35
ATOM     35  C   UNL A   1      37.860  23.207  26.093  1.00  0.00     0.116 C 
BRANCH  35  36
ATOM     36  N   UNL A   1      39.089  22.838  26.781  1.00  0.00    -0.352 N 
ATOM     37  C   UNL A   1      40.038  23.684  27.325  1.00  0.00     0.251 C 
ATOM     38  H   UNL A   1      39.265  21.874  26.871  1.00  0.00     0.163 HD
ATOM     39  O   UNL A   1      41.143  23.306  27.669  1.00  0.00    -0.269 OA
BRANCH  37  40
ATOM     40  C   UNL A   1      39.593  25.062  27.606  1.00  0.00     0.039 A 
ATOM     41  C   UNL A   1      40.118  26.074  26.793  1.00  0.00     0.014 A 
ATOM     42  C   UNL A   1      38.935  25.353  28.796  1.00  0.00     0.014 A 
ATOM     43  C   UNL A   1      40.127  27.385  27.258  1.00  0.00     0.010 A 
ATOM     44  C   UNL A   1      39.024  26.640  29.294  1.00  0.00     0.010 A 
ATOM     45  C   UNL A   1      39.661  27.644  28.547  1.00  0.00    -0.014 A 
BRANCH  45  46
ATOM     46  C   UNL A   1      39.874  28.912  29.236  1.00  0.00     0.031 A 
ATOM     47  C   UNL A   1      38.865  29.992  29.131  1.00  0.00     0.074 A 
ATOM     48  C   UNL A   1      40.946  29.078  30.042  1.00  0.00     0.049 A 
ATOM     49  N   UNL A   1      39.097  31.242  29.368  1.00  0.00    -0.248 NA
ATOM     50  C   UNL A   1      37.502  29.739  28.678  1.00  0.00     0.031 C 
ATOM     51  C   UNL A   1      41.130  30.125  31.043  1.00  0.00     0.029 A 
ATOM     52  N   UNL A   1      42.198  28.461  29.967  1.00  0.00    -0.354 N 
ATOM     53  C   UNL A   1      37.879  31.886  29.411  1.00  0.00     0.074 A 
ATOM     54  C   UNL A   1      36.934  30.931  28.881  1.00  0.00     0.031 C 
ATOM     55  C   UNL A   1      42.445  30.286  31.256  1.00  0.00     0.029 A 
ATOM     56  C   UNL A   1      43.141  29.450  30.294  1.00  0.00     0.049 A 
ATOM     57  H   UNL A   1      42.381  27.522  29.734  1.00  0.00     0.167 HD
ATOM     58  C   UNL A   1      37.771  33.095  30.033  1.00  0.00     0.031 A 
ATOM     59  C   UNL A   1      44.139  29.869  29.463  1.00  0.00     0.031 A 
ATOM     60  C   UNL A   1      39.074  33.612  30.450  1.00  0.00     0.049 A 
ATOM     61  C   UNL A   1      44.103  31.360  29.195  1.00  0.00     0.074 A 
ATOM     62  C   UNL A   1      39.733  33.646  31.668  1.00  0.00     0.029 A 
ATOM     63  N   UNL A   1      40.014  33.949  29.483  1.00  0.00    -0.354 N 
ATOM     64  N   UNL A   1      43.081  32.120  29.474  1.00  0.00    -0.248 NA
ATOM     65  C   UNL A   1      45.185  32.101  28.550  1.00  0.00     0.031 C 
ATOM     66  C   UNL A   1      41.102  33.923  31.417  1.00  0.00     0.029 A 
ATOM     67  C   UNL A   1      41.266  34.085  30.053  1.00  0.00     0.049 A 
ATOM     68  H   UNL A   1      39.815  34.072  28.527  1.00  0.00     0.167 HD
ATOM     69  C   UNL A   1      43.335  33.404  29.067  1.00  0.00     0.074 A 
ATOM     70  C   UNL A   1      44.672  33.344  28.504  1.00  0.00     0.031 C 
ATOM     71  C   UNL A   1      42.417  34.403  29.220  1.00  0.00     0.031 A 
BRANCH  58  72
ATOM     72  C   UNL A   1      36.451  33.651  30.535  1.00  0.00    -0.014 A 
ATOM     73  C   UNL A   1      35.496  34.125  29.611  1.00  0.00     0.010 A 
ATOM     74  C   UNL A   1      36.120  33.806  31.894  1.00  0.00     0.010 A 
ATOM     75  C   UNL A   1      34.346  34.822  30.016  1.00  0.00     0.020 A 
ATOM     76  C   UNL A   1      34.996  34.533  32.315  1.00  0.00     0.020 A 
ATOM     77  C   UNL A   1      34.121  35.053  31.369  1.00  0.00     0.054 A 
BRANCH  77  78
ATOM     78  S   UNL A   1      32.693  36.047  31.876  1.00  0.00     0.124 S 
ATOM     79  O   UNL A   1      33.289  37.009  32.799  1.00  0.00    -0.237 OA
ATOM     80  O   UNL A   1      32.226  36.596  30.607  1.00  0.00    -0.237 OA
ATOM     81  O   UNL A   1      31.797  35.074  32.499  1.00  0.00    -0.744 OA
ENDBRANCH  77  78
ENDBRANCH  58  72
BRANCH  59  82
ATOM     82  C   UNL A   1      44.618  28.837  28.505  1.00  0.00    -0.014 A 
ATOM     83  C   UNL A   1      44.007  28.805  27.233  1.00  0.00     0.010 A 
ATOM     84  C   UNL A   1      45.888  28.253  28.665  1.00  0.00     0.010 A 
ATOM     85  C   UNL A   1      44.721  28.372  26.114  1.00  0.00     0.020 A 
ATOM     86  C   UNL A   1      46.603  27.813  27.543  1.00  0.00     0.020 A 
ATOM     87  C   UNL A   1      46.039  27.945  26.269  1.00  0.00     0.054 A 
BRANCH  87  88
ATOM     88  S   UNL A   1      47.058  27.757  24.774  1.00  0.00     0.124 S 
ATOM     89  O   UNL A   1      48.403  28.013  25.277  1.00  0.00    -0.237 OA
ATOM     90  O   UNL A   1      46.782  26.373  24.391  1.00  0.00    -0.237 OA
ATOM     91  O   UNL A   1      46.519  28.770  23.872  1.00  0.00    -0.744 OA
ENDBRANCH  87  88
ENDBRANCH  59  82
BRANCH  71  92
ATOM     92  C   UNL A   1      42.532  35.801  28.668  1.00  0.00    -0.014 A 
ATOM     93  C   UNL A   1      41.960  36.219  27.457  1.00  0.00     0.010 A 
ATOM     94  C   UNL A   1      43.136  36.799  29.473  1.00  0.00     0.010 A 
ATOM     95  C   UNL A   1      42.033  37.558  27.043  1.00  0.00     0.020 A 
ATOM     96  C   UNL A   1      43.179  38.141  29.089  1.00  0.00     0.020 A 
ATOM     97  C   UNL A   1      42.644  38.510  27.860  1.00  0.00     0.054 A 
BRANCH  97  98
ATOM     98  S   UNL A   1      42.668  40.251  27.359  1.00  0.00     0.124 S 
ATOM     99  O   UNL A   1      43.413  40.193  26.104  1.00  0.00    -0.237 OA
ATOM    100  O   UNL A   1      41.250  40.578  27.230  1.00  0.00    -0.237 OA
ATOM    101  O   UNL A   1      43.354  40.913  28.466  1.00  0.00    -0.744 OA
ENDBRANCH  97  98
ENDBRANCH  71  92
ENDBRANCH  45  46
ENDBRANCH  37  40
ENDBRANCH  35  36
ENDBRANCH  34  35
ENDBRANCH  33  34
ENDBRANCH  32  33
ENDBRANCH   1  32
TORSDOF 21
ENDMDL
MODEL 2
REMARK VINA RESULT:     -12.6      1.193      3.648
REMARK SMILES Cc1cccc(O[C@H](C)C(=O)NNC(=O)[C@H]2[C@@H]3CC[C@@H](C3)[C@@H]2C(=O)NCCCCCCNC(=O)c2ccc(-c3c4nc(c(-c5ccc(S(=O)(=O)[O-])cc5)c5ccc([nH]5)c(-c5ccc(S(=O)(=O)[O-])cc5)c5nc(c(-c6ccc(S(=O)(=O)[O-])cc6)c6ccc3[nH]6)C=C5)C=C4)cc2)c1
REMARK SMILES IDX 27 1 26 2 25 3 23 4 24 5 22 7 16 8 17 9 18 10 21 11 20 12
REMARK SMILES IDX 19 13 14 14 13 15 15 17 12 18 10 19 11 20 8 22 9 23 7 24
REMARK SMILES IDX 6 25 1 26 2 27 3 28 95 29 4 30 5 31 28 32 29 33 30 34 31 35
REMARK SMILES IDX 32 36 33 37 34 39 35 40 36 41 94 42 37 43 93 44 38 45 39 46
REMARK SMILES IDX 40 47 87 48 41 49 92 50 86 51 88 52 42 53 91 54 85 55 84 56
REMARK SMILES IDX 43 58 73 59 54 60 72 61 55 62 58 63 71 64 89 65 56 66 57 67
REMARK SMILES IDX 70 69 90 70 59 71 44 72 45 73 53 74 46 75 52 76 47 77 48 78
REMARK SMILES IDX 49 79 50 80 51 81 74 82 75 83 83 84 76 85 82 86 77 87 78 88
REMARK SMILES IDX 79 89 80 90 81 91 60 92 61 93 69 94 62 95 68 96 63 97 64 98
REMARK SMILES IDX 65 99 66 100 67 101
REMARK H PARENT 25 6 13 16 12 21 32 38 88 57 58 68
REMARK Flexibility Score: inf
ROOT
ATOM      1  C   UNL A   1      33.860  22.521  27.680  1.00  0.00     0.021 C 
ENDROOT
BRANCH   1   2
ATOM      2  C   UNL A   1      32.909  21.728  26.783  1.00  0.00     0.116 C 
BRANCH   2   3
ATOM      3  N   UNL A   1      31.780  22.520  26.326  1.00  0.00    -0.356 N 
ATOM      4  C   UNL A   1      31.688  23.357  25.249  1.00  0.00     0.224 C 
ATOM      5  O   UNL A   1      30.624  23.925  25.018  1.00  0.00    -0.275 OA
ATOM      6  H   UNL A   1      30.962  22.443  26.869  1.00  0.00     0.163 HD
BRANCH   4   7
ATOM      7  C   UNL A   1      32.922  23.523  24.376  1.00  0.00     0.094 C 
ATOM      8  C   UNL A   1      32.699  24.326  23.086  1.00  0.00     0.096 C 
ATOM      9  C   UNL A   1      33.292  23.411  21.985  1.00  0.00     0.002 C 
ATOM     10  C   UNL A   1      32.286  22.265  21.739  1.00  0.00     0.005 C 
ATOM     11  C   UNL A   1      34.401  22.641  22.700  1.00  0.00     0.009 C 
ATOM     12  C   UNL A   1      33.482  22.180  23.836  1.00  0.00     0.002 C 
ATOM     13  C   UNL A   1      32.414  21.419  23.020  1.00  0.00     0.005 C 
BRANCH   8  14
ATOM     14  C   UNL A   1      33.193  25.772  23.045  1.00  0.00     0.242 C 
ATOM     15  N   UNL A   1      33.045  26.694  24.040  1.00  0.00    -0.267 N 
ATOM     16  H   UNL A   1      33.259  27.622  23.793  1.00  0.00     0.191 HD
ATOM     17  O   UNL A   1      33.810  26.145  22.037  1.00  0.00    -0.273 OA
BRANCH  15  18
ATOM     18  N   UNL A   1      32.639  26.510  25.337  1.00  0.00    -0.264 N 
ATOM     19  C   UNL A   1      32.027  27.379  26.184  1.00  0.00     0.279 C 
ATOM     20  O   UNL A   1      31.721  26.888  27.285  1.00  0.00    -0.269 OA
ATOM     21  H   UNL A   1      32.816  25.615  25.709  1.00  0.00     0.191 HD
BRANCH  19  22
ATOM     22  C   UNL A   1      31.763  28.888  25.928  1.00  0.00     0.260 C 
ATOM     23  C   UNL A   1      32.533  29.753  26.935  1.00  0.00     0.064 C 
BRANCH  22  24
ATOM     24  O   UNL A   1      31.499  29.495  24.684  1.00  0.00    -0.481 OA
BRANCH  24  25
ATOM     25  C   UNL A   1      30.355  29.400  23.967  1.00  0.00     0.120 A 
ATOM     26  C   UNL A   1      27.700  32.014  23.144  1.00  0.00     0.044 C 
ATOM     27  C   UNL A   1      28.428  30.705  23.230  1.00  0.00    -0.047 A 
ATOM     28  C   UNL A   1      27.836  29.535  22.748  1.00  0.00     0.003 A 
ATOM     29  C   UNL A   1      29.690  30.625  23.827  1.00  0.00     0.049 A 
ATOM     30  C   UNL A   1      28.509  28.319  22.844  1.00  0.00     0.004 A 
ATOM     31  C   UNL A   1      29.772  28.252  23.443  1.00  0.00     0.046 A 
ENDBRANCH  24  25
ENDBRANCH  22  24
ENDBRANCH  19  22
ENDBRANCH  15  18
ENDBRANCH   8  14
ENDBRANCH   4   7
ENDBRANCH   2   3
ENDBRANCH   1   2
BRANCH   1  32
ATOM     32  C   UNL A   1      35.209  22.884  27.047  1.00  0.00     0.002 C 
BRANCH  32  33
ATOM     33  C   UNL A   1      35.816  21.846  26.093  1.00  0.00     0.002 C 
BRANCH  33  34
ATOM     34  C   UNL A   1      37.150  22.222  25.444  1.00  0.00     0.021 C 
BRANCH  34  35
ATOM     35  C   UNL A   1      37.855  23.387  26.126  1.00  0.00     0.116 C 
BRANCH  35  36
ATOM     36  N   UNL A   1      39.046  22.963  26.851  1.00  0.00    -0.352 N 
ATOM     37  C   UNL A   1      39.981  23.764  27.479  1.00  0.00     0.251 C 
ATOM     38  H   UNL A   1      39.202  21.993  26.900  1.00  0.00     0.163 HD
ATOM     39  O   UNL A   1      41.063  23.350  27.854  1.00  0.00    -0.269 OA
BRANCH  37  40
ATOM     40  C   UNL A   1      39.544  25.134  27.808  1.00  0.00     0.039 A 
ATOM     41  C   UNL A   1      39.990  26.159  26.966  1.00  0.00     0.014 A 
ATOM     42  C   UNL A   1      38.981  25.407  29.051  1.00  0.00     0.014 A 
ATOM     43  C   UNL A   1      40.022  27.466  27.441  1.00  0.00     0.010 A 
ATOM     44  C   UNL A   1      39.096  26.690  29.552  1.00  0.00     0.010 A 
ATOM     45  C   UNL A   1      39.659  27.708  28.765  1.00  0.00    -0.014 A 
BRANCH  45  46
ATOM     46  C   UNL A   1      39.913  28.973  29.447  1.00  0.00     0.031 A 
ATOM     47  C   UNL A   1      38.919  30.070  29.370  1.00  0.00     0.074 A 
ATOM     48  C   UNL A   1      41.010  29.121  30.222  1.00  0.00     0.049 A 
ATOM     49  N   UNL A   1      39.178  31.315  29.599  1.00  0.00    -0.248 NA
ATOM     50  C   UNL A   1      37.540  29.839  28.957  1.00  0.00     0.031 C 
ATOM     51  C   UNL A   1      41.240  30.165  31.217  1.00  0.00     0.029 A 
ATOM     52  N   UNL A   1      42.249  28.483  30.112  1.00  0.00    -0.354 N 
ATOM     53  C   UNL A   1      37.974  31.979  29.677  1.00  0.00     0.074 A 
ATOM     54  C   UNL A   1      36.997  31.040  29.174  1.00  0.00     0.031 C 
ATOM     55  C   UNL A   1      42.563  30.305  31.392  1.00  0.00     0.029 A 
ATOM     56  C   UNL A   1      43.217  29.457  30.411  1.00  0.00     0.049 A 
ATOM     57  H   UNL A   1      42.410  27.541  29.875  1.00  0.00     0.167 HD
ATOM     58  C   UNL A   1      37.904  33.191  30.300  1.00  0.00     0.031 A 
ATOM     59  C   UNL A   1      44.198  29.859  29.551  1.00  0.00     0.031 A 
ATOM     60  C   UNL A   1      39.226  33.686  30.680  1.00  0.00     0.049 A 
ATOM     61  C   UNL A   1      44.179  31.350  29.283  1.00  0.00     0.074 A 
ATOM     62  C   UNL A   1      39.920  33.709  31.878  1.00  0.00     0.029 A 
ATOM     63  N   UNL A   1      40.143  34.006  29.686  1.00  0.00    -0.354 N 
ATOM     64  N   UNL A   1      43.179  32.127  29.590  1.00  0.00    -0.248 NA
ATOM     65  C   UNL A   1      45.254  32.073  28.607  1.00  0.00     0.031 C 
ATOM     66  C   UNL A   1      41.286  33.963  31.588  1.00  0.00     0.029 A 
ATOM     67  C   UNL A   1      41.413  34.122  30.220  1.00  0.00     0.049 A 
ATOM     68  H   UNL A   1      39.920  34.133  28.736  1.00  0.00     0.167 HD
ATOM     69  C   UNL A   1      43.442  33.406  29.175  1.00  0.00     0.074 A 
ATOM     70  C   UNL A   1      44.761  33.324  28.575  1.00  0.00     0.031 C 
ATOM     71  C   UNL A   1      42.546  34.420  29.354  1.00  0.00     0.031 A 
BRANCH  58  72
ATOM     72  C   UNL A   1      36.608  33.768  30.840  1.00  0.00    -0.014 A 
ATOM     73  C   UNL A   1      35.522  33.986  29.965  1.00  0.00     0.010 A 
ATOM     74  C   UNL A   1      36.418  34.189  32.169  1.00  0.00     0.010 A 
ATOM     75  C   UNL A   1      34.373  34.689  30.360  1.00  0.00     0.020 A 
ATOM     76  C   UNL A   1      35.294  34.927  32.570  1.00  0.00     0.020 A 
ATOM     77  C   UNL A   1      34.282  35.189  31.655  1.00  0.00     0.054 A 
BRANCH  77  78
ATOM     78  S   UNL A   1      32.845  36.189  32.124  1.00  0.00     0.124 S 
ATOM     79  O   UNL A   1      32.664  37.048  30.956  1.00  0.00    -0.237 OA
ATOM     80  O   UNL A   1      31.812  35.177  32.330  1.00  0.00    -0.237 OA
ATOM     81  O   UNL A   1      33.285  36.882  33.334  1.00  0.00    -0.744 OA
ENDBRANCH  77  78
ENDBRANCH  58  72
BRANCH  59  82
ATOM     82  C   UNL A   1      44.632  28.818  28.581  1.00  0.00    -0.014 A 
ATOM     83  C   UNL A   1      44.323  29.036  27.221  1.00  0.00     0.010 A 
ATOM     84  C   UNL A   1      45.672  27.930  28.909  1.00  0.00     0.010 A 
ATOM     85  C   UNL A   1      45.149  28.531  26.215  1.00  0.00     0.020 A 
ATOM     86  C   UNL A   1      46.500  27.417  27.900  1.00  0.00     0.020 A 
ATOM     87  C   UNL A   1      46.272  27.782  26.568  1.00  0.00     0.054 A 
BRANCH  87  88
ATOM     88  S   UNL A   1      47.524  27.467  25.288  1.00  0.00     0.124 S 
ATOM     89  O   UNL A   1      48.115  26.208  25.729  1.00  0.00    -0.237 OA
ATOM     90  O   UNL A   1      46.708  27.389  24.077  1.00  0.00    -0.237 OA
ATOM     91  O   UNL A   1      48.395  28.636  25.375  1.00  0.00    -0.744 OA
ENDBRANCH  87  88
ENDBRANCH  59  82
BRANCH  71  92
ATOM     92  C   UNL A   1      42.668  35.817  28.797  1.00  0.00    -0.014 A 
ATOM     93  C   UNL A   1      41.875  36.321  27.757  1.00  0.00     0.010 A 
ATOM     94  C   UNL A   1      43.538  36.729  29.444  1.00  0.00     0.010 A 
ATOM     95  C   UNL A   1      41.982  37.658  27.343  1.00  0.00     0.020 A 
ATOM     96  C   UNL A   1      43.625  38.071  29.068  1.00  0.00     0.020 A 
ATOM     97  C   UNL A   1      42.858  38.524  28.000  1.00  0.00     0.054 A 
BRANCH  97  98
ATOM     98  S   UNL A   1      42.940  40.268  27.516  1.00  0.00     0.124 S 
ATOM     99  O   UNL A   1      41.834  40.369  26.568  1.00  0.00    -0.237 OA
ATOM    100  O   UNL A   1      42.744  40.972  28.783  1.00  0.00    -0.237 OA
ATOM    101  O   UNL A   1      44.275  40.399  26.940  1.00  0.00    -0.744 OA
ENDBRANCH  97  98
ENDBRANCH  71  92
ENDBRANCH  45  46
ENDBRANCH  37  40
ENDBRANCH  35  36
ENDBRANCH  34  35
ENDBRANCH  33  34
ENDBRANCH  32  33
ENDBRANCH   1  32
TORSDOF 21
ENDMDL
MODEL 3
REMARK VINA RESULT:     -12.6      2.022      3.985
REMARK SMILES Cc1cccc(O[C@H](C)C(=O)NNC(=O)[C@H]2[C@@H]3CC[C@@H](C3)[C@@H]2C(=O)NCCCCCCNC(=O)c2ccc(-c3c4nc(c(-c5ccc(S(=O)(=O)[O-])cc5)c5ccc([nH]5)c(-c5ccc(S(=O)(=O)[O-])cc5)c5nc(c(-c6ccc(S(=O)(=O)[O-])cc6)c6ccc3[nH]6)C=C5)C=C4)cc2)c1
REMARK SMILES IDX 27 1 26 2 25 3 23 4 24 5 22 7 16 8 17 9 18 10 21 11 20 12
REMARK SMILES IDX 19 13 14 14 13 15 15 17 12 18 10 19 11 20 8 22 9 23 7 24
REMARK SMILES IDX 6 25 1 26 2 27 3 28 95 29 4 30 5 31 28 32 29 33 30 34 31 35
REMARK SMILES IDX 32 36 33 37 34 39 35 40 36 41 94 42 37 43 93 44 38 45 39 46
REMARK SMILES IDX 40 47 87 48 41 49 92 50 86 51 88 52 42 53 91 54 85 55 84 56
REMARK SMILES IDX 43 58 73 59 54 60 72 61 55 62 58 63 71 64 89 65 56 66 57 67
REMARK SMILES IDX 70 69 90 70 59 71 44 72 45 73 53 74 46 75 52 76 47 77 48 78
REMARK SMILES IDX 49 79 50 80 51 81 74 82 75 83 83 84 76 85 82 86 77 87 78 88
REMARK SMILES IDX 79 89 80 90 81 91 60 92 61 93 69 94 62 95 68 96 63 97 64 98
REMARK SMILES IDX 65 99 66 100 67 101
REMARK H PARENT 25 6 13 16 12 21 32 38 88 57 58 68
REMARK Flexibility Score: inf
ROOT
ATOM      1  C   UNL A   1      34.335  22.457  27.658  1.00  0.00     0.021 C 
ENDROOT
BRANCH   1   2
ATOM      2  C   UNL A   1      32.893  22.303  27.175  1.00  0.00     0.116 C 
BRANCH   2   3
ATOM      3  N   UNL A   1      32.123  23.529  27.310  1.00  0.00    -0.356 N 
ATOM      4  C   UNL A   1      31.954  24.548  26.416  1.00  0.00     0.224 C 
ATOM      5  O   UNL A   1      31.236  25.499  26.717  1.00  0.00    -0.275 OA
ATOM      6  H   UNL A   1      31.657  23.641  28.170  1.00  0.00     0.163 HD
BRANCH   4   7
ATOM      7  C   UNL A   1      32.657  24.435  25.073  1.00  0.00     0.094 C 
ATOM      8  C   UNL A   1      32.489  25.650  24.150  1.00  0.00     0.096 C 
ATOM      9  C   UNL A   1      32.023  25.024  22.811  1.00  0.00     0.002 C 
ATOM     10  C   UNL A   1      30.538  24.631  22.973  1.00  0.00     0.005 C 
ATOM     11  C   UNL A   1      32.665  23.639  22.805  1.00  0.00     0.009 C 
ATOM     12  C   UNL A   1      32.122  23.274  24.191  1.00  0.00     0.002 C 
ATOM     13  C   UNL A   1      30.607  23.426  23.930  1.00  0.00     0.005 C 
BRANCH   8  14
ATOM     14  C   UNL A   1      33.661  26.623  24.022  1.00  0.00     0.242 C 
ATOM     15  N   UNL A   1      34.021  27.563  24.944  1.00  0.00    -0.267 N 
ATOM     16  H   UNL A   1      34.683  28.224  24.637  1.00  0.00     0.191 HD
ATOM     17  O   UNL A   1      34.374  26.542  23.011  1.00  0.00    -0.273 OA
BRANCH  15  18
ATOM     18  N   UNL A   1      33.589  27.719  26.236  1.00  0.00    -0.264 N 
ATOM     19  C   UNL A   1      32.582  28.490  26.725  1.00  0.00     0.279 C 
ATOM     20  O   UNL A   1      32.390  28.362  27.947  1.00  0.00    -0.269 OA
ATOM     21  H   UNL A   1      34.080  27.193  26.908  1.00  0.00     0.191 HD
BRANCH  19  22
ATOM     22  C   UNL A   1      31.744  29.529  25.931  1.00  0.00     0.260 C 
ATOM     23  C   UNL A   1      31.792  30.902  26.615  1.00  0.00     0.064 C 
BRANCH  22  24
ATOM     24  O   UNL A   1      31.537  29.553  24.538  1.00  0.00    -0.481 OA
BRANCH  24  25
ATOM     25  C   UNL A   1      30.361  29.370  23.894  1.00  0.00     0.120 A 
ATOM     26  C   UNL A   1      27.514  31.802  23.156  1.00  0.00     0.044 C 
ATOM     27  C   UNL A   1      28.321  30.539  23.237  1.00  0.00    -0.047 A 
ATOM     28  C   UNL A   1      27.771  29.323  22.826  1.00  0.00     0.003 A 
ATOM     29  C   UNL A   1      29.618  30.550  23.758  1.00  0.00     0.049 A 
ATOM     30  C   UNL A   1      28.518  28.150  22.916  1.00  0.00     0.004 A 
ATOM     31  C   UNL A   1      29.816  28.174  23.439  1.00  0.00     0.046 A 
ENDBRANCH  24  25
ENDBRANCH  22  24
ENDBRANCH  19  22
ENDBRANCH  15  18
ENDBRANCH   8  14
ENDBRANCH   4   7
ENDBRANCH   2   3
ENDBRANCH   1   2
BRANCH   1  32
ATOM     32  C   UNL A   1      35.386  22.605  26.550  1.00  0.00     0.002 C 
BRANCH  32  33
ATOM     33  C   UNL A   1      35.692  21.346  25.728  1.00  0.00     0.002 C 
BRANCH  33  34
ATOM     34  C   UNL A   1      36.738  21.498  24.621  1.00  0.00     0.021 C 
BRANCH  34  35
ATOM     35  C   UNL A   1      37.838  22.497  24.952  1.00  0.00     0.116 C 
BRANCH  35  36
ATOM     36  N   UNL A   1      38.912  21.898  25.733  1.00  0.00    -0.352 N 
ATOM     37  C   UNL A   1      39.913  22.549  26.429  1.00  0.00     0.251 C 
ATOM     38  H   UNL A   1      38.925  20.915  25.769  1.00  0.00     0.163 HD
ATOM     39  O   UNL A   1      40.901  21.978  26.855  1.00  0.00    -0.269 OA
BRANCH  37  40
ATOM     40  C   UNL A   1      39.657  23.962  26.763  1.00  0.00     0.039 A 
ATOM     41  C   UNL A   1      40.448  24.918  26.114  1.00  0.00     0.014 A 
ATOM     42  C   UNL A   1      38.889  24.288  27.876  1.00  0.00     0.014 A 
ATOM     43  C   UNL A   1      40.599  26.177  26.684  1.00  0.00     0.010 A 
ATOM     44  C   UNL A   1      39.110  25.508  28.487  1.00  0.00     0.010 A 
ATOM     45  C   UNL A   1      40.000  26.433  27.917  1.00  0.00    -0.014 A 
BRANCH  45  46
ATOM     46  C   UNL A   1      40.310  27.603  28.732  1.00  0.00     0.031 A 
ATOM     47  C   UNL A   1      39.404  28.775  28.724  1.00  0.00     0.074 A 
ATOM     48  C   UNL A   1      41.377  27.591  29.563  1.00  0.00     0.049 A 
ATOM     49  N   UNL A   1      39.741  29.969  29.087  1.00  0.00    -0.248 NA
ATOM     50  C   UNL A   1      38.033  28.692  28.232  1.00  0.00     0.031 C 
ATOM     51  C   UNL A   1      41.632  28.513  30.666  1.00  0.00     0.029 A 
ATOM     52  N   UNL A   1      42.570  26.873  29.441  1.00  0.00    -0.354 N 
ATOM     53  C   UNL A   1      38.585  30.713  29.180  1.00  0.00     0.074 A 
ATOM     54  C   UNL A   1      37.569  29.905  28.546  1.00  0.00     0.031 C 
ATOM     55  C   UNL A   1      42.952  28.533  30.909  1.00  0.00     0.029 A 
ATOM     56  C   UNL A   1      43.590  27.736  29.876  1.00  0.00     0.049 A 
ATOM     57  H   UNL A   1      42.674  25.949  29.118  1.00  0.00     0.167 HD
ATOM     58  C   UNL A   1      38.572  31.860  29.918  1.00  0.00     0.031 A 
ATOM     59  C   UNL A   1      44.639  28.142  29.102  1.00  0.00     0.031 A 
ATOM     60  C   UNL A   1      39.907  32.213  30.400  1.00  0.00     0.049 A 
ATOM     61  C   UNL A   1      44.741  29.649  28.984  1.00  0.00     0.074 A 
ATOM     62  C   UNL A   1      40.542  32.068  31.623  1.00  0.00     0.029 A 
ATOM     63  N   UNL A   1      40.893  32.557  29.482  1.00  0.00    -0.354 N 
ATOM     64  N   UNL A   1      43.785  30.469  29.325  1.00  0.00    -0.248 NA
ATOM     65  C   UNL A   1      45.897  30.350  28.429  1.00  0.00     0.031 C 
ATOM     66  C   UNL A   1      41.935  32.242  31.416  1.00  0.00     0.029 A 
ATOM     67  C   UNL A   1      42.140  32.523  30.077  1.00  0.00     0.049 A 
ATOM     68  H   UNL A   1      40.726  32.792  28.541  1.00  0.00     0.167 HD
ATOM     69  C   UNL A   1      44.160  31.757  29.052  1.00  0.00     0.074 A 
ATOM     70  C   UNL A   1      45.498  31.633  28.501  1.00  0.00     0.031 C 
ATOM     71  C   UNL A   1      43.332  32.815  29.293  1.00  0.00     0.031 A 
BRANCH  58  72
ATOM     72  C   UNL A   1      37.297  32.481  30.459  1.00  0.00    -0.014 A 
ATOM     73  C   UNL A   1      36.484  33.259  29.607  1.00  0.00     0.010 A 
ATOM     74  C   UNL A   1      36.883  32.404  31.801  1.00  0.00     0.010 A 
ATOM     75  C   UNL A   1      35.402  34.013  30.091  1.00  0.00     0.020 A 
ATOM     76  C   UNL A   1      35.829  33.181  32.308  1.00  0.00     0.020 A 
ATOM     77  C   UNL A   1      35.103  33.996  31.449  1.00  0.00     0.054 A 
BRANCH  77  78
ATOM     78  S   UNL A   1      33.775  35.056  32.081  1.00  0.00     0.124 S 
ATOM     79  O   UNL A   1      34.511  36.197  32.620  1.00  0.00    -0.237 OA
ATOM     80  O   UNL A   1      32.989  35.323  30.879  1.00  0.00    -0.237 OA
ATOM     81  O   UNL A   1      33.114  34.222  33.083  1.00  0.00    -0.744 OA
ENDBRANCH  77  78
ENDBRANCH  58  72
BRANCH  59  82
ATOM     82  C   UNL A   1      45.043  27.171  28.051  1.00  0.00    -0.014 A 
ATOM     83  C   UNL A   1      45.719  26.007  28.476  1.00  0.00     0.010 A 
ATOM     84  C   UNL A   1      44.400  27.167  26.801  1.00  0.00     0.010 A 
ATOM     85  C   UNL A   1      45.596  24.814  27.760  1.00  0.00     0.020 A 
ATOM     86  C   UNL A   1      44.279  25.971  26.079  1.00  0.00     0.020 A 
ATOM     87  C   UNL A   1      44.818  24.791  26.603  1.00  0.00     0.054 A 
BRANCH  87  88
ATOM     88  S   UNL A   1      44.362  23.171  25.913  1.00  0.00     0.124 S 
ATOM     89  O   UNL A   1      43.286  23.515  24.989  1.00  0.00    -0.237 OA
ATOM     90  O   UNL A   1      45.614  22.743  25.290  1.00  0.00    -0.237 OA
ATOM     91  O   UNL A   1      43.961  22.406  27.090  1.00  0.00    -0.744 OA
ENDBRANCH  87  88
ENDBRANCH  59  82
BRANCH  71  92
ATOM     92  C   UNL A   1      43.582  34.245  28.885  1.00  0.00    -0.014 A 
ATOM     93  C   UNL A   1      44.279  34.623  27.728  1.00  0.00     0.010 A 
ATOM     94  C   UNL A   1      42.967  35.280  29.632  1.00  0.00     0.010 A 
ATOM     95  C   UNL A   1      44.402  35.972  27.361  1.00  0.00     0.020 A 
ATOM     96  C   UNL A   1      43.050  36.622  29.256  1.00  0.00     0.020 A 
ATOM     97  C   UNL A   1      43.789  36.963  28.129  1.00  0.00     0.054 A 
BRANCH  97  98
ATOM     98  S   UNL A   1      43.884  38.697  27.612  1.00  0.00     0.124 S 
ATOM     99  O   UNL A   1      43.811  39.398  28.892  1.00  0.00    -0.237 OA
ATOM    100  O   UNL A   1      45.177  38.769  26.933  1.00  0.00    -0.237 OA
ATOM    101  O   UNL A   1      42.723  38.857  26.741  1.00  0.00    -0.744 OA
ENDBRANCH  97  98
ENDBRANCH  71  92
ENDBRANCH  45  46
ENDBRANCH  37  40
ENDBRANCH  35  36
ENDBRANCH  34  35
ENDBRANCH  33  34
ENDBRANCH  32  33
ENDBRANCH   1  32
TORSDOF 21
ENDMDL
