MODEL 1
REMARK VINA RESULT:     -10.8      0.000      0.000
REMARK SMILES Cc1cc(C)cc(S(=O)(=O)N2CSC[C@H]2C(=O)NCCCCCCNC(=O)c2ccc(-c3c4nc(c(-c5ccc(S(=O)(=O)[O-])cc5)c5ccc([nH]5)c(-c5ccc(S(=O)(=O)[O-])cc5)c5nc(c(-c6ccc(S(=O)(=O)[O-])cc6)c6ccc3[nH]6)C=C5)C=C4)cc2)c1
REMARK SMILES IDX 22 1 21 2 20 3 19 4 18 5 16 6 17 7 15 9 11 10 12 11 13 12
REMARK SMILES IDX 14 13 8 14 9 15 10 16 7 17 1 18 2 19 3 20 88 21 4 22 5 23
REMARK SMILES IDX 6 24 23 25 24 26 25 27 26 28 27 30 28 31 29 32 87 33 30 34
REMARK SMILES IDX 86 35 31 36 32 37 33 38 80 39 34 40 85 41 79 42 81 43 35 44
REMARK SMILES IDX 84 45 78 46 77 47 36 49 66 50 47 51 65 52 48 53 51 54 64 55
REMARK SMILES IDX 82 56 49 57 50 58 63 60 83 61 52 62 37 63 38 64 46 65 39 66
REMARK SMILES IDX 45 67 40 68 41 69 42 70 43 71 44 72 67 73 68 74 76 75 69 76
REMARK SMILES IDX 75 77 70 78 71 79 72 80 73 81 74 82 53 83 54 84 62 85 55 86
REMARK SMILES IDX 61 87 56 88 57 89 58 90 59 91 60 92
REMARK H PARENT 18 8 25 29 81 48 51 59
REMARK Flexibility Score: inf
ROOT
ATOM      1  C   UNL A   1      31.571  27.860  26.365  1.00  0.00     0.002 C 
ENDROOT
BRANCH   1   2
ATOM      2  C   UNL A   1      31.252  26.459  25.827  1.00  0.00     0.002 C 
BRANCH   2   3
ATOM      3  C   UNL A   1      31.172  26.345  24.306  1.00  0.00     0.021 C 
BRANCH   3   4
ATOM      4  C   UNL A   1      30.644  25.010  23.806  1.00  0.00     0.116 C 
BRANCH   4   5
ATOM      5  N   UNL A   1      31.521  24.368  22.854  1.00  0.00    -0.355 N 
ATOM      6  C   UNL A   1      32.707  23.718  23.053  1.00  0.00     0.239 C 
ATOM      7  O   UNL A   1      33.185  23.128  22.077  1.00  0.00    -0.273 OA
ATOM      8  H   UNL A   1      31.219  24.404  21.917  1.00  0.00     0.163 HD
BRANCH   6   9
ATOM      9  C   UNL A   1      33.410  23.666  24.417  1.00  0.00     0.173 C 
ATOM     10  N   UNL A   1      33.860  22.303  24.789  1.00  0.00    -0.175 NA
ATOM     11  C   UNL A   1      35.302  22.130  24.939  1.00  0.00     0.172 C 
ATOM     12  S   UNL A   1      36.075  23.769  24.959  1.00  0.00    -0.143 SA
ATOM     13  C   UNL A   1      34.554  24.669  24.542  1.00  0.00     0.101 C 
BRANCH  10  14
ATOM     14  S   UNL A   1      32.856  21.343  25.744  1.00  0.00     0.244 S 
ATOM     15  O   UNL A   1      31.542  21.956  25.712  1.00  0.00    -0.207 OA
ATOM     16  O   UNL A   1      33.533  21.077  26.991  1.00  0.00    -0.207 OA
BRANCH  14  17
ATOM     17  C   UNL A   1      32.689  19.769  24.911  1.00  0.00     0.083 A 
ATOM     18  C   UNL A   1      33.028  16.055  25.638  1.00  0.00     0.044 C 
ATOM     19  C   UNL A   1      32.802  17.341  24.898  1.00  0.00    -0.050 A 
ATOM     20  C   UNL A   1      32.592  17.349  23.519  1.00  0.00     0.007 A 
ATOM     21  C   UNL A   1      32.814  18.556  25.585  1.00  0.00     0.025 A 
ATOM     22  C   UNL A   1      32.420  18.559  22.827  1.00  0.00    -0.050 A 
ATOM     23  C   UNL A   1      32.173  18.528  21.348  1.00  0.00     0.044 C 
ATOM     24  C   UNL A   1      32.487  19.773  23.528  1.00  0.00     0.025 A 
ENDBRANCH  14  17
ENDBRANCH  10  14
ENDBRANCH   6   9
ENDBRANCH   4   5
ENDBRANCH   3   4
ENDBRANCH   2   3
ENDBRANCH   1   2
BRANCH   1  25
ATOM     25  C   UNL A   1      32.966  28.042  26.973  1.00  0.00     0.021 C 
BRANCH  25  26
ATOM     26  C   UNL A   1      33.881  29.009  26.226  1.00  0.00     0.116 C 
BRANCH  26  27
ATOM     27  N   UNL A   1      33.637  30.388  26.605  1.00  0.00    -0.352 N 
ATOM     28  C   UNL A   1      34.270  31.170  27.535  1.00  0.00     0.251 C 
ATOM     29  H   UNL A   1      32.904  30.831  26.119  1.00  0.00     0.163 HD
ATOM     30  O   UNL A   1      33.773  32.247  27.853  1.00  0.00    -0.269 OA
BRANCH  28  31
ATOM     31  C   UNL A   1      35.538  30.729  28.159  1.00  0.00     0.039 A 
ATOM     32  C   UNL A   1      35.491  29.718  29.122  1.00  0.00     0.014 A 
ATOM     33  C   UNL A   1      36.755  31.348  27.855  1.00  0.00     0.014 A 
ATOM     34  C   UNL A   1      36.663  29.313  29.765  1.00  0.00     0.010 A 
ATOM     35  C   UNL A   1      37.934  30.897  28.449  1.00  0.00     0.010 A 
ATOM     36  C   UNL A   1      37.896  29.892  29.426  1.00  0.00    -0.014 A 
BRANCH  36  37
ATOM     37  C   UNL A   1      39.142  29.477  30.118  1.00  0.00     0.031 A 
ATOM     38  C   UNL A   1      39.568  30.160  31.391  1.00  0.00     0.074 A 
ATOM     39  C   UNL A   1      39.908  28.508  29.583  1.00  0.00     0.049 A 
ATOM     40  N   UNL A   1      40.616  29.930  32.140  1.00  0.00    -0.248 NA
ATOM     41  C   UNL A   1      38.718  31.262  31.872  1.00  0.00     0.031 C 
ATOM     42  C   UNL A   1      39.633  27.807  28.327  1.00  0.00     0.029 A 
ATOM     43  N   UNL A   1      41.078  27.945  30.029  1.00  0.00    -0.354 N 
ATOM     44  C   UNL A   1      40.564  30.868  33.164  1.00  0.00     0.074 A 
ATOM     45  C   UNL A   1      39.407  31.701  32.916  1.00  0.00     0.031 C 
ATOM     46  C   UNL A   1      40.591  26.891  28.116  1.00  0.00     0.029 A 
ATOM     47  C   UNL A   1      41.561  26.955  29.206  1.00  0.00     0.049 A 
ATOM     48  H   UNL A   1      41.528  28.222  30.859  1.00  0.00     0.167 HD
ATOM     49  C   UNL A   1      41.393  31.014  34.226  1.00  0.00     0.031 A 
ATOM     50  C   UNL A   1      42.658  26.182  29.317  1.00  0.00     0.031 A 
ATOM     51  C   UNL A   1      42.532  30.172  34.480  1.00  0.00     0.049 A 
ATOM     52  C   UNL A   1      43.540  26.332  30.524  1.00  0.00     0.074 A 
ATOM     53  C   UNL A   1      43.392  30.191  35.564  1.00  0.00     0.029 A 
ATOM     54  N   UNL A   1      42.968  29.158  33.640  1.00  0.00    -0.354 N 
ATOM     55  N   UNL A   1      43.430  27.173  31.525  1.00  0.00    -0.248 NA
ATOM     56  C   UNL A   1      44.683  25.414  30.628  1.00  0.00     0.031 C 
ATOM     57  C   UNL A   1      44.377  29.218  35.356  1.00  0.00     0.029 A 
ATOM     58  C   UNL A   1      44.098  28.558  34.169  1.00  0.00     0.049 A 
ATOM     59  H   UNL A   1      42.538  28.904  32.791  1.00  0.00     0.167 HD
ATOM     60  C   UNL A   1      44.475  26.871  32.390  1.00  0.00     0.074 A 
ATOM     61  C   UNL A   1      45.196  25.759  31.801  1.00  0.00     0.031 C 
ATOM     62  C   UNL A   1      44.808  27.458  33.567  1.00  0.00     0.031 A 
BRANCH  49  63
ATOM     63  C   UNL A   1      41.098  32.136  35.189  1.00  0.00    -0.014 A 
ATOM     64  C   UNL A   1      40.245  31.945  36.291  1.00  0.00     0.010 A 
ATOM     65  C   UNL A   1      41.697  33.394  34.999  1.00  0.00     0.010 A 
ATOM     66  C   UNL A   1      39.956  33.005  37.155  1.00  0.00     0.020 A 
ATOM     67  C   UNL A   1      41.434  34.449  35.878  1.00  0.00     0.020 A 
ATOM     68  C   UNL A   1      40.548  34.253  36.939  1.00  0.00     0.054 A 
BRANCH  68  69
ATOM     69  S   UNL A   1      40.162  35.611  38.078  1.00  0.00     0.124 S 
ATOM     70  O   UNL A   1      38.993  35.088  38.781  1.00  0.00    -0.237 OA
ATOM     71  O   UNL A   1      41.380  35.717  38.878  1.00  0.00    -0.237 OA
ATOM     72  O   UNL A   1      39.901  36.743  37.192  1.00  0.00    -0.744 OA
ENDBRANCH  68  69
ENDBRANCH  49  63
BRANCH  50  73
ATOM     73  C   UNL A   1      42.957  25.173  28.265  1.00  0.00    -0.014 A 
ATOM     74  C   UNL A   1      43.767  25.503  27.165  1.00  0.00     0.010 A 
ATOM     75  C   UNL A   1      42.460  23.862  28.381  1.00  0.00     0.010 A 
ATOM     76  C   UNL A   1      44.067  24.545  26.193  1.00  0.00     0.020 A 
ATOM     77  C   UNL A   1      42.780  22.893  27.424  1.00  0.00     0.020 A 
ATOM     78  C   UNL A   1      43.575  23.244  26.332  1.00  0.00     0.054 A 
BRANCH  78  79
ATOM     79  S   UNL A   1      44.036  21.996  25.098  1.00  0.00     0.124 S 
ATOM     80  O   UNL A   1      45.398  21.657  25.502  1.00  0.00    -0.237 OA
ATOM     81  O   UNL A   1      43.034  20.955  25.310  1.00  0.00    -0.237 OA
ATOM     82  O   UNL A   1      43.918  22.712  23.830  1.00  0.00    -0.744 OA
ENDBRANCH  78  79
ENDBRANCH  50  73
BRANCH  62  83
ATOM     83  C   UNL A   1      45.988  26.892  34.309  1.00  0.00    -0.014 A 
ATOM     84  C   UNL A   1      45.835  25.846  35.236  1.00  0.00     0.010 A 
ATOM     85  C   UNL A   1      47.277  27.391  34.044  1.00  0.00     0.010 A 
ATOM     86  C   UNL A   1      46.944  25.338  35.917  1.00  0.00     0.020 A 
ATOM     87  C   UNL A   1      48.391  26.867  34.703  1.00  0.00     0.020 A 
ATOM     88  C   UNL A   1      48.216  25.856  35.650  1.00  0.00     0.054 A 
BRANCH  88  89
ATOM     89  S   UNL A   1      49.644  25.165  36.528  1.00  0.00     0.124 S 
ATOM     90  O   UNL A   1      50.644  26.215  36.353  1.00  0.00    -0.237 OA
ATOM     91  O   UNL A   1      49.139  24.998  37.887  1.00  0.00    -0.237 OA
ATOM     92  O   UNL A   1      49.918  23.919  35.814  1.00  0.00    -0.744 OA
ENDBRANCH  88  89
ENDBRANCH  62  83
ENDBRANCH  36  37
ENDBRANCH  28  31
ENDBRANCH  26  27
ENDBRANCH  25  26
ENDBRANCH   1  25
TORSDOF 18
ENDMDL
MODEL 2
REMARK VINA RESULT:     -10.8      3.520      9.791
REMARK SMILES Cc1cc(C)cc(S(=O)(=O)N2CSC[C@H]2C(=O)NCCCCCCNC(=O)c2ccc(-c3c4nc(c(-c5ccc(S(=O)(=O)[O-])cc5)c5ccc([nH]5)c(-c5ccc(S(=O)(=O)[O-])cc5)c5nc(c(-c6ccc(S(=O)(=O)[O-])cc6)c6ccc3[nH]6)C=C5)C=C4)cc2)c1
REMARK SMILES IDX 22 1 21 2 20 3 19 4 18 5 16 6 17 7 15 9 11 10 12 11 13 12
REMARK SMILES IDX 14 13 8 14 9 15 10 16 7 17 1 18 2 19 3 20 88 21 4 22 5 23
REMARK SMILES IDX 6 24 23 25 24 26 25 27 26 28 27 30 28 31 29 32 87 33 30 34
REMARK SMILES IDX 86 35 31 36 32 37 33 38 80 39 34 40 85 41 79 42 81 43 35 44
REMARK SMILES IDX 84 45 78 46 77 47 36 49 66 50 47 51 65 52 48 53 51 54 64 55
REMARK SMILES IDX 82 56 49 57 50 58 63 60 83 61 52 62 37 63 38 64 46 65 39 66
REMARK SMILES IDX 45 67 40 68 41 69 42 70 43 71 44 72 67 73 68 74 76 75 69 76
REMARK SMILES IDX 75 77 70 78 71 79 72 80 73 81 74 82 53 83 54 84 62 85 55 86
REMARK SMILES IDX 61 87 56 88 57 89 58 90 59 91 60 92
REMARK H PARENT 18 8 25 29 81 48 51 59
REMARK Flexibility Score: inf
ROOT
ATOM      1  C   UNL A   1      37.920  23.983  26.288  1.00  0.00     0.002 C 
ENDROOT
BRANCH   1   2
ATOM      2  C   UNL A   1      36.762  23.661  25.334  1.00  0.00     0.002 C 
BRANCH   2   3
ATOM      3  C   UNL A   1      35.371  23.676  25.965  1.00  0.00     0.021 C 
BRANCH   3   4
ATOM      4  C   UNL A   1      34.341  24.482  25.190  1.00  0.00     0.116 C 
BRANCH   4   5
ATOM      5  N   UNL A   1      33.208  24.882  25.992  1.00  0.00    -0.355 N 
ATOM      6  C   UNL A   1      32.597  26.099  26.104  1.00  0.00     0.239 C 
ATOM      7  O   UNL A   1      31.547  26.134  26.755  1.00  0.00    -0.273 OA
ATOM      8  H   UNL A   1      32.814  24.168  26.544  1.00  0.00     0.163 HD
BRANCH   6   9
ATOM      9  C   UNL A   1      33.138  27.368  25.427  1.00  0.00     0.173 C 
ATOM     10  N   UNL A   1      32.079  28.176  24.775  1.00  0.00    -0.175 NA
ATOM     11  C   UNL A   1      31.881  29.518  25.316  1.00  0.00     0.172 C 
ATOM     12  S   UNL A   1      33.266  29.899  26.420  1.00  0.00    -0.143 SA
ATOM     13  C   UNL A   1      33.983  28.231  26.359  1.00  0.00     0.101 C 
BRANCH  10  14
ATOM     14  S   UNL A   1      31.769  27.944  23.134  1.00  0.00     0.244 S 
ATOM     15  O   UNL A   1      31.622  26.515  22.937  1.00  0.00    -0.207 OA
ATOM     16  O   UNL A   1      32.727  28.715  22.377  1.00  0.00    -0.207 OA
BRANCH  14  17
ATOM     17  C   UNL A   1      30.164  28.658  22.799  1.00  0.00     0.083 A 
ATOM     18  C   UNL A   1      28.647  31.770  21.231  1.00  0.00     0.044 C 
ATOM     19  C   UNL A   1      28.765  30.448  21.933  1.00  0.00    -0.050 A 
ATOM     20  C   UNL A   1      27.642  29.812  22.463  1.00  0.00     0.007 A 
ATOM     21  C   UNL A   1      30.014  29.843  22.080  1.00  0.00     0.025 A 
ATOM     22  C   UNL A   1      27.766  28.595  23.152  1.00  0.00    -0.050 A 
ATOM     23  C   UNL A   1      26.533  27.928  23.687  1.00  0.00     0.044 C 
ATOM     24  C   UNL A   1      29.036  28.028  23.334  1.00  0.00     0.025 A 
ENDBRANCH  14  17
ENDBRANCH  10  14
ENDBRANCH   6   9
ENDBRANCH   4   5
ENDBRANCH   3   4
ENDBRANCH   2   3
ENDBRANCH   1   2
BRANCH   1  25
ATOM     25  C   UNL A   1      38.995  22.898  26.425  1.00  0.00     0.021 C 
BRANCH  25  26
ATOM     26  C   UNL A   1      40.326  23.370  27.005  1.00  0.00     0.116 C 
BRANCH  26  27
ATOM     27  N   UNL A   1      41.134  24.058  26.016  1.00  0.00    -0.352 N 
ATOM     28  C   UNL A   1      41.560  25.359  25.978  1.00  0.00     0.251 C 
ATOM     29  H   UNL A   1      41.422  23.504  25.253  1.00  0.00     0.163 HD
ATOM     30  O   UNL A   1      42.059  25.799  24.946  1.00  0.00    -0.269 OA
BRANCH  28  31
ATOM     31  C   UNL A   1      41.420  26.236  27.162  1.00  0.00     0.039 A 
ATOM     32  C   UNL A   1      40.519  25.867  28.164  1.00  0.00     0.014 A 
ATOM     33  C   UNL A   1      42.113  27.448  27.260  1.00  0.00     0.014 A 
ATOM     34  C   UNL A   1      40.327  26.696  29.271  1.00  0.00     0.010 A 
ATOM     35  C   UNL A   1      41.971  28.243  28.396  1.00  0.00     0.010 A 
ATOM     36  C   UNL A   1      41.060  27.887  29.401  1.00  0.00    -0.014 A 
BRANCH  36  37
ATOM     37  C   UNL A   1      40.848  28.782  30.567  1.00  0.00     0.031 A 
ATOM     38  C   UNL A   1      41.693  28.628  31.804  1.00  0.00     0.074 A 
ATOM     39  C   UNL A   1      39.875  29.711  30.525  1.00  0.00     0.049 A 
ATOM     40  N   UNL A   1      41.661  29.320  32.915  1.00  0.00    -0.248 NA
ATOM     41  C   UNL A   1      42.685  27.540  31.804  1.00  0.00     0.031 C 
ATOM     42  C   UNL A   1      38.955  29.923  29.405  1.00  0.00     0.029 A 
ATOM     43  N   UNL A   1      39.495  30.651  31.450  1.00  0.00    -0.354 N 
ATOM     44  C   UNL A   1      42.609  28.739  33.750  1.00  0.00     0.074 A 
ATOM     45  C   UNL A   1      43.166  27.611  33.036  1.00  0.00     0.031 C 
ATOM     46  C   UNL A   1      38.135  30.945  29.698  1.00  0.00     0.029 A 
ATOM     47  C   UNL A   1      38.453  31.445  31.032  1.00  0.00     0.049 A 
ATOM     48  H   UNL A   1      39.929  30.749  32.328  1.00  0.00     0.167 HD
ATOM     49  C   UNL A   1      42.995  29.120  34.992  1.00  0.00     0.031 A 
ATOM     50  C   UNL A   1      37.826  32.463  31.651  1.00  0.00     0.031 A 
ATOM     51  C   UNL A   1      42.452  30.255  35.692  1.00  0.00     0.049 A 
ATOM     52  C   UNL A   1      38.298  32.896  33.011  1.00  0.00     0.074 A 
ATOM     53  C   UNL A   1      42.824  30.766  36.922  1.00  0.00     0.029 A 
ATOM     54  N   UNL A   1      41.420  31.053  35.220  1.00  0.00    -0.354 N 
ATOM     55  N   UNL A   1      39.251  32.383  33.753  1.00  0.00    -0.248 NA
ATOM     56  C   UNL A   1      37.624  34.056  33.608  1.00  0.00     0.031 C 
ATOM     57  C   UNL A   1      41.986  31.848  37.216  1.00  0.00     0.029 A 
ATOM     58  C   UNL A   1      41.128  32.042  36.144  1.00  0.00     0.049 A 
ATOM     59  H   UNL A   1      40.963  30.934  34.357  1.00  0.00     0.167 HD
ATOM     60  C   UNL A   1      39.308  33.174  34.895  1.00  0.00     0.074 A 
ATOM     61  C   UNL A   1      38.304  34.208  34.737  1.00  0.00     0.031 C 
ATOM     62  C   UNL A   1      40.120  33.058  35.976  1.00  0.00     0.031 A 
BRANCH  49  63
ATOM     63  C   UNL A   1      44.053  28.292  35.675  1.00  0.00    -0.014 A 
ATOM     64  C   UNL A   1      45.419  28.477  35.392  1.00  0.00     0.010 A 
ATOM     65  C   UNL A   1      43.677  27.328  36.628  1.00  0.00     0.010 A 
ATOM     66  C   UNL A   1      46.385  27.677  36.011  1.00  0.00     0.020 A 
ATOM     67  C   UNL A   1      44.643  26.547  37.271  1.00  0.00     0.020 A 
ATOM     68  C   UNL A   1      45.989  26.712  36.942  1.00  0.00     0.054 A 
BRANCH  68  69
ATOM     69  S   UNL A   1      47.263  25.693  37.735  1.00  0.00     0.124 S 
ATOM     70  O   UNL A   1      48.489  26.249  37.166  1.00  0.00    -0.237 OA
ATOM     71  O   UNL A   1      47.052  25.961  39.155  1.00  0.00    -0.237 OA
ATOM     72  O   UNL A   1      46.937  24.335  37.305  1.00  0.00    -0.744 OA
ENDBRANCH  68  69
ENDBRANCH  49  63
BRANCH  50  73
ATOM     73  C   UNL A   1      36.704  33.161  30.967  1.00  0.00    -0.014 A 
ATOM     74  C   UNL A   1      36.948  33.993  29.860  1.00  0.00     0.010 A 
ATOM     75  C   UNL A   1      35.380  32.966  31.399  1.00  0.00     0.010 A 
ATOM     76  C   UNL A   1      35.890  34.625  29.203  1.00  0.00     0.020 A 
ATOM     77  C   UNL A   1      34.316  33.576  30.728  1.00  0.00     0.020 A 
ATOM     78  C   UNL A   1      34.578  34.409  29.639  1.00  0.00     0.054 A 
BRANCH  78  79
ATOM     79  S   UNL A   1      33.213  35.182  28.728  1.00  0.00     0.124 S 
ATOM     80  O   UNL A   1      33.905  36.214  27.960  1.00  0.00    -0.237 OA
ATOM     81  O   UNL A   1      32.678  34.066  27.952  1.00  0.00    -0.237 OA
ATOM     82  O   UNL A   1      32.332  35.671  29.786  1.00  0.00    -0.744 OA
ENDBRANCH  78  79
ENDBRANCH  50  73
BRANCH  62  83
ATOM     83  C   UNL A   1      39.973  34.091  37.060  1.00  0.00    -0.014 A 
ATOM     84  C   UNL A   1      40.691  35.298  37.022  1.00  0.00     0.010 A 
ATOM     85  C   UNL A   1      39.072  33.861  38.117  1.00  0.00     0.010 A 
ATOM     86  C   UNL A   1      40.542  36.241  38.041  1.00  0.00     0.020 A 
ATOM     87  C   UNL A   1      38.901  34.813  39.124  1.00  0.00     0.020 A 
ATOM     88  C   UNL A   1      39.651  35.990  39.091  1.00  0.00     0.054 A 
BRANCH  88  89
ATOM     89  S   UNL A   1      39.456  37.239  40.391  1.00  0.00     0.124 S 
ATOM     90  O   UNL A   1      40.817  37.348  40.911  1.00  0.00    -0.237 OA
ATOM     91  O   UNL A   1      38.970  38.401  39.653  1.00  0.00    -0.237 OA
ATOM     92  O   UNL A   1      38.487  36.637  41.304  1.00  0.00    -0.744 OA
ENDBRANCH  88  89
ENDBRANCH  62  83
ENDBRANCH  36  37
ENDBRANCH  28  31
ENDBRANCH  26  27
ENDBRANCH  25  26
ENDBRANCH   1  25
TORSDOF 18
ENDMDL
MODEL 3
REMARK VINA RESULT:     -10.5      5.307     10.765
REMARK SMILES Cc1cc(C)cc(S(=O)(=O)N2CSC[C@H]2C(=O)NCCCCCCNC(=O)c2ccc(-c3c4nc(c(-c5ccc(S(=O)(=O)[O-])cc5)c5ccc([nH]5)c(-c5ccc(S(=O)(=O)[O-])cc5)c5nc(c(-c6ccc(S(=O)(=O)[O-])cc6)c6ccc3[nH]6)C=C5)C=C4)cc2)c1
REMARK SMILES IDX 22 1 21 2 20 3 19 4 18 5 16 6 17 7 15 9 11 10 12 11 13 12
REMARK SMILES IDX 14 13 8 14 9 15 10 16 7 17 1 18 2 19 3 20 88 21 4 22 5 23
REMARK SMILES IDX 6 24 23 25 24 26 25 27 26 28 27 30 28 31 29 32 87 33 30 34
REMARK SMILES IDX 86 35 31 36 32 37 33 38 80 39 34 40 85 41 79 42 81 43 35 44
REMARK SMILES IDX 84 45 78 46 77 47 36 49 66 50 47 51 65 52 48 53 51 54 64 55
REMARK SMILES IDX 82 56 49 57 50 58 63 60 83 61 52 62 37 63 38 64 46 65 39 66
REMARK SMILES IDX 45 67 40 68 41 69 42 70 43 71 44 72 67 73 68 74 76 75 69 76
REMARK SMILES IDX 75 77 70 78 71 79 72 80 73 81 74 82 53 83 54 84 62 85 55 86
REMARK SMILES IDX 61 87 56 88 57 89 58 90 59 91 60 92
REMARK H PARENT 18 8 25 29 81 48 51 59
REMARK Flexibility Score: inf
ROOT
ATOM      1  C   UNL A   1      37.509  20.587  24.628  1.00  0.00     0.002 C 
ENDROOT
BRANCH   1   2
ATOM      2  C   UNL A   1      36.082  20.606  25.192  1.00  0.00     0.002 C 
BRANCH   2   3
ATOM      3  C   UNL A   1      35.694  21.877  25.945  1.00  0.00     0.021 C 
BRANCH   3   4
ATOM      4  C   UNL A   1      34.432  21.746  26.783  1.00  0.00     0.116 C 
BRANCH   4   5
ATOM      5  N   UNL A   1      33.580  20.657  26.365  1.00  0.00    -0.355 N 
ATOM      6  C   UNL A   1      32.630  20.612  25.383  1.00  0.00     0.239 C 
ATOM      7  O   UNL A   1      32.145  19.503  25.132  1.00  0.00    -0.273 OA
ATOM      8  H   UNL A   1      33.701  19.816  26.864  1.00  0.00     0.163 HD
BRANCH   6   9
ATOM      9  C   UNL A   1      32.201  21.851  24.582  1.00  0.00     0.173 C 
ATOM     10  N   UNL A   1      32.505  23.126  25.275  1.00  0.00    -0.175 NA
ATOM     11  C   UNL A   1      33.451  24.007  24.596  1.00  0.00     0.172 C 
ATOM     12  S   UNL A   1      33.693  23.393  22.909  1.00  0.00    -0.143 SA
ATOM     13  C   UNL A   1      32.747  21.863  23.157  1.00  0.00     0.101 C 
BRANCH  10  14
ATOM     14  S   UNL A   1      31.309  23.847  26.221  1.00  0.00     0.244 S 
ATOM     15  O   UNL A   1      31.768  23.776  27.594  1.00  0.00    -0.207 OA
ATOM     16  O   UNL A   1      30.030  23.308  25.825  1.00  0.00    -0.207 OA
BRANCH  14  17
ATOM     17  C   UNL A   1      31.283  25.584  25.796  1.00  0.00     0.083 A 
ATOM     18  C   UNL A   1      32.231  28.947  27.291  1.00  0.00     0.044 C 
ATOM     19  C   UNL A   1      31.701  27.917  26.336  1.00  0.00    -0.050 A 
ATOM     20  C   UNL A   1      31.052  28.294  25.160  1.00  0.00     0.007 A 
ATOM     21  C   UNL A   1      31.838  26.559  26.624  1.00  0.00     0.025 A 
ATOM     22  C   UNL A   1      30.523  27.327  24.291  1.00  0.00    -0.050 A 
ATOM     23  C   UNL A   1      29.853  27.769  23.024  1.00  0.00     0.044 C 
ATOM     24  C   UNL A   1      30.626  25.967  24.623  1.00  0.00     0.025 A 
ENDBRANCH  14  17
ENDBRANCH  10  14
ENDBRANCH   6   9
ENDBRANCH   4   5
ENDBRANCH   3   4
ENDBRANCH   2   3
ENDBRANCH   1   2
BRANCH   1  25
ATOM     25  C   UNL A   1      38.454  19.544  25.235  1.00  0.00     0.021 C 
BRANCH  25  26
ATOM     26  C   UNL A   1      39.629  20.113  26.026  1.00  0.00     0.116 C 
BRANCH  26  27
ATOM     27  N   UNL A   1      40.733  19.176  26.108  1.00  0.00    -0.352 N 
ATOM     28  C   UNL A   1      42.083  19.407  26.160  1.00  0.00     0.251 C 
ATOM     29  H   UNL A   1      40.473  18.226  26.128  1.00  0.00     0.163 HD
ATOM     30  O   UNL A   1      42.860  18.468  26.012  1.00  0.00    -0.269 OA
BRANCH  28  31
ATOM     31  C   UNL A   1      42.609  20.772  26.386  1.00  0.00     0.039 A 
ATOM     32  C   UNL A   1      42.670  21.255  27.696  1.00  0.00     0.014 A 
ATOM     33  C   UNL A   1      42.976  21.600  25.320  1.00  0.00     0.014 A 
ATOM     34  C   UNL A   1      43.115  22.556  27.939  1.00  0.00     0.010 A 
ATOM     35  C   UNL A   1      43.483  22.875  25.569  1.00  0.00     0.010 A 
ATOM     36  C   UNL A   1      43.535  23.373  26.878  1.00  0.00    -0.014 A 
BRANCH  36  37
ATOM     37  C   UNL A   1      43.994  24.763  27.129  1.00  0.00     0.031 A 
ATOM     38  C   UNL A   1      45.432  25.142  26.891  1.00  0.00     0.074 A 
ATOM     39  C   UNL A   1      43.125  25.675  27.602  1.00  0.00     0.049 A 
ATOM     40  N   UNL A   1      46.015  26.303  27.045  1.00  0.00    -0.248 NA
ATOM     41  C   UNL A   1      46.339  24.070  26.447  1.00  0.00     0.031 C 
ATOM     42  C   UNL A   1      41.719  25.418  27.924  1.00  0.00     0.029 A 
ATOM     43  N   UNL A   1      43.296  27.005  27.897  1.00  0.00    -0.354 N 
ATOM     44  C   UNL A   1      47.355  26.099  26.738  1.00  0.00     0.074 A 
ATOM     45  C   UNL A   1      47.509  24.693  26.435  1.00  0.00     0.031 C 
ATOM     46  C   UNL A   1      41.150  26.558  28.347  1.00  0.00     0.029 A 
ATOM     47  C   UNL A   1      42.152  27.620  28.350  1.00  0.00     0.049 A 
ATOM     48  H   UNL A   1      44.155  27.474  27.793  1.00  0.00     0.167 HD
ATOM     49  C   UNL A   1      48.365  27.002  26.695  1.00  0.00     0.031 A 
ATOM     50  C   UNL A   1      41.933  28.895  28.722  1.00  0.00     0.031 A 
ATOM     51  C   UNL A   1      48.204  28.404  26.979  1.00  0.00     0.049 A 
ATOM     52  C   UNL A   1      43.057  29.889  28.626  1.00  0.00     0.074 A 
ATOM     53  C   UNL A   1      49.147  29.413  26.894  1.00  0.00     0.029 A 
ATOM     54  N   UNL A   1      47.022  28.993  27.402  1.00  0.00    -0.354 N 
ATOM     55  N   UNL A   1      44.300  29.693  28.257  1.00  0.00    -0.248 NA
ATOM     56  C   UNL A   1      42.742  31.281  28.976  1.00  0.00     0.031 C 
ATOM     57  C   UNL A   1      48.546  30.607  27.310  1.00  0.00     0.029 A 
ATOM     58  C   UNL A   1      47.216  30.349  27.603  1.00  0.00     0.049 A 
ATOM     59  H   UNL A   1      46.171  28.518  27.540  1.00  0.00     0.167 HD
ATOM     60  C   UNL A   1      44.912  30.941  28.307  1.00  0.00     0.074 A 
ATOM     61  C   UNL A   1      43.896  31.886  28.728  1.00  0.00     0.031 C 
ATOM     62  C   UNL A   1      46.196  31.275  28.029  1.00  0.00     0.031 A 
BRANCH  49  63
ATOM     63  C   UNL A   1      49.737  26.493  26.334  1.00  0.00    -0.014 A 
ATOM     64  C   UNL A   1      50.569  25.895  27.297  1.00  0.00     0.010 A 
ATOM     65  C   UNL A   1      50.193  26.598  25.008  1.00  0.00     0.010 A 
ATOM     66  C   UNL A   1      51.852  25.459  26.953  1.00  0.00     0.020 A 
ATOM     67  C   UNL A   1      51.465  26.136  24.653  1.00  0.00     0.020 A 
ATOM     68  C   UNL A   1      52.294  25.589  25.633  1.00  0.00     0.054 A 
BRANCH  68  69
ATOM     69  S   UNL A   1      53.960  25.009  25.211  1.00  0.00     0.124 S 
ATOM     70  O   UNL A   1      54.249  25.780  24.004  1.00  0.00    -0.237 OA
ATOM     71  O   UNL A   1      54.738  25.375  26.391  1.00  0.00    -0.237 OA
ATOM     72  O   UNL A   1      53.785  23.573  25.005  1.00  0.00    -0.744 OA
ENDBRANCH  68  69
ENDBRANCH  49  63
BRANCH  50  73
ATOM     73  C   UNL A   1      40.580  29.305  29.185  1.00  0.00    -0.014 A 
ATOM     74  C   UNL A   1      40.290  29.396  30.557  1.00  0.00     0.010 A 
ATOM     75  C   UNL A   1      39.584  29.642  28.250  1.00  0.00     0.010 A 
ATOM     76  C   UNL A   1      39.027  29.807  30.988  1.00  0.00     0.020 A 
ATOM     77  C   UNL A   1      38.327  30.079  28.678  1.00  0.00     0.020 A 
ATOM     78  C   UNL A   1      38.053  30.151  30.045  1.00  0.00     0.054 A 
BRANCH  78  79
ATOM     79  S   UNL A   1      36.443  30.751  30.625  1.00  0.00     0.124 S 
ATOM     80  O   UNL A   1      36.019  29.674  31.516  1.00  0.00    -0.237 OA
ATOM     81  O   UNL A   1      36.790  32.012  31.275  1.00  0.00    -0.237 OA
ATOM     82  O   UNL A   1      35.667  30.889  29.394  1.00  0.00    -0.744 OA
ENDBRANCH  78  79
ENDBRANCH  50  73
BRANCH  62  83
ATOM     83  C   UNL A   1      46.569  32.728  28.145  1.00  0.00    -0.014 A 
ATOM     84  C   UNL A   1      47.070  33.260  29.346  1.00  0.00     0.010 A 
ATOM     85  C   UNL A   1      46.449  33.566  27.020  1.00  0.00     0.010 A 
ATOM     86  C   UNL A   1      47.407  34.613  29.433  1.00  0.00     0.020 A 
ATOM     87  C   UNL A   1      46.810  34.913  27.096  1.00  0.00     0.020 A 
ATOM     88  C   UNL A   1      47.269  35.433  28.308  1.00  0.00     0.054 A 
BRANCH  88  89
ATOM     89  S   UNL A   1      47.734  37.182  28.438  1.00  0.00     0.124 S 
ATOM     90  O   UNL A   1      49.174  37.095  28.667  1.00  0.00    -0.237 OA
ATOM     91  O   UNL A   1      47.335  37.719  27.140  1.00  0.00    -0.237 OA
ATOM     92  O   UNL A   1      46.951  37.663  29.573  1.00  0.00    -0.744 OA
ENDBRANCH  88  89
ENDBRANCH  62  83
ENDBRANCH  36  37
ENDBRANCH  28  31
ENDBRANCH  26  27
ENDBRANCH  25  26
ENDBRANCH   1  25
TORSDOF 18
ENDMDL
