MODEL 1
REMARK VINA RESULT:     -10.0      0.000      0.000
REMARK SMILES C[C@@H]1C[N@@H+](CC(C)(C)C(=O)NCCCCCCNC(=O)c2ccc(-c3c4nc(c(-c5ccc(S(=O)(=O)[O-])cc5)c5ccc([nH]5)c(-c5ccc(S(=O)(=O)[O-])cc5)c5nc(c(-c6ccc(S(=O)(=O)[O-])cc6)c6ccc3[nH]6)C=C5)C=C4)cc2)CC[C@@H]1[NH3+]
REMARK SMILES IDX 14 1 13 2 12 3 11 4 9 5 10 6 6 8 7 9 8 10 5 11 4 12 1 13
REMARK SMILES IDX 2 14 3 15 83 16 82 17 81 18 84 20 15 24 16 25 17 26 18 27
REMARK SMILES IDX 19 28 20 30 21 31 22 32 80 33 23 34 79 35 24 36 25 37 26 38
REMARK SMILES IDX 73 39 27 40 78 41 72 42 74 43 28 44 77 45 71 46 70 47 29 49
REMARK SMILES IDX 59 50 40 51 58 52 41 53 44 54 57 55 75 56 42 57 43 58 56 60
REMARK SMILES IDX 76 61 45 62 30 63 31 64 39 65 32 66 38 67 33 68 34 69 35 70
REMARK SMILES IDX 36 71 37 72 60 73 61 74 69 75 62 76 68 77 63 78 64 79 65 80
REMARK SMILES IDX 66 81 67 82 46 83 47 84 55 85 48 86 54 87 49 88 50 89 51 90
REMARK SMILES IDX 52 91 53 92
REMARK H PARENT 11 7 4 19 84 21 84 22 84 23 18 29 74 48 44 59
REMARK Flexibility Score: inf
ROOT
ATOM      1  C   UNL A   1      31.644  28.678  24.673  1.00  0.00     0.002 C 
ENDROOT
BRANCH   1   2
ATOM      2  C   UNL A   1      30.465  28.420  23.727  1.00  0.00     0.021 C 
BRANCH   2   3
ATOM      3  C   UNL A   1      30.686  27.266  22.753  1.00  0.00     0.116 C 
BRANCH   3   4
ATOM      4  N   UNL A   1      30.484  26.008  23.434  1.00  0.00    -0.355 N 
ATOM      5  C   UNL A   1      31.184  24.852  23.320  1.00  0.00     0.231 C 
ATOM      6  O   UNL A   1      30.513  23.816  23.384  1.00  0.00    -0.274 OA
ATOM      7  H   UNL A   1      29.732  25.986  24.070  1.00  0.00     0.163 HD
BRANCH   5   8
ATOM      8  C   UNL A   1      32.704  24.826  23.081  1.00  0.00     0.092 C 
ATOM      9  C   UNL A   1      33.538  25.672  24.057  1.00  0.00     0.027 C 
ATOM     10  C   UNL A   1      32.922  25.376  21.655  1.00  0.00     0.027 C 
BRANCH   8  11
ATOM     11  C   UNL A   1      33.194  23.324  23.108  1.00  0.00     0.278 C 
BRANCH  11  12
ATOM     12  N   UNL A   1      34.377  22.873  23.882  1.00  0.00    -0.333 N 
ATOM     13  C   UNL A   1      37.110  23.773  25.090  1.00  0.00     0.020 C 
ATOM     14  C   UNL A   1      36.886  22.708  24.009  1.00  0.00     0.099 C 
ATOM     15  C   UNL A   1      35.644  23.031  23.160  1.00  0.00     0.271 C 
ATOM     16  C   UNL A   1      36.723  21.278  24.553  1.00  0.00     0.194 C 
ATOM     17  C   UNL A   1      35.447  21.176  25.388  1.00  0.00     0.126 C 
ATOM     18  C   UNL A   1      34.236  21.572  24.537  1.00  0.00     0.268 C 
ATOM     19  H   UNL A   1      34.419  23.530  24.663  1.00  0.00     0.348 HD
BRANCH  16  20
ATOM     20  N   UNL A   1      37.895  20.831  25.311  1.00  0.00    -0.355 N 
ATOM     21  H   UNL A   1      38.397  20.124  24.774  1.00  0.00     0.344 HD
ATOM     22  H   UNL A   1      37.592  20.431  26.200  1.00  0.00     0.344 HD
ATOM     23  H   UNL A   1      38.509  21.625  25.487  1.00  0.00     0.344 HD
ENDBRANCH  16  20
ENDBRANCH  11  12
ENDBRANCH   8  11
ENDBRANCH   5   8
ENDBRANCH   3   4
ENDBRANCH   2   3
ENDBRANCH   1   2
BRANCH   1  24
ATOM     24  C   UNL A   1      31.472  28.113  26.086  1.00  0.00     0.002 C 
BRANCH  24  25
ATOM     25  C   UNL A   1      32.772  27.963  26.879  1.00  0.00     0.021 C 
BRANCH  25  26
ATOM     26  C   UNL A   1      33.886  28.914  26.453  1.00  0.00     0.116 C 
BRANCH  26  27
ATOM     27  N   UNL A   1      33.768  30.213  27.095  1.00  0.00    -0.352 N 
ATOM     28  C   UNL A   1      34.605  30.804  28.010  1.00  0.00     0.251 C 
ATOM     29  H   UNL A   1      32.978  30.742  26.838  1.00  0.00     0.163 HD
ATOM     30  O   UNL A   1      34.254  31.813  28.607  1.00  0.00    -0.269 OA
BRANCH  28  31
ATOM     31  C   UNL A   1      35.921  30.190  28.283  1.00  0.00     0.039 A 
ATOM     32  C   UNL A   1      36.886  30.190  27.274  1.00  0.00     0.014 A 
ATOM     33  C   UNL A   1      36.208  29.650  29.539  1.00  0.00     0.014 A 
ATOM     34  C   UNL A   1      38.170  29.717  27.552  1.00  0.00     0.010 A 
ATOM     35  C   UNL A   1      37.507  29.243  29.834  1.00  0.00     0.010 A 
ATOM     36  C   UNL A   1      38.503  29.286  28.847  1.00  0.00    -0.014 A 
BRANCH  36  37
ATOM     37  C   UNL A   1      39.899  28.928  29.203  1.00  0.00     0.031 A 
ATOM     38  C   UNL A   1      40.809  29.945  29.835  1.00  0.00     0.074 A 
ATOM     39  C   UNL A   1      40.367  27.705  28.883  1.00  0.00     0.049 A 
ATOM     40  N   UNL A   1      42.075  29.833  30.144  1.00  0.00    -0.248 NA
ATOM     41  C   UNL A   1      40.228  31.261  30.140  1.00  0.00     0.031 C 
ATOM     42  C   UNL A   1      39.589  26.644  28.237  1.00  0.00     0.029 A 
ATOM     43  N   UNL A   1      41.611  27.150  29.046  1.00  0.00    -0.354 N 
ATOM     44  C   UNL A   1      42.446  31.065  30.672  1.00  0.00     0.074 A 
ATOM     45  C   UNL A   1      41.283  31.922  30.598  1.00  0.00     0.031 C 
ATOM     46  C   UNL A   1      40.366  25.562  28.080  1.00  0.00     0.029 A 
ATOM     47  C   UNL A   1      41.709  25.865  28.563  1.00  0.00     0.049 A 
ATOM     48  H   UNL A   1      42.362  27.625  29.468  1.00  0.00     0.167 HD
ATOM     49  C   UNL A   1      43.643  31.441  31.183  1.00  0.00     0.031 A 
ATOM     50  C   UNL A   1      42.764  25.030  28.497  1.00  0.00     0.031 A 
ATOM     51  C   UNL A   1      44.797  30.583  31.248  1.00  0.00     0.049 A 
ATOM     52  C   UNL A   1      44.095  25.489  29.026  1.00  0.00     0.074 A 
ATOM     53  C   UNL A   1      46.039  30.853  31.797  1.00  0.00     0.029 A 
ATOM     54  N   UNL A   1      44.860  29.296  30.734  1.00  0.00    -0.354 N 
ATOM     55  N   UNL A   1      44.405  26.631  29.592  1.00  0.00    -0.248 NA
ATOM     56  C   UNL A   1      45.217  24.549  28.908  1.00  0.00     0.031 C 
ATOM     57  C   UNL A   1      46.871  29.757  31.556  1.00  0.00     0.029 A 
ATOM     58  C   UNL A   1      46.132  28.776  30.916  1.00  0.00     0.049 A 
ATOM     59  H   UNL A   1      44.111  28.822  30.305  1.00  0.00     0.167 HD
ATOM     60  C   UNL A   1      45.755  26.541  29.910  1.00  0.00     0.074 A 
ATOM     61  C   UNL A   1      46.195  25.224  29.497  1.00  0.00     0.031 C 
ATOM     62  C   UNL A   1      46.559  27.467  30.487  1.00  0.00     0.031 A 
BRANCH  49  63
ATOM     63  C   UNL A   1      43.770  32.849  31.702  1.00  0.00    -0.014 A 
ATOM     64  C   UNL A   1      44.076  33.919  30.841  1.00  0.00     0.010 A 
ATOM     65  C   UNL A   1      43.527  33.117  33.062  1.00  0.00     0.010 A 
ATOM     66  C   UNL A   1      44.176  35.221  31.337  1.00  0.00     0.020 A 
ATOM     67  C   UNL A   1      43.596  34.423  33.556  1.00  0.00     0.020 A 
ATOM     68  C   UNL A   1      43.936  35.466  32.692  1.00  0.00     0.054 A 
BRANCH  68  69
ATOM     69  S   UNL A   1      44.048  37.170  33.300  1.00  0.00     0.124 S 
ATOM     70  O   UNL A   1      42.872  37.261  34.162  1.00  0.00    -0.237 OA
ATOM     71  O   UNL A   1      45.335  37.178  33.993  1.00  0.00    -0.237 OA
ATOM     72  O   UNL A   1      43.993  37.978  32.085  1.00  0.00    -0.744 OA
ENDBRANCH  68  69
ENDBRANCH  49  63
BRANCH  50  73
ATOM     73  C   UNL A   1      42.605  23.679  27.891  1.00  0.00    -0.014 A 
ATOM     74  C   UNL A   1      42.331  22.560  28.698  1.00  0.00     0.010 A 
ATOM     75  C   UNL A   1      42.713  23.506  26.499  1.00  0.00     0.010 A 
ATOM     76  C   UNL A   1      42.182  21.294  28.126  1.00  0.00     0.020 A 
ATOM     77  C   UNL A   1      42.533  22.247  25.920  1.00  0.00     0.020 A 
ATOM     78  C   UNL A   1      42.279  21.147  26.739  1.00  0.00     0.054 A 
BRANCH  78  79
ATOM     79  S   UNL A   1      42.026  19.502  26.014  1.00  0.00     0.124 S 
ATOM     80  O   UNL A   1      40.586  19.496  25.774  1.00  0.00    -0.237 OA
ATOM     81  O   UNL A   1      42.868  19.552  24.822  1.00  0.00    -0.237 OA
ATOM     82  O   UNL A   1      42.490  18.593  27.059  1.00  0.00    -0.744 OA
ENDBRANCH  78  79
ENDBRANCH  50  73
BRANCH  62  83
ATOM     83  C   UNL A   1      48.000  27.091  30.713  1.00  0.00    -0.014 A 
ATOM     84  C   UNL A   1      48.978  27.360  29.739  1.00  0.00     0.010 A 
ATOM     85  C   UNL A   1      48.392  26.527  31.940  1.00  0.00     0.010 A 
ATOM     86  C   UNL A   1      50.319  27.050  29.980  1.00  0.00     0.020 A 
ATOM     87  C   UNL A   1      49.735  26.244  32.197  1.00  0.00     0.020 A 
ATOM     88  C   UNL A   1      50.690  26.499  31.210  1.00  0.00     0.054 A 
BRANCH  88  89
ATOM     89  S   UNL A   1      52.446  26.168  31.520  1.00  0.00     0.124 S 
ATOM     90  O   UNL A   1      52.767  27.158  32.545  1.00  0.00    -0.237 OA
ATOM     91  O   UNL A   1      52.435  24.779  31.969  1.00  0.00    -0.237 OA
ATOM     92  O   UNL A   1      53.076  26.393  30.220  1.00  0.00    -0.744 OA
ENDBRANCH  88  89
ENDBRANCH  62  83
ENDBRANCH  36  37
ENDBRANCH  28  31
ENDBRANCH  26  27
ENDBRANCH  25  26
ENDBRANCH  24  25
ENDBRANCH   1  24
TORSDOF 19
ENDMDL
MODEL 2
REMARK VINA RESULT:      -9.8      2.446      9.267
REMARK SMILES C[C@@H]1C[N@@H+](CC(C)(C)C(=O)NCCCCCCNC(=O)c2ccc(-c3c4nc(c(-c5ccc(S(=O)(=O)[O-])cc5)c5ccc([nH]5)c(-c5ccc(S(=O)(=O)[O-])cc5)c5nc(c(-c6ccc(S(=O)(=O)[O-])cc6)c6ccc3[nH]6)C=C5)C=C4)cc2)CC[C@@H]1[NH3+]
REMARK SMILES IDX 14 1 13 2 12 3 11 4 9 5 10 6 6 8 7 9 8 10 5 11 4 12 1 13
REMARK SMILES IDX 2 14 3 15 83 16 82 17 81 18 84 20 15 24 16 25 17 26 18 27
REMARK SMILES IDX 19 28 20 30 21 31 22 32 80 33 23 34 79 35 24 36 25 37 26 38
REMARK SMILES IDX 73 39 27 40 78 41 72 42 74 43 28 44 77 45 71 46 70 47 29 49
REMARK SMILES IDX 59 50 40 51 58 52 41 53 44 54 57 55 75 56 42 57 43 58 56 60
REMARK SMILES IDX 76 61 45 62 30 63 31 64 39 65 32 66 38 67 33 68 34 69 35 70
REMARK SMILES IDX 36 71 37 72 60 73 61 74 69 75 62 76 68 77 63 78 64 79 65 80
REMARK SMILES IDX 66 81 67 82 46 83 47 84 55 85 48 86 54 87 49 88 50 89 51 90
REMARK SMILES IDX 52 91 53 92
REMARK H PARENT 11 7 4 19 84 21 84 22 84 23 18 29 74 48 44 59
REMARK Flexibility Score: inf
ROOT
ATOM      1  C   UNL A   1      34.134  22.982  27.262  1.00  0.00     0.002 C 
ENDROOT
BRANCH   1   2
ATOM      2  C   UNL A   1      32.771  22.304  27.078  1.00  0.00     0.021 C 
BRANCH   2   3
ATOM      3  C   UNL A   1      31.661  23.245  26.616  1.00  0.00     0.116 C 
BRANCH   3   4
ATOM      4  N   UNL A   1      31.628  23.287  25.172  1.00  0.00    -0.355 N 
ATOM      5  C   UNL A   1      30.984  24.160  24.357  1.00  0.00     0.231 C 
ATOM      6  O   UNL A   1      30.508  23.672  23.327  1.00  0.00    -0.274 OA
ATOM      7  H   UNL A   1      32.145  22.585  24.715  1.00  0.00     0.163 HD
BRANCH   5   8
ATOM      8  C   UNL A   1      30.815  25.649  24.708  1.00  0.00     0.092 C 
ATOM      9  C   UNL A   1      30.160  25.934  26.070  1.00  0.00     0.027 C 
ATOM     10  C   UNL A   1      29.917  26.248  23.604  1.00  0.00     0.027 C 
BRANCH   8  11
ATOM     11  C   UNL A   1      32.228  26.350  24.626  1.00  0.00     0.278 C 
BRANCH  11  12
ATOM     12  N   UNL A   1      32.615  27.493  25.491  1.00  0.00    -0.333 N 
ATOM     13  C   UNL A   1      31.602  30.140  26.796  1.00  0.00     0.020 C 
ATOM     14  C   UNL A   1      32.731  29.993  25.767  1.00  0.00     0.099 C 
ATOM     15  C   UNL A   1      32.477  28.797  24.832  1.00  0.00     0.271 C 
ATOM     16  C   UNL A   1      34.130  29.819  26.382  1.00  0.00     0.194 C 
ATOM     17  C   UNL A   1      34.206  28.498  27.148  1.00  0.00     0.126 C 
ATOM     18  C   UNL A   1      33.879  27.333  26.209  1.00  0.00     0.268 C 
ATOM     19  H   UNL A   1      31.914  27.482  26.233  1.00  0.00     0.348 HD
BRANCH  16  20
ATOM     20  N   UNL A   1      34.514  30.951  27.229  1.00  0.00    -0.355 N 
ATOM     21  H   UNL A   1      34.598  31.791  26.655  1.00  0.00     0.344 HD
ATOM     22  H   UNL A   1      35.410  30.754  27.675  1.00  0.00     0.344 HD
ATOM     23  H   UNL A   1      33.803  31.097  27.944  1.00  0.00     0.344 HD
ENDBRANCH  16  20
ENDBRANCH  11  12
ENDBRANCH   8  11
ENDBRANCH   5   8
ENDBRANCH   3   4
ENDBRANCH   2   3
ENDBRANCH   1   2
BRANCH   1  24
ATOM     24  C   UNL A   1      35.153  22.691  26.156  1.00  0.00     0.002 C 
BRANCH  24  25
ATOM     25  C   UNL A   1      35.919  23.915  25.652  1.00  0.00     0.021 C 
BRANCH  25  26
ATOM     26  C   UNL A   1      37.129  23.590  24.782  1.00  0.00     0.116 C 
BRANCH  26  27
ATOM     27  N   UNL A   1      37.982  22.583  25.392  1.00  0.00    -0.352 N 
ATOM     28  C   UNL A   1      39.061  22.754  26.226  1.00  0.00     0.251 C 
ATOM     29  H   UNL A   1      37.755  21.649  25.177  1.00  0.00     0.163 HD
ATOM     30  O   UNL A   1      39.797  21.812  26.485  1.00  0.00    -0.269 OA
BRANCH  28  31
ATOM     31  C   UNL A   1      39.335  24.096  26.782  1.00  0.00     0.039 A 
ATOM     32  C   UNL A   1      38.879  24.398  28.066  1.00  0.00     0.014 A 
ATOM     33  C   UNL A   1      40.067  25.034  26.050  1.00  0.00     0.014 A 
ATOM     34  C   UNL A   1      39.228  25.618  28.649  1.00  0.00     0.010 A 
ATOM     35  C   UNL A   1      40.470  26.220  26.657  1.00  0.00     0.010 A 
ATOM     36  C   UNL A   1      40.066  26.517  27.967  1.00  0.00    -0.014 A 
BRANCH  36  37
ATOM     37  C   UNL A   1      40.575  27.744  28.628  1.00  0.00     0.031 A 
ATOM     38  C   UNL A   1      41.959  27.778  29.213  1.00  0.00     0.074 A 
ATOM     39  C   UNL A   1      39.754  28.805  28.768  1.00  0.00     0.049 A 
ATOM     40  N   UNL A   1      42.542  28.734  29.889  1.00  0.00    -0.248 NA
ATOM     41  C   UNL A   1      42.789  26.576  29.032  1.00  0.00     0.031 C 
ATOM     42  C   UNL A   1      38.377  28.880  28.271  1.00  0.00     0.029 A 
ATOM     43  N   UNL A   1      39.952  30.019  29.375  1.00  0.00    -0.354 N 
ATOM     44  C   UNL A   1      43.802  28.249  30.222  1.00  0.00     0.074 A 
ATOM     45  C   UNL A   1      43.880  26.897  29.714  1.00  0.00     0.031 C 
ATOM     46  C   UNL A   1      37.865  30.082  28.575  1.00  0.00     0.029 A 
ATOM     47  C   UNL A   1      38.852  30.844  29.332  1.00  0.00     0.049 A 
ATOM     48  H   UNL A   1      40.801  30.276  29.803  1.00  0.00     0.167 HD
ATOM     49  C   UNL A   1      44.805  28.878  30.881  1.00  0.00     0.031 A 
ATOM     50  C   UNL A   1      38.651  32.068  29.858  1.00  0.00     0.031 A 
ATOM     51  C   UNL A   1      44.716  30.223  31.389  1.00  0.00     0.049 A 
ATOM     52  C   UNL A   1      39.763  32.726  30.628  1.00  0.00     0.074 A 
ATOM     53  C   UNL A   1      45.697  30.968  32.021  1.00  0.00     0.029 A 
ATOM     54  N   UNL A   1      43.581  31.018  31.339  1.00  0.00    -0.354 N 
ATOM     55  N   UNL A   1      40.973  32.280  30.865  1.00  0.00    -0.248 NA
ATOM     56  C   UNL A   1      39.483  34.049  31.199  1.00  0.00     0.031 C 
ATOM     57  C   UNL A   1      45.133  32.186  32.412  1.00  0.00     0.029 A 
ATOM     58  C   UNL A   1      43.823  32.229  31.966  1.00  0.00     0.049 A 
ATOM     59  H   UNL A   1      42.728  30.760  30.918  1.00  0.00     0.167 HD
ATOM     60  C   UNL A   1      41.605  33.275  31.603  1.00  0.00     0.074 A 
ATOM     61  C   UNL A   1      40.651  34.356  31.749  1.00  0.00     0.031 C 
ATOM     62  C   UNL A   1      42.859  33.291  32.116  1.00  0.00     0.031 A 
BRANCH  49  63
ATOM     63  C   UNL A   1      46.083  28.114  31.103  1.00  0.00    -0.014 A 
ATOM     64  C   UNL A   1      47.150  28.195  30.190  1.00  0.00     0.010 A 
ATOM     65  C   UNL A   1      46.242  27.343  32.270  1.00  0.00     0.010 A 
ATOM     66  C   UNL A   1      48.334  27.490  30.418  1.00  0.00     0.020 A 
ATOM     67  C   UNL A   1      47.437  26.661  32.517  1.00  0.00     0.020 A 
ATOM     68  C   UNL A   1      48.471  26.726  31.581  1.00  0.00     0.054 A 
BRANCH  68  69
ATOM     69  S   UNL A   1      50.030  25.844  31.862  1.00  0.00     0.124 S 
ATOM     70  O   UNL A   1      49.604  24.751  32.734  1.00  0.00    -0.237 OA
ATOM     71  O   UNL A   1      50.422  25.451  30.510  1.00  0.00    -0.237 OA
ATOM     72  O   UNL A   1      50.887  26.843  32.492  1.00  0.00    -0.744 OA
ENDBRANCH  68  69
ENDBRANCH  49  63
BRANCH  50  73
ATOM     73  C   UNL A   1      37.335  32.743  29.685  1.00  0.00    -0.014 A 
ATOM     74  C   UNL A   1      36.312  32.572  30.635  1.00  0.00     0.010 A 
ATOM     75  C   UNL A   1      37.102  33.572  28.572  1.00  0.00     0.010 A 
ATOM     76  C   UNL A   1      35.078  33.208  30.468  1.00  0.00     0.020 A 
ATOM     77  C   UNL A   1      35.880  34.233  28.418  1.00  0.00     0.020 A 
ATOM     78  C   UNL A   1      34.872  34.038  29.363  1.00  0.00     0.054 A 
BRANCH  78  79
ATOM     79  S   UNL A   1      33.282  34.897  29.198  1.00  0.00     0.124 S 
ATOM     80  O   UNL A   1      32.588  34.064  28.221  1.00  0.00    -0.237 OA
ATOM     81  O   UNL A   1      32.757  34.849  30.560  1.00  0.00    -0.237 OA
ATOM     82  O   UNL A   1      33.659  36.229  28.730  1.00  0.00    -0.744 OA
ENDBRANCH  78  79
ENDBRANCH  50  73
BRANCH  62  83
ATOM     83  C   UNL A   1      43.279  34.516  32.884  1.00  0.00    -0.014 A 
ATOM     84  C   UNL A   1      43.882  35.607  32.232  1.00  0.00     0.010 A 
ATOM     85  C   UNL A   1      43.007  34.607  34.261  1.00  0.00     0.010 A 
ATOM     86  C   UNL A   1      44.224  36.757  32.948  1.00  0.00     0.020 A 
ATOM     87  C   UNL A   1      43.319  35.766  34.974  1.00  0.00     0.020 A 
ATOM     88  C   UNL A   1      43.935  36.832  34.314  1.00  0.00     0.054 A 
BRANCH  88  89
ATOM     89  S   UNL A   1      44.330  38.362  35.202  1.00  0.00     0.124 S 
ATOM     90  O   UNL A   1      43.472  39.335  34.531  1.00  0.00    -0.237 OA
ATOM     91  O   UNL A   1      43.958  38.038  36.577  1.00  0.00    -0.237 OA
ATOM     92  O   UNL A   1      45.764  38.535  34.974  1.00  0.00    -0.744 OA
ENDBRANCH  88  89
ENDBRANCH  62  83
ENDBRANCH  36  37
ENDBRANCH  28  31
ENDBRANCH  26  27
ENDBRANCH  25  26
ENDBRANCH  24  25
ENDBRANCH   1  24
TORSDOF 19
ENDMDL
MODEL 3
REMARK VINA RESULT:      -9.6      2.596      3.263
REMARK SMILES C[C@@H]1C[N@@H+](CC(C)(C)C(=O)NCCCCCCNC(=O)c2ccc(-c3c4nc(c(-c5ccc(S(=O)(=O)[O-])cc5)c5ccc([nH]5)c(-c5ccc(S(=O)(=O)[O-])cc5)c5nc(c(-c6ccc(S(=O)(=O)[O-])cc6)c6ccc3[nH]6)C=C5)C=C4)cc2)CC[C@@H]1[NH3+]
REMARK SMILES IDX 14 1 13 2 12 3 11 4 9 5 10 6 6 8 7 9 8 10 5 11 4 12 1 13
REMARK SMILES IDX 2 14 3 15 83 16 82 17 81 18 84 20 15 24 16 25 17 26 18 27
REMARK SMILES IDX 19 28 20 30 21 31 22 32 80 33 23 34 79 35 24 36 25 37 26 38
REMARK SMILES IDX 73 39 27 40 78 41 72 42 74 43 28 44 77 45 71 46 70 47 29 49
REMARK SMILES IDX 59 50 40 51 58 52 41 53 44 54 57 55 75 56 42 57 43 58 56 60
REMARK SMILES IDX 76 61 45 62 30 63 31 64 39 65 32 66 38 67 33 68 34 69 35 70
REMARK SMILES IDX 36 71 37 72 60 73 61 74 69 75 62 76 68 77 63 78 64 79 65 80
REMARK SMILES IDX 66 81 67 82 46 83 47 84 55 85 48 86 54 87 49 88 50 89 51 90
REMARK SMILES IDX 52 91 53 92
REMARK H PARENT 11 7 4 19 84 21 84 22 84 23 18 29 74 48 44 59
REMARK Flexibility Score: inf
ROOT
ATOM      1  C   UNL A   1      32.597  29.560  25.071  1.00  0.00     0.002 C 
ENDROOT
BRANCH   1   2
ATOM      2  C   UNL A   1      31.178  29.200  24.615  1.00  0.00     0.021 C 
BRANCH   2   3
ATOM      3  C   UNL A   1      31.127  28.269  23.406  1.00  0.00     0.116 C 
BRANCH   3   4
ATOM      4  N   UNL A   1      30.810  26.926  23.838  1.00  0.00    -0.355 N 
ATOM      5  C   UNL A   1      31.433  25.761  23.533  1.00  0.00     0.231 C 
ATOM      6  O   UNL A   1      30.691  24.784  23.386  1.00  0.00    -0.274 OA
ATOM      7  H   UNL A   1      30.033  26.846  24.437  1.00  0.00     0.163 HD
BRANCH   5   8
ATOM      8  C   UNL A   1      32.957  25.664  23.338  1.00  0.00     0.092 C 
ATOM      9  C   UNL A   1      33.805  26.269  24.469  1.00  0.00     0.027 C 
ATOM     10  C   UNL A   1      33.270  26.431  22.035  1.00  0.00     0.027 C 
BRANCH   8  11
ATOM     11  C   UNL A   1      33.343  24.148  23.120  1.00  0.00     0.278 C 
BRANCH  11  12
ATOM     12  N   UNL A   1      33.081  23.093  24.131  1.00  0.00    -0.333 N 
ATOM     13  C   UNL A   1      32.911  22.499  27.189  1.00  0.00     0.020 C 
ATOM     14  C   UNL A   1      33.890  21.881  26.183  1.00  0.00     0.099 C 
ATOM     15  C   UNL A   1      34.208  22.863  25.042  1.00  0.00     0.271 C 
ATOM     16  C   UNL A   1      33.402  20.567  25.550  1.00  0.00     0.194 C 
ATOM     17  C   UNL A   1      32.165  20.826  24.690  1.00  0.00     0.126 C 
ATOM     18  C   UNL A   1      32.491  21.860  23.608  1.00  0.00     0.268 C 
ATOM     19  H   UNL A   1      32.336  23.490  24.705  1.00  0.00     0.348 HD
BRANCH  16  20
ATOM     20  N   UNL A   1      33.152  19.524  26.548  1.00  0.00    -0.355 N 
ATOM     21  H   UNL A   1      33.962  18.908  26.606  1.00  0.00     0.344 HD
ATOM     22  H   UNL A   1      32.332  18.981  26.273  1.00  0.00     0.344 HD
ATOM     23  H   UNL A   1      32.985  19.956  27.456  1.00  0.00     0.344 HD
ENDBRANCH  16  20
ENDBRANCH  11  12
ENDBRANCH   8  11
ENDBRANCH   5   8
ENDBRANCH   3   4
ENDBRANCH   2   3
ENDBRANCH   1   2
BRANCH   1  24
ATOM     24  C   UNL A   1      32.749  29.802  26.575  1.00  0.00     0.002 C 
BRANCH  24  25
ATOM     25  C   UNL A   1      33.694  28.833  27.288  1.00  0.00     0.021 C 
BRANCH  25  26
ATOM     26  C   UNL A   1      35.098  29.377  27.524  1.00  0.00     0.116 C 
BRANCH  26  27
ATOM     27  N   UNL A   1      35.150  30.275  28.666  1.00  0.00    -0.352 N 
ATOM     28  C   UNL A   1      36.161  30.456  29.578  1.00  0.00     0.251 C 
ATOM     29  H   UNL A   1      34.349  30.830  28.804  1.00  0.00     0.163 HD
ATOM     30  O   UNL A   1      35.965  31.101  30.599  1.00  0.00    -0.269 OA
BRANCH  28  31
ATOM     31  C   UNL A   1      37.480  29.839  29.323  1.00  0.00     0.039 A 
ATOM     32  C   UNL A   1      37.984  29.842  28.022  1.00  0.00     0.014 A 
ATOM     33  C   UNL A   1      38.224  29.292  30.372  1.00  0.00     0.014 A 
ATOM     34  C   UNL A   1      39.275  29.366  27.785  1.00  0.00     0.010 A 
ATOM     35  C   UNL A   1      39.535  28.881  30.145  1.00  0.00     0.010 A 
ATOM     36  C   UNL A   1      40.077  28.928  28.852  1.00  0.00    -0.014 A 
BRANCH  36  37
ATOM     37  C   UNL A   1      41.502  28.566  28.644  1.00  0.00     0.031 A 
ATOM     38  C   UNL A   1      42.573  29.620  28.704  1.00  0.00     0.074 A 
ATOM     39  C   UNL A   1      41.819  27.295  28.324  1.00  0.00     0.049 A 
ATOM     40  N   UNL A   1      43.855  29.501  28.476  1.00  0.00    -0.248 NA
ATOM     41  C   UNL A   1      42.146  30.986  29.046  1.00  0.00     0.031 C 
ATOM     42  C   UNL A   1      40.863  26.191  28.202  1.00  0.00     0.029 A 
ATOM     43  N   UNL A   1      43.029  26.719  28.031  1.00  0.00    -0.354 N 
ATOM     44  C   UNL A   1      44.388  30.775  28.637  1.00  0.00     0.074 A 
ATOM     45  C   UNL A   1      43.283  31.659  28.936  1.00  0.00     0.031 C 
ATOM     46  C   UNL A   1      41.526  25.069  27.883  1.00  0.00     0.029 A 
ATOM     47  C   UNL A   1      42.942  25.380  27.724  1.00  0.00     0.049 A 
ATOM     48  H   UNL A   1      43.878  27.215  28.039  1.00  0.00     0.167 HD
ATOM     49  C   UNL A   1      45.682  31.168  28.554  1.00  0.00     0.031 A 
ATOM     50  C   UNL A   1      43.891  24.505  27.340  1.00  0.00     0.031 A 
ATOM     51  C   UNL A   1      46.776  30.283  28.250  1.00  0.00     0.049 A 
ATOM     52  C   UNL A   1      45.313  24.977  27.207  1.00  0.00     0.074 A 
ATOM     53  C   UNL A   1      48.128  30.574  28.198  1.00  0.00     0.029 A 
ATOM     54  N   UNL A   1      46.645  28.940  27.930  1.00  0.00    -0.354 N 
ATOM     55  N   UNL A   1      45.807  26.169  27.439  1.00  0.00    -0.248 NA
ATOM     56  C   UNL A   1      46.303  23.988  26.762  1.00  0.00     0.031 C 
ATOM     57  C   UNL A   1      48.806  29.425  27.781  1.00  0.00     0.029 A 
ATOM     58  C   UNL A   1      47.887  28.399  27.638  1.00  0.00     0.049 A 
ATOM     59  H   UNL A   1      45.794  28.443  27.914  1.00  0.00     0.167 HD
ATOM     60  C   UNL A   1      47.170  26.070  27.181  1.00  0.00     0.074 A 
ATOM     61  C   UNL A   1      47.424  24.695  26.802  1.00  0.00     0.031 C 
ATOM     62  C   UNL A   1      48.123  27.031  27.249  1.00  0.00     0.031 A 
BRANCH  49  63
ATOM     63  C   UNL A   1      45.986  32.626  28.784  1.00  0.00    -0.014 A 
ATOM     64  C   UNL A   1      46.301  33.112  30.065  1.00  0.00     0.010 A 
ATOM     65  C   UNL A   1      46.009  33.514  27.693  1.00  0.00     0.010 A 
ATOM     66  C   UNL A   1      46.594  34.465  30.258  1.00  0.00     0.020 A 
ATOM     67  C   UNL A   1      46.332  34.862  27.877  1.00  0.00     0.020 A 
ATOM     68  C   UNL A   1      46.607  35.332  29.162  1.00  0.00     0.054 A 
BRANCH  68  69
ATOM     69  S   UNL A   1      47.016  37.076  29.440  1.00  0.00     0.124 S 
ATOM     70  O   UNL A   1      45.701  37.709  29.372  1.00  0.00    -0.237 OA
ATOM     71  O   UNL A   1      47.632  37.052  30.765  1.00  0.00    -0.237 OA
ATOM     72  O   UNL A   1      47.920  37.402  28.341  1.00  0.00    -0.744 OA
ENDBRANCH  68  69
ENDBRANCH  49  63
BRANCH  50  73
ATOM     73  C   UNL A   1      43.521  23.094  27.038  1.00  0.00    -0.014 A 
ATOM     74  C   UNL A   1      43.042  22.246  28.053  1.00  0.00     0.010 A 
ATOM     75  C   UNL A   1      43.634  22.594  25.728  1.00  0.00     0.010 A 
ATOM     76  C   UNL A   1      42.695  20.924  27.765  1.00  0.00     0.020 A 
ATOM     77  C   UNL A   1      43.258  21.281  25.430  1.00  0.00     0.020 A 
ATOM     78  C   UNL A   1      42.801  20.451  26.454  1.00  0.00     0.054 A 
BRANCH  78  79
ATOM     79  S   UNL A   1      42.292  18.746  26.095  1.00  0.00     0.124 S 
ATOM     80  O   UNL A   1      43.197  18.382  25.009  1.00  0.00    -0.237 OA
ATOM     81  O   UNL A   1      42.526  18.073  27.370  1.00  0.00    -0.237 OA
ATOM     82  O   UNL A   1      40.886  18.882  25.719  1.00  0.00    -0.744 OA
ENDBRANCH  78  79
ENDBRANCH  50  73
BRANCH  62  83
ATOM     83  C   UNL A   1      49.535  26.633  26.907  1.00  0.00    -0.014 A 
ATOM     84  C   UNL A   1      50.412  26.157  27.899  1.00  0.00     0.010 A 
ATOM     85  C   UNL A   1      49.968  26.671  25.570  1.00  0.00     0.010 A 
ATOM     86  C   UNL A   1      51.704  25.747  27.561  1.00  0.00     0.020 A 
ATOM     87  C   UNL A   1      51.249  26.232  25.224  1.00  0.00     0.020 A 
ATOM     88  C   UNL A   1      52.112  25.781  26.224  1.00  0.00     0.054 A 
BRANCH  88  89
ATOM     89  S   UNL A   1      53.772  25.180  25.807  1.00  0.00     0.124 S 
ATOM     90  O   UNL A   1      54.484  25.353  27.070  1.00  0.00    -0.237 OA
ATOM     91  O   UNL A   1      53.520  23.798  25.410  1.00  0.00    -0.237 OA
ATOM     92  O   UNL A   1      54.200  26.066  24.726  1.00  0.00    -0.744 OA
ENDBRANCH  88  89
ENDBRANCH  62  83
ENDBRANCH  36  37
ENDBRANCH  28  31
ENDBRANCH  26  27
ENDBRANCH  25  26
ENDBRANCH  24  25
ENDBRANCH   1  24
TORSDOF 19
ENDMDL
