MODEL 1
REMARK VINA RESULT:     -11.8      0.000      0.000
REMARK SMILES C[N@H+]1CCO[C@H](c2noc(-c3ccccc3C(=O)NCCCCCCNC(=O)c3ccc(-c4c5nc(c(-c6ccc(S(=O)(=O)[O-])cc6)c6ccc([nH]6)c(-c6ccc(S(=O)(=O)[O-])cc6)c6nc(c(-c7ccc(S(=O)(=O)[O-])cc7)c7ccc4[nH]7)C=C6)C=C5)cc3)n2)C1
REMARK SMILES IDX 23 1 22 2 21 3 20 4 19 5 17 6 18 7 16 9 11 10 12 11 13 12
REMARK SMILES IDX 15 13 14 14 10 15 7 16 8 17 89 18 9 19 6 20 1 21 2 22 3 23
REMARK SMILES IDX 90 24 4 26 5 27 24 28 25 29 26 30 27 31 28 33 29 34 30 35
REMARK SMILES IDX 88 36 31 37 87 38 32 39 33 40 34 41 81 42 35 43 86 44 80 45
REMARK SMILES IDX 82 46 36 47 85 48 79 49 78 50 37 52 67 53 48 54 66 55 49 56
REMARK SMILES IDX 52 57 65 58 83 59 50 60 51 61 64 63 84 64 53 65 38 66 39 67
REMARK SMILES IDX 47 68 40 69 46 70 41 71 42 72 43 73 44 74 45 75 68 76 69 77
REMARK SMILES IDX 77 78 70 79 76 80 71 81 72 82 73 83 74 84 75 85 54 86 55 87
REMARK SMILES IDX 63 88 56 89 62 90 57 91 58 92 59 93 60 94 61 95
REMARK H PARENT 19 8 2 25 26 32 82 51 52 62
REMARK Flexibility Score: inf
ROOT
ATOM      1  C   UNL A   1      38.247  21.940  25.831  1.00  0.00     0.002 C 
ENDROOT
BRANCH   1   2
ATOM      2  C   UNL A   1      37.933  23.437  25.733  1.00  0.00     0.002 C 
BRANCH   2   3
ATOM      3  C   UNL A   1      36.455  23.854  25.791  1.00  0.00     0.021 C 
BRANCH   3   4
ATOM      4  C   UNL A   1      35.403  22.776  25.535  1.00  0.00     0.116 C 
BRANCH   4   5
ATOM      5  N   UNL A   1      34.712  22.286  26.713  1.00  0.00    -0.352 N 
ATOM      6  C   UNL A   1      33.378  22.379  27.057  1.00  0.00     0.252 C 
ATOM      7  O   UNL A   1      32.988  21.826  28.085  1.00  0.00    -0.269 OA
ATOM      8  H   UNL A   1      35.279  21.817  27.366  1.00  0.00     0.163 HD
BRANCH   6   9
ATOM      9  C   UNL A   1      32.414  23.233  26.304  1.00  0.00     0.052 A 
ATOM     10  C   UNL A   1      31.796  22.891  25.087  1.00  0.00     0.053 A 
ATOM     11  C   UNL A   1      30.973  23.842  24.451  1.00  0.00     0.015 A 
ATOM     12  C   UNL A   1      30.698  25.072  25.050  1.00  0.00     0.001 A 
ATOM     13  C   UNL A   1      32.091  24.458  26.918  1.00  0.00     0.014 A 
ATOM     14  C   UNL A   1      31.235  25.369  26.299  1.00  0.00     0.001 A 
BRANCH  10  15
ATOM     15  C   UNL A   1      31.922  21.569  24.505  1.00  0.00     0.258 A 
ATOM     16  C   UNL A   1      32.261  19.553  24.052  1.00  0.00     0.206 A 
ATOM     17  N   UNL A   1      32.350  20.154  22.855  1.00  0.00    -0.059 NA
ATOM     18  N   UNL A   1      31.973  20.401  25.095  1.00  0.00    -0.189 NA
ATOM     19  O   UNL A   1      32.114  21.500  23.155  1.00  0.00    -0.334 OA
BRANCH  16  20
ATOM     20  C   UNL A   1      32.612  18.110  24.271  1.00  0.00     0.245 C 
ATOM     21  C   UNL A   1      32.302  15.449  25.902  1.00  0.00     0.332 C 
ATOM     22  N   UNL A   1      33.345  16.456  26.087  1.00  0.00    -0.333 N 
ATOM     23  C   UNL A   1      34.517  16.188  25.229  1.00  0.00     0.290 C 
ATOM     24  C   UNL A   1      32.844  17.819  25.778  1.00  0.00     0.303 C 
ATOM     25  H   UNL A   1      33.621  16.405  27.068  1.00  0.00     0.348 HD
ATOM     26  C   UNL A   1      34.248  16.448  23.742  1.00  0.00     0.222 C 
ATOM     27  O   UNL A   1      33.806  17.789  23.529  1.00  0.00    -0.358 OA
ENDBRANCH  16  20
ENDBRANCH  10  15
ENDBRANCH   6   9
ENDBRANCH   4   5
ENDBRANCH   3   4
ENDBRANCH   2   3
ENDBRANCH   1   2
BRANCH   1  28
ATOM     28  C   UNL A   1      39.681  21.571  26.232  1.00  0.00     0.021 C 
BRANCH  28  29
ATOM     29  C   UNL A   1      40.457  22.655  26.968  1.00  0.00     0.116 C 
BRANCH  29  30
ATOM     30  N   UNL A   1      41.455  23.295  26.116  1.00  0.00    -0.352 N 
ATOM     31  C   UNL A   1      42.009  24.554  26.093  1.00  0.00     0.251 C 
ATOM     32  H   UNL A   1      41.804  22.703  25.411  1.00  0.00     0.163 HD
ATOM     33  O   UNL A   1      42.671  24.866  25.102  1.00  0.00    -0.269 OA
BRANCH  31  34
ATOM     34  C   UNL A   1      41.840  25.546  27.190  1.00  0.00     0.039 A 
ATOM     35  C   UNL A   1      40.744  25.406  28.057  1.00  0.00     0.014 A 
ATOM     36  C   UNL A   1      42.670  26.653  27.348  1.00  0.00     0.014 A 
ATOM     37  C   UNL A   1      40.520  26.332  29.086  1.00  0.00     0.010 A 
ATOM     38  C   UNL A   1      42.519  27.506  28.443  1.00  0.00     0.010 A 
ATOM     39  C   UNL A   1      41.429  27.375  29.313  1.00  0.00    -0.014 A 
BRANCH  39  40
ATOM     40  C   UNL A   1      41.248  28.361  30.417  1.00  0.00     0.031 A 
ATOM     41  C   UNL A   1      42.110  28.281  31.656  1.00  0.00     0.074 A 
ATOM     42  C   UNL A   1      40.261  29.278  30.351  1.00  0.00     0.049 A 
ATOM     43  N   UNL A   1      42.020  28.958  32.773  1.00  0.00    -0.248 NA
ATOM     44  C   UNL A   1      43.190  27.279  31.654  1.00  0.00     0.031 C 
ATOM     45  C   UNL A   1      39.326  29.442  29.235  1.00  0.00     0.029 A 
ATOM     46  N   UNL A   1      39.870  30.243  31.249  1.00  0.00    -0.354 N 
ATOM     47  C   UNL A   1      42.999  28.437  33.615  1.00  0.00     0.074 A 
ATOM     48  C   UNL A   1      43.636  27.354  32.900  1.00  0.00     0.031 C 
ATOM     49  C   UNL A   1      38.494  30.462  29.501  1.00  0.00     0.029 A 
ATOM     50  C   UNL A   1      38.800  30.994  30.824  1.00  0.00     0.049 A 
ATOM     51  H   UNL A   1      40.316  30.382  32.116  1.00  0.00     0.167 HD
ATOM     52  C   UNL A   1      43.352  28.833  34.862  1.00  0.00     0.031 A 
ATOM     53  C   UNL A   1      38.128  31.993  31.432  1.00  0.00     0.031 A 
ATOM     54  C   UNL A   1      42.749  29.939  35.556  1.00  0.00     0.049 A 
ATOM     55  C   UNL A   1      38.555  32.434  32.804  1.00  0.00     0.074 A 
ATOM     56  C   UNL A   1      43.084  30.468  36.790  1.00  0.00     0.029 A 
ATOM     57  N   UNL A   1      41.692  30.695  35.071  1.00  0.00    -0.354 N 
ATOM     58  N   UNL A   1      39.518  31.961  33.560  1.00  0.00    -0.248 NA
ATOM     59  C   UNL A   1      37.814  33.554  33.403  1.00  0.00     0.031 C 
ATOM     60  C   UNL A   1      42.202  31.515  37.072  1.00  0.00     0.029 A 
ATOM     61  C   UNL A   1      41.351  31.674  35.988  1.00  0.00     0.049 A 
ATOM     62  H   UNL A   1      41.248  30.555  34.204  1.00  0.00     0.167 HD
ATOM     63  C   UNL A   1      39.512  32.740  34.712  1.00  0.00     0.074 A 
ATOM     64  C   UNL A   1      38.463  33.726  34.546  1.00  0.00     0.031 C 
ATOM     65  C   UNL A   1      40.306  32.649  35.807  1.00  0.00     0.031 A 
BRANCH  52  66
ATOM     66  C   UNL A   1      44.448  28.064  35.558  1.00  0.00    -0.014 A 
ATOM     67  C   UNL A   1      45.797  28.450  35.439  1.00  0.00     0.010 A 
ATOM     68  C   UNL A   1      44.123  26.964  36.372  1.00  0.00     0.010 A 
ATOM     69  C   UNL A   1      46.802  27.719  36.080  1.00  0.00     0.020 A 
ATOM     70  C   UNL A   1      45.123  26.250  37.040  1.00  0.00     0.020 A 
ATOM     71  C   UNL A   1      46.459  26.621  36.873  1.00  0.00     0.054 A 
BRANCH  71  72
ATOM     72  S   UNL A   1      47.780  25.702  37.710  1.00  0.00     0.124 S 
ATOM     73  O   UNL A   1      47.121  24.427  37.996  1.00  0.00    -0.237 OA
ATOM     74  O   UNL A   1      48.827  25.645  36.688  1.00  0.00    -0.237 OA
ATOM     75  O   UNL A   1      48.092  26.517  38.872  1.00  0.00    -0.744 OA
ENDBRANCH  71  72
ENDBRANCH  52  66
BRANCH  53  76
ATOM     76  C   UNL A   1      36.993  32.657  30.734  1.00  0.00    -0.014 A 
ATOM     77  C   UNL A   1      35.666  32.359  31.091  1.00  0.00     0.010 A 
ATOM     78  C   UNL A   1      37.231  33.606  29.723  1.00  0.00     0.010 A 
ATOM     79  C   UNL A   1      34.599  32.985  30.441  1.00  0.00     0.020 A 
ATOM     80  C   UNL A   1      36.167  34.256  29.091  1.00  0.00     0.020 A 
ATOM     81  C   UNL A   1      34.856  33.932  29.446  1.00  0.00     0.054 A 
BRANCH  81  82
ATOM     82  S   UNL A   1      33.456  34.777  28.659  1.00  0.00     0.124 S 
ATOM     83  O   UNL A   1      33.127  33.865  27.568  1.00  0.00    -0.237 OA
ATOM     84  O   UNL A   1      32.479  34.848  29.743  1.00  0.00    -0.237 OA
ATOM     85  O   UNL A   1      34.018  36.064  28.252  1.00  0.00    -0.744 OA
ENDBRANCH  81  82
ENDBRANCH  53  76
BRANCH  65  86
ATOM     86  C   UNL A   1      40.097  33.661  36.900  1.00  0.00    -0.014 A 
ATOM     87  C   UNL A   1      40.885  34.823  36.980  1.00  0.00     0.010 A 
ATOM     88  C   UNL A   1      39.057  33.472  37.829  1.00  0.00     0.010 A 
ATOM     89  C   UNL A   1      40.654  35.763  37.987  1.00  0.00     0.020 A 
ATOM     90  C   UNL A   1      38.807  34.423  38.821  1.00  0.00     0.020 A 
ATOM     91  C   UNL A   1      39.617  35.557  38.901  1.00  0.00     0.054 A 
BRANCH  91  92
ATOM     92  S   UNL A   1      39.310  36.814  40.172  1.00  0.00     0.124 S 
ATOM     93  O   UNL A   1      40.665  37.232  40.521  1.00  0.00    -0.237 OA
ATOM     94  O   UNL A   1      38.511  37.806  39.456  1.00  0.00    -0.237 OA
ATOM     95  O   UNL A   1      38.594  36.084  41.216  1.00  0.00    -0.744 OA
ENDBRANCH  91  92
ENDBRANCH  65  86
ENDBRANCH  39  40
ENDBRANCH  31  34
ENDBRANCH  29  30
ENDBRANCH  28  29
ENDBRANCH   1  28
TORSDOF 18
ENDMDL
MODEL 2
REMARK VINA RESULT:     -11.7      6.176     11.667
REMARK SMILES C[N@H+]1CCO[C@H](c2noc(-c3ccccc3C(=O)NCCCCCCNC(=O)c3ccc(-c4c5nc(c(-c6ccc(S(=O)(=O)[O-])cc6)c6ccc([nH]6)c(-c6ccc(S(=O)(=O)[O-])cc6)c6nc(c(-c7ccc(S(=O)(=O)[O-])cc7)c7ccc4[nH]7)C=C6)C=C5)cc3)n2)C1
REMARK SMILES IDX 23 1 22 2 21 3 20 4 19 5 17 6 18 7 16 9 11 10 12 11 13 12
REMARK SMILES IDX 15 13 14 14 10 15 7 16 8 17 89 18 9 19 6 20 1 21 2 22 3 23
REMARK SMILES IDX 90 24 4 26 5 27 24 28 25 29 26 30 27 31 28 33 29 34 30 35
REMARK SMILES IDX 88 36 31 37 87 38 32 39 33 40 34 41 81 42 35 43 86 44 80 45
REMARK SMILES IDX 82 46 36 47 85 48 79 49 78 50 37 52 67 53 48 54 66 55 49 56
REMARK SMILES IDX 52 57 65 58 83 59 50 60 51 61 64 63 84 64 53 65 38 66 39 67
REMARK SMILES IDX 47 68 40 69 46 70 41 71 42 72 43 73 44 74 45 75 68 76 69 77
REMARK SMILES IDX 77 78 70 79 76 80 71 81 72 82 73 83 74 84 75 85 54 86 55 87
REMARK SMILES IDX 63 88 56 89 62 90 57 91 58 92 59 93 60 94 61 95
REMARK H PARENT 19 8 2 25 26 32 82 51 52 62
REMARK Flexibility Score: inf
ROOT
ATOM      1  C   UNL A   1      35.024  31.113  27.377  1.00  0.00     0.002 C 
ENDROOT
BRANCH   1   2
ATOM      2  C   UNL A   1      33.777  30.261  27.632  1.00  0.00     0.002 C 
BRANCH   2   3
ATOM      3  C   UNL A   1      32.493  30.643  26.878  1.00  0.00     0.021 C 
BRANCH   3   4
ATOM      4  C   UNL A   1      31.774  29.543  26.098  1.00  0.00     0.116 C 
BRANCH   4   5
ATOM      5  N   UNL A   1      32.362  29.201  24.816  1.00  0.00    -0.352 N 
ATOM      6  C   UNL A   1      31.750  28.874  23.623  1.00  0.00     0.252 C 
ATOM      7  O   UNL A   1      32.448  28.683  22.628  1.00  0.00    -0.269 OA
ATOM      8  H   UNL A   1      33.346  29.202  24.794  1.00  0.00     0.163 HD
BRANCH   6   9
ATOM      9  C   UNL A   1      30.285  28.612  23.519  1.00  0.00     0.052 A 
ATOM     10  C   UNL A   1      29.637  27.423  23.902  1.00  0.00     0.053 A 
ATOM     11  C   UNL A   1      28.254  27.294  23.661  1.00  0.00     0.015 A 
ATOM     12  C   UNL A   1      27.513  28.351  23.131  1.00  0.00     0.001 A 
ATOM     13  C   UNL A   1      29.517  29.686  23.029  1.00  0.00     0.014 A 
ATOM     14  C   UNL A   1      28.140  29.559  22.842  1.00  0.00     0.001 A 
BRANCH  10  15
ATOM     15  C   UNL A   1      30.332  26.360  24.601  1.00  0.00     0.258 A 
ATOM     16  C   UNL A   1      31.385  24.658  25.218  1.00  0.00     0.206 A 
ATOM     17  N   UNL A   1      30.648  24.969  26.297  1.00  0.00    -0.059 NA
ATOM     18  N   UNL A   1      31.229  25.517  24.156  1.00  0.00    -0.189 NA
ATOM     19  O   UNL A   1      29.950  26.111  25.889  1.00  0.00    -0.334 OA
BRANCH  16  20
ATOM     20  C   UNL A   1      32.182  23.391  25.108  1.00  0.00     0.245 C 
ATOM     21  C   UNL A   1      32.348  20.324  24.476  1.00  0.00     0.332 C 
ATOM     22  N   UNL A   1      32.169  20.923  25.798  1.00  0.00    -0.333 N 
ATOM     23  C   UNL A   1      33.465  21.201  26.448  1.00  0.00     0.290 C 
ATOM     24  C   UNL A   1      31.406  22.194  25.719  1.00  0.00     0.303 C 
ATOM     25  H   UNL A   1      31.648  20.242  26.352  1.00  0.00     0.348 HD
ATOM     26  C   UNL A   1      34.227  22.364  25.802  1.00  0.00     0.222 C 
ATOM     27  O   UNL A   1      33.437  23.554  25.799  1.00  0.00    -0.358 OA
ENDBRANCH  16  20
ENDBRANCH  10  15
ENDBRANCH   6   9
ENDBRANCH   4   5
ENDBRANCH   3   4
ENDBRANCH   2   3
ENDBRANCH   1   2
BRANCH   1  28
ATOM     28  C   UNL A   1      35.053  32.494  28.047  1.00  0.00     0.021 C 
BRANCH  28  29
ATOM     29  C   UNL A   1      36.071  32.661  29.166  1.00  0.00     0.116 C 
BRANCH  29  30
ATOM     30  N   UNL A   1      35.833  31.738  30.272  1.00  0.00    -0.352 N 
ATOM     31  C   UNL A   1      36.491  30.620  30.727  1.00  0.00     0.251 C 
ATOM     32  H   UNL A   1      35.035  31.964  30.803  1.00  0.00     0.163 HD
ATOM     33  O   UNL A   1      35.913  29.918  31.558  1.00  0.00    -0.269 OA
BRANCH  31  34
ATOM     34  C   UNL A   1      37.846  30.218  30.261  1.00  0.00     0.039 A 
ATOM     35  C   UNL A   1      38.821  29.909  31.223  1.00  0.00     0.014 A 
ATOM     36  C   UNL A   1      38.218  30.212  28.919  1.00  0.00     0.014 A 
ATOM     37  C   UNL A   1      40.122  29.557  30.839  1.00  0.00     0.010 A 
ATOM     38  C   UNL A   1      39.475  29.745  28.529  1.00  0.00     0.010 A 
ATOM     39  C   UNL A   1      40.455  29.435  29.482  1.00  0.00    -0.014 A 
BRANCH  39  40
ATOM     40  C   UNL A   1      41.817  29.029  29.029  1.00  0.00     0.031 A 
ATOM     41  C   UNL A   1      42.931  30.050  28.965  1.00  0.00     0.074 A 
ATOM     42  C   UNL A   1      42.040  27.771  28.599  1.00  0.00     0.049 A 
ATOM     43  N   UNL A   1      44.140  29.926  28.478  1.00  0.00    -0.248 NA
ATOM     44  C   UNL A   1      42.632  31.397  29.479  1.00  0.00     0.031 C 
ATOM     45  C   UNL A   1      41.047  26.695  28.564  1.00  0.00     0.029 A 
ATOM     46  N   UNL A   1      43.176  27.183  28.095  1.00  0.00    -0.354 N 
ATOM     47  C   UNL A   1      44.726  31.184  28.589  1.00  0.00     0.074 A 
ATOM     48  C   UNL A   1      43.724  32.068  29.142  1.00  0.00     0.031 C 
ATOM     49  C   UNL A   1      41.623  25.576  28.096  1.00  0.00     0.029 A 
ATOM     50  C   UNL A   1      43.010  25.863  27.751  1.00  0.00     0.049 A 
ATOM     51  H   UNL A   1      44.029  27.664  27.991  1.00  0.00     0.167 HD
ATOM     52  C   UNL A   1      45.988  31.568  28.280  1.00  0.00     0.031 A 
ATOM     53  C   UNL A   1      43.872  24.979  27.207  1.00  0.00     0.031 A 
ATOM     54  C   UNL A   1      46.999  30.678  27.774  1.00  0.00     0.049 A 
ATOM     55  C   UNL A   1      45.276  25.420  26.898  1.00  0.00     0.074 A 
ATOM     56  C   UNL A   1      48.327  30.951  27.500  1.00  0.00     0.029 A 
ATOM     57  N   UNL A   1      46.795  29.339  27.475  1.00  0.00    -0.354 N 
ATOM     58  N   UNL A   1      45.823  26.601  27.060  1.00  0.00    -0.248 NA
ATOM     59  C   UNL A   1      46.184  24.405  26.343  1.00  0.00     0.031 C 
ATOM     60  C   UNL A   1      48.917  29.788  26.993  1.00  0.00     0.029 A 
ATOM     61  C   UNL A   1      47.969  28.777  27.004  1.00  0.00     0.049 A 
ATOM     62  H   UNL A   1      45.942  28.860  27.580  1.00  0.00     0.167 HD
ATOM     63  C   UNL A   1      47.145  26.465  26.650  1.00  0.00     0.074 A 
ATOM     64  C   UNL A   1      47.319  25.083  26.249  1.00  0.00     0.031 C 
ATOM     65  C   UNL A   1      48.127  27.400  26.611  1.00  0.00     0.031 A 
BRANCH  52  66
ATOM     66  C   UNL A   1      46.350  33.018  28.486  1.00  0.00    -0.014 A 
ATOM     67  C   UNL A   1      46.163  33.968  27.464  1.00  0.00     0.010 A 
ATOM     68  C   UNL A   1      46.848  33.444  29.730  1.00  0.00     0.010 A 
ATOM     69  C   UNL A   1      46.515  35.306  27.668  1.00  0.00     0.020 A 
ATOM     70  C   UNL A   1      47.172  34.788  29.948  1.00  0.00     0.020 A 
ATOM     71  C   UNL A   1      47.021  35.706  28.907  1.00  0.00     0.054 A 
BRANCH  71  72
ATOM     72  S   UNL A   1      47.452  37.452  29.152  1.00  0.00     0.124 S 
ATOM     73  O   UNL A   1      48.749  37.536  28.480  1.00  0.00    -0.237 OA
ATOM     74  O   UNL A   1      46.356  38.149  28.477  1.00  0.00    -0.237 OA
ATOM     75  O   UNL A   1      47.487  37.604  30.597  1.00  0.00    -0.744 OA
ENDBRANCH  71  72
ENDBRANCH  52  66
BRANCH  53  76
ATOM     76  C   UNL A   1      43.433  23.582  26.940  1.00  0.00    -0.014 A 
ATOM     77  C   UNL A   1      43.293  23.121  25.619  1.00  0.00     0.010 A 
ATOM     78  C   UNL A   1      43.174  22.697  28.003  1.00  0.00     0.010 A 
ATOM     79  C   UNL A   1      42.886  21.807  25.366  1.00  0.00     0.020 A 
ATOM     80  C   UNL A   1      42.795  21.375  27.753  1.00  0.00     0.020 A 
ATOM     81  C   UNL A   1      42.642  20.941  26.435  1.00  0.00     0.054 A 
BRANCH  81  82
ATOM     82  S   UNL A   1      42.175  19.224  26.082  1.00  0.00     0.124 S 
ATOM     83  O   UNL A   1      42.497  18.558  27.340  1.00  0.00    -0.237 OA
ATOM     84  O   UNL A   1      40.751  19.340  25.774  1.00  0.00    -0.237 OA
ATOM     85  O   UNL A   1      43.022  18.865  24.947  1.00  0.00    -0.744 OA
ENDBRANCH  81  82
ENDBRANCH  53  76
BRANCH  65  86
ATOM     86  C   UNL A   1      49.489  26.955  26.151  1.00  0.00    -0.014 A 
ATOM     87  C   UNL A   1      50.396  26.348  27.037  1.00  0.00     0.010 A 
ATOM     88  C   UNL A   1      49.842  27.097  24.796  1.00  0.00     0.010 A 
ATOM     89  C   UNL A   1      51.644  25.917  26.582  1.00  0.00     0.020 A 
ATOM     90  C   UNL A   1      51.079  26.643  24.332  1.00  0.00     0.020 A 
ATOM     91  C   UNL A   1      51.978  26.068  25.233  1.00  0.00     0.054 A 
BRANCH  91  92
ATOM     92  S   UNL A   1      53.587  25.460  24.657  1.00  0.00     0.124 S 
ATOM     93  O   UNL A   1      53.617  25.935  23.277  1.00  0.00    -0.237 OA
ATOM     94  O   UNL A   1      54.522  26.116  25.568  1.00  0.00    -0.237 OA
ATOM     95  O   UNL A   1      53.488  24.010  24.816  1.00  0.00    -0.744 OA
ENDBRANCH  91  92
ENDBRANCH  65  86
ENDBRANCH  39  40
ENDBRANCH  31  34
ENDBRANCH  29  30
ENDBRANCH  28  29
ENDBRANCH   1  28
TORSDOF 18
ENDMDL
MODEL 3
REMARK VINA RESULT:     -11.7      1.833      8.767
REMARK SMILES C[N@H+]1CCO[C@H](c2noc(-c3ccccc3C(=O)NCCCCCCNC(=O)c3ccc(-c4c5nc(c(-c6ccc(S(=O)(=O)[O-])cc6)c6ccc([nH]6)c(-c6ccc(S(=O)(=O)[O-])cc6)c6nc(c(-c7ccc(S(=O)(=O)[O-])cc7)c7ccc4[nH]7)C=C6)C=C5)cc3)n2)C1
REMARK SMILES IDX 23 1 22 2 21 3 20 4 19 5 17 6 18 7 16 9 11 10 12 11 13 12
REMARK SMILES IDX 15 13 14 14 10 15 7 16 8 17 89 18 9 19 6 20 1 21 2 22 3 23
REMARK SMILES IDX 90 24 4 26 5 27 24 28 25 29 26 30 27 31 28 33 29 34 30 35
REMARK SMILES IDX 88 36 31 37 87 38 32 39 33 40 34 41 81 42 35 43 86 44 80 45
REMARK SMILES IDX 82 46 36 47 85 48 79 49 78 50 37 52 67 53 48 54 66 55 49 56
REMARK SMILES IDX 52 57 65 58 83 59 50 60 51 61 64 63 84 64 53 65 38 66 39 67
REMARK SMILES IDX 47 68 40 69 46 70 41 71 42 72 43 73 44 74 45 75 68 76 69 77
REMARK SMILES IDX 77 78 70 79 76 80 71 81 72 82 73 83 74 84 75 85 54 86 55 87
REMARK SMILES IDX 63 88 56 89 62 90 57 91 58 92 59 93 60 94 61 95
REMARK H PARENT 19 8 2 25 26 32 82 51 52 62
REMARK Flexibility Score: inf
ROOT
ATOM      1  C   UNL A   1      39.425  22.228  26.193  1.00  0.00     0.002 C 
ENDROOT
BRANCH   1   2
ATOM      2  C   UNL A   1      38.255  23.156  25.847  1.00  0.00     0.002 C 
BRANCH   2   3
ATOM      3  C   UNL A   1      37.120  22.572  24.992  1.00  0.00     0.021 C 
BRANCH   3   4
ATOM      4  C   UNL A   1      36.404  21.328  25.517  1.00  0.00     0.116 C 
BRANCH   4   5
ATOM      5  N   UNL A   1      35.339  21.576  26.471  1.00  0.00    -0.352 N 
ATOM      6  C   UNL A   1      34.018  21.178  26.443  1.00  0.00     0.252 C 
ATOM      7  O   UNL A   1      33.295  21.445  27.403  1.00  0.00    -0.269 OA
ATOM      8  H   UNL A   1      35.598  22.110  27.257  1.00  0.00     0.163 HD
BRANCH   6   9
ATOM      9  C   UNL A   1      33.394  20.553  25.241  1.00  0.00     0.052 A 
ATOM     10  C   UNL A   1      33.010  21.234  24.071  1.00  0.00     0.053 A 
ATOM     11  C   UNL A   1      32.350  20.517  23.052  1.00  0.00     0.015 A 
ATOM     12  C   UNL A   1      32.154  19.139  23.152  1.00  0.00     0.001 A 
ATOM     13  C   UNL A   1      33.232  19.156  25.308  1.00  0.00     0.014 A 
ATOM     14  C   UNL A   1      32.621  18.452  24.268  1.00  0.00     0.001 A 
BRANCH  10  15
ATOM     15  C   UNL A   1      33.334  22.630  23.853  1.00  0.00     0.258 A 
ATOM     16  C   UNL A   1      33.392  24.713  23.644  1.00  0.00     0.206 A 
ATOM     17  N   UNL A   1      34.354  24.295  22.805  1.00  0.00    -0.059 NA
ATOM     18  N   UNL A   1      32.755  23.704  24.327  1.00  0.00    -0.189 NA
ATOM     19  O   UNL A   1      34.323  22.904  22.951  1.00  0.00    -0.334 OA
BRANCH  16  20
ATOM     20  C   UNL A   1      32.927  26.138  23.710  1.00  0.00     0.245 C 
ATOM     21  C   UNL A   1      30.853  28.365  22.949  1.00  0.00     0.332 C 
ATOM     22  N   UNL A   1      32.100  28.071  22.244  1.00  0.00    -0.333 N 
ATOM     23  C   UNL A   1      33.231  28.842  22.796  1.00  0.00     0.290 C 
ATOM     24  C   UNL A   1      32.439  26.627  22.320  1.00  0.00     0.303 C 
ATOM     25  H   UNL A   1      31.947  28.337  21.270  1.00  0.00     0.348 HD
ATOM     26  C   UNL A   1      33.668  28.362  24.185  1.00  0.00     0.222 C 
ATOM     27  O   UNL A   1      34.010  26.975  24.162  1.00  0.00    -0.358 OA
ENDBRANCH  16  20
ENDBRANCH  10  15
ENDBRANCH   6   9
ENDBRANCH   4   5
ENDBRANCH   3   4
ENDBRANCH   2   3
ENDBRANCH   1   2
BRANCH   1  28
ATOM     28  C   UNL A   1      40.221  22.581  27.456  1.00  0.00     0.021 C 
BRANCH  28  29
ATOM     29  C   UNL A   1      41.597  23.187  27.218  1.00  0.00     0.116 C 
BRANCH  29  30
ATOM     30  N   UNL A   1      41.587  24.179  26.147  1.00  0.00    -0.352 N 
ATOM     31  C   UNL A   1      41.310  25.525  26.110  1.00  0.00     0.251 C 
ATOM     32  H   UNL A   1      41.827  23.806  25.268  1.00  0.00     0.163 HD
ATOM     33  O   UNL A   1      41.168  26.047  25.003  1.00  0.00    -0.269 OA
BRANCH  31  34
ATOM     34  C   UNL A   1      41.166  26.368  27.328  1.00  0.00     0.039 A 
ATOM     35  C   UNL A   1      40.122  26.082  28.222  1.00  0.00     0.014 A 
ATOM     36  C   UNL A   1      41.967  27.478  27.584  1.00  0.00     0.014 A 
ATOM     37  C   UNL A   1      39.922  26.865  29.368  1.00  0.00     0.010 A 
ATOM     38  C   UNL A   1      41.846  28.185  28.782  1.00  0.00     0.010 A 
ATOM     39  C   UNL A   1      40.807  27.907  29.680  1.00  0.00    -0.014 A 
BRANCH  39  40
ATOM     40  C   UNL A   1      40.652  28.743  30.905  1.00  0.00     0.031 A 
ATOM     41  C   UNL A   1      39.572  29.799  30.972  1.00  0.00     0.074 A 
ATOM     42  C   UNL A   1      41.524  28.616  31.926  1.00  0.00     0.049 A 
ATOM     43  N   UNL A   1      39.360  30.709  31.889  1.00  0.00    -0.248 NA
ATOM     44  C   UNL A   1      38.633  29.866  29.840  1.00  0.00     0.031 C 
ATOM     45  C   UNL A   1      42.641  27.669  31.979  1.00  0.00     0.029 A 
ATOM     46  N   UNL A   1      41.617  29.296  33.117  1.00  0.00    -0.354 N 
ATOM     47  C   UNL A   1      38.296  31.477  31.425  1.00  0.00     0.074 A 
ATOM     48  C   UNL A   1      37.940  30.959  30.123  1.00  0.00     0.031 C 
ATOM     49  C   UNL A   1      43.284  27.808  33.149  1.00  0.00     0.029 A 
ATOM     50  C   UNL A   1      42.661  28.884  33.911  1.00  0.00     0.049 A 
ATOM     51  H   UNL A   1      40.993  30.013  33.377  1.00  0.00     0.167 HD
ATOM     52  C   UNL A   1      37.657  32.507  32.031  1.00  0.00     0.031 A 
ATOM     53  C   UNL A   1      43.081  29.326  35.113  1.00  0.00     0.031 A 
ATOM     54  C   UNL A   1      37.982  32.993  33.346  1.00  0.00     0.049 A 
ATOM     55  C   UNL A   1      42.341  30.452  35.780  1.00  0.00     0.074 A 
ATOM     56  C   UNL A   1      37.349  33.980  34.079  1.00  0.00     0.029 A 
ATOM     57  N   UNL A   1      39.025  32.519  34.128  1.00  0.00    -0.354 N 
ATOM     58  N   UNL A   1      41.305  31.128  35.345  1.00  0.00    -0.248 NA
ATOM     59  C   UNL A   1      42.818  30.867  37.107  1.00  0.00     0.031 C 
ATOM     60  C   UNL A   1      38.035  34.135  35.288  1.00  0.00     0.029 A 
ATOM     61  C   UNL A   1      39.063  33.206  35.330  1.00  0.00     0.049 A 
ATOM     62  H   UNL A   1      39.647  31.803  33.867  1.00  0.00     0.167 HD
ATOM     63  C   UNL A   1      40.992  32.032  36.355  1.00  0.00     0.074 A 
ATOM     64  C   UNL A   1      41.937  31.804  37.429  1.00  0.00     0.031 C 
ATOM     65  C   UNL A   1      40.009  32.966  36.390  1.00  0.00     0.031 A 
BRANCH  52  66
ATOM     66  C   UNL A   1      36.536  33.178  31.277  1.00  0.00    -0.014 A 
ATOM     67  C   UNL A   1      35.299  33.443  31.895  1.00  0.00     0.010 A 
ATOM     68  C   UNL A   1      36.732  33.583  29.945  1.00  0.00     0.010 A 
ATOM     69  C   UNL A   1      34.266  34.054  31.179  1.00  0.00     0.020 A 
ATOM     70  C   UNL A   1      35.711  34.223  29.235  1.00  0.00     0.020 A 
ATOM     71  C   UNL A   1      34.477  34.436  29.852  1.00  0.00     0.054 A 
BRANCH  71  72
ATOM     72  S   UNL A   1      33.126  35.246  28.950  1.00  0.00     0.124 S 
ATOM     73  O   UNL A   1      32.733  34.202  28.002  1.00  0.00    -0.237 OA
ATOM     74  O   UNL A   1      32.155  35.522  30.010  1.00  0.00    -0.237 OA
ATOM     75  O   UNL A   1      33.752  36.419  28.361  1.00  0.00    -0.744 OA
ENDBRANCH  71  72
ENDBRANCH  52  66
BRANCH  53  76
ATOM     76  C   UNL A   1      44.253  28.685  35.772  1.00  0.00    -0.014 A 
ATOM     77  C   UNL A   1      44.074  27.588  36.632  1.00  0.00     0.010 A 
ATOM     78  C   UNL A   1      45.557  29.155  35.527  1.00  0.00     0.010 A 
ATOM     79  C   UNL A   1      45.173  26.981  37.247  1.00  0.00     0.020 A 
ATOM     80  C   UNL A   1      46.661  28.533  36.117  1.00  0.00     0.020 A 
ATOM     81  C   UNL A   1      46.461  27.456  36.984  1.00  0.00     0.054 A 
BRANCH  81  82
ATOM     82  S   UNL A   1      47.877  26.615  37.745  1.00  0.00     0.124 S 
ATOM     83  O   UNL A   1      48.964  27.551  37.477  1.00  0.00    -0.237 OA
ATOM     84  O   UNL A   1      47.466  26.505  39.143  1.00  0.00    -0.237 OA
ATOM     85  O   UNL A   1      47.949  25.346  37.024  1.00  0.00    -0.744 OA
ENDBRANCH  81  82
ENDBRANCH  53  76
BRANCH  65  86
ATOM     86  C   UNL A   1      39.880  33.789  37.642  1.00  0.00    -0.014 A 
ATOM     87  C   UNL A   1      40.535  35.026  37.772  1.00  0.00     0.010 A 
ATOM     88  C   UNL A   1      39.043  33.343  38.681  1.00  0.00     0.010 A 
ATOM     89  C   UNL A   1      40.379  35.788  38.933  1.00  0.00     0.020 A 
ATOM     90  C   UNL A   1      38.863  34.114  39.831  1.00  0.00     0.020 A 
ATOM     91  C   UNL A   1      39.544  35.327  39.955  1.00  0.00     0.054 A 
BRANCH  91  92
ATOM     92  S   UNL A   1      39.323  36.355  41.433  1.00  0.00     0.124 S 
ATOM     93  O   UNL A   1      40.659  36.334  42.021  1.00  0.00    -0.237 OA
ATOM     94  O   UNL A   1      38.903  37.637  40.872  1.00  0.00    -0.237 OA
ATOM     95  O   UNL A   1      38.295  35.650  42.195  1.00  0.00    -0.744 OA
ENDBRANCH  91  92
ENDBRANCH  65  86
ENDBRANCH  39  40
ENDBRANCH  31  34
ENDBRANCH  29  30
ENDBRANCH  28  29
ENDBRANCH   1  28
TORSDOF 18
ENDMDL
