MODEL 1
REMARK VINA RESULT:     -12.9      0.000      0.000
REMARK SMILES COc1ccc(-c2ncn(CC(=O)NCCCCCCNC(=O)c3ccc(-c4c5nc(c(-c6ccc(S(=O)(=O)[O-])cc6)c6ccc([nH]6)c(-c6ccc(S(=O)(=O)[O-])cc6)c6nc(c(-c7ccc(S(=O)(=O)[O-])cc7)c7ccc4[nH]7)C=C6)C=C5)cc3)c2-c2ccc(OC)cc2)cc1
REMARK SMILES IDX 17 1 16 2 15 3 14 4 12 5 13 6 11 8 10 9 7 10 8 11 84 12 9 13
REMARK SMILES IDX 6 14 3 15 4 16 94 17 5 18 93 19 2 20 1 21 85 22 86 23 92 24
REMARK SMILES IDX 87 25 91 26 88 27 89 28 90 29 18 30 19 31 20 32 21 33 22 34
REMARK SMILES IDX 23 36 24 37 25 38 83 39 26 40 82 41 27 42 28 43 29 44 76 45
REMARK SMILES IDX 30 46 81 47 75 48 77 49 31 50 80 51 74 52 73 53 32 55 62 56
REMARK SMILES IDX 43 57 61 58 44 59 47 60 60 61 78 62 45 63 46 64 59 66 79 67
REMARK SMILES IDX 48 68 33 69 34 70 42 71 35 72 41 73 36 74 37 75 38 76 39 77
REMARK SMILES IDX 40 78 63 79 64 80 72 81 65 82 71 83 66 84 67 85 68 86 69 87
REMARK SMILES IDX 70 88 49 89 50 90 58 91 51 92 57 93 52 94 53 95 54 96 55 97
REMARK SMILES IDX 56 98
REMARK H PARENT 14 7 21 35 77 54 47 65
REMARK Flexibility Score: inf
ROOT
ATOM      1  C   UNL A   1      34.940  20.823  24.846  1.00  0.00     0.002 C 
ENDROOT
BRANCH   1   2
ATOM      2  C   UNL A   1      33.739  20.686  25.790  1.00  0.00     0.021 C 
BRANCH   2   3
ATOM      3  C   UNL A   1      33.866  21.459  27.102  1.00  0.00     0.116 C 
BRANCH   3   4
ATOM      4  N   UNL A   1      32.618  22.073  27.509  1.00  0.00    -0.355 N 
ATOM      5  C   UNL A   1      32.058  23.251  27.115  1.00  0.00     0.239 C 
ATOM      6  O   UNL A   1      30.910  23.490  27.503  1.00  0.00    -0.273 OA
ATOM      7  H   UNL A   1      32.098  21.562  28.171  1.00  0.00     0.163 HD
BRANCH   5   8
ATOM      8  C   UNL A   1      32.766  24.186  26.157  1.00  0.00     0.223 C 
BRANCH   8   9
ATOM      9  N   UNL A   1      31.937  24.712  25.088  1.00  0.00    -0.321 N 
ATOM     10  C   UNL A   1      30.766  25.954  23.739  1.00  0.00     0.096 A 
ATOM     11  N   UNL A   1      30.470  24.655  23.419  1.00  0.00    -0.236 NA
ATOM     12  C   UNL A   1      31.661  26.030  24.800  1.00  0.00     0.076 A 
ATOM     13  C   UNL A   1      31.159  23.936  24.269  1.00  0.00     0.201 A 
BRANCH  10  14
ATOM     14  C   UNL A   1      30.106  27.110  23.172  1.00  0.00     0.003 A 
ATOM     15  C   UNL A   1      28.942  29.577  22.558  1.00  0.00     0.118 A 
ATOM     16  C   UNL A   1      30.254  29.303  22.170  1.00  0.00     0.047 A 
ATOM     17  C   UNL A   1      28.184  28.576  23.167  1.00  0.00     0.047 A 
ATOM     18  C   UNL A   1      30.841  28.077  22.479  1.00  0.00     0.014 A 
ATOM     19  C   UNL A   1      28.762  27.340  23.466  1.00  0.00     0.014 A 
BRANCH  15  20
ATOM     20  O   UNL A   1      28.510  30.838  22.258  1.00  0.00    -0.497 OA
ATOM     21  C   UNL A   1      28.239  31.689  23.367  1.00  0.00     0.278 C 
ENDBRANCH  15  20
ENDBRANCH  10  14
BRANCH  12  22
ATOM     22  C   UNL A   1      32.098  27.192  25.571  1.00  0.00     0.001 A 
ATOM     23  C   UNL A   1      33.224  27.931  25.211  1.00  0.00     0.014 A 
ATOM     24  C   UNL A   1      31.326  27.621  26.657  1.00  0.00     0.014 A 
ATOM     25  C   UNL A   1      33.597  29.052  25.957  1.00  0.00     0.047 A 
ATOM     26  C   UNL A   1      31.682  28.759  27.386  1.00  0.00     0.047 A 
ATOM     27  C   UNL A   1      32.826  29.476  27.043  1.00  0.00     0.118 A 
BRANCH  27  28
ATOM     28  O   UNL A   1      33.294  30.590  27.684  1.00  0.00    -0.497 OA
ATOM     29  C   UNL A   1      34.706  30.754  27.706  1.00  0.00     0.278 C 
ENDBRANCH  27  28
ENDBRANCH  12  22
ENDBRANCH   8   9
ENDBRANCH   5   8
ENDBRANCH   3   4
ENDBRANCH   2   3
ENDBRANCH   1   2
BRANCH   1  30
ATOM     30  C   UNL A   1      35.303  22.252  24.413  1.00  0.00     0.002 C 
BRANCH  30  31
ATOM     31  C   UNL A   1      36.746  22.480  23.939  1.00  0.00     0.021 C 
BRANCH  31  32
ATOM     32  C   UNL A   1      37.653  23.105  24.989  1.00  0.00     0.116 C 
BRANCH  32  33
ATOM     33  N   UNL A   1      38.401  22.102  25.745  1.00  0.00    -0.352 N 
ATOM     34  C   UNL A   1      39.536  22.276  26.515  1.00  0.00     0.251 C 
ATOM     35  H   UNL A   1      38.050  21.183  25.699  1.00  0.00     0.163 HD
ATOM     36  O   UNL A   1      40.258  21.328  26.778  1.00  0.00    -0.269 OA
BRANCH  34  37
ATOM     37  C   UNL A   1      39.859  23.630  27.006  1.00  0.00     0.039 A 
ATOM     38  C   UNL A   1      38.924  24.668  26.938  1.00  0.00     0.014 A 
ATOM     39  C   UNL A   1      41.117  23.845  27.558  1.00  0.00     0.014 A 
ATOM     40  C   UNL A   1      39.239  25.900  27.509  1.00  0.00     0.010 A 
ATOM     41  C   UNL A   1      41.367  25.003  28.250  1.00  0.00     0.010 A 
ATOM     42  C   UNL A   1      40.459  26.057  28.184  1.00  0.00    -0.014 A 
BRANCH  42  43
ATOM     43  C   UNL A   1      40.761  27.276  28.931  1.00  0.00     0.031 A 
ATOM     44  C   UNL A   1      41.850  28.116  28.358  1.00  0.00     0.074 A 
ATOM     45  C   UNL A   1      39.947  27.751  29.901  1.00  0.00     0.049 A 
ATOM     46  N   UNL A   1      42.998  28.395  28.881  1.00  0.00    -0.248 NA
ATOM     47  C   UNL A   1      41.693  28.605  26.976  1.00  0.00     0.031 C 
ATOM     48  C   UNL A   1      38.660  27.201  30.349  1.00  0.00     0.029 A 
ATOM     49  N   UNL A   1      40.022  28.921  30.591  1.00  0.00    -0.354 N 
ATOM     50  C   UNL A   1      43.617  29.278  27.999  1.00  0.00     0.074 A 
ATOM     51  C   UNL A   1      42.862  29.214  26.773  1.00  0.00     0.031 C 
ATOM     52  C   UNL A   1      37.967  28.153  31.013  1.00  0.00     0.029 A 
ATOM     53  C   UNL A   1      38.828  29.305  31.198  1.00  0.00     0.049 A 
ATOM     54  H   UNL A   1      40.849  29.451  30.655  1.00  0.00     0.167 HD
ATOM     55  C   UNL A   1      44.547  30.182  28.420  1.00  0.00     0.031 A 
ATOM     56  C   UNL A   1      38.557  30.498  31.782  1.00  0.00     0.031 A 
ATOM     57  C   UNL A   1      45.002  29.894  29.757  1.00  0.00     0.049 A 
ATOM     58  C   UNL A   1      39.859  31.135  32.086  1.00  0.00     0.074 A 
ATOM     59  C   UNL A   1      45.612  28.819  30.369  1.00  0.00     0.029 A 
ATOM     60  N   UNL A   1      44.471  30.660  30.770  1.00  0.00    -0.354 N 
ATOM     61  N   UNL A   1      40.701  30.665  32.962  1.00  0.00    -0.248 NA
ATOM     62  C   UNL A   1      40.422  32.056  31.111  1.00  0.00     0.031 C 
ATOM     63  C   UNL A   1      45.010  28.742  31.659  1.00  0.00     0.029 A 
ATOM     64  C   UNL A   1      44.124  29.813  31.789  1.00  0.00     0.049 A 
ATOM     65  H   UNL A   1      44.363  31.637  30.763  1.00  0.00     0.167 HD
ATOM     66  C   UNL A   1      41.949  30.865  32.393  1.00  0.00     0.074 A 
ATOM     67  C   UNL A   1      41.722  31.828  31.316  1.00  0.00     0.031 C 
ATOM     68  C   UNL A   1      42.987  30.020  32.663  1.00  0.00     0.031 A 
BRANCH  55  69
ATOM     69  C   UNL A   1      44.738  31.551  27.804  1.00  0.00    -0.014 A 
ATOM     70  C   UNL A   1      45.911  31.806  27.063  1.00  0.00     0.010 A 
ATOM     71  C   UNL A   1      43.955  32.668  28.160  1.00  0.00     0.010 A 
ATOM     72  C   UNL A   1      46.318  33.115  26.769  1.00  0.00     0.020 A 
ATOM     73  C   UNL A   1      44.326  33.974  27.831  1.00  0.00     0.020 A 
ATOM     74  C   UNL A   1      45.528  34.192  27.171  1.00  0.00     0.054 A 
BRANCH  74  75
ATOM     75  S   UNL A   1      46.114  35.880  26.888  1.00  0.00     0.124 S 
ATOM     76  O   UNL A   1      46.628  35.794  25.525  1.00  0.00    -0.237 OA
ATOM     77  O   UNL A   1      44.893  36.663  27.058  1.00  0.00    -0.237 OA
ATOM     78  O   UNL A   1      47.121  36.071  27.929  1.00  0.00    -0.744 OA
ENDBRANCH  74  75
ENDBRANCH  55  69
BRANCH  56  79
ATOM     79  C   UNL A   1      37.278  31.246  31.854  1.00  0.00    -0.014 A 
ATOM     80  C   UNL A   1      36.767  31.661  33.099  1.00  0.00     0.010 A 
ATOM     81  C   UNL A   1      36.725  31.825  30.695  1.00  0.00     0.010 A 
ATOM     82  C   UNL A   1      35.807  32.682  33.187  1.00  0.00     0.020 A 
ATOM     83  C   UNL A   1      35.769  32.847  30.777  1.00  0.00     0.020 A 
ATOM     84  C   UNL A   1      35.332  33.290  32.023  1.00  0.00     0.054 A 
BRANCH  84  85
ATOM     85  S   UNL A   1      34.293  34.780  32.156  1.00  0.00     0.124 S 
ATOM     86  O   UNL A   1      35.133  35.687  32.935  1.00  0.00    -0.237 OA
ATOM     87  O   UNL A   1      34.088  35.167  30.763  1.00  0.00    -0.237 OA
ATOM     88  O   UNL A   1      33.088  34.310  32.836  1.00  0.00    -0.744 OA
ENDBRANCH  84  85
ENDBRANCH  56  79
BRANCH  68  89
ATOM     89  C   UNL A   1      42.848  29.056  33.820  1.00  0.00    -0.014 A 
ATOM     90  C   UNL A   1      43.041  29.413  35.170  1.00  0.00     0.010 A 
ATOM     91  C   UNL A   1      42.354  27.772  33.533  1.00  0.00     0.010 A 
ATOM     92  C   UNL A   1      42.774  28.497  36.200  1.00  0.00     0.020 A 
ATOM     93  C   UNL A   1      42.068  26.862  34.552  1.00  0.00     0.020 A 
ATOM     94  C   UNL A   1      42.288  27.225  35.882  1.00  0.00     0.054 A 
BRANCH  94  95
ATOM     95  S   UNL A   1      41.901  26.055  37.215  1.00  0.00     0.124 S 
ATOM     96  O   UNL A   1      40.585  26.505  37.661  1.00  0.00    -0.237 OA
ATOM     97  O   UNL A   1      41.926  24.762  36.532  1.00  0.00    -0.237 OA
ATOM     98  O   UNL A   1      42.981  26.256  38.179  1.00  0.00    -0.744 OA
ENDBRANCH  94  95
ENDBRANCH  68  89
ENDBRANCH  42  43
ENDBRANCH  34  37
ENDBRANCH  32  33
ENDBRANCH  31  32
ENDBRANCH  30  31
ENDBRANCH   1  30
TORSDOF 21
ENDMDL
MODEL 2
REMARK VINA RESULT:     -11.5      3.094      7.305
REMARK SMILES COc1ccc(-c2ncn(CC(=O)NCCCCCCNC(=O)c3ccc(-c4c5nc(c(-c6ccc(S(=O)(=O)[O-])cc6)c6ccc([nH]6)c(-c6ccc(S(=O)(=O)[O-])cc6)c6nc(c(-c7ccc(S(=O)(=O)[O-])cc7)c7ccc4[nH]7)C=C6)C=C5)cc3)c2-c2ccc(OC)cc2)cc1
REMARK SMILES IDX 17 1 16 2 15 3 14 4 12 5 13 6 11 8 10 9 7 10 8 11 84 12 9 13
REMARK SMILES IDX 6 14 3 15 4 16 94 17 5 18 93 19 2 20 1 21 85 22 86 23 92 24
REMARK SMILES IDX 87 25 91 26 88 27 89 28 90 29 18 30 19 31 20 32 21 33 22 34
REMARK SMILES IDX 23 36 24 37 25 38 83 39 26 40 82 41 27 42 28 43 29 44 76 45
REMARK SMILES IDX 30 46 81 47 75 48 77 49 31 50 80 51 74 52 73 53 32 55 62 56
REMARK SMILES IDX 43 57 61 58 44 59 47 60 60 61 78 62 45 63 46 64 59 66 79 67
REMARK SMILES IDX 48 68 33 69 34 70 42 71 35 72 41 73 36 74 37 75 38 76 39 77
REMARK SMILES IDX 40 78 63 79 64 80 72 81 65 82 71 83 66 84 67 85 68 86 69 87
REMARK SMILES IDX 70 88 49 89 50 90 58 91 51 92 57 93 52 94 53 95 54 96 55 97
REMARK SMILES IDX 56 98
REMARK H PARENT 14 7 21 35 77 54 47 65
REMARK Flexibility Score: inf
ROOT
ATOM      1  C   UNL A   1      34.393  20.404  24.702  1.00  0.00     0.002 C 
ENDROOT
BRANCH   1   2
ATOM      2  C   UNL A   1      33.389  20.365  25.861  1.00  0.00     0.021 C 
BRANCH   2   3
ATOM      3  C   UNL A   1      33.681  21.350  26.992  1.00  0.00     0.116 C 
BRANCH   3   4
ATOM      4  N   UNL A   1      32.492  22.039  27.451  1.00  0.00    -0.355 N 
ATOM      5  C   UNL A   1      32.017  23.274  27.120  1.00  0.00     0.239 C 
ATOM      6  O   UNL A   1      30.898  23.582  27.541  1.00  0.00    -0.273 OA
ATOM      7  H   UNL A   1      31.945  21.541  28.101  1.00  0.00     0.163 HD
BRANCH   5   8
ATOM      8  C   UNL A   1      32.780  24.193  26.189  1.00  0.00     0.223 C 
BRANCH   8   9
ATOM      9  N   UNL A   1      32.001  24.736  25.090  1.00  0.00    -0.321 N 
ATOM     10  C   UNL A   1      30.907  26.001  23.699  1.00  0.00     0.096 A 
ATOM     11  N   UNL A   1      30.595  24.709  23.369  1.00  0.00    -0.236 NA
ATOM     12  C   UNL A   1      31.764  26.059  24.792  1.00  0.00     0.076 A 
ATOM     13  C   UNL A   1      31.237  23.975  24.244  1.00  0.00     0.201 A 
BRANCH  10  14
ATOM     14  C   UNL A   1      30.293  27.170  23.107  1.00  0.00     0.003 A 
ATOM     15  C   UNL A   1      29.220  29.665  22.445  1.00  0.00     0.118 A 
ATOM     16  C   UNL A   1      30.528  29.343  22.078  1.00  0.00     0.047 A 
ATOM     17  C   UNL A   1      28.421  28.699  23.057  1.00  0.00     0.047 A 
ATOM     18  C   UNL A   1      31.070  28.103  22.412  1.00  0.00     0.014 A 
ATOM     19  C   UNL A   1      28.954  27.448  23.380  1.00  0.00     0.014 A 
BRANCH  15  20
ATOM     20  O   UNL A   1      28.835  30.936  22.122  1.00  0.00    -0.497 OA
ATOM     21  C   UNL A   1      28.001  31.065  20.974  1.00  0.00     0.278 C 
ENDBRANCH  15  20
ENDBRANCH  10  14
BRANCH  12  22
ATOM     22  C   UNL A   1      32.198  27.212  25.577  1.00  0.00     0.001 A 
ATOM     23  C   UNL A   1      31.454  27.688  26.656  1.00  0.00     0.014 A 
ATOM     24  C   UNL A   1      33.430  27.811  25.288  1.00  0.00     0.014 A 
ATOM     25  C   UNL A   1      31.913  28.778  27.401  1.00  0.00     0.047 A 
ATOM     26  C   UNL A   1      33.904  28.882  26.051  1.00  0.00     0.047 A 
ATOM     27  C   UNL A   1      33.142  29.376  27.107  1.00  0.00     0.118 A 
BRANCH  27  28
ATOM     28  O   UNL A   1      33.481  30.427  27.915  1.00  0.00    -0.497 OA
ATOM     29  C   UNL A   1      34.624  31.177  27.524  1.00  0.00     0.278 C 
ENDBRANCH  27  28
ENDBRANCH  12  22
ENDBRANCH   8   9
ENDBRANCH   5   8
ENDBRANCH   3   4
ENDBRANCH   2   3
ENDBRANCH   1   2
BRANCH   1  30
ATOM     30  C   UNL A   1      35.854  20.089  25.060  1.00  0.00     0.002 C 
BRANCH  30  31
ATOM     31  C   UNL A   1      36.921  21.028  24.479  1.00  0.00     0.021 C 
BRANCH  31  32
ATOM     32  C   UNL A   1      38.122  21.241  25.388  1.00  0.00     0.116 C 
BRANCH  32  33
ATOM     33  N   UNL A   1      38.930  20.033  25.534  1.00  0.00    -0.352 N 
ATOM     34  C   UNL A   1      40.275  19.928  25.837  1.00  0.00     0.251 C 
ATOM     35  H   UNL A   1      38.454  19.181  25.400  1.00  0.00     0.163 HD
ATOM     36  O   UNL A   1      40.895  18.912  25.567  1.00  0.00    -0.269 OA
BRANCH  34  37
ATOM     37  C   UNL A   1      40.946  21.071  26.486  1.00  0.00     0.039 A 
ATOM     38  C   UNL A   1      41.630  22.033  25.736  1.00  0.00     0.014 A 
ATOM     39  C   UNL A   1      40.866  21.179  27.871  1.00  0.00     0.014 A 
ATOM     40  C   UNL A   1      42.158  23.148  26.386  1.00  0.00     0.010 A 
ATOM     41  C   UNL A   1      41.250  22.343  28.486  1.00  0.00     0.010 A 
ATOM     42  C   UNL A   1      41.947  23.308  27.763  1.00  0.00    -0.014 A 
BRANCH  42  43
ATOM     43  C   UNL A   1      42.343  24.535  28.453  1.00  0.00     0.031 A 
ATOM     44  C   UNL A   1      41.364  25.654  28.364  1.00  0.00     0.074 A 
ATOM     45  C   UNL A   1      43.373  24.573  29.329  1.00  0.00     0.049 A 
ATOM     46  N   UNL A   1      41.520  26.804  27.794  1.00  0.00    -0.248 NA
ATOM     47  C   UNL A   1      39.997  25.421  28.863  1.00  0.00     0.031 C 
ATOM     48  C   UNL A   1      44.226  23.460  29.768  1.00  0.00     0.029 A 
ATOM     49  N   UNL A   1      43.781  25.590  30.134  1.00  0.00    -0.354 N 
ATOM     50  C   UNL A   1      40.357  27.524  28.058  1.00  0.00     0.074 A 
ATOM     51  C   UNL A   1      39.395  26.566  28.541  1.00  0.00     0.031 C 
ATOM     52  C   UNL A   1      44.842  23.790  30.924  1.00  0.00     0.029 A 
ATOM     53  C   UNL A   1      44.579  25.189  31.203  1.00  0.00     0.049 A 
ATOM     54  H   UNL A   1      43.532  26.530  29.975  1.00  0.00     0.167 HD
ATOM     55  C   UNL A   1      40.349  28.887  28.102  1.00  0.00     0.031 A 
ATOM     56  C   UNL A   1      44.968  25.945  32.259  1.00  0.00     0.031 A 
ATOM     57  C   UNL A   1      41.560  29.444  27.554  1.00  0.00     0.049 A 
ATOM     58  C   UNL A   1      44.808  27.361  31.858  1.00  0.00     0.074 A 
ATOM     59  C   UNL A   1      42.199  29.379  26.332  1.00  0.00     0.029 A 
ATOM     60  N   UNL A   1      42.504  29.880  28.455  1.00  0.00    -0.354 N 
ATOM     61  N   UNL A   1      45.521  27.928  30.927  1.00  0.00    -0.248 NA
ATOM     62  C   UNL A   1      43.564  28.036  32.190  1.00  0.00     0.031 C 
ATOM     63  C   UNL A   1      43.588  29.314  26.648  1.00  0.00     0.029 A 
ATOM     64  C   UNL A   1      43.723  29.417  28.034  1.00  0.00     0.049 A 
ATOM     65  H   UNL A   1      42.334  30.426  29.256  1.00  0.00     0.167 HD
ATOM     66  C   UNL A   1      44.632  28.753  30.256  1.00  0.00     0.074 A 
ATOM     67  C   UNL A   1      43.479  28.868  31.148  1.00  0.00     0.031 C 
ATOM     68  C   UNL A   1      44.794  29.027  28.927  1.00  0.00     0.031 A 
BRANCH  55  69
ATOM     69  C   UNL A   1      39.450  29.700  29.007  1.00  0.00    -0.014 A 
ATOM     70  C   UNL A   1      38.498  30.563  28.424  1.00  0.00     0.010 A 
ATOM     71  C   UNL A   1      39.695  29.863  30.386  1.00  0.00     0.010 A 
ATOM     72  C   UNL A   1      37.888  31.585  29.164  1.00  0.00     0.020 A 
ATOM     73  C   UNL A   1      39.058  30.847  31.145  1.00  0.00     0.020 A 
ATOM     74  C   UNL A   1      38.186  31.729  30.519  1.00  0.00     0.054 A 
BRANCH  74  75
ATOM     75  S   UNL A   1      37.484  33.117  31.443  1.00  0.00     0.124 S 
ATOM     76  O   UNL A   1      38.262  33.080  32.677  1.00  0.00    -0.237 OA
ATOM     77  O   UNL A   1      37.753  34.246  30.556  1.00  0.00    -0.237 OA
ATOM     78  O   UNL A   1      36.074  32.760  31.577  1.00  0.00    -0.744 OA
ENDBRANCH  74  75
ENDBRANCH  55  69
BRANCH  56  79
ATOM     79  C   UNL A   1      45.210  25.547  33.668  1.00  0.00    -0.014 A 
ATOM     80  C   UNL A   1      44.415  24.553  34.271  1.00  0.00     0.010 A 
ATOM     81  C   UNL A   1      46.409  25.906  34.314  1.00  0.00     0.010 A 
ATOM     82  C   UNL A   1      44.846  23.879  35.425  1.00  0.00     0.020 A 
ATOM     83  C   UNL A   1      46.846  25.233  35.464  1.00  0.00     0.020 A 
ATOM     84  C   UNL A   1      46.076  24.204  36.001  1.00  0.00     0.054 A 
BRANCH  84  85
ATOM     85  S   UNL A   1      46.744  23.155  37.331  1.00  0.00     0.124 S 
ATOM     86  O   UNL A   1      46.933  24.106  38.424  1.00  0.00    -0.237 OA
ATOM     87  O   UNL A   1      45.687  22.170  37.540  1.00  0.00    -0.237 OA
ATOM     88  O   UNL A   1      47.975  22.609  36.763  1.00  0.00    -0.744 OA
ENDBRANCH  84  85
ENDBRANCH  56  79
BRANCH  68  89
ATOM     89  C   UNL A   1      46.114  28.679  28.278  1.00  0.00    -0.014 A 
ATOM     90  C   UNL A   1      47.248  29.516  28.299  1.00  0.00     0.010 A 
ATOM     91  C   UNL A   1      46.251  27.382  27.752  1.00  0.00     0.010 A 
ATOM     92  C   UNL A   1      48.477  29.074  27.782  1.00  0.00     0.020 A 
ATOM     93  C   UNL A   1      47.475  26.930  27.254  1.00  0.00     0.020 A 
ATOM     94  C   UNL A   1      48.580  27.781  27.261  1.00  0.00     0.054 A 
BRANCH  94  95
ATOM     95  S   UNL A   1      50.179  27.194  26.633  1.00  0.00     0.124 S 
ATOM     96  O   UNL A   1      49.804  26.008  25.868  1.00  0.00    -0.237 OA
ATOM     97  O   UNL A   1      50.656  28.328  25.844  1.00  0.00    -0.237 OA
ATOM     98  O   UNL A   1      50.952  26.927  27.845  1.00  0.00    -0.744 OA
ENDBRANCH  94  95
ENDBRANCH  68  89
ENDBRANCH  42  43
ENDBRANCH  34  37
ENDBRANCH  32  33
ENDBRANCH  31  32
ENDBRANCH  30  31
ENDBRANCH   1  30
TORSDOF 21
ENDMDL
MODEL 3
REMARK VINA RESULT:     -10.9      1.750      2.575
REMARK SMILES COc1ccc(-c2ncn(CC(=O)NCCCCCCNC(=O)c3ccc(-c4c5nc(c(-c6ccc(S(=O)(=O)[O-])cc6)c6ccc([nH]6)c(-c6ccc(S(=O)(=O)[O-])cc6)c6nc(c(-c7ccc(S(=O)(=O)[O-])cc7)c7ccc4[nH]7)C=C6)C=C5)cc3)c2-c2ccc(OC)cc2)cc1
REMARK SMILES IDX 17 1 16 2 15 3 14 4 12 5 13 6 11 8 10 9 7 10 8 11 84 12 9 13
REMARK SMILES IDX 6 14 3 15 4 16 94 17 5 18 93 19 2 20 1 21 85 22 86 23 92 24
REMARK SMILES IDX 87 25 91 26 88 27 89 28 90 29 18 30 19 31 20 32 21 33 22 34
REMARK SMILES IDX 23 36 24 37 25 38 83 39 26 40 82 41 27 42 28 43 29 44 76 45
REMARK SMILES IDX 30 46 81 47 75 48 77 49 31 50 80 51 74 52 73 53 32 55 62 56
REMARK SMILES IDX 43 57 61 58 44 59 47 60 60 61 78 62 45 63 46 64 59 66 79 67
REMARK SMILES IDX 48 68 33 69 34 70 42 71 35 72 41 73 36 74 37 75 38 76 39 77
REMARK SMILES IDX 40 78 63 79 64 80 72 81 65 82 71 83 66 84 67 85 68 86 69 87
REMARK SMILES IDX 70 88 49 89 50 90 58 91 51 92 57 93 52 94 53 95 54 96 55 97
REMARK SMILES IDX 56 98
REMARK H PARENT 14 7 21 35 77 54 47 65
REMARK Flexibility Score: inf
ROOT
ATOM      1  C   UNL A   1      37.618  23.182  25.441  1.00  0.00     0.002 C 
ENDROOT
BRANCH   1   2
ATOM      2  C   UNL A   1      36.288  23.745  25.959  1.00  0.00     0.021 C 
BRANCH   2   3
ATOM      3  C   UNL A   1      35.261  24.059  24.872  1.00  0.00     0.116 C 
BRANCH   3   4
ATOM      4  N   UNL A   1      34.460  22.906  24.514  1.00  0.00    -0.355 N 
ATOM      5  C   UNL A   1      33.126  22.685  24.687  1.00  0.00     0.239 C 
ATOM      6  O   UNL A   1      32.647  21.674  24.164  1.00  0.00    -0.273 OA
ATOM      7  H   UNL A   1      34.953  22.172  24.082  1.00  0.00     0.163 HD
BRANCH   5   8
ATOM      8  C   UNL A   1      32.241  23.687  25.398  1.00  0.00     0.223 C 
BRANCH   8   9
ATOM      9  N   UNL A   1      31.415  24.504  24.526  1.00  0.00    -0.321 N 
ATOM     10  C   UNL A   1      30.347  26.116  23.529  1.00  0.00     0.096 A 
ATOM     11  N   UNL A   1      29.811  24.948  23.054  1.00  0.00    -0.236 NA
ATOM     12  C   UNL A   1      31.337  25.878  24.476  1.00  0.00     0.076 A 
ATOM     13  C   UNL A   1      30.446  24.001  23.698  1.00  0.00     0.201 A 
BRANCH  10  14
ATOM     14  C   UNL A   1      29.839  27.436  23.225  1.00  0.00     0.003 A 
ATOM     15  C   UNL A   1      28.787  29.784  22.132  1.00  0.00     0.118 A 
ATOM     16  C   UNL A   1      27.956  28.893  22.814  1.00  0.00     0.047 A 
ATOM     17  C   UNL A   1      30.160  29.543  22.084  1.00  0.00     0.047 A 
ATOM     18  C   UNL A   1      28.475  27.717  23.355  1.00  0.00     0.014 A 
ATOM     19  C   UNL A   1      30.688  28.374  22.638  1.00  0.00     0.014 A 
BRANCH  15  20
ATOM     20  O   UNL A   1      28.143  30.860  21.589  1.00  0.00    -0.497 OA
ATOM     21  C   UNL A   1      28.323  32.103  22.261  1.00  0.00     0.278 C 
ENDBRANCH  15  20
ENDBRANCH  10  14
BRANCH  12  22
ATOM     22  C   UNL A   1      32.031  26.815  25.356  1.00  0.00     0.001 A 
ATOM     23  C   UNL A   1      31.458  27.271  26.542  1.00  0.00     0.014 A 
ATOM     24  C   UNL A   1      33.337  27.209  25.040  1.00  0.00     0.014 A 
ATOM     25  C   UNL A   1      32.163  28.147  27.372  1.00  0.00     0.047 A 
ATOM     26  C   UNL A   1      34.053  28.062  25.884  1.00  0.00     0.047 A 
ATOM     27  C   UNL A   1      33.465  28.542  27.051  1.00  0.00     0.118 A 
BRANCH  27  28
ATOM     28  O   UNL A   1      34.047  29.393  27.949  1.00  0.00    -0.497 OA
ATOM     29  C   UNL A   1      34.905  30.389  27.405  1.00  0.00     0.278 C 
ENDBRANCH  27  28
ENDBRANCH  12  22
ENDBRANCH   8   9
ENDBRANCH   5   8
ENDBRANCH   3   4
ENDBRANCH   2   3
ENDBRANCH   1   2
BRANCH   1  30
ATOM     30  C   UNL A   1      38.579  22.629  26.504  1.00  0.00     0.002 C 
BRANCH  30  31
ATOM     31  C   UNL A   1      39.479  21.459  26.076  1.00  0.00     0.021 C 
BRANCH  31  32
ATOM     32  C   UNL A   1      40.659  21.211  27.002  1.00  0.00     0.116 C 
BRANCH  32  33
ATOM     33  N   UNL A   1      41.862  20.813  26.275  1.00  0.00    -0.352 N 
ATOM     34  C   UNL A   1      42.874  21.615  25.782  1.00  0.00     0.251 C 
ATOM     35  H   UNL A   1      41.965  19.846  26.115  1.00  0.00     0.163 HD
ATOM     36  O   UNL A   1      43.608  21.213  24.894  1.00  0.00    -0.269 OA
BRANCH  34  37
ATOM     37  C   UNL A   1      43.044  22.968  26.347  1.00  0.00     0.039 A 
ATOM     38  C   UNL A   1      42.300  24.052  25.870  1.00  0.00     0.014 A 
ATOM     39  C   UNL A   1      43.957  23.137  27.383  1.00  0.00     0.014 A 
ATOM     40  C   UNL A   1      42.421  25.287  26.505  1.00  0.00     0.010 A 
ATOM     41  C   UNL A   1      43.963  24.307  28.100  1.00  0.00     0.010 A 
ATOM     42  C   UNL A   1      43.242  25.404  27.637  1.00  0.00    -0.014 A 
BRANCH  42  43
ATOM     43  C   UNL A   1      43.276  26.634  28.426  1.00  0.00     0.031 A 
ATOM     44  C   UNL A   1      44.448  27.518  28.170  1.00  0.00     0.074 A 
ATOM     45  C   UNL A   1      42.205  27.076  29.125  1.00  0.00     0.049 A 
ATOM     46  N   UNL A   1      45.392  27.844  28.990  1.00  0.00    -0.248 NA
ATOM     47  C   UNL A   1      44.664  28.001  26.794  1.00  0.00     0.031 C 
ATOM     48  C   UNL A   1      40.866  26.474  29.202  1.00  0.00     0.029 A 
ATOM     49  N   UNL A   1      42.039  28.247  29.795  1.00  0.00    -0.354 N 
ATOM     50  C   UNL A   1      46.198  28.752  28.306  1.00  0.00     0.074 A 
ATOM     51  C   UNL A   1      45.818  28.658  26.919  1.00  0.00     0.031 C 
ATOM     52  C   UNL A   1      39.980  27.395  29.635  1.00  0.00     0.029 A 
ATOM     53  C   UNL A   1      40.709  28.582  30.041  1.00  0.00     0.049 A 
ATOM     54  H   UNL A   1      42.794  28.810  30.082  1.00  0.00     0.167 HD
ATOM     55  C   UNL A   1      46.937  29.693  28.961  1.00  0.00     0.031 A 
ATOM     56  C   UNL A   1      40.239  29.762  30.514  1.00  0.00     0.031 A 
ATOM     57  C   UNL A   1      47.011  29.422  30.374  1.00  0.00     0.049 A 
ATOM     58  C   UNL A   1      41.378  30.452  31.162  1.00  0.00     0.074 A 
ATOM     59  C   UNL A   1      47.468  28.372  31.144  1.00  0.00     0.029 A 
ATOM     60  N   UNL A   1      46.189  30.165  31.191  1.00  0.00    -0.354 N 
ATOM     61  N   UNL A   1      41.959  30.015  32.243  1.00  0.00    -0.248 NA
ATOM     62  C   UNL A   1      42.154  31.395  30.373  1.00  0.00     0.031 C 
ATOM     63  C   UNL A   1      46.533  28.270  32.215  1.00  0.00     0.029 A 
ATOM     64  C   UNL A   1      45.605  29.304  32.082  1.00  0.00     0.049 A 
ATOM     65  H   UNL A   1      46.048  31.137  31.143  1.00  0.00     0.167 HD
ATOM     66  C   UNL A   1      43.308  30.267  32.043  1.00  0.00     0.074 A 
ATOM     67  C   UNL A   1      43.353  31.220  30.935  1.00  0.00     0.031 C 
ATOM     68  C   UNL A   1      44.262  29.464  32.601  1.00  0.00     0.031 A 
BRANCH  55  69
ATOM     69  C   UNL A   1      47.238  31.068  28.407  1.00  0.00    -0.014 A 
ATOM     70  C   UNL A   1      46.214  32.039  28.402  1.00  0.00     0.010 A 
ATOM     71  C   UNL A   1      48.387  31.351  27.641  1.00  0.00     0.010 A 
ATOM     72  C   UNL A   1      46.303  33.190  27.607  1.00  0.00     0.020 A 
ATOM     73  C   UNL A   1      48.507  32.518  26.881  1.00  0.00     0.020 A 
ATOM     74  C   UNL A   1      47.446  33.412  26.838  1.00  0.00     0.054 A 
BRANCH  74  75
ATOM     75  S   UNL A   1      47.509  34.839  25.728  1.00  0.00     0.124 S 
ATOM     76  O   UNL A   1      47.563  35.951  26.672  1.00  0.00    -0.237 OA
ATOM     77  O   UNL A   1      48.732  34.589  24.971  1.00  0.00    -0.237 OA
ATOM     78  O   UNL A   1      46.272  34.728  24.958  1.00  0.00    -0.744 OA
ENDBRANCH  74  75
ENDBRANCH  55  69
BRANCH  56  79
ATOM     79  C   UNL A   1      38.962  30.457  30.218  1.00  0.00    -0.014 A 
ATOM     80  C   UNL A   1      37.731  29.823  30.477  1.00  0.00     0.010 A 
ATOM     81  C   UNL A   1      38.944  31.846  29.984  1.00  0.00     0.010 A 
ATOM     82  C   UNL A   1      36.543  30.562  30.591  1.00  0.00     0.020 A 
ATOM     83  C   UNL A   1      37.761  32.589  30.100  1.00  0.00     0.020 A 
ATOM     84  C   UNL A   1      36.568  31.949  30.428  1.00  0.00     0.054 A 
BRANCH  84  85
ATOM     85  S   UNL A   1      35.084  32.923  30.834  1.00  0.00     0.124 S 
ATOM     86  O   UNL A   1      35.518  34.292  30.569  1.00  0.00    -0.237 OA
ATOM     87  O   UNL A   1      34.081  32.400  29.911  1.00  0.00    -0.237 OA
ATOM     88  O   UNL A   1      34.832  32.612  32.240  1.00  0.00    -0.744 OA
ENDBRANCH  84  85
ENDBRANCH  56  79
BRANCH  68  89
ATOM     89  C   UNL A   1      43.843  28.495  33.684  1.00  0.00    -0.014 A 
ATOM     90  C   UNL A   1      43.373  27.189  33.434  1.00  0.00     0.010 A 
ATOM     91  C   UNL A   1      44.077  28.877  35.016  1.00  0.00     0.010 A 
ATOM     92  C   UNL A   1      43.120  26.303  34.493  1.00  0.00     0.020 A 
ATOM     93  C   UNL A   1      43.845  27.994  36.073  1.00  0.00     0.020 A 
ATOM     94  C   UNL A   1      43.358  26.714  35.808  1.00  0.00     0.054 A 
BRANCH  94  95
ATOM     95  S   UNL A   1      43.072  25.554  37.174  1.00  0.00     0.124 S 
ATOM     96  O   UNL A   1      43.071  26.431  38.342  1.00  0.00    -0.237 OA
ATOM     97  O   UNL A   1      41.782  24.959  36.833  1.00  0.00    -0.237 OA
ATOM     98  O   UNL A   1      44.207  24.635  37.094  1.00  0.00    -0.744 OA
ENDBRANCH  94  95
ENDBRANCH  68  89
ENDBRANCH  42  43
ENDBRANCH  34  37
ENDBRANCH  32  33
ENDBRANCH  31  32
ENDBRANCH  30  31
ENDBRANCH   1  30
TORSDOF 21
ENDMDL
