MODEL 1
REMARK VINA RESULT:     -11.1      0.000      0.000
REMARK SMILES Cc1nc(C)c(C(=O)N2CCC([C@H](C)C(=O)NCCCCCCNC(=O)c3ccc(-c4c5nc(c(-c6ccc(S(=O)(=O)[O-])cc6)c6ccc([nH]6)c(-c6ccc(S(=O)(=O)[O-])cc6)c6nc(c(-c7ccc(S(=O)(=O)[O-])cc7)c7ccc4[nH]7)C=C6)C=C5)cc3)CC2)s1
REMARK SMILES IDX 21 1 20 2 19 3 18 4 17 5 15 6 16 7 13 9 14 10 12 11 7 12
REMARK SMILES IDX 8 13 9 14 10 15 88 16 11 17 87 18 6 19 1 20 2 21 3 22 89 23
REMARK SMILES IDX 4 24 5 25 22 26 23 27 24 28 25 29 26 31 27 32 28 33 86 34
REMARK SMILES IDX 29 35 85 36 30 37 31 38 32 39 79 40 33 41 84 42 78 43 80 44
REMARK SMILES IDX 34 45 83 46 77 47 76 48 35 50 65 51 46 52 64 53 47 54 50 55
REMARK SMILES IDX 63 56 81 57 48 58 49 59 62 61 82 62 51 63 36 64 37 65 45 66
REMARK SMILES IDX 38 67 44 68 39 69 40 70 41 71 42 72 43 73 66 74 67 75 75 76
REMARK SMILES IDX 68 77 74 78 69 79 70 80 71 81 72 82 73 83 52 84 53 85 61 86
REMARK SMILES IDX 54 87 60 88 55 89 56 90 57 91 58 92 59 93
REMARK H PARENT 17 8 24 30 80 49 50 60
REMARK Flexibility Score: inf
ROOT
ATOM      1  C   UNL A   1      31.714  28.308  26.368  1.00  0.00     0.002 C 
ENDROOT
BRANCH   1   2
ATOM      2  C   UNL A   1      30.893  27.967  25.120  1.00  0.00     0.002 C 
BRANCH   2   3
ATOM      3  C   UNL A   1      30.650  29.130  24.160  1.00  0.00     0.021 C 
BRANCH   3   4
ATOM      4  C   UNL A   1      31.011  28.839  22.713  1.00  0.00     0.116 C 
BRANCH   4   5
ATOM      5  N   UNL A   1      32.438  28.764  22.497  1.00  0.00    -0.356 N 
ATOM      6  C   UNL A   1      33.202  27.696  22.149  1.00  0.00     0.223 C 
ATOM      7  O   UNL A   1      34.399  27.899  21.918  1.00  0.00    -0.275 OA
ATOM      8  H   UNL A   1      32.928  29.608  22.621  1.00  0.00     0.163 HD
BRANCH   6   9
ATOM      9  C   UNL A   1      32.623  26.282  22.036  1.00  0.00     0.078 C 
ATOM     10  C   UNL A   1      32.083  26.018  20.625  1.00  0.00     0.018 C 
BRANCH   9  11
ATOM     11  C   UNL A   1      33.449  25.133  22.710  1.00  0.00     0.005 C 
ATOM     12  C   UNL A   1      33.212  21.652  25.001  1.00  0.00     0.265 C 
ATOM     13  O   UNL A   1      32.380  21.937  25.865  1.00  0.00    -0.268 OA
ATOM     14  N   UNL A   1      33.755  22.674  24.218  1.00  0.00    -0.338 N 
ATOM     15  C   UNL A   1      34.131  23.918  24.852  1.00  0.00     0.120 C 
ATOM     16  C   UNL A   1      33.939  22.604  22.776  1.00  0.00     0.120 C 
ATOM     17  C   UNL A   1      33.388  25.100  24.252  1.00  0.00     0.026 C 
ATOM     18  C   UNL A   1      33.187  23.742  22.085  1.00  0.00     0.026 C 
BRANCH  12  19
ATOM     19  C   UNL A   1      33.730  20.302  24.823  1.00  0.00     0.115 A 
ATOM     20  C   UNL A   1      33.866  16.562  23.751  1.00  0.00     0.079 C 
ATOM     21  C   UNL A   1      34.044  17.965  24.210  1.00  0.00     0.091 A 
ATOM     22  N   UNL A   1      35.189  18.483  24.586  1.00  0.00    -0.246 NA
ATOM     23  S   UNL A   1      32.716  19.032  24.243  1.00  0.00    -0.113 S 
ATOM     24  C   UNL A   1      35.040  19.838  24.875  1.00  0.00     0.061 A 
ATOM     25  C   UNL A   1      36.289  20.597  25.161  1.00  0.00     0.068 C 
ENDBRANCH  12  19
ENDBRANCH   9  11
ENDBRANCH   6   9
ENDBRANCH   4   5
ENDBRANCH   3   4
ENDBRANCH   2   3
ENDBRANCH   1   2
BRANCH   1  26
ATOM     26  C   UNL A   1      33.160  27.804  26.364  1.00  0.00     0.021 C 
BRANCH  26  27
ATOM     27  C   UNL A   1      34.214  28.878  26.118  1.00  0.00     0.116 C 
BRANCH  27  28
ATOM     28  N   UNL A   1      33.953  30.091  26.876  1.00  0.00    -0.352 N 
ATOM     29  C   UNL A   1      34.689  30.651  27.888  1.00  0.00     0.251 C 
ATOM     30  H   UNL A   1      33.134  30.578  26.626  1.00  0.00     0.163 HD
ATOM     31  O   UNL A   1      34.229  31.586  28.539  1.00  0.00    -0.269 OA
BRANCH  29  32
ATOM     32  C   UNL A   1      36.026  30.111  28.203  1.00  0.00     0.039 A 
ATOM     33  C   UNL A   1      37.008  30.116  27.209  1.00  0.00     0.014 A 
ATOM     34  C   UNL A   1      36.314  29.615  29.478  1.00  0.00     0.014 A 
ATOM     35  C   UNL A   1      38.297  29.674  27.514  1.00  0.00     0.010 A 
ATOM     36  C   UNL A   1      37.616  29.245  29.799  1.00  0.00     0.010 A 
ATOM     37  C   UNL A   1      38.620  29.266  28.818  1.00  0.00    -0.014 A 
BRANCH  37  38
ATOM     38  C   UNL A   1      40.003  28.865  29.179  1.00  0.00     0.031 A 
ATOM     39  C   UNL A   1      40.926  29.848  29.845  1.00  0.00     0.074 A 
ATOM     40  C   UNL A   1      40.449  27.637  28.845  1.00  0.00     0.049 A 
ATOM     41  N   UNL A   1      42.182  29.703  30.180  1.00  0.00    -0.248 NA
ATOM     42  C   UNL A   1      40.373  31.177  30.153  1.00  0.00     0.031 C 
ATOM     43  C   UNL A   1      39.662  26.609  28.159  1.00  0.00     0.029 A 
ATOM     44  N   UNL A   1      41.674  27.048  29.029  1.00  0.00    -0.354 N 
ATOM     45  C   UNL A   1      42.574  30.924  30.719  1.00  0.00     0.074 A 
ATOM     46  C   UNL A   1      41.438  31.812  30.621  1.00  0.00     0.031 C 
ATOM     47  C   UNL A   1      40.416  25.509  28.002  1.00  0.00     0.029 A 
ATOM     48  C   UNL A   1      41.752  25.768  28.532  1.00  0.00     0.049 A 
ATOM     49  H   UNL A   1      42.428  27.499  29.475  1.00  0.00     0.167 HD
ATOM     50  C   UNL A   1      43.767  31.267  31.262  1.00  0.00     0.031 A 
ATOM     51  C   UNL A   1      42.784  24.903  28.494  1.00  0.00     0.031 A 
ATOM     52  C   UNL A   1      44.891  30.376  31.360  1.00  0.00     0.049 A 
ATOM     53  C   UNL A   1      44.104  25.312  29.089  1.00  0.00     0.074 A 
ATOM     54  C   UNL A   1      46.123  30.607  31.947  1.00  0.00     0.029 A 
ATOM     55  N   UNL A   1      44.926  29.084  30.855  1.00  0.00    -0.354 N 
ATOM     56  N   UNL A   1      44.433  26.445  29.662  1.00  0.00    -0.248 NA
ATOM     57  C   UNL A   1      45.190  24.323  29.042  1.00  0.00     0.031 C 
ATOM     58  C   UNL A   1      46.924  29.481  31.739  1.00  0.00     0.029 A 
ATOM     59  C   UNL A   1      46.169  28.519  31.087  1.00  0.00     0.049 A 
ATOM     60  H   UNL A   1      44.179  28.636  30.398  1.00  0.00     0.167 HD
ATOM     61  C   UNL A   1      45.753  26.295  30.070  1.00  0.00     0.074 A 
ATOM     62  C   UNL A   1      46.158  24.956  29.690  1.00  0.00     0.031 C 
ATOM     63  C   UNL A   1      46.558  27.184  30.703  1.00  0.00     0.031 A 
BRANCH  50  64
ATOM     64  C   UNL A   1      43.920  32.675  31.778  1.00  0.00    -0.014 A 
ATOM     65  C   UNL A   1      43.624  33.000  33.114  1.00  0.00     0.010 A 
ATOM     66  C   UNL A   1      44.406  33.682  30.923  1.00  0.00     0.010 A 
ATOM     67  C   UNL A   1      43.767  34.312  33.573  1.00  0.00     0.020 A 
ATOM     68  C   UNL A   1      44.582  34.988  31.387  1.00  0.00     0.020 A 
ATOM     69  C   UNL A   1      44.244  35.299  32.706  1.00  0.00     0.054 A 
BRANCH  69  70
ATOM     70  S   UNL A   1      44.437  36.989  33.335  1.00  0.00     0.124 S 
ATOM     71  O   UNL A   1      44.262  37.784  32.122  1.00  0.00    -0.237 OA
ATOM     72  O   UNL A   1      43.357  37.091  34.313  1.00  0.00    -0.237 OA
ATOM     73  O   UNL A   1      45.785  37.000  33.897  1.00  0.00    -0.744 OA
ENDBRANCH  69  70
ENDBRANCH  50  64
BRANCH  51  74
ATOM     74  C   UNL A   1      42.605  23.560  27.873  1.00  0.00    -0.014 A 
ATOM     75  C   UNL A   1      43.234  23.243  26.657  1.00  0.00     0.010 A 
ATOM     76  C   UNL A   1      41.813  22.583  28.507  1.00  0.00     0.010 A 
ATOM     77  C   UNL A   1      43.060  21.983  26.076  1.00  0.00     0.020 A 
ATOM     78  C   UNL A   1      41.663  21.312  27.946  1.00  0.00     0.020 A 
ATOM     79  C   UNL A   1      42.278  21.025  26.726  1.00  0.00     0.054 A 
BRANCH  79  80
ATOM     80  S   UNL A   1      42.105  19.381  25.974  1.00  0.00     0.124 S 
ATOM     81  O   UNL A   1      40.662  19.290  25.774  1.00  0.00    -0.237 OA
ATOM     82  O   UNL A   1      42.906  19.506  24.759  1.00  0.00    -0.237 OA
ATOM     83  O   UNL A   1      42.655  18.481  26.986  1.00  0.00    -0.744 OA
ENDBRANCH  79  80
ENDBRANCH  51  74
BRANCH  63  84
ATOM     84  C   UNL A   1      47.950  26.732  31.062  1.00  0.00    -0.014 A 
ATOM     85  C   UNL A   1      49.036  26.951  30.198  1.00  0.00     0.010 A 
ATOM     86  C   UNL A   1      48.181  26.139  32.317  1.00  0.00     0.010 A 
ATOM     87  C   UNL A   1      50.326  26.559  30.572  1.00  0.00     0.020 A 
ATOM     88  C   UNL A   1      49.472  25.774  32.707  1.00  0.00     0.020 A 
ATOM     89  C   UNL A   1      50.535  25.976  31.826  1.00  0.00     0.054 A 
BRANCH  89  90
ATOM     90  S   UNL A   1      52.226  25.528  32.307  1.00  0.00     0.124 S 
ATOM     91  O   UNL A   1      52.421  26.328  33.511  1.00  0.00    -0.237 OA
ATOM     92  O   UNL A   1      52.126  24.086  32.519  1.00  0.00    -0.237 OA
ATOM     93  O   UNL A   1      53.032  25.928  31.155  1.00  0.00    -0.744 OA
ENDBRANCH  89  90
ENDBRANCH  63  84
ENDBRANCH  37  38
ENDBRANCH  29  32
ENDBRANCH  27  28
ENDBRANCH  26  27
ENDBRANCH   1  26
TORSDOF 18
ENDMDL
MODEL 2
REMARK VINA RESULT:     -10.9      4.214      5.423
REMARK SMILES Cc1nc(C)c(C(=O)N2CCC([C@H](C)C(=O)NCCCCCCNC(=O)c3ccc(-c4c5nc(c(-c6ccc(S(=O)(=O)[O-])cc6)c6ccc([nH]6)c(-c6ccc(S(=O)(=O)[O-])cc6)c6nc(c(-c7ccc(S(=O)(=O)[O-])cc7)c7ccc4[nH]7)C=C6)C=C5)cc3)CC2)s1
REMARK SMILES IDX 21 1 20 2 19 3 18 4 17 5 15 6 16 7 13 9 14 10 12 11 7 12
REMARK SMILES IDX 8 13 9 14 10 15 88 16 11 17 87 18 6 19 1 20 2 21 3 22 89 23
REMARK SMILES IDX 4 24 5 25 22 26 23 27 24 28 25 29 26 31 27 32 28 33 86 34
REMARK SMILES IDX 29 35 85 36 30 37 31 38 32 39 79 40 33 41 84 42 78 43 80 44
REMARK SMILES IDX 34 45 83 46 77 47 76 48 35 50 65 51 46 52 64 53 47 54 50 55
REMARK SMILES IDX 63 56 81 57 48 58 49 59 62 61 82 62 51 63 36 64 37 65 45 66
REMARK SMILES IDX 38 67 44 68 39 69 40 70 41 71 42 72 43 73 66 74 67 75 75 76
REMARK SMILES IDX 68 77 74 78 69 79 70 80 71 81 72 82 73 83 52 84 53 85 61 86
REMARK SMILES IDX 54 87 60 88 55 89 56 90 57 91 58 92 59 93
REMARK H PARENT 17 8 24 30 80 49 50 60
REMARK Flexibility Score: inf
ROOT
ATOM      1  C   UNL A   1      31.726  30.783  26.666  1.00  0.00     0.002 C 
ENDROOT
BRANCH   1   2
ATOM      2  C   UNL A   1      31.264  30.253  25.305  1.00  0.00     0.002 C 
BRANCH   2   3
ATOM      3  C   UNL A   1      31.964  28.982  24.827  1.00  0.00     0.021 C 
BRANCH   3   4
ATOM      4  C   UNL A   1      33.478  29.086  24.753  1.00  0.00     0.116 C 
BRANCH   4   5
ATOM      5  N   UNL A   1      33.988  28.885  23.416  1.00  0.00    -0.356 N 
ATOM      6  C   UNL A   1      33.720  27.890  22.532  1.00  0.00     0.223 C 
ATOM      7  O   UNL A   1      34.199  27.986  21.397  1.00  0.00    -0.275 OA
ATOM      8  H   UNL A   1      34.622  29.568  23.100  1.00  0.00     0.163 HD
BRANCH   6   9
ATOM      9  C   UNL A   1      32.853  26.681  22.904  1.00  0.00     0.078 C 
ATOM     10  C   UNL A   1      31.784  26.419  21.835  1.00  0.00     0.018 C 
BRANCH   9  11
ATOM     11  C   UNL A   1      33.606  25.433  23.479  1.00  0.00     0.005 C 
ATOM     12  C   UNL A   1      33.135  21.679  25.243  1.00  0.00     0.265 C 
ATOM     13  O   UNL A   1      32.236  21.863  26.066  1.00  0.00    -0.268 OA
ATOM     14  N   UNL A   1      33.755  22.785  24.655  1.00  0.00    -0.338 N 
ATOM     15  C   UNL A   1      34.089  23.923  25.483  1.00  0.00     0.120 C 
ATOM     16  C   UNL A   1      34.059  22.908  23.237  1.00  0.00     0.120 C 
ATOM     17  C   UNL A   1      33.414  25.192  24.991  1.00  0.00     0.026 C 
ATOM     18  C   UNL A   1      33.382  24.146  22.649  1.00  0.00     0.026 C 
BRANCH  12  19
ATOM     19  C   UNL A   1      33.650  20.355  24.925  1.00  0.00     0.115 A 
ATOM     20  C   UNL A   1      33.773  16.740  23.485  1.00  0.00     0.079 C 
ATOM     21  C   UNL A   1      33.957  18.090  24.079  1.00  0.00     0.091 A 
ATOM     22  N   UNL A   1      35.107  18.570  24.488  1.00  0.00    -0.246 NA
ATOM     23  S   UNL A   1      32.629  19.146  24.236  1.00  0.00    -0.113 S 
ATOM     24  C   UNL A   1      34.961  19.889  24.912  1.00  0.00     0.061 A 
ATOM     25  C   UNL A   1      36.214  20.619  25.255  1.00  0.00     0.068 C 
ENDBRANCH  12  19
ENDBRANCH   9  11
ENDBRANCH   6   9
ENDBRANCH   4   5
ENDBRANCH   3   4
ENDBRANCH   2   3
ENDBRANCH   1   2
BRANCH   1  26
ATOM     26  C   UNL A   1      31.681  32.304  26.831  1.00  0.00     0.021 C 
BRANCH  26  27
ATOM     27  C   UNL A   1      32.892  32.910  27.530  1.00  0.00     0.116 C 
BRANCH  27  28
ATOM     28  N   UNL A   1      32.709  34.322  27.828  1.00  0.00    -0.352 N 
ATOM     29  C   UNL A   1      33.301  35.082  28.803  1.00  0.00     0.251 C 
ATOM     30  H   UNL A   1      32.071  34.797  27.248  1.00  0.00     0.163 HD
ATOM     31  O   UNL A   1      32.897  36.221  29.026  1.00  0.00    -0.269 OA
BRANCH  29  32
ATOM     32  C   UNL A   1      34.412  34.517  29.594  1.00  0.00     0.039 A 
ATOM     33  C   UNL A   1      34.124  33.857  30.791  1.00  0.00     0.014 A 
ATOM     34  C   UNL A   1      35.733  34.624  29.148  1.00  0.00     0.014 A 
ATOM     35  C   UNL A   1      35.157  33.256  31.513  1.00  0.00     0.010 A 
ATOM     36  C   UNL A   1      36.749  33.961  29.829  1.00  0.00     0.010 A 
ATOM     37  C   UNL A   1      36.472  33.275  31.021  1.00  0.00    -0.014 A 
BRANCH  37  38
ATOM     38  C   UNL A   1      37.571  32.578  31.736  1.00  0.00     0.031 A 
ATOM     39  C   UNL A   1      38.053  33.091  33.065  1.00  0.00     0.074 A 
ATOM     40  C   UNL A   1      38.179  31.524  31.156  1.00  0.00     0.049 A 
ATOM     41  N   UNL A   1      39.036  32.655  33.810  1.00  0.00    -0.248 NA
ATOM     42  C   UNL A   1      37.355  34.263  33.620  1.00  0.00     0.031 C 
ATOM     43  C   UNL A   1      37.830  30.958  29.851  1.00  0.00     0.029 A 
ATOM     44  N   UNL A   1      39.224  30.745  31.585  1.00  0.00    -0.354 N 
ATOM     45  C   UNL A   1      39.087  33.508  34.908  1.00  0.00     0.074 A 
ATOM     46  C   UNL A   1      38.069  34.515  34.707  1.00  0.00     0.031 C 
ATOM     47  C   UNL A   1      38.630  29.909  29.597  1.00  0.00     0.029 A 
ATOM     48  C   UNL A   1      39.578  29.756  30.696  1.00  0.00     0.049 A 
ATOM     49  H   UNL A   1      39.678  30.880  32.449  1.00  0.00     0.167 HD
ATOM     50  C   UNL A   1      39.897  33.447  35.991  1.00  0.00     0.031 A 
ATOM     51  C   UNL A   1      40.562  28.838  30.752  1.00  0.00     0.031 A 
ATOM     52  C   UNL A   1      40.904  32.439  36.186  1.00  0.00     0.049 A 
ATOM     53  C   UNL A   1      41.459  28.799  31.960  1.00  0.00     0.074 A 
ATOM     54  C   UNL A   1      41.736  32.254  37.277  1.00  0.00     0.029 A 
ATOM     55  N   UNL A   1      41.224  31.449  35.268  1.00  0.00    -0.354 N 
ATOM     56  N   UNL A   1      41.443  29.568  33.023  1.00  0.00    -0.248 NA
ATOM     57  C   UNL A   1      42.501  27.764  31.980  1.00  0.00     0.031 C 
ATOM     58  C   UNL A   1      42.601  31.194  36.991  1.00  0.00     0.029 A 
ATOM     59  C   UNL A   1      42.262  30.672  35.753  1.00  0.00     0.049 A 
ATOM     60  H   UNL A   1      40.780  31.320  34.399  1.00  0.00     0.167 HD
ATOM     61  C   UNL A   1      42.452  29.091  33.851  1.00  0.00     0.074 A 
ATOM     62  C   UNL A   1      43.049  27.958  33.173  1.00  0.00     0.031 C 
ATOM     63  C   UNL A   1      42.847  29.547  35.065  1.00  0.00     0.031 A 
BRANCH  50  64
ATOM     64  C   UNL A   1      39.735  34.513  37.045  1.00  0.00    -0.014 A 
ATOM     65  C   UNL A   1      39.023  34.264  38.233  1.00  0.00     0.010 A 
ATOM     66  C   UNL A   1      40.338  35.771  36.863  1.00  0.00     0.010 A 
ATOM     67  C   UNL A   1      38.879  35.266  39.196  1.00  0.00     0.020 A 
ATOM     68  C   UNL A   1      40.224  36.765  37.839  1.00  0.00     0.020 A 
ATOM     69  C   UNL A   1      39.479  36.512  38.992  1.00  0.00     0.054 A 
BRANCH  69  70
ATOM     70  S   UNL A   1      39.291  37.786  40.268  1.00  0.00     0.124 S 
ATOM     71  O   UNL A   1      38.926  36.991  41.437  1.00  0.00    -0.237 OA
ATOM     72  O   UNL A   1      40.619  38.394  40.311  1.00  0.00    -0.237 OA
ATOM     73  O   UNL A   1      38.232  38.648  39.746  1.00  0.00    -0.744 OA
ENDBRANCH  69  70
ENDBRANCH  50  64
BRANCH  51  74
ATOM     74  C   UNL A   1      40.743  27.876  29.630  1.00  0.00    -0.014 A 
ATOM     75  C   UNL A   1      39.957  26.714  29.546  1.00  0.00     0.010 A 
ATOM     76  C   UNL A   1      41.698  28.126  28.626  1.00  0.00     0.010 A 
ATOM     77  C   UNL A   1      40.133  25.812  28.492  1.00  0.00     0.020 A 
ATOM     78  C   UNL A   1      41.855  27.244  27.553  1.00  0.00     0.020 A 
ATOM     79  C   UNL A   1      41.079  26.084  27.501  1.00  0.00     0.054 A 
BRANCH  79  80
ATOM     80  S   UNL A   1      41.257  24.920  26.119  1.00  0.00     0.124 S 
ATOM     81  O   UNL A   1      39.901  24.394  25.990  1.00  0.00    -0.237 OA
ATOM     82  O   UNL A   1      41.705  25.789  25.034  1.00  0.00    -0.237 OA
ATOM     83  O   UNL A   1      42.255  23.967  26.599  1.00  0.00    -0.744 OA
ENDBRANCH  79  80
ENDBRANCH  51  74
BRANCH  63  84
ATOM     84  C   UNL A   1      43.957  28.803  35.763  1.00  0.00    -0.014 A 
ATOM     85  C   UNL A   1      45.300  29.190  35.621  1.00  0.00     0.010 A 
ATOM     86  C   UNL A   1      43.638  27.740  36.628  1.00  0.00     0.010 A 
ATOM     87  C   UNL A   1      46.308  28.509  36.310  1.00  0.00     0.020 A 
ATOM     88  C   UNL A   1      44.638  27.077  37.343  1.00  0.00     0.020 A 
ATOM     89  C   UNL A   1      45.970  27.459  37.170  1.00  0.00     0.054 A 
BRANCH  89  90
ATOM     90  S   UNL A   1      47.291  26.629  38.095  1.00  0.00     0.124 S 
ATOM     91  O   UNL A   1      46.583  26.157  39.280  1.00  0.00    -0.237 OA
ATOM     92  O   UNL A   1      47.727  25.590  37.165  1.00  0.00    -0.237 OA
ATOM     93  O   UNL A   1      48.267  27.692  38.334  1.00  0.00    -0.744 OA
ENDBRANCH  89  90
ENDBRANCH  63  84
ENDBRANCH  37  38
ENDBRANCH  29  32
ENDBRANCH  27  28
ENDBRANCH  26  27
ENDBRANCH   1  26
TORSDOF 18
ENDMDL
MODEL 3
REMARK VINA RESULT:     -10.9      4.400     10.575
REMARK SMILES Cc1nc(C)c(C(=O)N2CCC([C@H](C)C(=O)NCCCCCCNC(=O)c3ccc(-c4c5nc(c(-c6ccc(S(=O)(=O)[O-])cc6)c6ccc([nH]6)c(-c6ccc(S(=O)(=O)[O-])cc6)c6nc(c(-c7ccc(S(=O)(=O)[O-])cc7)c7ccc4[nH]7)C=C6)C=C5)cc3)CC2)s1
REMARK SMILES IDX 21 1 20 2 19 3 18 4 17 5 15 6 16 7 13 9 14 10 12 11 7 12
REMARK SMILES IDX 8 13 9 14 10 15 88 16 11 17 87 18 6 19 1 20 2 21 3 22 89 23
REMARK SMILES IDX 4 24 5 25 22 26 23 27 24 28 25 29 26 31 27 32 28 33 86 34
REMARK SMILES IDX 29 35 85 36 30 37 31 38 32 39 79 40 33 41 84 42 78 43 80 44
REMARK SMILES IDX 34 45 83 46 77 47 76 48 35 50 65 51 46 52 64 53 47 54 50 55
REMARK SMILES IDX 63 56 81 57 48 58 49 59 62 61 82 62 51 63 36 64 37 65 45 66
REMARK SMILES IDX 38 67 44 68 39 69 40 70 41 71 42 72 43 73 66 74 67 75 75 76
REMARK SMILES IDX 68 77 74 78 69 79 70 80 71 81 72 82 73 83 52 84 53 85 61 86
REMARK SMILES IDX 54 87 60 88 55 89 56 90 57 91 58 92 59 93
REMARK H PARENT 17 8 24 30 80 49 50 60
REMARK Flexibility Score: inf
ROOT
ATOM      1  C   UNL A   1      42.075  21.714  27.384  1.00  0.00     0.002 C 
ENDROOT
BRANCH   1   2
ATOM      2  C   UNL A   1      40.550  21.823  27.481  1.00  0.00     0.002 C 
BRANCH   2   3
ATOM      3  C   UNL A   1      39.809  21.831  26.146  1.00  0.00     0.021 C 
BRANCH   3   4
ATOM      4  C   UNL A   1      38.510  22.619  26.150  1.00  0.00     0.116 C 
BRANCH   4   5
ATOM      5  N   UNL A   1      37.341  21.770  26.126  1.00  0.00    -0.356 N 
ATOM      6  C   UNL A   1      36.212  21.878  25.380  1.00  0.00     0.223 C 
ATOM      7  O   UNL A   1      35.383  20.965  25.457  1.00  0.00    -0.275 OA
ATOM      8  H   UNL A   1      37.366  21.002  26.741  1.00  0.00     0.163 HD
BRANCH   6   9
ATOM      9  C   UNL A   1      35.953  23.080  24.464  1.00  0.00     0.078 C 
ATOM     10  C   UNL A   1      36.647  22.899  23.108  1.00  0.00     0.018 C 
BRANCH   9  11
ATOM     11  C   UNL A   1      34.490  23.642  24.446  1.00  0.00     0.005 C 
ATOM     12  C   UNL A   1      32.133  27.039  25.022  1.00  0.00     0.265 C 
ATOM     13  O   UNL A   1      32.613  27.548  26.037  1.00  0.00    -0.268 OA
ATOM     14  N   UNL A   1      32.491  25.731  24.684  1.00  0.00    -0.338 N 
ATOM     15  C   UNL A   1      32.569  24.733  25.729  1.00  0.00     0.120 C 
ATOM     16  C   UNL A   1      32.843  25.288  23.343  1.00  0.00     0.120 C 
ATOM     17  C   UNL A   1      33.954  24.117  25.813  1.00  0.00     0.026 C 
ATOM     18  C   UNL A   1      34.248  24.686  23.329  1.00  0.00     0.026 C 
BRANCH  12  19
ATOM     19  C   UNL A   1      31.130  27.708  24.205  1.00  0.00     0.115 A 
ATOM     20  C   UNL A   1      29.603  30.096  21.537  1.00  0.00     0.079 C 
ATOM     21  C   UNL A   1      29.969  29.091  22.569  1.00  0.00     0.091 A 
ATOM     22  N   UNL A   1      29.150  28.184  23.045  1.00  0.00    -0.246 NA
ATOM     23  S   UNL A   1      31.553  29.041  23.194  1.00  0.00    -0.113 S 
ATOM     24  C   UNL A   1      29.816  27.341  23.932  1.00  0.00     0.061 A 
ATOM     25  C   UNL A   1      29.053  26.163  24.430  1.00  0.00     0.068 C 
ENDBRANCH  12  19
ENDBRANCH   9  11
ENDBRANCH   6   9
ENDBRANCH   4   5
ENDBRANCH   3   4
ENDBRANCH   2   3
ENDBRANCH   1   2
BRANCH   1  26
ATOM     26  C   UNL A   1      42.859  22.883  27.987  1.00  0.00     0.021 C 
BRANCH  26  27
ATOM     27  C   UNL A   1      43.590  23.756  26.973  1.00  0.00     0.116 C 
BRANCH  27  28
ATOM     28  N   UNL A   1      42.705  24.248  25.929  1.00  0.00    -0.352 N 
ATOM     29  C   UNL A   1      41.756  25.235  25.997  1.00  0.00     0.251 C 
ATOM     30  H   UNL A   1      42.803  23.812  25.052  1.00  0.00     0.163 HD
ATOM     31  O   UNL A   1      40.974  25.402  25.064  1.00  0.00    -0.269 OA
BRANCH  29  32
ATOM     32  C   UNL A   1      41.667  26.081  27.204  1.00  0.00     0.039 A 
ATOM     33  C   UNL A   1      42.526  27.175  27.328  1.00  0.00     0.014 A 
ATOM     34  C   UNL A   1      40.730  25.802  28.203  1.00  0.00     0.014 A 
ATOM     35  C   UNL A   1      42.405  28.024  28.430  1.00  0.00     0.010 A 
ATOM     36  C   UNL A   1      40.562  26.690  29.261  1.00  0.00     0.010 A 
ATOM     37  C   UNL A   1      41.401  27.807  29.387  1.00  0.00    -0.014 A 
BRANCH  37  38
ATOM     38  C   UNL A   1      41.209  28.741  30.526  1.00  0.00     0.031 A 
ATOM     39  C   UNL A   1      42.073  28.626  31.751  1.00  0.00     0.074 A 
ATOM     40  C   UNL A   1      40.211  29.647  30.483  1.00  0.00     0.049 A 
ATOM     41  N   UNL A   1      42.017  29.308  32.866  1.00  0.00    -0.248 NA
ATOM     42  C   UNL A   1      43.123  27.594  31.732  1.00  0.00     0.031 C 
ATOM     43  C   UNL A   1      39.279  29.828  29.367  1.00  0.00     0.029 A 
ATOM     44  N   UNL A   1      39.810  30.582  31.403  1.00  0.00    -0.354 N 
ATOM     45  C   UNL A   1      43.007  28.777  33.686  1.00  0.00     0.074 A 
ATOM     46  C   UNL A   1      43.615  27.684  32.959  1.00  0.00     0.031 C 
ATOM     47  C   UNL A   1      38.431  30.827  29.659  1.00  0.00     0.029 A 
ATOM     48  C   UNL A   1      38.726  31.326  30.998  1.00  0.00     0.049 A 
ATOM     49  H   UNL A   1      40.255  30.708  32.273  1.00  0.00     0.167 HD
ATOM     50  C   UNL A   1      43.387  29.174  34.924  1.00  0.00     0.031 A 
ATOM     51  C   UNL A   1      38.039  32.293  31.637  1.00  0.00     0.031 A 
ATOM     52  C   UNL A   1      42.780  30.265  35.639  1.00  0.00     0.049 A 
ATOM     53  C   UNL A   1      38.469  32.707  33.018  1.00  0.00     0.074 A 
ATOM     54  C   UNL A   1      43.131  30.785  36.873  1.00  0.00     0.029 A 
ATOM     55  N   UNL A   1      41.693  31.001  35.190  1.00  0.00    -0.354 N 
ATOM     56  N   UNL A   1      39.456  32.243  33.746  1.00  0.00    -0.248 NA
ATOM     57  C   UNL A   1      37.700  33.782  33.660  1.00  0.00     0.031 C 
ATOM     58  C   UNL A   1      42.217  31.791  37.198  1.00  0.00     0.029 A 
ATOM     59  C   UNL A   1      41.340  31.948  36.136  1.00  0.00     0.049 A 
ATOM     60  H   UNL A   1      41.239  30.868  34.326  1.00  0.00     0.167 HD
ATOM     61  C   UNL A   1      39.444  32.988  34.920  1.00  0.00     0.074 A 
ATOM     62  C   UNL A   1      38.362  33.943  34.797  1.00  0.00     0.031 C 
ATOM     63  C   UNL A   1      40.258  32.892  36.000  1.00  0.00     0.031 A 
BRANCH  50  64
ATOM     64  C   UNL A   1      44.502  28.411  35.591  1.00  0.00    -0.014 A 
ATOM     65  C   UNL A   1      44.237  27.335  36.457  1.00  0.00     0.010 A 
ATOM     66  C   UNL A   1      45.840  28.750  35.316  1.00  0.00     0.010 A 
ATOM     67  C   UNL A   1      45.284  26.643  37.071  1.00  0.00     0.020 A 
ATOM     68  C   UNL A   1      46.891  28.040  35.903  1.00  0.00     0.020 A 
ATOM     69  C   UNL A   1      46.606  27.002  36.791  1.00  0.00     0.054 A 
BRANCH  69  70
ATOM     70  S   UNL A   1      47.945  26.074  37.588  1.00  0.00     0.124 S 
ATOM     71  O   UNL A   1      47.666  26.299  39.004  1.00  0.00    -0.237 OA
ATOM     72  O   UNL A   1      47.717  24.712  37.112  1.00  0.00    -0.237 OA
ATOM     73  O   UNL A   1      49.159  26.711  37.083  1.00  0.00    -0.744 OA
ENDBRANCH  69  70
ENDBRANCH  50  64
BRANCH  51  74
ATOM     74  C   UNL A   1      36.874  32.939  30.969  1.00  0.00    -0.014 A 
ATOM     75  C   UNL A   1      35.562  32.665  31.393  1.00  0.00     0.010 A 
ATOM     76  C   UNL A   1      37.074  33.847  29.912  1.00  0.00     0.010 A 
ATOM     77  C   UNL A   1      34.472  33.272  30.761  1.00  0.00     0.020 A 
ATOM     78  C   UNL A   1      35.989  34.480  29.300  1.00  0.00     0.020 A 
ATOM     79  C   UNL A   1      34.692  34.177  29.720  1.00  0.00     0.054 A 
BRANCH  79  80
ATOM     80  S   UNL A   1      33.262  34.986  28.947  1.00  0.00     0.124 S 
ATOM     81  O   UNL A   1      32.417  35.275  30.102  1.00  0.00    -0.237 OA
ATOM     82  O   UNL A   1      33.870  36.146  28.302  1.00  0.00    -0.237 OA
ATOM     83  O   UNL A   1      32.746  33.970  28.032  1.00  0.00    -0.744 OA
ENDBRANCH  79  80
ENDBRANCH  51  74
BRANCH  63  84
ATOM     84  C   UNL A   1      40.038  33.868  37.128  1.00  0.00    -0.014 A 
ATOM     85  C   UNL A   1      40.722  35.094  37.179  1.00  0.00     0.010 A 
ATOM     86  C   UNL A   1      39.080  33.576  38.117  1.00  0.00     0.010 A 
ATOM     87  C   UNL A   1      40.471  36.001  38.213  1.00  0.00     0.020 A 
ATOM     88  C   UNL A   1      38.804  34.492  39.135  1.00  0.00     0.020 A 
ATOM     89  C   UNL A   1      39.511  35.695  39.183  1.00  0.00     0.054 A 
BRANCH  89  90
ATOM     90  S   UNL A   1      39.166  36.912  40.483  1.00  0.00     0.124 S 
ATOM     91  O   UNL A   1      40.507  37.249  40.948  1.00  0.00    -0.237 OA
ATOM     92  O   UNL A   1      38.468  37.968  39.754  1.00  0.00    -0.237 OA
ATOM     93  O   UNL A   1      38.342  36.174  41.439  1.00  0.00    -0.744 OA
ENDBRANCH  89  90
ENDBRANCH  63  84
ENDBRANCH  37  38
ENDBRANCH  29  32
ENDBRANCH  27  28
ENDBRANCH  26  27
ENDBRANCH   1  26
TORSDOF 18
ENDMDL
