MODEL 1
REMARK VINA RESULT:      -9.7      0.000      0.000
REMARK SMILES Cc1cccc(NS(=O)(=O)Cc2ccc(C(=O)NCCCCCCNC(=O)c3ccc(-c4c5nc(c(-c6ccc(S(=O)(=O)[O-])cc6)c6ccc([nH]6)c(-c6ccc(S(=O)(=O)[O-])cc6)c6nc(c(-c7ccc(S(=O)(=O)[O-])cc7)c7ccc4[nH]7)C=C6)C=C5)cc3)cc2)n1
REMARK SMILES IDX 21 1 20 2 19 3 18 4 16 5 17 6 15 8 12 9 13 10 89 11 14 12
REMARK SMILES IDX 88 13 11 14 8 15 9 16 10 17 7 18 6 20 1 21 2 22 3 23 90 24
REMARK SMILES IDX 4 25 5 26 22 27 23 28 24 29 25 30 26 31 27 33 28 34 29 35
REMARK SMILES IDX 87 36 30 37 86 38 31 39 32 40 33 41 80 42 34 43 85 44 79 45
REMARK SMILES IDX 81 46 35 47 84 48 78 49 77 50 36 52 66 53 47 54 65 55 48 56
REMARK SMILES IDX 51 57 64 58 82 59 49 60 50 61 63 63 83 64 52 65 37 66 38 67
REMARK SMILES IDX 46 68 39 69 45 70 40 71 41 72 42 73 43 74 44 75 67 76 68 77
REMARK SMILES IDX 76 78 69 79 75 80 70 81 71 82 72 83 73 84 74 85 53 86 54 87
REMARK SMILES IDX 62 88 55 89 61 90 56 91 57 92 58 93 59 94 60 95
REMARK H PARENT 18 7 7 19 25 32 81 51 51 62
REMARK Flexibility Score: inf
ROOT
ATOM      1  C   UNL A   1      42.276  18.920  27.323  1.00  0.00     0.002 C 
ENDROOT
BRANCH   1   2
ATOM      2  C   UNL A   1      43.270  18.115  26.479  1.00  0.00     0.021 C 
BRANCH   2   3
ATOM      3  C   UNL A   1      43.631  18.813  25.169  1.00  0.00     0.116 C 
BRANCH   3   4
ATOM      4  N   UNL A   1      45.071  18.856  25.033  1.00  0.00    -0.352 N 
ATOM      5  C   UNL A   1      45.901  19.935  24.911  1.00  0.00     0.251 C 
ATOM      6  O   UNL A   1      47.109  19.761  24.771  1.00  0.00    -0.269 OA
ATOM      7  H   UNL A   1      45.519  17.980  25.027  1.00  0.00     0.163 HD
BRANCH   5   8
ATOM      8  C   UNL A   1      45.374  21.313  25.026  1.00  0.00     0.039 A 
ATOM      9  C   UNL A   1      44.593  23.986  25.352  1.00  0.00    -0.031 A 
ATOM     10  C   UNL A   1      45.213  23.284  26.397  1.00  0.00     0.005 A 
ATOM     11  C   UNL A   1      44.269  23.298  24.178  1.00  0.00     0.005 A 
ATOM     12  C   UNL A   1      45.630  21.970  26.227  1.00  0.00     0.014 A 
ATOM     13  C   UNL A   1      44.685  21.975  24.004  1.00  0.00     0.014 A 
BRANCH   9  14
ATOM     14  C   UNL A   1      44.334  25.459  25.535  1.00  0.00     0.195 C 
BRANCH  14  15
ATOM     15  S   UNL A   1      45.851  26.443  25.527  1.00  0.00     0.238 S 
ATOM     16  O   UNL A   1      46.759  25.909  24.533  1.00  0.00    -0.206 OA
ATOM     17  O   UNL A   1      46.306  26.545  26.905  1.00  0.00    -0.206 OA
BRANCH  15  18
ATOM     18  N   UNL A   1      45.477  27.995  25.135  1.00  0.00    -0.267 N 
ATOM     19  H   UNL A   1      45.444  28.212  24.175  1.00  0.00     0.181 HD
BRANCH  18  20
ATOM     20  C   UNL A   1      45.199  29.041  26.027  1.00  0.00     0.139 A 
ATOM     21  C   UNL A   1      46.369  32.489  26.537  1.00  0.00     0.067 C 
ATOM     22  C   UNL A   1      45.547  31.237  26.650  1.00  0.00     0.040 A 
ATOM     23  C   UNL A   1      44.298  31.307  27.260  1.00  0.00     0.023 A 
ATOM     24  N   UNL A   1      46.012  30.112  26.040  1.00  0.00    -0.235 NA
ATOM     25  C   UNL A   1      43.502  30.172  27.283  1.00  0.00     0.006 A 
ATOM     26  C   UNL A   1      43.958  29.021  26.653  1.00  0.00     0.048 A 
ENDBRANCH  18  20
ENDBRANCH  15  18
ENDBRANCH  14  15
ENDBRANCH   9  14
ENDBRANCH   5   8
ENDBRANCH   3   4
ENDBRANCH   2   3
ENDBRANCH   1   2
BRANCH   1  27
ATOM     27  C   UNL A   1      42.618  20.410  27.445  1.00  0.00     0.002 C 
BRANCH  27  28
ATOM     28  C   UNL A   1      41.401  21.339  27.439  1.00  0.00     0.021 C 
BRANCH  28  29
ATOM     29  C   UNL A   1      41.282  22.184  26.176  1.00  0.00     0.116 C 
BRANCH  29  30
ATOM     30  N   UNL A   1      39.905  22.238  25.711  1.00  0.00    -0.352 N 
ATOM     31  C   UNL A   1      38.910  23.112  26.072  1.00  0.00     0.251 C 
ATOM     32  H   UNL A   1      39.652  21.557  25.047  1.00  0.00     0.163 HD
ATOM     33  O   UNL A   1      37.740  22.854  25.817  1.00  0.00    -0.269 OA
BRANCH  31  34
ATOM     34  C   UNL A   1      39.271  24.358  26.776  1.00  0.00     0.039 A 
ATOM     35  C   UNL A   1      38.894  24.520  28.111  1.00  0.00     0.014 A 
ATOM     36  C   UNL A   1      39.980  25.364  26.110  1.00  0.00     0.014 A 
ATOM     37  C   UNL A   1      39.274  25.676  28.794  1.00  0.00     0.010 A 
ATOM     38  C   UNL A   1      40.420  26.478  26.814  1.00  0.00     0.010 A 
ATOM     39  C   UNL A   1      40.066  26.649  28.161  1.00  0.00    -0.014 A 
BRANCH  39  40
ATOM     40  C   UNL A   1      40.541  27.850  28.890  1.00  0.00     0.031 A 
ATOM     41  C   UNL A   1      41.901  27.855  29.532  1.00  0.00     0.074 A 
ATOM     42  C   UNL A   1      39.719  28.909  29.029  1.00  0.00     0.049 A 
ATOM     43  N   UNL A   1      42.466  28.785  30.259  1.00  0.00    -0.248 NA
ATOM     44  C   UNL A   1      42.726  26.649  29.355  1.00  0.00     0.031 C 
ATOM     45  C   UNL A   1      38.362  29.005  28.484  1.00  0.00     0.029 A 
ATOM     46  N   UNL A   1      39.901  30.105  29.675  1.00  0.00    -0.354 N 
ATOM     47  C   UNL A   1      43.700  28.273  30.637  1.00  0.00     0.074 A 
ATOM     48  C   UNL A   1      43.784  26.932  30.102  1.00  0.00     0.031 C 
ATOM     49  C   UNL A   1      37.847  30.204  28.796  1.00  0.00     0.029 A 
ATOM     50  C   UNL A   1      38.814  30.943  29.601  1.00  0.00     0.049 A 
ATOM     51  H   UNL A   1      40.732  30.340  30.149  1.00  0.00     0.167 HD
ATOM     52  C   UNL A   1      44.685  28.873  31.348  1.00  0.00     0.031 A 
ATOM     53  C   UNL A   1      38.613  32.166  30.130  1.00  0.00     0.031 A 
ATOM     54  C   UNL A   1      44.595  30.210  31.874  1.00  0.00     0.049 A 
ATOM     55  C   UNL A   1      39.713  32.802  30.935  1.00  0.00     0.074 A 
ATOM     56  C   UNL A   1      45.557  30.929  32.563  1.00  0.00     0.029 A 
ATOM     57  N   UNL A   1      43.479  31.027  31.775  1.00  0.00    -0.354 N 
ATOM     58  N   UNL A   1      40.901  32.328  31.224  1.00  0.00    -0.248 NA
ATOM     59  C   UNL A   1      39.448  34.142  31.475  1.00  0.00     0.031 C 
ATOM     60  C   UNL A   1      45.001  32.157  32.932  1.00  0.00     0.029 A 
ATOM     61  C   UNL A   1      43.716  32.232  32.415  1.00  0.00     0.049 A 
ATOM     62  H   UNL A   1      42.641  30.786  31.318  1.00  0.00     0.167 HD
ATOM     63  C   UNL A   1      41.537  33.324  31.958  1.00  0.00     0.074 A 
ATOM     64  C   UNL A   1      40.607  34.431  32.052  1.00  0.00     0.031 C 
ATOM     65  C   UNL A   1      42.778  33.322  32.504  1.00  0.00     0.031 A 
BRANCH  52  66
ATOM     66  C   UNL A   1      45.941  28.081  31.610  1.00  0.00    -0.014 A 
ATOM     67  C   UNL A   1      46.032  27.202  32.704  1.00  0.00     0.010 A 
ATOM     68  C   UNL A   1      47.029  28.185  30.725  1.00  0.00     0.010 A 
ATOM     69  C   UNL A   1      47.204  26.474  32.933  1.00  0.00     0.020 A 
ATOM     70  C   UNL A   1      48.191  27.436  30.932  1.00  0.00     0.020 A 
ATOM     71  C   UNL A   1      48.276  26.597  32.045  1.00  0.00     0.054 A 
BRANCH  71  72
ATOM     72  S   UNL A   1      49.773  25.620  32.353  1.00  0.00     0.124 S 
ATOM     73  O   UNL A   1      50.721  26.648  32.774  1.00  0.00    -0.237 OA
ATOM     74  O   UNL A   1      49.343  24.696  33.399  1.00  0.00    -0.237 OA
ATOM     75  O   UNL A   1      50.058  25.003  31.059  1.00  0.00    -0.744 OA
ENDBRANCH  71  72
ENDBRANCH  52  66
BRANCH  53  76
ATOM     76  C   UNL A   1      37.320  32.868  29.905  1.00  0.00    -0.014 A 
ATOM     77  C   UNL A   1      37.044  33.482  28.670  1.00  0.00     0.010 A 
ATOM     78  C   UNL A   1      36.349  32.916  30.923  1.00  0.00     0.010 A 
ATOM     79  C   UNL A   1      35.830  34.144  28.463  1.00  0.00     0.020 A 
ATOM     80  C   UNL A   1      35.121  33.549  30.709  1.00  0.00     0.020 A 
ATOM     81  C   UNL A   1      34.875  34.170  29.483  1.00  0.00     0.054 A 
BRANCH  81  82
ATOM     82  S   UNL A   1      33.287  34.990  29.173  1.00  0.00     0.124 S 
ATOM     83  O   UNL A   1      33.709  36.329  28.774  1.00  0.00    -0.237 OA
ATOM     84  O   UNL A   1      32.709  34.166  28.114  1.00  0.00    -0.237 OA
ATOM     85  O   UNL A   1      32.602  34.907  30.461  1.00  0.00    -0.744 OA
ENDBRANCH  81  82
ENDBRANCH  53  76
BRANCH  65  86
ATOM     86  C   UNL A   1      43.217  34.568  33.227  1.00  0.00    -0.014 A 
ATOM     87  C   UNL A   1      43.787  35.652  32.536  1.00  0.00     0.010 A 
ATOM     88  C   UNL A   1      43.007  34.674  34.614  1.00  0.00     0.010 A 
ATOM     89  C   UNL A   1      44.169  36.806  33.226  1.00  0.00     0.020 A 
ATOM     90  C   UNL A   1      43.358  35.837  35.302  1.00  0.00     0.020 A 
ATOM     91  C   UNL A   1      43.951  36.892  34.605  1.00  0.00     0.054 A 
BRANCH  91  92
ATOM     92  S   UNL A   1      44.417  38.416  35.468  1.00  0.00     0.124 S 
ATOM     93  O   UNL A   1      45.870  38.416  35.323  1.00  0.00    -0.237 OA
ATOM     94  O   UNL A   1      43.709  39.444  34.708  1.00  0.00    -0.237 OA
ATOM     95  O   UNL A   1      43.927  38.209  36.830  1.00  0.00    -0.744 OA
ENDBRANCH  91  92
ENDBRANCH  65  86
ENDBRANCH  39  40
ENDBRANCH  31  34
ENDBRANCH  29  30
ENDBRANCH  28  29
ENDBRANCH  27  28
ENDBRANCH   1  27
TORSDOF 20
ENDMDL
MODEL 2
REMARK VINA RESULT:      -9.5      4.906     10.356
REMARK SMILES Cc1cccc(NS(=O)(=O)Cc2ccc(C(=O)NCCCCCCNC(=O)c3ccc(-c4c5nc(c(-c6ccc(S(=O)(=O)[O-])cc6)c6ccc([nH]6)c(-c6ccc(S(=O)(=O)[O-])cc6)c6nc(c(-c7ccc(S(=O)(=O)[O-])cc7)c7ccc4[nH]7)C=C6)C=C5)cc3)cc2)n1
REMARK SMILES IDX 21 1 20 2 19 3 18 4 16 5 17 6 15 8 12 9 13 10 89 11 14 12
REMARK SMILES IDX 88 13 11 14 8 15 9 16 10 17 7 18 6 20 1 21 2 22 3 23 90 24
REMARK SMILES IDX 4 25 5 26 22 27 23 28 24 29 25 30 26 31 27 33 28 34 29 35
REMARK SMILES IDX 87 36 30 37 86 38 31 39 32 40 33 41 80 42 34 43 85 44 79 45
REMARK SMILES IDX 81 46 35 47 84 48 78 49 77 50 36 52 66 53 47 54 65 55 48 56
REMARK SMILES IDX 51 57 64 58 82 59 49 60 50 61 63 63 83 64 52 65 37 66 38 67
REMARK SMILES IDX 46 68 39 69 45 70 40 71 41 72 42 73 43 74 44 75 67 76 68 77
REMARK SMILES IDX 76 78 69 79 75 80 70 81 71 82 72 83 73 84 74 85 53 86 54 87
REMARK SMILES IDX 62 88 55 89 61 90 56 91 57 92 58 93 59 94 60 95
REMARK H PARENT 18 7 7 19 25 32 81 51 51 62
REMARK Flexibility Score: inf
ROOT
ATOM      1  C   UNL A   1      31.063  27.065  25.212  1.00  0.00     0.002 C 
ENDROOT
BRANCH   1   2
ATOM      2  C   UNL A   1      31.200  27.556  23.767  1.00  0.00     0.021 C 
BRANCH   2   3
ATOM      3  C   UNL A   1      30.640  26.562  22.752  1.00  0.00     0.116 C 
BRANCH   3   4
ATOM      4  N   UNL A   1      31.511  26.519  21.596  1.00  0.00    -0.352 N 
ATOM      5  C   UNL A   1      32.622  25.757  21.373  1.00  0.00     0.251 C 
ATOM      6  O   UNL A   1      33.253  25.892  20.327  1.00  0.00    -0.269 OA
ATOM      7  H   UNL A   1      31.267  27.129  20.863  1.00  0.00     0.163 HD
BRANCH   5   8
ATOM      8  C   UNL A   1      33.031  24.713  22.338  1.00  0.00     0.039 A 
ATOM      9  C   UNL A   1      33.833  22.580  23.973  1.00  0.00    -0.031 A 
ATOM     10  C   UNL A   1      32.892  22.390  22.950  1.00  0.00     0.005 A 
ATOM     11  C   UNL A   1      34.285  23.877  24.239  1.00  0.00     0.005 A 
ATOM     12  C   UNL A   1      32.518  23.437  22.118  1.00  0.00     0.014 A 
ATOM     13  C   UNL A   1      33.909  24.934  23.405  1.00  0.00     0.014 A 
BRANCH   9  14
ATOM     14  C   UNL A   1      34.337  21.370  24.717  1.00  0.00     0.195 C 
BRANCH  14  15
ATOM     15  S   UNL A   1      33.451  21.081  26.266  1.00  0.00     0.238 S 
ATOM     16  O   UNL A   1      32.319  21.981  26.341  1.00  0.00    -0.206 OA
ATOM     17  O   UNL A   1      34.436  21.108  27.336  1.00  0.00    -0.206 OA
BRANCH  15  18
ATOM     18  N   UNL A   1      32.909  19.530  26.288  1.00  0.00    -0.267 N 
ATOM     19  H   UNL A   1      32.436  19.240  27.102  1.00  0.00     0.181 HD
BRANCH  18  20
ATOM     20  C   UNL A   1      33.050  18.578  25.268  1.00  0.00     0.139 A 
ATOM     21  C   UNL A   1      32.117  18.313  21.722  1.00  0.00     0.067 C 
ATOM     22  C   UNL A   1      32.764  18.021  23.046  1.00  0.00     0.040 A 
ATOM     23  C   UNL A   1      33.822  17.117  23.091  1.00  0.00     0.023 A 
ATOM     24  N   UNL A   1      32.364  18.749  24.126  1.00  0.00    -0.235 NA
ATOM     25  C   UNL A   1      34.477  16.917  24.297  1.00  0.00     0.006 A 
ATOM     26  C   UNL A   1      34.088  17.662  25.403  1.00  0.00     0.048 A 
ENDBRANCH  18  20
ENDBRANCH  15  18
ENDBRANCH  14  15
ENDBRANCH   9  14
ENDBRANCH   5   8
ENDBRANCH   3   4
ENDBRANCH   2   3
ENDBRANCH   1   2
BRANCH   1  27
ATOM     27  C   UNL A   1      32.285  27.353  26.092  1.00  0.00     0.002 C 
BRANCH  27  28
ATOM     28  C   UNL A   1      33.476  27.953  25.339  1.00  0.00     0.021 C 
BRANCH  28  29
ATOM     29  C   UNL A   1      34.419  28.757  26.228  1.00  0.00     0.116 C 
BRANCH  29  30
ATOM     30  N   UNL A   1      33.897  30.093  26.470  1.00  0.00    -0.352 N 
ATOM     31  C   UNL A   1      34.227  30.975  27.468  1.00  0.00     0.251 C 
ATOM     32  H   UNL A   1      33.216  30.407  25.833  1.00  0.00     0.163 HD
ATOM     33  O   UNL A   1      33.503  31.934  27.709  1.00  0.00    -0.269 OA
BRANCH  31  34
ATOM     34  C   UNL A   1      35.461  30.749  28.247  1.00  0.00     0.039 A 
ATOM     35  C   UNL A   1      35.490  29.724  29.194  1.00  0.00     0.014 A 
ATOM     36  C   UNL A   1      36.584  31.556  28.038  1.00  0.00     0.014 A 
ATOM     37  C   UNL A   1      36.669  29.476  29.898  1.00  0.00     0.010 A 
ATOM     38  C   UNL A   1      37.777  31.259  28.686  1.00  0.00     0.010 A 
ATOM     39  C   UNL A   1      37.829  30.221  29.628  1.00  0.00    -0.014 A 
BRANCH  39  40
ATOM     40  C   UNL A   1      39.112  29.926  30.314  1.00  0.00     0.031 A 
ATOM     41  C   UNL A   1      40.007  28.831  29.802  1.00  0.00     0.074 A 
ATOM     42  C   UNL A   1      39.433  30.601  31.434  1.00  0.00     0.049 A 
ATOM     43  N   UNL A   1      41.133  28.388  30.299  1.00  0.00    -0.248 NA
ATOM     44  C   UNL A   1      39.569  28.125  28.587  1.00  0.00     0.031 C 
ATOM     45  C   UNL A   1      38.626  31.657  32.048  1.00  0.00     0.029 A 
ATOM     46  N   UNL A   1      40.523  30.495  32.260  1.00  0.00    -0.354 N 
ATOM     47  C   UNL A   1      41.530  27.347  29.470  1.00  0.00     0.074 A 
ATOM     48  C   UNL A   1      40.500  27.189  28.467  1.00  0.00     0.031 C 
ATOM     49  C   UNL A   1      39.260  32.120  33.137  1.00  0.00     0.029 A 
ATOM     50  C   UNL A   1      40.494  31.364  33.326  1.00  0.00     0.049 A 
ATOM     51  H   UNL A   1      41.257  29.857  32.106  1.00  0.00     0.167 HD
ATOM     52  C   UNL A   1      42.659  26.601  29.527  1.00  0.00     0.031 A 
ATOM     53  C   UNL A   1      41.358  31.528  34.347  1.00  0.00     0.031 A 
ATOM     54  C   UNL A   1      43.682  26.767  30.527  1.00  0.00     0.049 A 
ATOM     55  C   UNL A   1      42.594  30.673  34.400  1.00  0.00     0.074 A 
ATOM     56  C   UNL A   1      44.888  26.098  30.642  1.00  0.00     0.029 A 
ATOM     57  N   UNL A   1      43.616  27.659  31.587  1.00  0.00    -0.354 N 
ATOM     58  N   UNL A   1      42.985  29.738  33.567  1.00  0.00    -0.248 NA
ATOM     59  C   UNL A   1      43.510  30.903  35.525  1.00  0.00     0.031 C 
ATOM     60  C   UNL A   1      45.524  26.544  31.804  1.00  0.00     0.029 A 
ATOM     61  C   UNL A   1      44.746  27.539  32.378  1.00  0.00     0.049 A 
ATOM     62  H   UNL A   1      42.874  28.285  31.753  1.00  0.00     0.167 HD
ATOM     63  C   UNL A   1      44.208  29.287  34.054  1.00  0.00     0.074 A 
ATOM     64  C   UNL A   1      44.497  30.063  35.242  1.00  0.00     0.031 C 
ATOM     65  C   UNL A   1      45.017  28.317  33.560  1.00  0.00     0.031 A 
BRANCH  52  66
ATOM     66  C   UNL A   1      42.843  25.529  28.484  1.00  0.00    -0.014 A 
ATOM     67  C   UNL A   1      43.499  25.800  27.269  1.00  0.00     0.010 A 
ATOM     68  C   UNL A   1      42.392  24.221  28.738  1.00  0.00     0.010 A 
ATOM     69  C   UNL A   1      43.662  24.795  26.311  1.00  0.00     0.020 A 
ATOM     70  C   UNL A   1      42.581  23.205  27.796  1.00  0.00     0.020 A 
ATOM     71  C   UNL A   1      43.201  23.504  26.581  1.00  0.00     0.054 A 
BRANCH  71  72
ATOM     72  S   UNL A   1      43.451  22.215  25.330  1.00  0.00     0.124 S 
ATOM     73  O   UNL A   1      42.316  21.329  25.581  1.00  0.00    -0.237 OA
ATOM     74  O   UNL A   1      43.396  22.967  24.080  1.00  0.00    -0.237 OA
ATOM     75  O   UNL A   1      44.760  21.657  25.662  1.00  0.00    -0.744 OA
ENDBRANCH  71  72
ENDBRANCH  52  66
BRANCH  53  76
ATOM     76  C   UNL A   1      41.084  32.550  35.394  1.00  0.00    -0.014 A 
ATOM     77  C   UNL A   1      41.392  33.904  35.171  1.00  0.00     0.010 A 
ATOM     78  C   UNL A   1      40.498  32.176  36.618  1.00  0.00     0.010 A 
ATOM     79  C   UNL A   1      41.137  34.861  36.158  1.00  0.00     0.020 A 
ATOM     80  C   UNL A   1      40.213  33.134  37.595  1.00  0.00     0.020 A 
ATOM     81  C   UNL A   1      40.545  34.470  37.362  1.00  0.00     0.054 A 
BRANCH  81  82
ATOM     82  S   UNL A   1      40.176  35.737  38.607  1.00  0.00     0.124 S 
ATOM     83  O   UNL A   1      39.100  35.111  39.368  1.00  0.00    -0.237 OA
ATOM     84  O   UNL A   1      41.453  35.872  39.305  1.00  0.00    -0.237 OA
ATOM     85  O   UNL A   1      39.786  36.897  37.808  1.00  0.00    -0.744 OA
ENDBRANCH  81  82
ENDBRANCH  53  76
BRANCH  65  86
ATOM     86  C   UNL A   1      46.312  28.061  34.287  1.00  0.00    -0.014 A 
ATOM     87  C   UNL A   1      46.399  27.097  35.307  1.00  0.00     0.010 A 
ATOM     88  C   UNL A   1      47.470  28.761  33.904  1.00  0.00     0.010 A 
ATOM     89  C   UNL A   1      47.616  26.863  35.954  1.00  0.00     0.020 A 
ATOM     90  C   UNL A   1      48.694  28.508  34.526  1.00  0.00     0.020 A 
ATOM     91  C   UNL A   1      48.757  27.570  35.558  1.00  0.00     0.054 A 
BRANCH  91  92
ATOM     92  S   UNL A   1      50.330  27.216  36.385  1.00  0.00     0.124 S 
ATOM     93  O   UNL A   1      50.659  28.508  36.981  1.00  0.00    -0.237 OA
ATOM     94  O   UNL A   1      49.967  26.162  37.330  1.00  0.00    -0.237 OA
ATOM     95  O   UNL A   1      51.208  26.792  35.295  1.00  0.00    -0.744 OA
ENDBRANCH  91  92
ENDBRANCH  65  86
ENDBRANCH  39  40
ENDBRANCH  31  34
ENDBRANCH  29  30
ENDBRANCH  28  29
ENDBRANCH  27  28
ENDBRANCH   1  27
TORSDOF 20
ENDMDL
MODEL 3
REMARK VINA RESULT:      -9.4      1.692      2.367
REMARK SMILES Cc1cccc(NS(=O)(=O)Cc2ccc(C(=O)NCCCCCCNC(=O)c3ccc(-c4c5nc(c(-c6ccc(S(=O)(=O)[O-])cc6)c6ccc([nH]6)c(-c6ccc(S(=O)(=O)[O-])cc6)c6nc(c(-c7ccc(S(=O)(=O)[O-])cc7)c7ccc4[nH]7)C=C6)C=C5)cc3)cc2)n1
REMARK SMILES IDX 21 1 20 2 19 3 18 4 16 5 17 6 15 8 12 9 13 10 89 11 14 12
REMARK SMILES IDX 88 13 11 14 8 15 9 16 10 17 7 18 6 20 1 21 2 22 3 23 90 24
REMARK SMILES IDX 4 25 5 26 22 27 23 28 24 29 25 30 26 31 27 33 28 34 29 35
REMARK SMILES IDX 87 36 30 37 86 38 31 39 32 40 33 41 80 42 34 43 85 44 79 45
REMARK SMILES IDX 81 46 35 47 84 48 78 49 77 50 36 52 66 53 47 54 65 55 48 56
REMARK SMILES IDX 51 57 64 58 82 59 49 60 50 61 63 63 83 64 52 65 37 66 38 67
REMARK SMILES IDX 46 68 39 69 45 70 40 71 41 72 42 73 43 74 44 75 67 76 68 77
REMARK SMILES IDX 76 78 69 79 75 80 70 81 71 82 72 83 73 84 74 85 53 86 54 87
REMARK SMILES IDX 62 88 55 89 61 90 56 91 57 92 58 93 59 94 60 95
REMARK H PARENT 18 7 7 19 25 32 81 51 51 62
REMARK Flexibility Score: inf
ROOT
ATOM      1  C   UNL A   1      42.288  18.898  27.625  1.00  0.00     0.002 C 
ENDROOT
BRANCH   1   2
ATOM      2  C   UNL A   1      43.053  18.077  26.581  1.00  0.00     0.021 C 
BRANCH   2   3
ATOM      3  C   UNL A   1      43.491  18.914  25.380  1.00  0.00     0.116 C 
BRANCH   3   4
ATOM      4  N   UNL A   1      44.935  18.890  25.283  1.00  0.00    -0.352 N 
ATOM      5  C   UNL A   1      45.812  19.925  25.126  1.00  0.00     0.251 C 
ATOM      6  O   UNL A   1      47.016  19.694  25.031  1.00  0.00    -0.269 OA
ATOM      7  H   UNL A   1      45.345  17.998  25.339  1.00  0.00     0.163 HD
BRANCH   5   8
ATOM      8  C   UNL A   1      45.342  21.328  25.150  1.00  0.00     0.039 A 
ATOM      9  C   UNL A   1      44.664  24.044  25.309  1.00  0.00    -0.031 A 
ATOM     10  C   UNL A   1      45.205  23.370  26.415  1.00  0.00     0.005 A 
ATOM     11  C   UNL A   1      44.363  23.312  24.156  1.00  0.00     0.005 A 
ATOM     12  C   UNL A   1      45.572  22.034  26.328  1.00  0.00     0.014 A 
ATOM     13  C   UNL A   1      44.728  21.966  24.065  1.00  0.00     0.014 A 
BRANCH   9  14
ATOM     14  C   UNL A   1      44.462  25.534  25.408  1.00  0.00     0.195 C 
BRANCH  14  15
ATOM     15  S   UNL A   1      46.020  26.451  25.448  1.00  0.00     0.238 S 
ATOM     16  O   UNL A   1      46.373  26.727  26.826  1.00  0.00    -0.206 OA
ATOM     17  O   UNL A   1      45.886  27.568  24.525  1.00  0.00    -0.206 OA
BRANCH  15  18
ATOM     18  N   UNL A   1      47.197  25.532  24.764  1.00  0.00    -0.267 N 
ATOM     19  H   UNL A   1      47.086  24.556  24.825  1.00  0.00     0.181 HD
BRANCH  18  20
ATOM     20  C   UNL A   1      48.344  25.995  24.101  1.00  0.00     0.139 A 
ATOM     21  C   UNL A   1      49.150  27.282  20.753  1.00  0.00     0.067 C 
ATOM     22  C   UNL A   1      49.276  26.931  22.208  1.00  0.00     0.040 A 
ATOM     23  C   UNL A   1      50.318  27.489  22.945  1.00  0.00     0.023 A 
ATOM     24  N   UNL A   1      48.291  26.178  22.771  1.00  0.00    -0.235 NA
ATOM     25  C   UNL A   1      50.380  27.238  24.307  1.00  0.00     0.006 A 
ATOM     26  C   UNL A   1      49.375  26.482  24.896  1.00  0.00     0.048 A 
ENDBRANCH  18  20
ENDBRANCH  15  18
ENDBRANCH  14  15
ENDBRANCH   9  14
ENDBRANCH   5   8
ENDBRANCH   3   4
ENDBRANCH   2   3
ENDBRANCH   1   2
BRANCH   1  27
ATOM     27  C   UNL A   1      42.625  20.394  27.617  1.00  0.00     0.002 C 
BRANCH  27  28
ATOM     28  C   UNL A   1      41.405  21.315  27.540  1.00  0.00     0.021 C 
BRANCH  28  29
ATOM     29  C   UNL A   1      41.293  22.075  26.224  1.00  0.00     0.116 C 
BRANCH  29  30
ATOM     30  N   UNL A   1      39.912  22.133  25.769  1.00  0.00    -0.352 N 
ATOM     31  C   UNL A   1      38.939  23.044  26.095  1.00  0.00     0.251 C 
ATOM     32  H   UNL A   1      39.640  21.424  25.143  1.00  0.00     0.163 HD
ATOM     33  O   UNL A   1      37.761  22.798  25.864  1.00  0.00    -0.269 OA
BRANCH  31  34
ATOM     34  C   UNL A   1      39.332  24.316  26.731  1.00  0.00     0.039 A 
ATOM     35  C   UNL A   1      38.984  24.548  28.063  1.00  0.00     0.014 A 
ATOM     36  C   UNL A   1      40.042  25.278  26.004  1.00  0.00     0.014 A 
ATOM     37  C   UNL A   1      39.395  25.729  28.683  1.00  0.00     0.010 A 
ATOM     38  C   UNL A   1      40.512  26.418  26.645  1.00  0.00     0.010 A 
ATOM     39  C   UNL A   1      40.188  26.658  27.988  1.00  0.00    -0.014 A 
BRANCH  39  40
ATOM     40  C   UNL A   1      40.695  27.886  28.650  1.00  0.00     0.031 A 
ATOM     41  C   UNL A   1      42.110  27.941  29.156  1.00  0.00     0.074 A 
ATOM     42  C   UNL A   1      39.858  28.923  28.851  1.00  0.00     0.049 A 
ATOM     43  N   UNL A   1      42.713  28.900  29.811  1.00  0.00    -0.248 NA
ATOM     44  C   UNL A   1      42.950  26.755  28.918  1.00  0.00     0.031 C 
ATOM     45  C   UNL A   1      38.453  28.970  28.440  1.00  0.00     0.029 A 
ATOM     46  N   UNL A   1      40.066  30.135  29.459  1.00  0.00    -0.354 N 
ATOM     47  C   UNL A   1      43.993  28.429  30.075  1.00  0.00     0.074 A 
ATOM     48  C   UNL A   1      44.066  27.082  29.555  1.00  0.00     0.031 C 
ATOM     49  C   UNL A   1      37.934  30.159  28.782  1.00  0.00     0.029 A 
ATOM     50  C   UNL A   1      38.952  30.940  29.478  1.00  0.00     0.049 A 
ATOM     51  H   UNL A   1      40.931  30.402  29.846  1.00  0.00     0.167 HD
ATOM     52  C   UNL A   1      45.024  29.070  30.679  1.00  0.00     0.031 A 
ATOM     53  C   UNL A   1      38.766  32.167  30.005  1.00  0.00     0.031 A 
ATOM     54  C   UNL A   1      44.945  30.413  31.190  1.00  0.00     0.049 A 
ATOM     55  C   UNL A   1      39.919  32.848  30.690  1.00  0.00     0.074 A 
ATOM     56  C   UNL A   1      45.947  31.171  31.772  1.00  0.00     0.029 A 
ATOM     57  N   UNL A   1      43.801  31.196  31.188  1.00  0.00    -0.354 N 
ATOM     58  N   UNL A   1      41.144  32.413  30.869  1.00  0.00    -0.248 NA
ATOM     59  C   UNL A   1      39.667  34.189  31.232  1.00  0.00     0.031 C 
ATOM     60  C   UNL A   1      45.393  32.390  32.174  1.00  0.00     0.029 A 
ATOM     61  C   UNL A   1      44.062  32.419  31.783  1.00  0.00     0.049 A 
ATOM     62  H   UNL A   1      42.930  30.923  30.817  1.00  0.00     0.167 HD
ATOM     63  C   UNL A   1      41.817  33.440  31.523  1.00  0.00     0.074 A 
ATOM     64  C   UNL A   1      40.867  34.521  31.690  1.00  0.00     0.031 C 
ATOM     65  C   UNL A   1      43.104  33.483  31.946  1.00  0.00     0.031 A 
BRANCH  52  66
ATOM     66  C   UNL A   1      46.322  28.319  30.829  1.00  0.00    -0.014 A 
ATOM     67  C   UNL A   1      47.379  28.503  29.918  1.00  0.00     0.010 A 
ATOM     68  C   UNL A   1      46.505  27.449  31.919  1.00  0.00     0.010 A 
ATOM     69  C   UNL A   1      48.577  27.800  30.072  1.00  0.00     0.020 A 
ATOM     70  C   UNL A   1      47.713  26.768  32.094  1.00  0.00     0.020 A 
ATOM     71  C   UNL A   1      48.736  26.936  31.158  1.00  0.00     0.054 A 
BRANCH  71  72
ATOM     72  S   UNL A   1      50.312  26.057  31.345  1.00  0.00     0.124 S 
ATOM     73  O   UNL A   1      50.343  25.799  32.782  1.00  0.00    -0.237 OA
ATOM     74  O   UNL A   1      50.125  24.881  30.500  1.00  0.00    -0.237 OA
ATOM     75  O   UNL A   1      51.304  27.016  30.864  1.00  0.00    -0.744 OA
ENDBRANCH  71  72
ENDBRANCH  52  66
BRANCH  53  76
ATOM     76  C   UNL A   1      37.437  32.827  29.896  1.00  0.00    -0.014 A 
ATOM     77  C   UNL A   1      36.467  32.652  30.900  1.00  0.00     0.010 A 
ATOM     78  C   UNL A   1      37.138  33.648  28.793  1.00  0.00     0.010 A 
ATOM     79  C   UNL A   1      35.218  33.271  30.793  1.00  0.00     0.020 A 
ATOM     80  C   UNL A   1      35.902  34.294  28.699  1.00  0.00     0.020 A 
ATOM     81  C   UNL A   1      34.945  34.091  29.695  1.00  0.00     0.054 A 
BRANCH  81  82
ATOM     82  S   UNL A   1      33.336  34.925  29.604  1.00  0.00     0.124 S 
ATOM     83  O   UNL A   1      32.575  34.024  28.745  1.00  0.00    -0.237 OA
ATOM     84  O   UNL A   1      32.924  34.964  31.005  1.00  0.00    -0.237 OA
ATOM     85  O   UNL A   1      33.658  36.226  29.021  1.00  0.00    -0.744 OA
ENDBRANCH  81  82
ENDBRANCH  53  76
BRANCH  65  86
ATOM     86  C   UNL A   1      43.574  34.754  32.604  1.00  0.00    -0.014 A 
ATOM     87  C   UNL A   1      43.554  34.904  34.002  1.00  0.00     0.010 A 
ATOM     88  C   UNL A   1      44.092  35.794  31.810  1.00  0.00     0.010 A 
ATOM     89  C   UNL A   1      44.013  36.086  34.591  1.00  0.00     0.020 A 
ATOM     90  C   UNL A   1      44.580  36.963  32.397  1.00  0.00     0.020 A 
ATOM     91  C   UNL A   1      44.525  37.108  33.785  1.00  0.00     0.054 A 
BRANCH  91  92
ATOM     92  S   UNL A   1      45.152  38.612  34.578  1.00  0.00     0.124 S 
ATOM     93  O   UNL A   1      46.474  38.189  35.030  1.00  0.00    -0.237 OA
ATOM     94  O   UNL A   1      45.141  39.580  33.484  1.00  0.00    -0.237 OA
ATOM     95  O   UNL A   1      44.184  38.873  35.642  1.00  0.00    -0.744 OA
ENDBRANCH  91  92
ENDBRANCH  65  86
ENDBRANCH  39  40
ENDBRANCH  31  34
ENDBRANCH  29  30
ENDBRANCH  28  29
ENDBRANCH  27  28
ENDBRANCH   1  27
TORSDOF 20
ENDMDL
