MODEL 1
REMARK VINA RESULT:     -11.0      0.000      0.000
REMARK SMILES CCOc1ccccc1N1CCN(c2ccc(NC(=O)C(C)(C)C)c(C(=O)NCCCCCCNC(=O)c3ccc(-c4c5nc(c(-c6ccc(S(=O)(=O)[O-])cc6)c6ccc([nH]6)c(-c6ccc(S(=O)(=O)[O-])cc6)c6nc(c(-c7ccc(S(=O)(=O)[O-])cc7)c7ccc4[nH]7)C=C6)C=C5)cc3)c2)CC1
REMARK SMILES IDX 31 1 30 2 29 3 28 4 26 5 27 6 25 8 14 9 15 10 98 11 16 12
REMARK SMILES IDX 17 13 13 14 10 15 11 16 100 17 12 18 99 19 9 20 4 21 5 22
REMARK SMILES IDX 6 23 8 24 7 25 3 26 2 27 1 28 18 29 19 30 20 32 21 33 22 34
REMARK SMILES IDX 23 35 24 36 32 37 33 38 34 39 35 40 36 41 37 43 38 44 39 45
REMARK SMILES IDX 97 46 40 47 96 48 41 49 42 50 43 51 90 52 44 53 95 54 89 55
REMARK SMILES IDX 91 56 45 57 94 58 88 59 87 60 46 62 76 63 57 64 75 65 58 66
REMARK SMILES IDX 61 67 74 68 92 69 59 70 60 71 73 73 93 74 62 75 47 76 48 77
REMARK SMILES IDX 56 78 49 79 55 80 50 81 51 82 52 83 53 84 54 85 77 86 78 87
REMARK SMILES IDX 86 88 79 89 85 90 80 91 81 92 82 93 83 94 84 95 63 96 64 97
REMARK SMILES IDX 72 98 65 99 71 100 66 101 67 102 68 103 69 104 70 105
REMARK H PARENT 28 7 18 31 35 42 91 61 61 72
REMARK Flexibility Score: inf
ROOT
ATOM      1  C   UNL A   1      39.309  23.987  26.349  1.00  0.00     0.002 C 
ENDROOT
BRANCH   1   2
ATOM      2  C   UNL A   1      37.849  24.193  26.732  1.00  0.00     0.021 C 
BRANCH   2   3
ATOM      3  C   UNL A   1      36.814  23.384  25.965  1.00  0.00     0.116 C 
BRANCH   3   4
ATOM      4  N   UNL A   1      37.066  23.146  24.544  1.00  0.00    -0.352 N 
ATOM      5  C   UNL A   1      36.180  22.885  23.499  1.00  0.00     0.253 C 
ATOM      6  O   UNL A   1      36.630  22.719  22.365  1.00  0.00    -0.269 OA
ATOM      7  H   UNL A   1      38.016  23.175  24.283  1.00  0.00     0.163 HD
BRANCH   5   8
ATOM      8  C   UNL A   1      34.707  22.705  23.732  1.00  0.00     0.065 A 
ATOM      9  C   UNL A   1      32.735  24.025  24.098  1.00  0.00     0.038 A 
ATOM     10  C   UNL A   1      32.193  22.964  24.807  1.00  0.00     0.028 A 
ATOM     11  C   UNL A   1      33.863  23.749  23.347  1.00  0.00     0.042 A 
ATOM     12  C   UNL A   1      32.874  21.756  24.922  1.00  0.00     0.029 A 
ATOM     13  C   UNL A   1      34.175  21.609  24.452  1.00  0.00     0.054 A 
BRANCH   9  14
ATOM     14  N   UNL A   1      32.315  25.330  24.298  1.00  0.00    -0.368 N 
ATOM     15  N   UNL A   1      31.737  28.044  24.829  1.00  0.00    -0.365 N 
ATOM     16  C   UNL A   1      32.572  27.772  23.674  1.00  0.00     0.138 C 
ATOM     17  C   UNL A   1      30.625  27.117  25.016  1.00  0.00     0.138 C 
ATOM     18  C   UNL A   1      33.230  26.400  23.846  1.00  0.00     0.138 C 
ATOM     19  C   UNL A   1      31.093  25.646  25.069  1.00  0.00     0.138 C 
BRANCH  15  20
ATOM     20  C   UNL A   1      31.670  29.307  25.381  1.00  0.00     0.079 A 
ATOM     21  C   UNL A   1      30.780  30.279  24.883  1.00  0.00     0.142 A 
ATOM     22  C   UNL A   1      30.691  31.546  25.465  1.00  0.00     0.048 A 
ATOM     23  C   UNL A   1      31.490  31.862  26.563  1.00  0.00     0.004 A 
ATOM     24  C   UNL A   1      32.468  29.656  26.480  1.00  0.00     0.030 A 
ATOM     25  C   UNL A   1      32.385  30.921  27.064  1.00  0.00     0.002 A 
BRANCH  21  26
ATOM     26  O   UNL A   1      30.033  30.012  23.759  1.00  0.00    -0.492 OA
BRANCH  26  27
ATOM     27  C   UNL A   1      29.022  30.998  23.523  1.00  0.00     0.226 C 
ATOM     28  C   UNL A   1      27.695  30.314  23.254  1.00  0.00     0.049 C 
ENDBRANCH  26  27
ENDBRANCH  21  26
ENDBRANCH  15  20
ENDBRANCH   9  14
BRANCH  13  29
ATOM     29  N   UNL A   1      34.959  20.446  24.666  1.00  0.00    -0.325 N 
ATOM     30  C   UNL A   1      34.778  19.089  24.612  1.00  0.00     0.229 C 
ATOM     31  H   UNL A   1      35.882  20.676  24.924  1.00  0.00     0.169 HD
ATOM     32  O   UNL A   1      35.763  18.399  24.911  1.00  0.00    -0.274 OA
BRANCH  30  33
ATOM     33  C   UNL A   1      33.460  18.380  24.215  1.00  0.00     0.041 C 
ATOM     34  C   UNL A   1      32.574  18.197  25.469  1.00  0.00     0.021 C 
ATOM     35  C   UNL A   1      32.784  19.102  23.027  1.00  0.00     0.021 C 
ATOM     36  C   UNL A   1      33.745  16.945  23.703  1.00  0.00     0.021 C 
ENDBRANCH  30  33
ENDBRANCH  13  29
ENDBRANCH   5   8
ENDBRANCH   3   4
ENDBRANCH   2   3
ENDBRANCH   1   2
BRANCH   1  37
ATOM     37  C   UNL A   1      40.057  22.860  27.067  1.00  0.00     0.002 C 
BRANCH  37  38
ATOM     38  C   UNL A   1      39.908  21.450  26.488  1.00  0.00     0.021 C 
BRANCH  38  39
ATOM     39  C   UNL A   1      40.723  20.353  27.168  1.00  0.00     0.116 C 
BRANCH  39  40
ATOM     40  N   UNL A   1      41.559  19.611  26.239  1.00  0.00    -0.352 N 
ATOM     41  C   UNL A   1      42.684  20.009  25.560  1.00  0.00     0.251 C 
ATOM     42  H   UNL A   1      41.277  18.683  26.072  1.00  0.00     0.163 HD
ATOM     43  O   UNL A   1      43.163  19.279  24.692  1.00  0.00    -0.269 OA
BRANCH  41  44
ATOM     44  C   UNL A   1      43.306  21.319  25.845  1.00  0.00     0.039 A 
ATOM     45  C   UNL A   1      43.312  22.297  24.847  1.00  0.00     0.014 A 
ATOM     46  C   UNL A   1      43.883  21.588  27.090  1.00  0.00     0.014 A 
ATOM     47  C   UNL A   1      43.826  23.567  25.122  1.00  0.00     0.010 A 
ATOM     48  C   UNL A   1      44.330  22.873  27.385  1.00  0.00     0.010 A 
ATOM     49  C   UNL A   1      44.300  23.879  26.407  1.00  0.00    -0.014 A 
BRANCH  49  50
ATOM     50  C   UNL A   1      44.741  25.257  26.752  1.00  0.00     0.031 A 
ATOM     51  C   UNL A   1      43.756  26.264  27.279  1.00  0.00     0.074 A 
ATOM     52  C   UNL A   1      46.020  25.620  26.525  1.00  0.00     0.049 A 
ATOM     53  N   UNL A   1      43.944  27.525  27.574  1.00  0.00    -0.248 NA
ATOM     54  C   UNL A   1      42.373  25.800  27.482  1.00  0.00     0.031 C 
ATOM     55  C   UNL A   1      47.065  24.747  25.985  1.00  0.00     0.029 A 
ATOM     56  N   UNL A   1      46.659  26.820  26.713  1.00  0.00    -0.354 N 
ATOM     57  C   UNL A   1      42.708  28.008  27.984  1.00  0.00     0.074 A 
ATOM     58  C   UNL A   1      41.765  26.918  27.854  1.00  0.00     0.031 C 
ATOM     59  C   UNL A   1      48.216  25.433  25.908  1.00  0.00     0.029 A 
ATOM     60  C   UNL A   1      47.985  26.804  26.346  1.00  0.00     0.049 A 
ATOM     61  H   UNL A   1      46.211  27.618  27.076  1.00  0.00     0.167 HD
ATOM     62  C   UNL A   1      42.387  29.242  28.443  1.00  0.00     0.031 A 
ATOM     63  C   UNL A   1      48.908  27.786  26.348  1.00  0.00     0.031 A 
ATOM     64  C   UNL A   1      43.329  30.325  28.569  1.00  0.00     0.049 A 
ATOM     65  C   UNL A   1      48.520  29.157  26.829  1.00  0.00     0.074 A 
ATOM     66  C   UNL A   1      43.113  31.597  29.072  1.00  0.00     0.029 A 
ATOM     67  N   UNL A   1      44.660  30.269  28.183  1.00  0.00    -0.354 N 
ATOM     68  N   UNL A   1      47.361  29.575  27.280  1.00  0.00    -0.248 NA
ATOM     69  C   UNL A   1      49.568  30.188  26.812  1.00  0.00     0.031 C 
ATOM     70  C   UNL A   1      44.295  32.329  28.930  1.00  0.00     0.029 A 
ATOM     71  C   UNL A   1      45.268  31.494  28.404  1.00  0.00     0.049 A 
ATOM     72  H   UNL A   1      45.106  29.477  27.808  1.00  0.00     0.167 HD
ATOM     73  C   UNL A   1      47.547  30.909  27.622  1.00  0.00     0.074 A 
ATOM     74  C   UNL A   1      48.934  31.223  27.346  1.00  0.00     0.031 C 
ATOM     75  C   UNL A   1      46.649  31.796  28.120  1.00  0.00     0.031 A 
BRANCH  62  76
ATOM     76  C   UNL A   1      40.953  29.494  28.831  1.00  0.00    -0.014 A 
ATOM     77  C   UNL A   1      39.908  29.342  27.901  1.00  0.00     0.010 A 
ATOM     78  C   UNL A   1      40.639  29.843  30.158  1.00  0.00     0.010 A 
ATOM     79  C   UNL A   1      38.583  29.576  28.278  1.00  0.00     0.020 A 
ATOM     80  C   UNL A   1      39.311  30.048  30.547  1.00  0.00     0.020 A 
ATOM     81  C   UNL A   1      38.294  29.930  29.599  1.00  0.00     0.054 A 
BRANCH  81  82
ATOM     82  S   UNL A   1      36.562  30.206  30.065  1.00  0.00     0.124 S 
ATOM     83  O   UNL A   1      35.863  29.879  28.824  1.00  0.00    -0.237 OA
ATOM     84  O   UNL A   1      36.371  29.259  31.160  1.00  0.00    -0.237 OA
ATOM     85  O   UNL A   1      36.524  31.615  30.447  1.00  0.00    -0.744 OA
ENDBRANCH  81  82
ENDBRANCH  62  76
BRANCH  63  86
ATOM     86  C   UNL A   1      50.294  27.505  25.876  1.00  0.00    -0.014 A 
ATOM     87  C   UNL A   1      51.271  27.031  26.770  1.00  0.00     0.010 A 
ATOM     88  C   UNL A   1      50.641  27.700  24.526  1.00  0.00     0.010 A 
ATOM     89  C   UNL A   1      52.573  26.778  26.327  1.00  0.00     0.020 A 
ATOM     90  C   UNL A   1      51.932  27.418  24.073  1.00  0.00     0.020 A 
ATOM     91  C   UNL A   1      52.894  26.969  24.980  1.00  0.00     0.054 A 
BRANCH  91  92
ATOM     92  S   UNL A   1      54.576  26.585  24.419  1.00  0.00     0.124 S 
ATOM     93  O   UNL A   1      55.361  27.624  25.079  1.00  0.00    -0.237 OA
ATOM     94  O   UNL A   1      54.773  25.228  24.922  1.00  0.00    -0.237 OA
ATOM     95  O   UNL A   1      54.486  26.696  22.965  1.00  0.00    -0.744 OA
ENDBRANCH  91  92
ENDBRANCH  63  86
BRANCH  75  96
ATOM     96  C   UNL A   1      47.142  33.186  28.426  1.00  0.00    -0.014 A 
ATOM     97  C   UNL A   1      46.948  34.245  27.521  1.00  0.00     0.010 A 
ATOM     98  C   UNL A   1      47.758  33.448  29.663  1.00  0.00     0.010 A 
ATOM     99  C   UNL A   1      47.389  35.534  27.836  1.00  0.00     0.020 A 
ATOM    100  C   UNL A   1      48.172  34.741  29.996  1.00  0.00     0.020 A 
ATOM    101  C   UNL A   1      47.996  35.774  29.074  1.00  0.00     0.054 A 
BRANCH 101 102
ATOM    102  S   UNL A   1      48.514  37.464  29.476  1.00  0.00     0.124 S 
ATOM    103  O   UNL A   1      49.782  37.238  30.165  1.00  0.00    -0.237 OA
ATOM    104  O   UNL A   1      48.617  38.088  28.159  1.00  0.00    -0.237 OA
ATOM    105  O   UNL A   1      47.430  37.969  30.315  1.00  0.00    -0.744 OA
ENDBRANCH 101 102
ENDBRANCH  75  96
ENDBRANCH  49  50
ENDBRANCH  41  44
ENDBRANCH  39  40
ENDBRANCH  38  39
ENDBRANCH  37  38
ENDBRANCH   1  37
TORSDOF 22
ENDMDL
MODEL 2
REMARK VINA RESULT:     -10.8      0.804      7.688
REMARK SMILES CCOc1ccccc1N1CCN(c2ccc(NC(=O)C(C)(C)C)c(C(=O)NCCCCCCNC(=O)c3ccc(-c4c5nc(c(-c6ccc(S(=O)(=O)[O-])cc6)c6ccc([nH]6)c(-c6ccc(S(=O)(=O)[O-])cc6)c6nc(c(-c7ccc(S(=O)(=O)[O-])cc7)c7ccc4[nH]7)C=C6)C=C5)cc3)c2)CC1
REMARK SMILES IDX 31 1 30 2 29 3 28 4 26 5 27 6 25 8 14 9 15 10 98 11 16 12
REMARK SMILES IDX 17 13 13 14 10 15 11 16 100 17 12 18 99 19 9 20 4 21 5 22
REMARK SMILES IDX 6 23 8 24 7 25 3 26 2 27 1 28 18 29 19 30 20 32 21 33 22 34
REMARK SMILES IDX 23 35 24 36 32 37 33 38 34 39 35 40 36 41 37 43 38 44 39 45
REMARK SMILES IDX 97 46 40 47 96 48 41 49 42 50 43 51 90 52 44 53 95 54 89 55
REMARK SMILES IDX 91 56 45 57 94 58 88 59 87 60 46 62 76 63 57 64 75 65 58 66
REMARK SMILES IDX 61 67 74 68 92 69 59 70 60 71 73 73 93 74 62 75 47 76 48 77
REMARK SMILES IDX 56 78 49 79 55 80 50 81 51 82 52 83 53 84 54 85 77 86 78 87
REMARK SMILES IDX 86 88 79 89 85 90 80 91 81 92 82 93 83 94 84 95 63 96 64 97
REMARK SMILES IDX 72 98 65 99 71 100 66 101 67 102 68 103 69 104 70 105
REMARK H PARENT 28 7 18 31 35 42 91 61 61 72
REMARK Flexibility Score: inf
ROOT
ATOM      1  C   UNL A   1      39.833  23.326  26.494  1.00  0.00     0.002 C 
ENDROOT
BRANCH   1   2
ATOM      2  C   UNL A   1      38.581  24.081  26.924  1.00  0.00     0.021 C 
BRANCH   2   3
ATOM      3  C   UNL A   1      37.345  23.921  26.049  1.00  0.00     0.116 C 
BRANCH   3   4
ATOM      4  N   UNL A   1      37.517  23.250  24.761  1.00  0.00    -0.352 N 
ATOM      5  C   UNL A   1      36.572  22.707  23.891  1.00  0.00     0.253 C 
ATOM      6  O   UNL A   1      36.957  22.187  22.844  1.00  0.00    -0.269 OA
ATOM      7  H   UNL A   1      38.452  23.169  24.459  1.00  0.00     0.163 HD
BRANCH   5   8
ATOM      8  C   UNL A   1      35.111  22.652  24.237  1.00  0.00     0.065 A 
ATOM      9  C   UNL A   1      33.327  24.119  24.895  1.00  0.00     0.038 A 
ATOM     10  C   UNL A   1      32.733  23.052  25.552  1.00  0.00     0.028 A 
ATOM     11  C   UNL A   1      34.356  23.808  24.024  1.00  0.00     0.042 A 
ATOM     12  C   UNL A   1      33.288  21.777  25.496  1.00  0.00     0.029 A 
ATOM     13  C   UNL A   1      34.524  21.549  24.901  1.00  0.00     0.054 A 
BRANCH   9  14
ATOM     14  N   UNL A   1      33.067  25.433  25.249  1.00  0.00    -0.368 N 
ATOM     15  N   UNL A   1      32.273  28.086  25.809  1.00  0.00    -0.365 N 
ATOM     16  C   UNL A   1      31.613  27.038  26.564  1.00  0.00     0.138 C 
ATOM     17  C   UNL A   1      33.705  27.888  25.605  1.00  0.00     0.138 C 
ATOM     18  C   UNL A   1      31.721  25.721  25.790  1.00  0.00     0.138 C 
ATOM     19  C   UNL A   1      34.020  26.524  24.953  1.00  0.00     0.138 C 
BRANCH  15  20
ATOM     20  C   UNL A   1      31.746  29.360  25.742  1.00  0.00     0.079 A 
ATOM     21  C   UNL A   1      30.948  29.768  24.656  1.00  0.00     0.142 A 
ATOM     22  C   UNL A   1      30.389  31.048  24.608  1.00  0.00     0.048 A 
ATOM     23  C   UNL A   1      30.617  31.943  25.652  1.00  0.00     0.004 A 
ATOM     24  C   UNL A   1      31.967  30.284  26.774  1.00  0.00     0.030 A 
ATOM     25  C   UNL A   1      31.414  31.565  26.730  1.00  0.00     0.002 A 
BRANCH  21  26
ATOM     26  O   UNL A   1      30.766  28.926  23.584  1.00  0.00    -0.492 OA
BRANCH  26  27
ATOM     27  C   UNL A   1      29.387  28.626  23.346  1.00  0.00     0.226 C 
ATOM     28  C   UNL A   1      29.148  27.139  23.533  1.00  0.00     0.049 C 
ENDBRANCH  26  27
ENDBRANCH  21  26
ENDBRANCH  15  20
ENDBRANCH   9  14
BRANCH  13  29
ATOM     29  N   UNL A   1      35.194  20.299  24.938  1.00  0.00    -0.325 N 
ATOM     30  C   UNL A   1      34.881  18.985  24.702  1.00  0.00     0.229 C 
ATOM     31  H   UNL A   1      36.135  20.402  25.207  1.00  0.00     0.169 HD
ATOM     32  O   UNL A   1      35.797  18.170  24.885  1.00  0.00    -0.274 OA
BRANCH  30  33
ATOM     33  C   UNL A   1      33.499  18.466  24.237  1.00  0.00     0.041 C 
ATOM     34  C   UNL A   1      33.688  17.217  23.345  1.00  0.00     0.021 C 
ATOM     35  C   UNL A   1      32.548  18.281  25.442  1.00  0.00     0.021 C 
ATOM     36  C   UNL A   1      32.800  19.513  23.331  1.00  0.00     0.021 C 
ENDBRANCH  30  33
ENDBRANCH  13  29
ENDBRANCH   5   8
ENDBRANCH   3   4
ENDBRANCH   2   3
ENDBRANCH   1   2
BRANCH   1  37
ATOM     37  C   UNL A   1      40.158  22.040  27.259  1.00  0.00     0.002 C 
BRANCH  37  38
ATOM     38  C   UNL A   1      40.200  20.742  26.448  1.00  0.00     0.021 C 
BRANCH  38  39
ATOM     39  C   UNL A   1      41.111  19.641  26.985  1.00  0.00     0.116 C 
BRANCH  39  40
ATOM     40  N   UNL A   1      42.125  19.230  26.029  1.00  0.00    -0.352 N 
ATOM     41  C   UNL A   1      43.098  19.973  25.406  1.00  0.00     0.251 C 
ATOM     42  H   UNL A   1      42.114  18.276  25.791  1.00  0.00     0.163 HD
ATOM     43  O   UNL A   1      43.766  19.469  24.503  1.00  0.00    -0.269 OA
BRANCH  41  44
ATOM     44  C   UNL A   1      43.329  21.380  25.796  1.00  0.00     0.039 A 
ATOM     45  C   UNL A   1      43.799  21.658  27.082  1.00  0.00     0.014 A 
ATOM     46  C   UNL A   1      43.084  22.425  24.900  1.00  0.00     0.014 A 
ATOM     47  C   UNL A   1      44.096  22.975  27.443  1.00  0.00     0.010 A 
ATOM     48  C   UNL A   1      43.446  23.728  25.237  1.00  0.00     0.010 A 
ATOM     49  C   UNL A   1      43.963  24.016  26.510  1.00  0.00    -0.014 A 
BRANCH  49  50
ATOM     50  C   UNL A   1      44.385  25.403  26.837  1.00  0.00     0.031 A 
ATOM     51  C   UNL A   1      45.791  25.860  26.558  1.00  0.00     0.074 A 
ATOM     52  C   UNL A   1      43.517  26.233  27.450  1.00  0.00     0.049 A 
ATOM     53  N   UNL A   1      46.355  27.008  26.832  1.00  0.00    -0.248 NA
ATOM     54  C   UNL A   1      46.688  24.892  25.905  1.00  0.00     0.031 C 
ATOM     55  C   UNL A   1      42.135  25.901  27.807  1.00  0.00     0.029 A 
ATOM     56  N   UNL A   1      43.667  27.525  27.890  1.00  0.00    -0.354 N 
ATOM     57  C   UNL A   1      47.670  26.899  26.398  1.00  0.00     0.074 A 
ATOM     58  C   UNL A   1      47.836  25.555  25.887  1.00  0.00     0.031 C 
ATOM     59  C   UNL A   1      41.561  26.966  28.387  1.00  0.00     0.029 A 
ATOM     60  C   UNL A   1      42.542  28.040  28.489  1.00  0.00     0.049 A 
ATOM     61  H   UNL A   1      44.504  28.035  27.787  1.00  0.00     0.167 HD
ATOM     62  C   UNL A   1      48.649  27.837  26.408  1.00  0.00     0.031 A 
ATOM     63  C   UNL A   1      42.325  29.238  29.068  1.00  0.00     0.031 A 
ATOM     64  C   UNL A   1      48.480  29.173  26.919  1.00  0.00     0.049 A 
ATOM     65  C   UNL A   1      43.437  30.250  29.098  1.00  0.00     0.074 A 
ATOM     66  C   UNL A   1      49.396  30.211  26.927  1.00  0.00     0.029 A 
ATOM     67  N   UNL A   1      47.326  29.653  27.521  1.00  0.00    -0.354 N 
ATOM     68  N   UNL A   1      44.654  30.151  28.618  1.00  0.00    -0.248 NA
ATOM     69  C   UNL A   1      43.143  31.540  29.740  1.00  0.00     0.031 C 
ATOM     70  C   UNL A   1      48.818  31.298  27.590  1.00  0.00     0.029 A 
ATOM     71  C   UNL A   1      47.518  30.962  27.934  1.00  0.00     0.049 A 
ATOM     72  H   UNL A   1      46.494  29.141  27.637  1.00  0.00     0.167 HD
ATOM     73  C   UNL A   1      45.263  31.374  28.878  1.00  0.00     0.074 A 
ATOM     74  C   UNL A   1      44.275  32.202  29.539  1.00  0.00     0.031 C 
ATOM     75  C   UNL A   1      46.528  31.774  28.596  1.00  0.00     0.031 A 
BRANCH  62  76
ATOM     76  C   UNL A   1      49.998  27.446  25.861  1.00  0.00    -0.014 A 
ATOM     77  C   UNL A   1      50.909  26.698  26.631  1.00  0.00     0.010 A 
ATOM     78  C   UNL A   1      50.344  27.792  24.542  1.00  0.00     0.010 A 
ATOM     79  C   UNL A   1      52.154  26.342  26.107  1.00  0.00     0.020 A 
ATOM     80  C   UNL A   1      51.577  27.410  24.003  1.00  0.00     0.020 A 
ATOM     81  C   UNL A   1      52.480  26.702  24.796  1.00  0.00     0.054 A 
BRANCH  81  82
ATOM     82  S   UNL A   1      54.096  26.205  24.137  1.00  0.00     0.124 S 
ATOM     83  O   UNL A   1      53.846  26.211  22.697  1.00  0.00    -0.237 OA
ATOM     84  O   UNL A   1      54.979  27.261  24.625  1.00  0.00    -0.237 OA
ATOM     85  O   UNL A   1      54.320  24.886  24.723  1.00  0.00    -0.744 OA
ENDBRANCH  81  82
ENDBRANCH  62  76
BRANCH  63  86
ATOM     86  C   UNL A   1      40.995  29.545  29.668  1.00  0.00    -0.014 A 
ATOM     87  C   UNL A   1      39.943  30.025  28.868  1.00  0.00     0.010 A 
ATOM     88  C   UNL A   1      40.772  29.348  31.044  1.00  0.00     0.010 A 
ATOM     89  C   UNL A   1      38.700  30.321  29.435  1.00  0.00     0.020 A 
ATOM     90  C   UNL A   1      39.521  29.613  31.608  1.00  0.00     0.020 A 
ATOM     91  C   UNL A   1      38.496  30.109  30.801  1.00  0.00     0.054 A 
BRANCH  91  92
ATOM     92  S   UNL A   1      36.859  30.453  31.504  1.00  0.00     0.124 S 
ATOM     93  O   UNL A   1      36.761  29.443  32.553  1.00  0.00    -0.237 OA
ATOM     94  O   UNL A   1      36.998  31.832  31.964  1.00  0.00    -0.237 OA
ATOM     95  O   UNL A   1      35.954  30.270  30.371  1.00  0.00    -0.744 OA
ENDBRANCH  91  92
ENDBRANCH  63  86
BRANCH  75  96
ATOM     96  C   UNL A   1      46.912  33.181  28.974  1.00  0.00    -0.014 A 
ATOM     97  C   UNL A   1      47.420  33.481  30.251  1.00  0.00     0.010 A 
ATOM     98  C   UNL A   1      46.816  34.208  28.018  1.00  0.00     0.010 A 
ATOM     99  C   UNL A   1      47.796  34.788  30.573  1.00  0.00     0.020 A 
ATOM    100  C   UNL A   1      47.221  35.510  28.325  1.00  0.00     0.020 A 
ATOM    101  C   UNL A   1      47.697  35.794  29.606  1.00  0.00     0.054 A 
BRANCH 101 102
ATOM    102  S   UNL A   1      48.237  37.470  30.036  1.00  0.00     0.124 S 
ATOM    103  O   UNL A   1      49.473  37.213  30.770  1.00  0.00    -0.237 OA
ATOM    104  O   UNL A   1      48.402  38.098  28.727  1.00  0.00    -0.237 OA
ATOM    105  O   UNL A   1      47.134  37.996  30.838  1.00  0.00    -0.744 OA
ENDBRANCH 101 102
ENDBRANCH  75  96
ENDBRANCH  49  50
ENDBRANCH  41  44
ENDBRANCH  39  40
ENDBRANCH  38  39
ENDBRANCH  37  38
ENDBRANCH   1  37
TORSDOF 22
ENDMDL
MODEL 3
REMARK VINA RESULT:     -10.7      5.648     10.733
REMARK SMILES CCOc1ccccc1N1CCN(c2ccc(NC(=O)C(C)(C)C)c(C(=O)NCCCCCCNC(=O)c3ccc(-c4c5nc(c(-c6ccc(S(=O)(=O)[O-])cc6)c6ccc([nH]6)c(-c6ccc(S(=O)(=O)[O-])cc6)c6nc(c(-c7ccc(S(=O)(=O)[O-])cc7)c7ccc4[nH]7)C=C6)C=C5)cc3)c2)CC1
REMARK SMILES IDX 31 1 30 2 29 3 28 4 26 5 27 6 25 8 14 9 15 10 98 11 16 12
REMARK SMILES IDX 17 13 13 14 10 15 11 16 100 17 12 18 99 19 9 20 4 21 5 22
REMARK SMILES IDX 6 23 8 24 7 25 3 26 2 27 1 28 18 29 19 30 20 32 21 33 22 34
REMARK SMILES IDX 23 35 24 36 32 37 33 38 34 39 35 40 36 41 37 43 38 44 39 45
REMARK SMILES IDX 97 46 40 47 96 48 41 49 42 50 43 51 90 52 44 53 95 54 89 55
REMARK SMILES IDX 91 56 45 57 94 58 88 59 87 60 46 62 76 63 57 64 75 65 58 66
REMARK SMILES IDX 61 67 74 68 92 69 59 70 60 71 73 73 93 74 62 75 47 76 48 77
REMARK SMILES IDX 56 78 49 79 55 80 50 81 51 82 52 83 53 84 54 85 77 86 78 87
REMARK SMILES IDX 86 88 79 89 85 90 80 91 81 92 82 93 83 94 84 95 63 96 64 97
REMARK SMILES IDX 72 98 65 99 71 100 66 101 67 102 68 103 69 104 70 105
REMARK H PARENT 28 7 18 31 35 42 91 61 61 72
REMARK Flexibility Score: inf
ROOT
ATOM      1  C   UNL A   1      44.408  23.878  32.473  1.00  0.00     0.002 C 
ENDROOT
BRANCH   1   2
ATOM      2  C   UNL A   1      44.071  23.524  31.030  1.00  0.00     0.021 C 
BRANCH   2   3
ATOM      3  C   UNL A   1      43.763  24.681  30.090  1.00  0.00     0.116 C 
BRANCH   3   4
ATOM      4  N   UNL A   1      44.538  24.766  28.853  1.00  0.00    -0.352 N 
ATOM      5  C   UNL A   1      44.180  25.246  27.594  1.00  0.00     0.253 C 
ATOM      6  O   UNL A   1      45.015  25.220  26.689  1.00  0.00    -0.269 OA
ATOM      7  H   UNL A   1      45.462  24.430  28.921  1.00  0.00     0.163 HD
BRANCH   5   8
ATOM      8  C   UNL A   1      42.783  25.702  27.283  1.00  0.00     0.065 A 
ATOM      9  C   UNL A   1      41.010  26.981  28.276  1.00  0.00     0.038 A 
ATOM     10  C   UNL A   1      40.101  26.230  27.546  1.00  0.00     0.028 A 
ATOM     11  C   UNL A   1      42.337  26.872  27.900  1.00  0.00     0.042 A 
ATOM     12  C   UNL A   1      40.531  25.265  26.640  1.00  0.00     0.029 A 
ATOM     13  C   UNL A   1      41.875  24.922  26.529  1.00  0.00     0.054 A 
BRANCH   9  14
ATOM     14  N   UNL A   1      40.652  27.627  29.447  1.00  0.00    -0.368 N 
ATOM     15  N   UNL A   1      39.742  29.126  31.663  1.00  0.00    -0.365 N 
ATOM     16  C   UNL A   1      38.827  28.133  31.130  1.00  0.00     0.138 C 
ATOM     17  C   UNL A   1      41.139  28.707  31.719  1.00  0.00     0.138 C 
ATOM     18  C   UNL A   1      39.206  27.833  29.678  1.00  0.00     0.138 C 
ATOM     19  C   UNL A   1      41.661  28.226  30.347  1.00  0.00     0.138 C 
BRANCH  15  20
ATOM     20  C   UNL A   1      39.299  30.131  32.498  1.00  0.00     0.079 A 
ATOM     21  C   UNL A   1      38.769  31.331  31.986  1.00  0.00     0.142 A 
ATOM     22  C   UNL A   1      38.292  32.333  32.835  1.00  0.00     0.048 A 
ATOM     23  C   UNL A   1      38.332  32.148  34.216  1.00  0.00     0.004 A 
ATOM     24  C   UNL A   1      39.336  29.976  33.892  1.00  0.00     0.030 A 
ATOM     25  C   UNL A   1      38.863  30.974  34.745  1.00  0.00     0.002 A 
BRANCH  21  26
ATOM     26  O   UNL A   1      38.783  31.563  30.630  1.00  0.00    -0.492 OA
BRANCH  26  27
ATOM     27  C   UNL A   1      39.502  32.750  30.281  1.00  0.00     0.226 C 
ATOM     28  C   UNL A   1      40.987  32.447  30.219  1.00  0.00     0.049 C 
ENDBRANCH  26  27
ENDBRANCH  21  26
ENDBRANCH  15  20
ENDBRANCH   9  14
BRANCH  13  29
ATOM     29  N   UNL A   1      42.347  23.854  25.723  1.00  0.00    -0.325 N 
ATOM     30  C   UNL A   1      42.294  22.484  25.739  1.00  0.00     0.229 C 
ATOM     31  H   UNL A   1      42.848  24.186  24.943  1.00  0.00     0.169 HD
ATOM     32  O   UNL A   1      42.888  21.909  24.815  1.00  0.00    -0.274 OA
BRANCH  30  33
ATOM     33  C   UNL A   1      41.565  21.632  26.806  1.00  0.00     0.041 C 
ATOM     34  C   UNL A   1      40.037  21.726  26.587  1.00  0.00     0.021 C 
ATOM     35  C   UNL A   1      42.140  20.197  26.850  1.00  0.00     0.021 C 
ATOM     36  C   UNL A   1      41.810  22.207  28.225  1.00  0.00     0.021 C 
ENDBRANCH  30  33
ENDBRANCH  13  29
ENDBRANCH   5   8
ENDBRANCH   3   4
ENDBRANCH   2   3
ENDBRANCH   1   2
BRANCH   1  37
ATOM     37  C   UNL A   1      43.775  23.005  33.562  1.00  0.00     0.002 C 
BRANCH  37  38
ATOM     38  C   UNL A   1      44.728  22.177  34.428  1.00  0.00     0.021 C 
BRANCH  38  39
ATOM     39  C   UNL A   1      45.671  22.964  35.335  1.00  0.00     0.116 C 
BRANCH  39  40
ATOM     40  N   UNL A   1      45.052  23.354  36.591  1.00  0.00    -0.352 N 
ATOM     41  C   UNL A   1      44.581  24.578  36.996  1.00  0.00     0.251 C 
ATOM     42  H   UNL A   1      44.955  22.630  37.251  1.00  0.00     0.163 HD
ATOM     43  O   UNL A   1      44.232  24.741  38.165  1.00  0.00    -0.269 OA
BRANCH  41  44
ATOM     44  C   UNL A   1      44.518  25.707  36.044  1.00  0.00     0.039 A 
ATOM     45  C   UNL A   1      43.309  25.981  35.398  1.00  0.00     0.014 A 
ATOM     46  C   UNL A   1      45.642  26.496  35.785  1.00  0.00     0.014 A 
ATOM     47  C   UNL A   1      43.209  27.089  34.554  1.00  0.00     0.010 A 
ATOM     48  C   UNL A   1      45.522  27.640  34.999  1.00  0.00     0.010 A 
ATOM     49  C   UNL A   1      44.302  27.954  34.381  1.00  0.00    -0.014 A 
BRANCH  49  50
ATOM     50  C   UNL A   1      44.180  29.201  33.582  1.00  0.00     0.031 A 
ATOM     51  C   UNL A   1      44.648  29.242  32.153  1.00  0.00     0.074 A 
ATOM     52  C   UNL A   1      43.706  30.321  34.168  1.00  0.00     0.049 A 
ATOM     53  N   UNL A   1      44.679  30.253  31.323  1.00  0.00    -0.248 NA
ATOM     54  C   UNL A   1      45.171  27.987  31.588  1.00  0.00     0.031 C 
ATOM     55  C   UNL A   1      43.251  30.422  35.556  1.00  0.00     0.029 A 
ATOM     56  N   UNL A   1      43.536  31.589  33.672  1.00  0.00    -0.354 N 
ATOM     57  C   UNL A   1      45.232  29.763  30.147  1.00  0.00     0.074 A 
ATOM     58  C   UNL A   1      45.569  28.376  30.385  1.00  0.00     0.031 C 
ATOM     59  C   UNL A   1      42.833  31.675  35.793  1.00  0.00     0.029 A 
ATOM     60  C   UNL A   1      43.032  32.479  34.592  1.00  0.00     0.049 A 
ATOM     61  H   UNL A   1      43.754  31.839  32.745  1.00  0.00     0.167 HD
ATOM     62  C   UNL A   1      45.428  30.404  28.969  1.00  0.00     0.031 A 
ATOM     63  C   UNL A   1      42.773  33.798  34.488  1.00  0.00     0.031 A 
ATOM     64  C   UNL A   1      45.093  31.786  28.737  1.00  0.00     0.049 A 
ATOM     65  C   UNL A   1      43.031  34.495  33.181  1.00  0.00     0.074 A 
ATOM     66  C   UNL A   1      45.206  32.512  27.564  1.00  0.00     0.029 A 
ATOM     67  N   UNL A   1      44.589  32.652  29.696  1.00  0.00    -0.354 N 
ATOM     68  N   UNL A   1      43.490  33.996  32.058  1.00  0.00    -0.248 NA
ATOM     69  C   UNL A   1      42.727  35.932  33.124  1.00  0.00     0.031 C 
ATOM     70  C   UNL A   1      44.832  33.832  27.829  1.00  0.00     0.029 A 
ATOM     71  C   UNL A   1      44.419  33.914  29.149  1.00  0.00     0.049 A 
ATOM     72  H   UNL A   1      44.383  32.408  30.626  1.00  0.00     0.167 HD
ATOM     73  C   UNL A   1      43.507  35.052  31.154  1.00  0.00     0.074 A 
ATOM     74  C   UNL A   1      42.993  36.212  31.855  1.00  0.00     0.031 C 
ATOM     75  C   UNL A   1      43.912  35.062  29.860  1.00  0.00     0.031 A 
BRANCH  62  76
ATOM     76  C   UNL A   1      46.048  29.620  27.840  1.00  0.00    -0.014 A 
ATOM     77  C   UNL A   1      45.251  28.970  26.880  1.00  0.00     0.010 A 
ATOM     78  C   UNL A   1      47.448  29.571  27.710  1.00  0.00     0.010 A 
ATOM     79  C   UNL A   1      45.841  28.251  25.838  1.00  0.00     0.020 A 
ATOM     80  C   UNL A   1      48.043  28.878  26.651  1.00  0.00     0.020 A 
ATOM     81  C   UNL A   1      47.235  28.208  25.732  1.00  0.00     0.054 A 
BRANCH  81  82
ATOM     82  S   UNL A   1      47.972  27.284  24.355  1.00  0.00     0.124 S 
ATOM     83  O   UNL A   1      49.340  27.796  24.350  1.00  0.00    -0.237 OA
ATOM     84  O   UNL A   1      47.823  25.896  24.785  1.00  0.00    -0.237 OA
ATOM     85  O   UNL A   1      47.160  27.669  23.204  1.00  0.00    -0.744 OA
ENDBRANCH  81  82
ENDBRANCH  62  76
BRANCH  63  86
ATOM     86  C   UNL A   1      42.237  34.545  35.661  1.00  0.00    -0.014 A 
ATOM     87  C   UNL A   1      43.106  35.201  36.550  1.00  0.00     0.010 A 
ATOM     88  C   UNL A   1      40.849  34.613  35.889  1.00  0.00     0.010 A 
ATOM     89  C   UNL A   1      42.601  35.892  37.655  1.00  0.00     0.020 A 
ATOM     90  C   UNL A   1      40.338  35.330  36.974  1.00  0.00     0.020 A 
ATOM     91  C   UNL A   1      41.220  35.956  37.858  1.00  0.00     0.054 A 
BRANCH  91  92
ATOM     92  S   UNL A   1      40.585  36.902  39.270  1.00  0.00     0.124 S 
ATOM     93  O   UNL A   1      39.296  37.368  38.768  1.00  0.00    -0.237 OA
ATOM     94  O   UNL A   1      40.528  35.893  40.324  1.00  0.00    -0.237 OA
ATOM     95  O   UNL A   1      41.594  37.941  39.467  1.00  0.00    -0.744 OA
ENDBRANCH  91  92
ENDBRANCH  63  86
BRANCH  75  96
ATOM     96  C   UNL A   1      43.792  36.360  29.103  1.00  0.00    -0.014 A 
ATOM     97  C   UNL A   1      44.874  37.254  29.012  1.00  0.00     0.010 A 
ATOM     98  C   UNL A   1      42.596  36.662  28.427  1.00  0.00     0.010 A 
ATOM     99  C   UNL A   1      44.751  38.440  28.283  1.00  0.00     0.020 A 
ATOM    100  C   UNL A   1      42.479  37.831  27.671  1.00  0.00     0.020 A 
ATOM    101  C   UNL A   1      43.554  38.720  27.614  1.00  0.00     0.054 A 
BRANCH 101 102
ATOM    102  S   UNL A   1      43.439  40.242  26.636  1.00  0.00     0.124 S 
ATOM    103  O   UNL A   1      43.587  41.273  27.659  1.00  0.00    -0.237 OA
ATOM    104  O   UNL A   1      44.559  40.111  25.708  1.00  0.00    -0.237 OA
ATOM    105  O   UNL A   1      42.116  40.160  26.021  1.00  0.00    -0.744 OA
ENDBRANCH 101 102
ENDBRANCH  75  96
ENDBRANCH  49  50
ENDBRANCH  41  44
ENDBRANCH  39  40
ENDBRANCH  38  39
ENDBRANCH  37  38
ENDBRANCH   1  37
TORSDOF 22
ENDMDL
