MODEL 1
REMARK VINA RESULT:      -9.7      0.000      0.000
REMARK SMILES CC(C)[C@@H](C[NH+](C)C)NC(=O)N[C@@](C)(C(=O)NCCCCCCNC(=O)c1ccc(-c2c3nc(c(-c4ccc(S(=O)(=O)[O-])cc4)c4ccc([nH]4)c(-c4ccc(S(=O)(=O)[O-])cc4)c4nc(c(-c5ccc(S(=O)(=O)[O-])cc5)c5ccc2[nH]5)C=C4)C=C3)cc1)C(F)(F)F
REMARK SMILES IDX 20 1 19 2 18 3 17 4 15 5 16 6 13 8 14 9 12 10 9 11 10 12
REMARK SMILES IDX 11 14 4 16 2 17 1 18 3 19 5 20 6 21 7 22 8 23 87 25 88 26
REMARK SMILES IDX 89 27 90 28 21 29 22 30 23 31 24 32 25 33 26 35 27 36 28 37
REMARK SMILES IDX 86 38 29 39 85 40 30 41 31 42 32 43 79 44 33 45 84 46 78 47
REMARK SMILES IDX 80 48 34 49 83 50 77 51 76 52 35 54 65 55 46 56 64 57 47 58
REMARK SMILES IDX 50 59 63 60 81 61 48 62 49 63 62 65 82 66 51 67 36 68 37 69
REMARK SMILES IDX 45 70 38 71 44 72 39 73 40 74 41 75 42 76 43 77 66 78 67 79
REMARK SMILES IDX 75 80 68 81 74 82 69 83 70 84 71 85 72 86 73 87 52 88 53 89
REMARK SMILES IDX 61 90 54 91 60 92 55 93 56 94 57 95 58 96 59 97
REMARK H PARENT 17 7 9 13 12 15 6 24 24 34 80 53 50 64
REMARK Flexibility Score: inf
ROOT
ATOM      1  C   UNL A   1      34.027  24.797  23.957  1.00  0.00     0.002 C 
ENDROOT
BRANCH   1   2
ATOM      2  C   UNL A   1      33.808  25.161  25.429  1.00  0.00     0.021 C 
BRANCH   2   3
ATOM      3  C   UNL A   1      33.995  26.636  25.760  1.00  0.00     0.116 C 
BRANCH   3   4
ATOM      4  N   UNL A   1      32.907  27.134  26.573  1.00  0.00    -0.354 N 
ATOM      5  C   UNL A   1      32.412  28.372  26.820  1.00  0.00     0.255 C 
ATOM      6  O   UNL A   1      31.453  28.382  27.599  1.00  0.00    -0.272 OA
ATOM      7  H   UNL A   1      32.423  26.421  27.050  1.00  0.00     0.163 HD
BRANCH   5   8
ATOM      8  C   UNL A   1      33.014  29.661  26.225  1.00  0.00     0.213 C 
ATOM      9  C   UNL A   1      31.983  30.813  26.105  1.00  0.00     0.056 C 
BRANCH   8  10
ATOM     10  N   UNL A   1      33.420  29.353  24.786  1.00  0.00    -0.316 N 
ATOM     11  N   UNL A   1      31.830  29.059  23.041  1.00  0.00    -0.329 N 
ATOM     12  C   UNL A   1      33.062  29.179  23.520  1.00  0.00     0.316 C 
ATOM     13  H   UNL A   1      31.784  28.872  22.075  1.00  0.00     0.165 HD
ATOM     14  O   UNL A   1      33.996  29.093  22.716  1.00  0.00    -0.249 OA
ATOM     15  H   UNL A   1      34.396  29.224  24.807  1.00  0.00     0.166 HD
BRANCH  11  16
ATOM     16  C   UNL A   1      30.549  29.154  23.691  1.00  0.00     0.141 C 
BRANCH  16  17
ATOM     17  C   UNL A   1      29.567  30.095  22.961  1.00  0.00     0.011 C 
ATOM     18  C   UNL A   1      28.288  29.352  22.553  1.00  0.00     0.010 C 
ATOM     19  C   UNL A   1      29.161  31.292  23.842  1.00  0.00     0.010 C 
ENDBRANCH  16  17
BRANCH  16  20
ATOM     20  C   UNL A   1      30.062  27.777  24.235  1.00  0.00     0.287 C 
BRANCH  20  21
ATOM     21  N   UNL A   1      30.810  26.523  23.985  1.00  0.00    -0.338 N 
ATOM     22  C   UNL A   1      30.215  25.471  24.832  1.00  0.00     0.332 C 
ATOM     23  C   UNL A   1      30.739  26.082  22.594  1.00  0.00     0.332 C 
ATOM     24  H   UNL A   1      31.792  26.695  24.201  1.00  0.00     0.347 HD
ENDBRANCH  20  21
ENDBRANCH  16  20
ENDBRANCH  11  16
ENDBRANCH   8  10
BRANCH   8  25
ATOM     25  C   UNL A   1      33.986  30.175  27.328  1.00  0.00     0.420 C 
ATOM     26  F   UNL A   1      34.971  31.002  26.920  1.00  0.00    -0.168 F 
ATOM     27  F   UNL A   1      33.304  30.821  28.311  1.00  0.00    -0.168 F 
ATOM     28  F   UNL A   1      34.619  29.139  27.944  1.00  0.00    -0.168 F 
ENDBRANCH   8  25
ENDBRANCH   5   8
ENDBRANCH   3   4
ENDBRANCH   2   3
ENDBRANCH   1   2
BRANCH   1  29
ATOM     29  C   UNL A   1      34.981  23.624  23.707  1.00  0.00     0.002 C 
BRANCH  29  30
ATOM     30  C   UNL A   1      35.655  23.062  24.959  1.00  0.00     0.021 C 
BRANCH  30  31
ATOM     31  C   UNL A   1      36.982  23.718  25.310  1.00  0.00     0.116 C 
BRANCH  31  32
ATOM     32  N   UNL A   1      38.012  22.740  25.612  1.00  0.00    -0.352 N 
ATOM     33  C   UNL A   1      39.232  22.939  26.210  1.00  0.00     0.251 C 
ATOM     34  H   UNL A   1      37.809  21.813  25.354  1.00  0.00     0.163 HD
ATOM     35  O   UNL A   1      40.069  22.047  26.219  1.00  0.00    -0.269 OA
BRANCH  33  36
ATOM     36  C   UNL A   1      39.526  24.253  26.819  1.00  0.00     0.039 A 
ATOM     37  C   UNL A   1      39.120  24.496  28.132  1.00  0.00     0.014 A 
ATOM     38  C   UNL A   1      40.225  25.230  26.102  1.00  0.00     0.014 A 
ATOM     39  C   UNL A   1      39.460  25.703  28.745  1.00  0.00     0.010 A 
ATOM     40  C   UNL A   1      40.633  26.397  26.741  1.00  0.00     0.010 A 
ATOM     41  C   UNL A   1      40.247  26.649  28.066  1.00  0.00    -0.014 A 
BRANCH  41  42
ATOM     42  C   UNL A   1      40.669  27.910  28.725  1.00  0.00     0.031 A 
ATOM     43  C   UNL A   1      42.046  28.026  29.321  1.00  0.00     0.074 A 
ATOM     44  C   UNL A   1      39.796  28.932  28.830  1.00  0.00     0.049 A 
ATOM     45  N   UNL A   1      42.580  29.027  29.972  1.00  0.00    -0.248 NA
ATOM     46  C   UNL A   1      42.932  26.857  29.189  1.00  0.00     0.031 C 
ATOM     47  C   UNL A   1      38.420  28.928  28.326  1.00  0.00     0.029 A 
ATOM     48  N   UNL A   1      39.935  30.173  29.399  1.00  0.00    -0.354 N 
ATOM     49  C   UNL A   1      43.854  28.606  30.336  1.00  0.00     0.074 A 
ATOM     50  C   UNL A   1      43.993  27.240  29.883  1.00  0.00     0.031 C 
ATOM     51  C   UNL A   1      37.854  30.118  28.580  1.00  0.00     0.029 A 
ATOM     52  C   UNL A   1      38.805  30.954  29.304  1.00  0.00     0.049 A 
ATOM     53  H   UNL A   1      40.764  30.477  29.833  1.00  0.00     0.167 HD
ATOM     54  C   UNL A   1      44.827  29.300  30.971  1.00  0.00     0.031 A 
ATOM     55  C   UNL A   1      38.561  32.198  29.757  1.00  0.00     0.031 A 
ATOM     56  C   UNL A   1      44.686  30.662  31.413  1.00  0.00     0.049 A 
ATOM     57  C   UNL A   1      39.651  32.941  30.482  1.00  0.00     0.074 A 
ATOM     58  C   UNL A   1      45.630  31.471  32.020  1.00  0.00     0.029 A 
ATOM     59  N   UNL A   1      43.528  31.417  31.299  1.00  0.00    -0.354 N 
ATOM     60  N   UNL A   1      40.872  32.548  30.757  1.00  0.00    -0.248 NA
ATOM     61  C   UNL A   1      39.336  34.299  30.945  1.00  0.00     0.031 C 
ATOM     62  C   UNL A   1      45.025  32.692  32.329  1.00  0.00     0.029 A 
ATOM     63  C   UNL A   1      43.726  32.671  31.850  1.00  0.00     0.049 A 
ATOM     64  H   UNL A   1      42.689  31.105  30.887  1.00  0.00     0.167 HD
ATOM     65  C   UNL A   1      41.479  33.622  31.399  1.00  0.00     0.074 A 
ATOM     66  C   UNL A   1      40.497  34.685  31.454  1.00  0.00     0.031 C 
ATOM     67  C   UNL A   1      42.737  33.721  31.895  1.00  0.00     0.031 A 
BRANCH  54  68
ATOM     68  C   UNL A   1      46.135  28.597  31.229  1.00  0.00    -0.014 A 
ATOM     69  C   UNL A   1      47.196  28.672  30.307  1.00  0.00     0.010 A 
ATOM     70  C   UNL A   1      46.326  27.896  32.433  1.00  0.00     0.010 A 
ATOM     71  C   UNL A   1      48.409  28.031  30.570  1.00  0.00     0.020 A 
ATOM     72  C   UNL A   1      47.549  27.279  32.714  1.00  0.00     0.020 A 
ATOM     73  C   UNL A   1      48.578  27.339  31.773  1.00  0.00     0.054 A 
BRANCH  73  74
ATOM     74  S   UNL A   1      50.177  26.549  32.102  1.00  0.00     0.124 S 
ATOM     75  O   UNL A   1      50.592  26.140  30.761  1.00  0.00    -0.237 OA
ATOM     76  O   UNL A   1      50.953  27.635  32.695  1.00  0.00    -0.237 OA
ATOM     77  O   UNL A   1      49.845  25.454  33.010  1.00  0.00    -0.744 OA
ENDBRANCH  73  74
ENDBRANCH  54  68
BRANCH  55  78
ATOM     78  C   UNL A   1      37.227  32.825  29.536  1.00  0.00    -0.014 A 
ATOM     79  C   UNL A   1      36.264  32.843  30.560  1.00  0.00     0.010 A 
ATOM     80  C   UNL A   1      36.913  33.408  28.295  1.00  0.00     0.010 A 
ATOM     81  C   UNL A   1      35.004  33.408  30.340  1.00  0.00     0.020 A 
ATOM     82  C   UNL A   1      35.667  34.003  28.080  1.00  0.00     0.020 A 
ATOM     83  C   UNL A   1      34.714  33.987  29.100  1.00  0.00     0.054 A 
BRANCH  83  84
ATOM     84  S   UNL A   1      33.087  34.748  28.848  1.00  0.00     0.124 S 
ATOM     85  O   UNL A   1      32.472  33.838  27.887  1.00  0.00    -0.237 OA
ATOM     86  O   UNL A   1      32.518  34.727  30.194  1.00  0.00    -0.237 OA
ATOM     87  O   UNL A   1      33.408  36.079  28.336  1.00  0.00    -0.744 OA
ENDBRANCH  83  84
ENDBRANCH  55  78
BRANCH  67  88
ATOM     88  C   UNL A   1      43.143  35.036  32.508  1.00  0.00    -0.014 A 
ATOM     89  C   UNL A   1      43.584  36.109  31.716  1.00  0.00     0.010 A 
ATOM     90  C   UNL A   1      43.025  35.214  33.900  1.00  0.00     0.010 A 
ATOM     91  C   UNL A   1      43.932  37.327  32.307  1.00  0.00     0.020 A 
ATOM     92  C   UNL A   1      43.340  36.439  34.491  1.00  0.00     0.020 A 
ATOM     93  C   UNL A   1      43.805  37.485  33.691  1.00  0.00     0.054 A 
BRANCH  93  94
ATOM     94  S   UNL A   1      44.220  39.089  34.427  1.00  0.00     0.124 S 
ATOM     95  O   UNL A   1      44.299  38.761  35.848  1.00  0.00    -0.237 OA
ATOM     96  O   UNL A   1      45.492  39.414  33.786  1.00  0.00    -0.237 OA
ATOM     97  O   UNL A   1      43.100  39.947  34.048  1.00  0.00    -0.744 OA
ENDBRANCH  93  94
ENDBRANCH  67  88
ENDBRANCH  41  42
ENDBRANCH  33  36
ENDBRANCH  31  32
ENDBRANCH  30  31
ENDBRANCH  29  30
ENDBRANCH   1  29
TORSDOF 22
ENDMDL
MODEL 2
REMARK VINA RESULT:      -9.1      3.793      8.086
REMARK SMILES CC(C)[C@@H](C[NH+](C)C)NC(=O)N[C@@](C)(C(=O)NCCCCCCNC(=O)c1ccc(-c2c3nc(c(-c4ccc(S(=O)(=O)[O-])cc4)c4ccc([nH]4)c(-c4ccc(S(=O)(=O)[O-])cc4)c4nc(c(-c5ccc(S(=O)(=O)[O-])cc5)c5ccc2[nH]5)C=C4)C=C3)cc1)C(F)(F)F
REMARK SMILES IDX 20 1 19 2 18 3 17 4 15 5 16 6 13 8 14 9 12 10 9 11 10 12
REMARK SMILES IDX 11 14 4 16 2 17 1 18 3 19 5 20 6 21 7 22 8 23 87 25 88 26
REMARK SMILES IDX 89 27 90 28 21 29 22 30 23 31 24 32 25 33 26 35 27 36 28 37
REMARK SMILES IDX 86 38 29 39 85 40 30 41 31 42 32 43 79 44 33 45 84 46 78 47
REMARK SMILES IDX 80 48 34 49 83 50 77 51 76 52 35 54 65 55 46 56 64 57 47 58
REMARK SMILES IDX 50 59 63 60 81 61 48 62 49 63 62 65 82 66 51 67 36 68 37 69
REMARK SMILES IDX 45 70 38 71 44 72 39 73 40 74 41 75 42 76 43 77 66 78 67 79
REMARK SMILES IDX 75 80 68 81 74 82 69 83 70 84 71 85 72 86 73 87 52 88 53 89
REMARK SMILES IDX 61 90 54 91 60 92 55 93 56 94 57 95 58 96 59 97
REMARK H PARENT 17 7 9 13 12 15 6 24 24 34 80 53 50 64
REMARK Flexibility Score: inf
ROOT
ATOM      1  C   UNL A   1      33.602  28.515  26.857  1.00  0.00     0.002 C 
ENDROOT
BRANCH   1   2
ATOM      2  C   UNL A   1      33.694  28.091  25.387  1.00  0.00     0.021 C 
BRANCH   2   3
ATOM      3  C   UNL A   1      34.191  26.669  25.160  1.00  0.00     0.116 C 
BRANCH   3   4
ATOM      4  N   UNL A   1      33.500  25.728  26.014  1.00  0.00    -0.354 N 
ATOM      5  C   UNL A   1      32.392  24.961  25.861  1.00  0.00     0.255 C 
ATOM      6  O   UNL A   1      32.115  24.278  26.852  1.00  0.00    -0.272 OA
ATOM      7  H   UNL A   1      33.926  25.622  26.895  1.00  0.00     0.163 HD
BRANCH   5   8
ATOM      8  C   UNL A   1      31.523  24.970  24.587  1.00  0.00     0.213 C 
ATOM      9  C   UNL A   1      30.572  23.750  24.493  1.00  0.00     0.056 C 
BRANCH   8  10
ATOM     10  N   UNL A   1      32.462  24.823  23.393  1.00  0.00    -0.316 N 
ATOM     11  N   UNL A   1      33.833  22.905  23.069  1.00  0.00    -0.329 N 
ATOM     12  C   UNL A   1      33.309  24.069  22.703  1.00  0.00     0.316 C 
ATOM     13  H   UNL A   1      34.491  22.537  22.436  1.00  0.00     0.165 HD
ATOM     14  O   UNL A   1      33.661  24.533  21.614  1.00  0.00    -0.249 OA
ATOM     15  H   UNL A   1      32.422  25.683  22.914  1.00  0.00     0.166 HD
BRANCH  11  16
ATOM     16  C   UNL A   1      33.603  22.088  24.232  1.00  0.00     0.141 C 
BRANCH  16  17
ATOM     17  C   UNL A   1      32.370  21.170  24.095  1.00  0.00     0.011 C 
ATOM     18  C   UNL A   1      32.090  20.835  22.624  1.00  0.00     0.010 C 
ATOM     19  C   UNL A   1      32.557  19.845  24.858  1.00  0.00     0.010 C 
ENDBRANCH  16  17
BRANCH  16  20
ATOM     20  C   UNL A   1      34.930  21.539  24.836  1.00  0.00     0.287 C 
BRANCH  20  21
ATOM     21  N   UNL A   1      35.386  21.905  26.197  1.00  0.00    -0.338 N 
ATOM     22  C   UNL A   1      35.960  23.263  26.126  1.00  0.00     0.332 C 
ATOM     23  C   UNL A   1      34.304  21.919  27.180  1.00  0.00     0.332 C 
ATOM     24  H   UNL A   1      36.064  21.205  26.499  1.00  0.00     0.347 HD
ENDBRANCH  20  21
ENDBRANCH  16  20
ENDBRANCH  11  16
ENDBRANCH   8  10
BRANCH   8  25
ATOM     25  C   UNL A   1      30.543  26.162  24.799  1.00  0.00     0.420 C 
ATOM     26  F   UNL A   1      30.561  26.744  26.017  1.00  0.00    -0.168 F 
ATOM     27  F   UNL A   1      30.770  27.142  23.885  1.00  0.00    -0.168 F 
ATOM     28  F   UNL A   1      29.252  25.775  24.605  1.00  0.00    -0.168 F 
ENDBRANCH   8  25
ENDBRANCH   5   8
ENDBRANCH   3   4
ENDBRANCH   2   3
ENDBRANCH   1   2
BRANCH   1  29
ATOM     29  C   UNL A   1      32.318  29.254  27.247  1.00  0.00     0.002 C 
BRANCH  29  30
ATOM     30  C   UNL A   1      32.279  30.732  26.858  1.00  0.00     0.021 C 
BRANCH  30  31
ATOM     31  C   UNL A   1      33.369  31.582  27.494  1.00  0.00     0.116 C 
BRANCH  31  32
ATOM     32  N   UNL A   1      32.973  32.973  27.619  1.00  0.00    -0.352 N 
ATOM     33  C   UNL A   1      33.447  33.923  28.489  1.00  0.00     0.251 C 
ATOM     34  H   UNL A   1      32.272  33.275  26.998  1.00  0.00     0.163 HD
ATOM     35  O   UNL A   1      32.876  34.998  28.602  1.00  0.00    -0.269 OA
BRANCH  33  36
ATOM     36  C   UNL A   1      34.641  33.615  29.305  1.00  0.00     0.039 A 
ATOM     37  C   UNL A   1      34.517  32.731  30.378  1.00  0.00     0.014 A 
ATOM     38  C   UNL A   1      35.883  34.178  28.992  1.00  0.00     0.014 A 
ATOM     39  C   UNL A   1      35.651  32.372  31.107  1.00  0.00     0.010 A 
ATOM     40  C   UNL A   1      37.023  33.755  29.667  1.00  0.00     0.010 A 
ATOM     41  C   UNL A   1      36.918  32.855  30.737  1.00  0.00    -0.014 A 
BRANCH  41  42
ATOM     42  C   UNL A   1      38.142  32.434  31.464  1.00  0.00     0.031 A 
ATOM     43  C   UNL A   1      39.012  31.341  30.906  1.00  0.00     0.074 A 
ATOM     44  C   UNL A   1      38.441  33.001  32.651  1.00  0.00     0.049 A 
ATOM     45  N   UNL A   1      40.093  30.808  31.415  1.00  0.00    -0.248 NA
ATOM     46  C   UNL A   1      38.603  30.752  29.620  1.00  0.00     0.031 C 
ATOM     47  C   UNL A   1      37.655  34.045  33.315  1.00  0.00     0.029 A 
ATOM     48  N   UNL A   1      39.487  32.778  33.511  1.00  0.00    -0.354 N 
ATOM     49  C   UNL A   1      40.485  29.819  30.521  1.00  0.00     0.074 A 
ATOM     50  C   UNL A   1      39.496  29.786  29.466  1.00  0.00     0.031 C 
ATOM     51  C   UNL A   1      38.263  34.392  34.460  1.00  0.00     0.029 A 
ATOM     52  C   UNL A   1      39.453  33.567  34.637  1.00  0.00     0.049 A 
ATOM     53  H   UNL A   1      40.195  32.117  33.338  1.00  0.00     0.167 HD
ATOM     54  C   UNL A   1      41.580  29.024  30.562  1.00  0.00     0.031 A 
ATOM     55  C   UNL A   1      40.282  33.615  35.698  1.00  0.00     0.031 A 
ATOM     56  C   UNL A   1      42.565  29.066  31.610  1.00  0.00     0.049 A 
ATOM     57  C   UNL A   1      41.480  32.704  35.732  1.00  0.00     0.074 A 
ATOM     58  C   UNL A   1      43.737  28.337  31.718  1.00  0.00     0.029 A 
ATOM     59  N   UNL A   1      42.495  29.877  32.732  1.00  0.00    -0.354 N 
ATOM     60  N   UNL A   1      41.868  31.821  34.843  1.00  0.00    -0.248 NA
ATOM     61  C   UNL A   1      42.357  32.804  36.906  1.00  0.00     0.031 C 
ATOM     62  C   UNL A   1      44.343  28.663  32.934  1.00  0.00     0.029 A 
ATOM     63  C   UNL A   1      43.587  29.647  33.551  1.00  0.00     0.049 A 
ATOM     64  H   UNL A   1      41.774  30.522  32.919  1.00  0.00     0.167 HD
ATOM     65  C   UNL A   1      43.052  31.283  35.337  1.00  0.00     0.074 A 
ATOM     66  C   UNL A   1      43.323  31.952  36.593  1.00  0.00     0.031 C 
ATOM     67  C   UNL A   1      43.844  30.323  34.798  1.00  0.00     0.031 A 
BRANCH  54  68
ATOM     68  C   UNL A   1      41.772  28.036  29.440  1.00  0.00    -0.014 A 
ATOM     69  C   UNL A   1      41.039  26.836  29.394  1.00  0.00     0.010 A 
ATOM     70  C   UNL A   1      42.659  28.335  28.390  1.00  0.00     0.010 A 
ATOM     71  C   UNL A   1      41.214  25.939  28.337  1.00  0.00     0.020 A 
ATOM     72  C   UNL A   1      42.814  27.455  27.314  1.00  0.00     0.020 A 
ATOM     73  C   UNL A   1      42.100  26.255  27.303  1.00  0.00     0.054 A 
BRANCH  73  74
ATOM     74  S   UNL A   1      42.278  25.088  25.925  1.00  0.00     0.124 S 
ATOM     75  O   UNL A   1      43.610  24.537  26.168  1.00  0.00    -0.237 OA
ATOM     76  O   UNL A   1      41.168  24.165  26.145  1.00  0.00    -0.237 OA
ATOM     77  O   UNL A   1      42.162  25.930  24.738  1.00  0.00    -0.744 OA
ENDBRANCH  73  74
ENDBRANCH  54  68
BRANCH  55  78
ATOM     78  C   UNL A   1      40.012  34.563  36.815  1.00  0.00    -0.014 A 
ATOM     79  C   UNL A   1      39.224  34.173  37.912  1.00  0.00     0.010 A 
ATOM     80  C   UNL A   1      40.543  35.865  36.786  1.00  0.00     0.010 A 
ATOM     81  C   UNL A   1      38.950  35.074  38.946  1.00  0.00     0.020 A 
ATOM     82  C   UNL A   1      40.299  36.760  37.832  1.00  0.00     0.020 A 
ATOM     83  C   UNL A   1      39.491  36.363  38.899  1.00  0.00     0.054 A 
BRANCH  83  84
ATOM     84  S   UNL A   1      39.155  37.503  40.269  1.00  0.00     0.124 S 
ATOM     85  O   UNL A   1      40.484  38.031  40.559  1.00  0.00    -0.237 OA
ATOM     86  O   UNL A   1      38.215  38.447  39.669  1.00  0.00    -0.237 OA
ATOM     87  O   UNL A   1      38.584  36.639  41.301  1.00  0.00    -0.744 OA
ENDBRANCH  83  84
ENDBRANCH  55  78
BRANCH  67  88
ATOM     88  C   UNL A   1      45.105  29.963  35.541  1.00  0.00    -0.014 A 
ATOM     89  C   UNL A   1      46.302  30.672  35.342  1.00  0.00     0.010 A 
ATOM     90  C   UNL A   1      45.071  28.931  36.498  1.00  0.00     0.010 A 
ATOM     91  C   UNL A   1      47.451  30.333  36.061  1.00  0.00     0.020 A 
ATOM     92  C   UNL A   1      46.208  28.611  37.242  1.00  0.00     0.020 A 
ATOM     93  C   UNL A   1      47.396  29.306  37.009  1.00  0.00     0.054 A 
BRANCH  93  94
ATOM     94  S   UNL A   1      48.890  28.917  37.961  1.00  0.00     0.124 S 
ATOM     95  O   UNL A   1      49.948  29.209  36.999  1.00  0.00    -0.237 OA
ATOM     96  O   UNL A   1      48.796  29.837  39.091  1.00  0.00    -0.237 OA
ATOM     97  O   UNL A   1      48.728  27.505  38.299  1.00  0.00    -0.744 OA
ENDBRANCH  93  94
ENDBRANCH  67  88
ENDBRANCH  41  42
ENDBRANCH  33  36
ENDBRANCH  31  32
ENDBRANCH  30  31
ENDBRANCH  29  30
ENDBRANCH   1  29
TORSDOF 22
ENDMDL
MODEL 3
REMARK VINA RESULT:      -9.0      3.671      9.337
REMARK SMILES CC(C)[C@@H](C[NH+](C)C)NC(=O)N[C@@](C)(C(=O)NCCCCCCNC(=O)c1ccc(-c2c3nc(c(-c4ccc(S(=O)(=O)[O-])cc4)c4ccc([nH]4)c(-c4ccc(S(=O)(=O)[O-])cc4)c4nc(c(-c5ccc(S(=O)(=O)[O-])cc5)c5ccc2[nH]5)C=C4)C=C3)cc1)C(F)(F)F
REMARK SMILES IDX 20 1 19 2 18 3 17 4 15 5 16 6 13 8 14 9 12 10 9 11 10 12
REMARK SMILES IDX 11 14 4 16 2 17 1 18 3 19 5 20 6 21 7 22 8 23 87 25 88 26
REMARK SMILES IDX 89 27 90 28 21 29 22 30 23 31 24 32 25 33 26 35 27 36 28 37
REMARK SMILES IDX 86 38 29 39 85 40 30 41 31 42 32 43 79 44 33 45 84 46 78 47
REMARK SMILES IDX 80 48 34 49 83 50 77 51 76 52 35 54 65 55 46 56 64 57 47 58
REMARK SMILES IDX 50 59 63 60 81 61 48 62 49 63 62 65 82 66 51 67 36 68 37 69
REMARK SMILES IDX 45 70 38 71 44 72 39 73 40 74 41 75 42 76 43 77 66 78 67 79
REMARK SMILES IDX 75 80 68 81 74 82 69 83 70 84 71 85 72 86 73 87 52 88 53 89
REMARK SMILES IDX 61 90 54 91 60 92 55 93 56 94 57 95 58 96 59 97
REMARK H PARENT 17 7 9 13 12 15 6 24 24 34 80 53 50 64
REMARK Flexibility Score: inf
ROOT
ATOM      1  C   UNL A   1      33.006  29.036  25.945  1.00  0.00     0.002 C 
ENDROOT
BRANCH   1   2
ATOM      2  C   UNL A   1      33.587  28.689  24.570  1.00  0.00     0.021 C 
BRANCH   2   3
ATOM      3  C   UNL A   1      34.019  27.237  24.404  1.00  0.00     0.116 C 
BRANCH   3   4
ATOM      4  N   UNL A   1      33.455  26.399  25.439  1.00  0.00    -0.354 N 
ATOM      5  C   UNL A   1      32.416  25.527  25.478  1.00  0.00     0.255 C 
ATOM      6  O   UNL A   1      32.246  25.000  26.582  1.00  0.00    -0.272 OA
ATOM      7  H   UNL A   1      33.925  26.480  26.300  1.00  0.00     0.163 HD
BRANCH   5   8
ATOM      8  C   UNL A   1      31.497  25.249  24.272  1.00  0.00     0.213 C 
ATOM      9  C   UNL A   1      30.587  24.011  24.476  1.00  0.00     0.056 C 
BRANCH   8  10
ATOM     10  N   UNL A   1      32.392  24.882  23.090  1.00  0.00    -0.316 N 
ATOM     11  N   UNL A   1      33.901  23.043  23.149  1.00  0.00    -0.329 N 
ATOM     12  C   UNL A   1      33.267  24.044  22.550  1.00  0.00     0.316 C 
ATOM     13  H   UNL A   1      34.559  22.580  22.583  1.00  0.00     0.165 HD
ATOM     14  O   UNL A   1      33.531  24.252  21.361  1.00  0.00    -0.249 OA
ATOM     15  H   UNL A   1      32.259  25.594  22.424  1.00  0.00     0.166 HD
BRANCH  11  16
ATOM     16  C   UNL A   1      33.791  22.519  24.486  1.00  0.00     0.141 C 
BRANCH  16  17
ATOM     17  C   UNL A   1      33.061  21.160  24.547  1.00  0.00     0.011 C 
ATOM     18  C   UNL A   1      32.367  20.844  23.216  1.00  0.00     0.010 C 
ATOM     19  C   UNL A   1      34.030  20.006  24.864  1.00  0.00     0.010 C 
ENDBRANCH  16  17
BRANCH  16  20
ATOM     20  C   UNL A   1      35.087  22.756  25.318  1.00  0.00     0.287 C 
BRANCH  20  21
ATOM     21  N   UNL A   1      36.389  23.052  24.680  1.00  0.00    -0.338 N 
ATOM     22  C   UNL A   1      37.248  23.694  25.693  1.00  0.00     0.332 C 
ATOM     23  C   UNL A   1      37.075  21.856  24.194  1.00  0.00     0.332 C 
ATOM     24  H   UNL A   1      36.214  23.652  23.873  1.00  0.00     0.347 HD
ENDBRANCH  20  21
ENDBRANCH  16  20
ENDBRANCH  11  16
ENDBRANCH   8  10
BRANCH   8  25
ATOM     25  C   UNL A   1      30.485  26.432  24.279  1.00  0.00     0.420 C 
ATOM     26  F   UNL A   1      30.758  27.461  23.449  1.00  0.00    -0.168 F 
ATOM     27  F   UNL A   1      29.232  25.998  23.979  1.00  0.00    -0.168 F 
ATOM     28  F   UNL A   1      30.389  26.987  25.519  1.00  0.00    -0.168 F 
ENDBRANCH   8  25
ENDBRANCH   5   8
ENDBRANCH   3   4
ENDBRANCH   2   3
ENDBRANCH   1   2
BRANCH   1  29
ATOM     29  C   UNL A   1      32.028  30.214  25.964  1.00  0.00     0.002 C 
BRANCH  29  30
ATOM     30  C   UNL A   1      32.072  31.070  27.230  1.00  0.00     0.021 C 
BRANCH  30  31
ATOM     31  C   UNL A   1      33.283  31.985  27.333  1.00  0.00     0.116 C 
BRANCH  31  32
ATOM     32  N   UNL A   1      32.908  33.357  27.624  1.00  0.00    -0.352 N 
ATOM     33  C   UNL A   1      33.386  34.184  28.610  1.00  0.00     0.251 C 
ATOM     34  H   UNL A   1      32.220  33.745  27.038  1.00  0.00     0.163 HD
ATOM     35  O   UNL A   1      32.831  35.247  28.849  1.00  0.00    -0.269 OA
BRANCH  33  36
ATOM     36  C   UNL A   1      34.565  33.757  29.394  1.00  0.00     0.039 A 
ATOM     37  C   UNL A   1      34.392  32.835  30.427  1.00  0.00     0.014 A 
ATOM     38  C   UNL A   1      35.839  34.248  29.090  1.00  0.00     0.014 A 
ATOM     39  C   UNL A   1      35.506  32.365  31.123  1.00  0.00     0.010 A 
ATOM     40  C   UNL A   1      36.955  33.717  29.729  1.00  0.00     0.010 A 
ATOM     41  C   UNL A   1      36.799  32.777  30.758  1.00  0.00    -0.014 A 
BRANCH  41  42
ATOM     42  C   UNL A   1      37.999  32.240  31.448  1.00  0.00     0.031 A 
ATOM     43  C   UNL A   1      38.436  32.824  32.765  1.00  0.00     0.074 A 
ATOM     44  C   UNL A   1      38.722  31.263  30.865  1.00  0.00     0.049 A 
ATOM     45  N   UNL A   1      39.478  32.519  33.495  1.00  0.00    -0.248 NA
ATOM     46  C   UNL A   1      37.610  33.908  33.322  1.00  0.00     0.031 C 
ATOM     47  C   UNL A   1      38.421  30.641  29.573  1.00  0.00     0.029 A 
ATOM     48  N   UNL A   1      39.860  30.621  31.283  1.00  0.00    -0.354 N 
ATOM     49  C   UNL A   1      39.438  33.376  34.588  1.00  0.00     0.074 A 
ATOM     50  C   UNL A   1      38.302  34.252  34.398  1.00  0.00     0.031 C 
ATOM     51  C   UNL A   1      39.333  29.688  29.320  1.00  0.00     0.029 A 
ATOM     52  C   UNL A   1      40.307  29.661  30.405  1.00  0.00     0.049 A 
ATOM     53  H   UNL A   1      40.314  30.827  32.132  1.00  0.00     0.167 HD
ATOM     54  C   UNL A   1      40.259  33.418  35.664  1.00  0.00     0.031 A 
ATOM     55  C   UNL A   1      41.386  28.855  30.462  1.00  0.00     0.031 A 
ATOM     56  C   UNL A   1      41.383  32.539  35.851  1.00  0.00     0.049 A 
ATOM     57  C   UNL A   1      42.297  28.938  31.657  1.00  0.00     0.074 A 
ATOM     58  C   UNL A   1      42.246  32.468  36.931  1.00  0.00     0.029 A 
ATOM     59  N   UNL A   1      41.802  31.582  34.940  1.00  0.00    -0.354 N 
ATOM     60  N   UNL A   1      42.204  29.711  32.712  1.00  0.00    -0.248 NA
ATOM     61  C   UNL A   1      43.452  28.030  31.675  1.00  0.00     0.031 C 
ATOM     62  C   UNL A   1      43.224  31.511  36.645  1.00  0.00     0.029 A 
ATOM     63  C   UNL A   1      42.928  30.935  35.420  1.00  0.00     0.049 A 
ATOM     64  H   UNL A   1      41.364  31.392  34.079  1.00  0.00     0.167 HD
ATOM     65  C   UNL A   1      43.271  29.361  33.533  1.00  0.00     0.074 A 
ATOM     66  C   UNL A   1      43.984  28.296  32.860  1.00  0.00     0.031 C 
ATOM     67  C   UNL A   1      43.626  29.874  34.737  1.00  0.00     0.031 A 
BRANCH  54  68
ATOM     68  C   UNL A   1      39.974  34.451  36.724  1.00  0.00    -0.014 A 
ATOM     69  C   UNL A   1      39.113  34.171  37.800  1.00  0.00     0.010 A 
ATOM     70  C   UNL A   1      40.617  35.701  36.672  1.00  0.00     0.010 A 
ATOM     71  C   UNL A   1      38.874  35.133  38.785  1.00  0.00     0.020 A 
ATOM     72  C   UNL A   1      40.406  36.655  37.672  1.00  0.00     0.020 A 
ATOM     73  C   UNL A   1      39.524  36.369  38.715  1.00  0.00     0.054 A 
BRANCH  73  74
ATOM     74  S   UNL A   1      39.223  37.583  40.029  1.00  0.00     0.124 S 
ATOM     75  O   UNL A   1      40.499  38.295  40.078  1.00  0.00    -0.237 OA
ATOM     76  O   UNL A   1      38.097  38.350  39.503  1.00  0.00    -0.237 OA
ATOM     77  O   UNL A   1      38.924  36.763  41.200  1.00  0.00    -0.744 OA
ENDBRANCH  73  74
ENDBRANCH  54  68
BRANCH  55  78
ATOM     78  C   UNL A   1      41.662  27.897  29.356  1.00  0.00    -0.014 A 
ATOM     79  C   UNL A   1      41.034  26.640  29.322  1.00  0.00     0.010 A 
ATOM     80  C   UNL A   1      42.559  28.238  28.327  1.00  0.00     0.010 A 
ATOM     81  C   UNL A   1      41.317  25.732  28.296  1.00  0.00     0.020 A 
ATOM     82  C   UNL A   1      42.821  27.348  27.283  1.00  0.00     0.020 A 
ATOM     83  C   UNL A   1      42.208  26.093  27.281  1.00  0.00     0.054 A 
BRANCH  83  84
ATOM     84  S   UNL A   1      42.531  24.916  25.940  1.00  0.00     0.124 S 
ATOM     85  O   UNL A   1      41.438  23.963  26.103  1.00  0.00    -0.237 OA
ATOM     86  O   UNL A   1      42.460  25.764  24.752  1.00  0.00    -0.237 OA
ATOM     87  O   UNL A   1      43.863  24.401  26.250  1.00  0.00    -0.744 OA
ENDBRANCH  83  84
ENDBRANCH  55  78
BRANCH  67  88
ATOM     88  C   UNL A   1      44.819  29.265  35.429  1.00  0.00    -0.014 A 
ATOM     89  C   UNL A   1      44.684  28.157  36.282  1.00  0.00     0.010 A 
ATOM     90  C   UNL A   1      46.103  29.780  35.172  1.00  0.00     0.010 A 
ATOM     91  C   UNL A   1      45.809  27.595  36.893  1.00  0.00     0.020 A 
ATOM     92  C   UNL A   1      47.233  29.202  35.753  1.00  0.00     0.020 A 
ATOM     93  C   UNL A   1      47.077  28.120  36.622  1.00  0.00     0.054 A 
BRANCH  93  94
ATOM     94  S   UNL A   1      48.524  27.345  37.392  1.00  0.00     0.124 S 
ATOM     95  O   UNL A   1      48.472  25.992  36.845  1.00  0.00    -0.237 OA
ATOM     96  O   UNL A   1      49.624  28.176  36.910  1.00  0.00    -0.237 OA
ATOM     97  O   UNL A   1      48.254  27.448  38.824  1.00  0.00    -0.744 OA
ENDBRANCH  93  94
ENDBRANCH  67  88
ENDBRANCH  41  42
ENDBRANCH  33  36
ENDBRANCH  31  32
ENDBRANCH  30  31
ENDBRANCH  29  30
ENDBRANCH   1  29
TORSDOF 22
ENDMDL
