MODEL 1
REMARK VINA RESULT:     -10.7      0.000      0.000
REMARK SMILES O=C(CSc1nc2cc(Br)cnc2n1CCC1CC1)NCCCCCCNC(=O)c1ccc(-c2c3nc(c(-c4ccc(S(=O)(=O)[O-])cc4)c4ccc([nH]4)c(-c4ccc(S(=O)(=O)[O-])cc4)c4nc(c(-c5ccc(S(=O)(=O)[O-])cc5)c5ccc2[nH]5)C=C4)C=C3)cc1
REMARK SMILES IDX 22 1 21 2 20 3 1 4 2 5 3 7 4 8 5 9 6 10 14 11 7 12 13 13
REMARK SMILES IDX 8 14 12 15 9 16 11 17 10 18 15 19 16 20 17 21 18 22 19 23
REMARK SMILES IDX 23 24 24 25 25 26 26 27 27 28 28 29 29 31 30 32 31 33 89 34
REMARK SMILES IDX 32 35 88 36 33 37 34 38 35 39 82 40 36 41 87 42 81 43 83 44
REMARK SMILES IDX 37 45 86 46 80 47 79 48 38 50 68 51 49 52 67 53 50 54 53 55
REMARK SMILES IDX 66 56 84 57 51 58 52 59 65 61 85 62 54 63 39 64 40 65 48 66
REMARK SMILES IDX 41 67 47 68 42 69 43 70 44 71 45 72 46 73 69 74 70 75 78 76
REMARK SMILES IDX 71 77 77 78 72 79 73 80 74 81 75 82 76 83 55 84 56 85 64 86
REMARK SMILES IDX 57 87 63 88 58 89 59 90 60 91 61 92 62 93
REMARK H PARENT 20 6 27 30 83 49 53 60
REMARK Flexibility Score: inf
ROOT
ATOM      1  C   UNL A   1      32.256  28.227  26.783  1.00  0.00     0.021 C 
ENDROOT
BRANCH   1   2
ATOM      2  C   UNL A   1      31.192  27.132  26.858  1.00  0.00     0.116 C 
BRANCH   2   3
ATOM      3  N   UNL A   1      31.244  26.311  25.680  1.00  0.00    -0.355 N 
ATOM      4  O   UNL A   1      30.419  27.813  24.151  1.00  0.00    -0.274 OA
ATOM      5  C   UNL A   1      30.729  26.670  24.465  1.00  0.00     0.230 C 
ATOM      6  H   UNL A   1      31.678  25.430  25.754  1.00  0.00     0.163 HD
BRANCH   5   7
ATOM      7  C   UNL A   1      30.428  25.479  23.590  1.00  0.00     0.178 C 
BRANCH   7   8
ATOM      8  S   UNL A   1      31.840  24.905  22.646  1.00  0.00    -0.078 SA
BRANCH   8   9
ATOM      9  C   UNL A   1      32.513  23.488  23.384  1.00  0.00     0.170 A 
ATOM     10  N   UNL A   1      32.237  22.329  22.811  1.00  0.00    -0.221 NA
ATOM     11  N   UNL A   1      33.299  23.319  24.507  1.00  0.00    -0.304 N 
ATOM     12  C   UNL A   1      32.617  21.379  23.705  1.00  0.00     0.110 A 
ATOM     13  C   UNL A   1      33.236  21.962  24.801  1.00  0.00     0.160 A 
ATOM     14  C   UNL A   1      32.422  19.994  23.690  1.00  0.00     0.049 A 
ATOM     15  N   UNL A   1      33.648  21.332  25.923  1.00  0.00    -0.235 NA
ATOM     16  C   UNL A   1      32.784  19.304  24.843  1.00  0.00     0.038 A 
ATOM     17  C   UNL A   1      33.358  20.001  25.904  1.00  0.00     0.129 A 
ATOM     18  Br  UNL A   1      32.458  17.448  24.969  1.00  0.00    -0.049 Br
BRANCH  11  19
ATOM     19  C   UNL A   1      33.935  24.268  25.396  1.00  0.00     0.127 C 
BRANCH  19  20
ATOM     20  C   UNL A   1      35.463  24.425  25.357  1.00  0.00     0.025 C 
BRANCH  20  21
ATOM     21  C   UNL A   1      36.465  23.441  25.909  1.00  0.00    -0.009 C 
ATOM     22  C   UNL A   1      37.525  22.640  25.208  1.00  0.00     0.004 C 
ATOM     23  C   UNL A   1      37.925  23.811  26.059  1.00  0.00     0.004 C 
ENDBRANCH  20  21
ENDBRANCH  19  20
ENDBRANCH  11  19
ENDBRANCH   8   9
ENDBRANCH   7   8
ENDBRANCH   5   7
ENDBRANCH   2   3
ENDBRANCH   1   2
BRANCH   1  24
ATOM     24  C   UNL A   1      31.733  29.661  26.582  1.00  0.00     0.002 C 
BRANCH  24  25
ATOM     25  C   UNL A   1      32.756  30.809  26.600  1.00  0.00     0.002 C 
BRANCH  25  26
ATOM     26  C   UNL A   1      33.890  30.723  27.625  1.00  0.00     0.021 C 
BRANCH  26  27
ATOM     27  C   UNL A   1      34.631  32.029  27.836  1.00  0.00     0.116 C 
BRANCH  27  28
ATOM     28  N   UNL A   1      34.530  32.520  29.207  1.00  0.00    -0.352 N 
ATOM     29  C   UNL A   1      35.244  32.072  30.306  1.00  0.00     0.251 C 
ATOM     30  H   UNL A   1      33.887  33.248  29.367  1.00  0.00     0.163 HD
ATOM     31  O   UNL A   1      34.819  32.226  31.437  1.00  0.00    -0.269 OA
BRANCH  29  32
ATOM     32  C   UNL A   1      36.543  31.414  30.061  1.00  0.00     0.039 A 
ATOM     33  C   UNL A   1      37.717  32.146  29.874  1.00  0.00     0.014 A 
ATOM     34  C   UNL A   1      36.563  30.021  30.060  1.00  0.00     0.014 A 
ATOM     35  C   UNL A   1      38.918  31.451  29.749  1.00  0.00     0.010 A 
ATOM     36  C   UNL A   1      37.756  29.354  30.126  1.00  0.00     0.010 A 
ATOM     37  C   UNL A   1      38.930  30.051  29.895  1.00  0.00    -0.014 A 
BRANCH  37  38
ATOM     38  C   UNL A   1      40.178  29.300  29.920  1.00  0.00     0.031 A 
ATOM     39  C   UNL A   1      40.674  29.027  31.289  1.00  0.00     0.074 A 
ATOM     40  C   UNL A   1      40.738  28.740  28.823  1.00  0.00     0.049 A 
ATOM     41  N   UNL A   1      41.603  29.667  31.915  1.00  0.00    -0.248 NA
ATOM     42  C   UNL A   1      39.932  28.078  32.137  1.00  0.00     0.031 C 
ATOM     43  C   UNL A   1      40.195  28.672  27.457  1.00  0.00     0.029 A 
ATOM     44  N   UNL A   1      41.891  28.025  28.715  1.00  0.00    -0.354 N 
ATOM     45  C   UNL A   1      41.754  29.013  33.131  1.00  0.00     0.074 A 
ATOM     46  C   UNL A   1      40.569  28.214  33.304  1.00  0.00     0.031 C 
ATOM     47  C   UNL A   1      40.893  27.770  26.729  1.00  0.00     0.029 A 
ATOM     48  C   UNL A   1      42.044  27.349  27.505  1.00  0.00     0.049 A 
ATOM     49  H   UNL A   1      42.563  27.987  29.433  1.00  0.00     0.167 HD
ATOM     50  C   UNL A   1      42.978  28.936  33.725  1.00  0.00     0.031 A 
ATOM     51  C   UNL A   1      43.068  26.531  27.156  1.00  0.00     0.031 A 
ATOM     52  C   UNL A   1      43.929  29.786  33.050  1.00  0.00     0.049 A 
ATOM     53  C   UNL A   1      44.223  26.933  27.989  1.00  0.00     0.074 A 
ATOM     54  C   UNL A   1      44.163  31.138  32.942  1.00  0.00     0.029 A 
ATOM     55  N   UNL A   1      44.548  29.172  31.989  1.00  0.00    -0.354 N 
ATOM     56  N   UNL A   1      44.785  28.107  27.902  1.00  0.00    -0.248 NA
ATOM     57  C   UNL A   1      44.528  26.180  29.197  1.00  0.00     0.031 C 
ATOM     58  C   UNL A   1      44.738  31.329  31.649  1.00  0.00     0.029 A 
ATOM     59  C   UNL A   1      44.896  30.087  31.031  1.00  0.00     0.049 A 
ATOM     60  H   UNL A   1      44.718  28.205  31.925  1.00  0.00     0.167 HD
ATOM     61  C   UNL A   1      45.139  28.415  29.203  1.00  0.00     0.074 A 
ATOM     62  C   UNL A   1      45.117  27.141  29.914  1.00  0.00     0.031 C 
ATOM     63  C   UNL A   1      45.117  29.704  29.650  1.00  0.00     0.031 A 
BRANCH  50  64
ATOM     64  C   UNL A   1      43.454  27.753  34.539  1.00  0.00    -0.014 A 
ATOM     65  C   UNL A   1      44.164  27.997  35.733  1.00  0.00     0.010 A 
ATOM     66  C   UNL A   1      43.484  26.434  34.039  1.00  0.00     0.010 A 
ATOM     67  C   UNL A   1      44.895  26.984  36.368  1.00  0.00     0.020 A 
ATOM     68  C   UNL A   1      44.181  25.409  34.683  1.00  0.00     0.020 A 
ATOM     69  C   UNL A   1      44.902  25.696  35.834  1.00  0.00     0.054 A 
BRANCH  69  70
ATOM     70  S   UNL A   1      45.902  24.411  36.625  1.00  0.00     0.124 S 
ATOM     71  O   UNL A   1      45.222  23.192  36.196  1.00  0.00    -0.237 OA
ATOM     72  O   UNL A   1      47.218  24.644  36.038  1.00  0.00    -0.237 OA
ATOM     73  O   UNL A   1      45.795  24.722  38.048  1.00  0.00    -0.744 OA
ENDBRANCH  69  70
ENDBRANCH  50  64
BRANCH  51  74
ATOM     74  C   UNL A   1      43.044  25.255  26.398  1.00  0.00    -0.014 A 
ATOM     75  C   UNL A   1      43.815  25.098  25.228  1.00  0.00     0.010 A 
ATOM     76  C   UNL A   1      42.533  24.090  27.005  1.00  0.00     0.010 A 
ATOM     77  C   UNL A   1      44.143  23.820  24.739  1.00  0.00     0.020 A 
ATOM     78  C   UNL A   1      42.853  22.813  26.521  1.00  0.00     0.020 A 
ATOM     79  C   UNL A   1      43.683  22.684  25.408  1.00  0.00     0.054 A 
BRANCH  79  80
ATOM     80  S   UNL A   1      44.278  21.043  24.890  1.00  0.00     0.124 S 
ATOM     81  O   UNL A   1      44.501  21.228  23.459  1.00  0.00    -0.237 OA
ATOM     82  O   UNL A   1      45.481  20.872  25.700  1.00  0.00    -0.237 OA
ATOM     83  O   UNL A   1      43.171  20.152  25.234  1.00  0.00    -0.744 OA
ENDBRANCH  79  80
ENDBRANCH  51  74
BRANCH  63  84
ATOM     84  C   UNL A   1      45.196  30.808  28.626  1.00  0.00    -0.014 A 
ATOM     85  C   UNL A   1      46.378  31.225  27.981  1.00  0.00     0.010 A 
ATOM     86  C   UNL A   1      43.978  31.390  28.236  1.00  0.00     0.010 A 
ATOM     87  C   UNL A   1      46.334  32.215  26.985  1.00  0.00     0.020 A 
ATOM     88  C   UNL A   1      43.925  32.359  27.236  1.00  0.00     0.020 A 
ATOM     89  C   UNL A   1      45.104  32.775  26.620  1.00  0.00     0.054 A 
BRANCH  89  90
ATOM     90  S   UNL A   1      45.042  34.038  25.317  1.00  0.00     0.124 S 
ATOM     91  O   UNL A   1      46.429  34.489  25.243  1.00  0.00    -0.237 OA
ATOM     92  O   UNL A   1      44.561  33.285  24.160  1.00  0.00    -0.237 OA
ATOM     93  O   UNL A   1      44.098  35.028  25.836  1.00  0.00    -0.744 OA
ENDBRANCH  89  90
ENDBRANCH  63  84
ENDBRANCH  37  38
ENDBRANCH  29  32
ENDBRANCH  27  28
ENDBRANCH  26  27
ENDBRANCH  25  26
ENDBRANCH  24  25
ENDBRANCH   1  24
TORSDOF 21
ENDMDL
MODEL 2
REMARK VINA RESULT:      -9.9      2.734      9.522
REMARK SMILES O=C(CSc1nc2cc(Br)cnc2n1CCC1CC1)NCCCCCCNC(=O)c1ccc(-c2c3nc(c(-c4ccc(S(=O)(=O)[O-])cc4)c4ccc([nH]4)c(-c4ccc(S(=O)(=O)[O-])cc4)c4nc(c(-c5ccc(S(=O)(=O)[O-])cc5)c5ccc2[nH]5)C=C4)C=C3)cc1
REMARK SMILES IDX 22 1 21 2 20 3 1 4 2 5 3 7 4 8 5 9 6 10 14 11 7 12 13 13
REMARK SMILES IDX 8 14 12 15 9 16 11 17 10 18 15 19 16 20 17 21 18 22 19 23
REMARK SMILES IDX 23 24 24 25 25 26 26 27 27 28 28 29 29 31 30 32 31 33 89 34
REMARK SMILES IDX 32 35 88 36 33 37 34 38 35 39 82 40 36 41 87 42 81 43 83 44
REMARK SMILES IDX 37 45 86 46 80 47 79 48 38 50 68 51 49 52 67 53 50 54 53 55
REMARK SMILES IDX 66 56 84 57 51 58 52 59 65 61 85 62 54 63 39 64 40 65 48 66
REMARK SMILES IDX 41 67 47 68 42 69 43 70 44 71 45 72 46 73 69 74 70 75 78 76
REMARK SMILES IDX 71 77 77 78 72 79 73 80 74 81 75 82 76 83 55 84 56 85 64 86
REMARK SMILES IDX 57 87 63 88 58 89 59 90 60 91 61 92 62 93
REMARK H PARENT 20 6 27 30 83 49 53 60
REMARK Flexibility Score: inf
ROOT
ATOM      1  C   UNL A   1      40.143  24.323  26.871  1.00  0.00     0.021 C 
ENDROOT
BRANCH   1   2
ATOM      2  C   UNL A   1      38.619  24.212  26.946  1.00  0.00     0.116 C 
BRANCH   2   3
ATOM      3  N   UNL A   1      38.093  23.775  25.682  1.00  0.00    -0.355 N 
ATOM      4  O   UNL A   1      36.075  22.942  26.396  1.00  0.00    -0.274 OA
ATOM      5  C   UNL A   1      36.938  23.058  25.534  1.00  0.00     0.230 C 
ATOM      6  H   UNL A   1      38.600  24.006  24.870  1.00  0.00     0.163 HD
BRANCH   5   7
ATOM      7  C   UNL A   1      36.901  22.284  24.240  1.00  0.00     0.178 C 
BRANCH   7   8
ATOM      8  S   UNL A   1      35.843  23.019  22.992  1.00  0.00    -0.078 SA
BRANCH   8   9
ATOM      9  C   UNL A   1      34.461  23.752  23.739  1.00  0.00     0.170 A 
ATOM     10  N   UNL A   1      34.487  25.065  23.883  1.00  0.00    -0.221 NA
ATOM     11  N   UNL A   1      33.296  23.213  24.251  1.00  0.00    -0.304 N 
ATOM     12  C   UNL A   1      33.464  25.363  24.727  1.00  0.00     0.110 A 
ATOM     13  C   UNL A   1      32.730  24.223  25.021  1.00  0.00     0.160 A 
ATOM     14  C   UNL A   1      33.121  26.572  25.339  1.00  0.00     0.049 A 
ATOM     15  N   UNL A   1      31.710  24.127  25.902  1.00  0.00    -0.235 NA
ATOM     16  C   UNL A   1      32.108  26.518  26.292  1.00  0.00     0.038 A 
ATOM     17  C   UNL A   1      31.467  25.306  26.541  1.00  0.00     0.129 A 
ATOM     18  Br  UNL A   1      31.643  28.072  27.259  1.00  0.00    -0.049 Br
BRANCH  11  19
ATOM     19  C   UNL A   1      32.765  21.867  24.240  1.00  0.00     0.127 C 
BRANCH  19  20
ATOM     20  C   UNL A   1      33.406  20.801  25.141  1.00  0.00     0.025 C 
BRANCH  20  21
ATOM     21  C   UNL A   1      33.100  19.324  25.114  1.00  0.00    -0.009 C 
ATOM     22  C   UNL A   1      32.548  18.469  24.008  1.00  0.00     0.004 C 
ATOM     23  C   UNL A   1      33.998  18.351  24.380  1.00  0.00     0.004 C 
ENDBRANCH  20  21
ENDBRANCH  19  20
ENDBRANCH  11  19
ENDBRANCH   8   9
ENDBRANCH   7   8
ENDBRANCH   5   7
ENDBRANCH   2   3
ENDBRANCH   1   2
BRANCH   1  24
ATOM     24  C   UNL A   1      40.930  23.416  27.835  1.00  0.00     0.002 C 
BRANCH  24  25
ATOM     25  C   UNL A   1      40.786  21.894  27.669  1.00  0.00     0.002 C 
BRANCH  25  26
ATOM     26  C   UNL A   1      41.915  21.156  26.944  1.00  0.00     0.021 C 
BRANCH  26  27
ATOM     27  C   UNL A   1      43.273  21.815  27.083  1.00  0.00     0.116 C 
BRANCH  27  28
ATOM     28  N   UNL A   1      43.960  21.970  25.805  1.00  0.00    -0.352 N 
ATOM     29  C   UNL A   1      44.044  23.122  25.041  1.00  0.00     0.251 C 
ATOM     30  H   UNL A   1      44.411  21.172  25.448  1.00  0.00     0.163 HD
ATOM     31  O   UNL A   1      44.256  23.067  23.842  1.00  0.00    -0.269 OA
BRANCH  29  32
ATOM     32  C   UNL A   1      43.883  24.418  25.729  1.00  0.00     0.039 A 
ATOM     33  C   UNL A   1      43.059  25.424  25.224  1.00  0.00     0.014 A 
ATOM     34  C   UNL A   1      44.562  24.589  26.934  1.00  0.00     0.014 A 
ATOM     35  C   UNL A   1      42.881  26.579  25.983  1.00  0.00     0.010 A 
ATOM     36  C   UNL A   1      44.239  25.633  27.759  1.00  0.00     0.010 A 
ATOM     37  C   UNL A   1      43.463  26.667  27.261  1.00  0.00    -0.014 A 
BRANCH  37  38
ATOM     38  C   UNL A   1      43.183  27.788  28.149  1.00  0.00     0.031 A 
ATOM     39  C   UNL A   1      44.130  28.917  27.989  1.00  0.00     0.074 A 
ATOM     40  C   UNL A   1      42.068  27.883  28.909  1.00  0.00     0.049 A 
ATOM     41  N   UNL A   1      45.139  29.190  28.745  1.00  0.00    -0.248 NA
ATOM     42  C   UNL A   1      44.083  29.714  26.751  1.00  0.00     0.031 C 
ATOM     43  C   UNL A   1      40.903  26.984  28.933  1.00  0.00     0.029 A 
ATOM     44  N   UNL A   1      41.696  28.866  29.773  1.00  0.00    -0.354 N 
ATOM     45  C   UNL A   1      45.682  30.362  28.235  1.00  0.00     0.074 A 
ATOM     46  C   UNL A   1      45.151  30.503  26.904  1.00  0.00     0.031 C 
ATOM     47  C   UNL A   1      39.876  27.580  29.581  1.00  0.00     0.029 A 
ATOM     48  C   UNL A   1      40.366  28.804  30.186  1.00  0.00     0.049 A 
ATOM     49  H   UNL A   1      42.315  29.566  30.082  1.00  0.00     0.167 HD
ATOM     50  C   UNL A   1      46.259  31.274  29.068  1.00  0.00     0.031 A 
ATOM     51  C   UNL A   1      39.726  29.680  30.999  1.00  0.00     0.031 A 
ATOM     52  C   UNL A   1      46.405  30.733  30.397  1.00  0.00     0.049 A 
ATOM     53  C   UNL A   1      40.776  30.336  31.811  1.00  0.00     0.074 A 
ATOM     54  C   UNL A   1      47.202  29.796  31.014  1.00  0.00     0.029 A 
ATOM     55  N   UNL A   1      45.292  30.911  31.181  1.00  0.00    -0.354 N 
ATOM     56  N   UNL A   1      41.523  29.687  32.661  1.00  0.00    -0.248 NA
ATOM     57  C   UNL A   1      41.272  31.645  31.413  1.00  0.00     0.031 C 
ATOM     58  C   UNL A   1      46.410  29.247  32.068  1.00  0.00     0.029 A 
ATOM     59  C   UNL A   1      45.179  29.906  32.104  1.00  0.00     0.049 A 
ATOM     60  H   UNL A   1      44.660  31.660  31.092  1.00  0.00     0.167 HD
ATOM     61  C   UNL A   1      42.762  30.292  32.560  1.00  0.00     0.074 A 
ATOM     62  C   UNL A   1      42.506  31.579  31.922  1.00  0.00     0.031 C 
ATOM     63  C   UNL A   1      43.911  29.572  32.722  1.00  0.00     0.031 A 
BRANCH  50  64
ATOM     64  C   UNL A   1      46.206  32.771  28.853  1.00  0.00    -0.014 A 
ATOM     65  C   UNL A   1      44.974  33.434  29.030  1.00  0.00     0.010 A 
ATOM     66  C   UNL A   1      47.233  33.495  28.214  1.00  0.00     0.010 A 
ATOM     67  C   UNL A   1      44.772  34.738  28.557  1.00  0.00     0.020 A 
ATOM     68  C   UNL A   1      47.053  34.808  27.769  1.00  0.00     0.020 A 
ATOM     69  C   UNL A   1      45.814  35.414  27.924  1.00  0.00     0.054 A 
BRANCH  69  70
ATOM     70  S   UNL A   1      45.524  37.072  27.258  1.00  0.00     0.124 S 
ATOM     71  O   UNL A   1      45.857  37.920  28.398  1.00  0.00    -0.237 OA
ATOM     72  O   UNL A   1      46.458  37.119  26.137  1.00  0.00    -0.237 OA
ATOM     73  O   UNL A   1      44.112  37.048  26.885  1.00  0.00    -0.744 OA
ENDBRANCH  69  70
ENDBRANCH  50  64
BRANCH  51  74
ATOM     74  C   UNL A   1      38.342  30.210  30.919  1.00  0.00    -0.014 A 
ATOM     75  C   UNL A   1      37.500  30.199  32.051  1.00  0.00     0.010 A 
ATOM     76  C   UNL A   1      37.967  31.027  29.834  1.00  0.00     0.010 A 
ATOM     77  C   UNL A   1      36.379  31.046  32.132  1.00  0.00     0.020 A 
ATOM     78  C   UNL A   1      36.848  31.871  29.907  1.00  0.00     0.020 A 
ATOM     79  C   UNL A   1      36.078  31.899  31.068  1.00  0.00     0.054 A 
BRANCH  79  80
ATOM     80  S   UNL A   1      34.753  33.132  31.263  1.00  0.00     0.124 S 
ATOM     81  O   UNL A   1      34.077  33.073  29.971  1.00  0.00    -0.237 OA
ATOM     82  O   UNL A   1      33.996  32.607  32.396  1.00  0.00    -0.237 OA
ATOM     83  O   UNL A   1      35.476  34.375  31.528  1.00  0.00    -0.744 OA
ENDBRANCH  79  80
ENDBRANCH  51  74
BRANCH  63  84
ATOM     84  C   UNL A   1      43.828  28.274  33.485  1.00  0.00    -0.014 A 
ATOM     85  C   UNL A   1      43.624  27.008  32.902  1.00  0.00     0.010 A 
ATOM     86  C   UNL A   1      44.062  28.346  34.869  1.00  0.00     0.010 A 
ATOM     87  C   UNL A   1      43.636  25.848  33.695  1.00  0.00     0.020 A 
ATOM     88  C   UNL A   1      44.093  27.197  35.659  1.00  0.00     0.020 A 
ATOM     89  C   UNL A   1      43.871  25.953  35.071  1.00  0.00     0.054 A 
BRANCH  89  90
ATOM     90  S   UNL A   1      43.910  24.454  36.094  1.00  0.00     0.124 S 
ATOM     91  O   UNL A   1      43.840  24.991  37.450  1.00  0.00    -0.237 OA
ATOM     92  O   UNL A   1      42.726  23.724  35.644  1.00  0.00    -0.237 OA
ATOM     93  O   UNL A   1      45.184  23.826  35.744  1.00  0.00    -0.744 OA
ENDBRANCH  89  90
ENDBRANCH  63  84
ENDBRANCH  37  38
ENDBRANCH  29  32
ENDBRANCH  27  28
ENDBRANCH  26  27
ENDBRANCH  25  26
ENDBRANCH  24  25
ENDBRANCH   1  24
TORSDOF 21
ENDMDL
MODEL 3
REMARK VINA RESULT:      -9.8      2.182      3.606
REMARK SMILES O=C(CSc1nc2cc(Br)cnc2n1CCC1CC1)NCCCCCCNC(=O)c1ccc(-c2c3nc(c(-c4ccc(S(=O)(=O)[O-])cc4)c4ccc([nH]4)c(-c4ccc(S(=O)(=O)[O-])cc4)c4nc(c(-c5ccc(S(=O)(=O)[O-])cc5)c5ccc2[nH]5)C=C4)C=C3)cc1
REMARK SMILES IDX 22 1 21 2 20 3 1 4 2 5 3 7 4 8 5 9 6 10 14 11 7 12 13 13
REMARK SMILES IDX 8 14 12 15 9 16 11 17 10 18 15 19 16 20 17 21 18 22 19 23
REMARK SMILES IDX 23 24 24 25 25 26 26 27 27 28 28 29 29 31 30 32 31 33 89 34
REMARK SMILES IDX 32 35 88 36 33 37 34 38 35 39 82 40 36 41 87 42 81 43 83 44
REMARK SMILES IDX 37 45 86 46 80 47 79 48 38 50 68 51 49 52 67 53 50 54 53 55
REMARK SMILES IDX 66 56 84 57 51 58 52 59 65 61 85 62 54 63 39 64 40 65 48 66
REMARK SMILES IDX 41 67 47 68 42 69 43 70 44 71 45 72 46 73 69 74 70 75 78 76
REMARK SMILES IDX 71 77 77 78 72 79 73 80 74 81 75 82 76 83 55 84 56 85 64 86
REMARK SMILES IDX 57 87 63 88 58 89 59 90 60 91 61 92 62 93
REMARK H PARENT 20 6 27 30 83 49 53 60
REMARK Flexibility Score: inf
ROOT
ATOM      1  C   UNL A   1      35.668  32.425  27.890  1.00  0.00     0.021 C 
ENDROOT
BRANCH   1   2
ATOM      2  C   UNL A   1      34.265  31.890  28.179  1.00  0.00     0.116 C 
BRANCH   2   3
ATOM      3  N   UNL A   1      34.151  30.531  27.728  1.00  0.00    -0.355 N 
ATOM      4  O   UNL A   1      32.126  30.672  26.654  1.00  0.00    -0.274 OA
ATOM      5  C   UNL A   1      33.039  30.007  27.129  1.00  0.00     0.230 C 
ATOM      6  H   UNL A   1      34.926  29.938  27.859  1.00  0.00     0.163 HD
BRANCH   5   7
ATOM      7  C   UNL A   1      32.969  28.506  27.253  1.00  0.00     0.178 C 
BRANCH   7   8
ATOM      8  S   UNL A   1      31.294  27.868  27.336  1.00  0.00    -0.078 SA
BRANCH   8   9
ATOM      9  C   UNL A   1      31.124  26.504  26.280  1.00  0.00     0.170 A 
ATOM     10  N   UNL A   1      31.369  25.314  26.799  1.00  0.00    -0.221 NA
ATOM     11  N   UNL A   1      30.785  26.411  24.944  1.00  0.00    -0.304 N 
ATOM     12  C   UNL A   1      31.452  24.463  25.742  1.00  0.00     0.110 A 
ATOM     13  C   UNL A   1      31.146  25.123  24.562  1.00  0.00     0.160 A 
ATOM     14  C   UNL A   1      31.839  23.120  25.692  1.00  0.00     0.049 A 
ATOM     15  N   UNL A   1      31.225  24.617  23.311  1.00  0.00    -0.235 NA
ATOM     16  C   UNL A   1      31.984  22.565  24.424  1.00  0.00     0.038 A 
ATOM     17  C   UNL A   1      31.691  23.336  23.302  1.00  0.00     0.129 A 
ATOM     18  Br  UNL A   1      32.611  20.792  24.241  1.00  0.00    -0.049 Br
BRANCH  11  19
ATOM     19  C   UNL A   1      30.339  27.399  23.986  1.00  0.00     0.127 C 
BRANCH  19  20
ATOM     20  C   UNL A   1      31.159  28.685  23.799  1.00  0.00     0.025 C 
BRANCH  20  21
ATOM     21  C   UNL A   1      32.589  28.758  23.324  1.00  0.00    -0.009 C 
ATOM     22  C   UNL A   1      33.806  28.013  23.796  1.00  0.00     0.004 C 
ATOM     23  C   UNL A   1      33.189  27.658  22.474  1.00  0.00     0.004 C 
ENDBRANCH  20  21
ENDBRANCH  19  20
ENDBRANCH  11  19
ENDBRANCH   8   9
ENDBRANCH   7   8
ENDBRANCH   5   7
ENDBRANCH   2   3
ENDBRANCH   1   2
BRANCH   1  24
ATOM     24  C   UNL A   1      36.419  33.028  29.091  1.00  0.00     0.002 C 
BRANCH  24  25
ATOM     25  C   UNL A   1      36.373  32.263  30.424  1.00  0.00     0.002 C 
BRANCH  25  26
ATOM     26  C   UNL A   1      35.860  33.021  31.652  1.00  0.00     0.021 C 
BRANCH  26  27
ATOM     27  C   UNL A   1      36.914  33.865  32.342  1.00  0.00     0.116 C 
BRANCH  27  28
ATOM     28  N   UNL A   1      37.009  33.592  33.773  1.00  0.00    -0.352 N 
ATOM     29  C   UNL A   1      37.559  32.470  34.370  1.00  0.00     0.251 C 
ATOM     30  H   UNL A   1      36.644  34.278  34.376  1.00  0.00     0.163 HD
ATOM     31  O   UNL A   1      37.232  32.133  35.495  1.00  0.00    -0.269 OA
BRANCH  29  32
ATOM     32  C   UNL A   1      38.564  31.706  33.606  1.00  0.00     0.039 A 
ATOM     33  C   UNL A   1      39.815  32.239  33.293  1.00  0.00     0.014 A 
ATOM     34  C   UNL A   1      38.230  30.405  33.235  1.00  0.00     0.014 A 
ATOM     35  C   UNL A   1      40.745  31.419  32.658  1.00  0.00     0.010 A 
ATOM     36  C   UNL A   1      39.200  29.551  32.785  1.00  0.00     0.010 A 
ATOM     37  C   UNL A   1      40.434  30.067  32.422  1.00  0.00    -0.014 A 
BRANCH  37  38
ATOM     38  C   UNL A   1      41.426  29.138  31.897  1.00  0.00     0.031 A 
ATOM     39  C   UNL A   1      42.402  28.681  32.913  1.00  0.00     0.074 A 
ATOM     40  C   UNL A   1      41.362  28.594  30.660  1.00  0.00     0.049 A 
ATOM     41  N   UNL A   1      43.603  29.121  33.082  1.00  0.00    -0.248 NA
ATOM     42  C   UNL A   1      41.941  27.786  33.989  1.00  0.00     0.031 C 
ATOM     43  C   UNL A   1      40.288  28.722  29.663  1.00  0.00     0.029 A 
ATOM     44  N   UNL A   1      42.219  27.727  30.056  1.00  0.00    -0.354 N 
ATOM     45  C   UNL A   1      44.142  28.352  34.106  1.00  0.00     0.074 A 
ATOM     46  C   UNL A   1      43.026  27.727  34.767  1.00  0.00     0.031 C 
ATOM     47  C   UNL A   1      40.445  27.790  28.695  1.00  0.00     0.029 A 
ATOM     48  C   UNL A   1      41.726  27.139  28.892  1.00  0.00     0.049 A 
ATOM     49  H   UNL A   1      43.115  27.529  30.412  1.00  0.00     0.167 HD
ATOM     50  C   UNL A   1      45.470  28.044  34.111  1.00  0.00     0.031 A 
ATOM     51  C   UNL A   1      42.348  26.209  28.125  1.00  0.00     0.031 A 
ATOM     52  C   UNL A   1      46.173  28.796  33.101  1.00  0.00     0.049 A 
ATOM     53  C   UNL A   1      43.798  26.363  28.381  1.00  0.00     0.074 A 
ATOM     54  C   UNL A   1      46.566  30.102  32.916  1.00  0.00     0.029 A 
ATOM     55  N   UNL A   1      46.168  28.187  31.869  1.00  0.00    -0.354 N 
ATOM     56  N   UNL A   1      44.461  27.443  28.072  1.00  0.00    -0.248 NA
ATOM     57  C   UNL A   1      44.453  25.474  29.329  1.00  0.00     0.031 C 
ATOM     58  C   UNL A   1      46.561  30.312  31.503  1.00  0.00     0.029 A 
ATOM     59  C   UNL A   1      46.227  29.117  30.865  1.00  0.00     0.049 A 
ATOM     60  H   UNL A   1      46.127  27.214  31.728  1.00  0.00     0.167 HD
ATOM     61  C   UNL A   1      45.380  27.585  29.094  1.00  0.00     0.074 A 
ATOM     62  C   UNL A   1      45.446  26.274  29.731  1.00  0.00     0.031 C 
ATOM     63  C   UNL A   1      45.771  28.821  29.521  1.00  0.00     0.031 A 
BRANCH  50  64
ATOM     64  C   UNL A   1      46.036  26.739  34.627  1.00  0.00    -0.014 A 
ATOM     65  C   UNL A   1      45.833  25.569  33.865  1.00  0.00     0.010 A 
ATOM     66  C   UNL A   1      46.500  26.567  35.947  1.00  0.00     0.010 A 
ATOM     67  C   UNL A   1      46.046  24.296  34.412  1.00  0.00     0.020 A 
ATOM     68  C   UNL A   1      46.749  25.304  36.490  1.00  0.00     0.020 A 
ATOM     69  C   UNL A   1      46.498  24.173  35.725  1.00  0.00     0.054 A 
BRANCH  69  70
ATOM     70  S   UNL A   1      46.708  22.525  36.443  1.00  0.00     0.124 S 
ATOM     71  O   UNL A   1      47.686  21.924  35.542  1.00  0.00    -0.237 OA
ATOM     72  O   UNL A   1      47.188  22.836  37.786  1.00  0.00    -0.237 OA
ATOM     73  O   UNL A   1      45.365  21.953  36.383  1.00  0.00    -0.744 OA
ENDBRANCH  69  70
ENDBRANCH  50  64
BRANCH  51  74
ATOM     74  C   UNL A   1      41.787  25.018  27.439  1.00  0.00    -0.014 A 
ATOM     75  C   UNL A   1      42.546  24.317  26.479  1.00  0.00     0.010 A 
ATOM     76  C   UNL A   1      40.650  24.377  27.967  1.00  0.00     0.010 A 
ATOM     77  C   UNL A   1      42.233  22.990  26.132  1.00  0.00     0.020 A 
ATOM     78  C   UNL A   1      40.330  23.054  27.624  1.00  0.00     0.020 A 
ATOM     79  C   UNL A   1      41.142  22.357  26.731  1.00  0.00     0.054 A 
BRANCH  79  80
ATOM     80  S   UNL A   1      40.868  20.582  26.432  1.00  0.00     0.124 S 
ATOM     81  O   UNL A   1      42.020  20.221  25.613  1.00  0.00    -0.237 OA
ATOM     82  O   UNL A   1      40.857  20.031  27.784  1.00  0.00    -0.237 OA
ATOM     83  O   UNL A   1      39.580  20.545  25.741  1.00  0.00    -0.744 OA
ENDBRANCH  79  80
ENDBRANCH  51  74
BRANCH  63  84
ATOM     84  C   UNL A   1      45.595  29.982  28.575  1.00  0.00    -0.014 A 
ATOM     85  C   UNL A   1      46.496  30.328  27.549  1.00  0.00     0.010 A 
ATOM     86  C   UNL A   1      44.394  30.704  28.686  1.00  0.00     0.010 A 
ATOM     87  C   UNL A   1      46.203  31.387  26.671  1.00  0.00     0.020 A 
ATOM     88  C   UNL A   1      44.090  31.743  27.808  1.00  0.00     0.020 A 
ATOM     89  C   UNL A   1      44.999  32.087  26.809  1.00  0.00     0.054 A 
BRANCH  89  90
ATOM     90  S   UNL A   1      44.608  33.439  25.662  1.00  0.00     0.124 S 
ATOM     91  O   UNL A   1      43.857  32.758  24.611  1.00  0.00    -0.237 OA
ATOM     92  O   UNL A   1      43.835  34.357  26.496  1.00  0.00    -0.237 OA
ATOM     93  O   UNL A   1      45.921  33.941  25.255  1.00  0.00    -0.744 OA
ENDBRANCH  89  90
ENDBRANCH  63  84
ENDBRANCH  37  38
ENDBRANCH  29  32
ENDBRANCH  27  28
ENDBRANCH  26  27
ENDBRANCH  25  26
ENDBRANCH  24  25
ENDBRANCH   1  24
TORSDOF 21
ENDMDL
