MODEL 1
REMARK VINA RESULT:      -8.1      0.000      0.000
REMARK SMILES COCC[C@]1(C(=O)NCCCCCCNC(=O)c2ccc(-c3c4nc(c(-c5ccc(S(=O)(=O)[O-])cc5)c5ccc([nH]5)c(-c5ccc(S(=O)(=O)[O-])cc5)c5nc(c(-c6ccc(S(=O)(=O)[O-])cc6)c6ccc3[nH]6)C=C5)C=C4)cc2)CCC[N@@H+](Cc2ccc(C(F)(F)F)nc2)C1
REMARK SMILES IDX 11 1 10 2 9 3 8 4 6 5 7 6 5 8 78 9 93 10 79 11 81 12 80 13
REMARK SMILES IDX 4 15 3 16 2 17 1 18 82 19 83 20 84 21 92 22 85 23 91 24
REMARK SMILES IDX 86 25 87 26 88 27 89 28 90 29 12 30 13 31 14 32 15 33 16 34
REMARK SMILES IDX 17 36 18 37 19 38 77 39 20 40 76 41 21 42 22 43 23 44 70 45
REMARK SMILES IDX 24 46 75 47 69 48 71 49 25 50 74 51 68 52 67 53 26 55 56 56
REMARK SMILES IDX 37 57 55 58 38 59 41 60 54 61 72 62 39 63 40 64 53 66 73 67
REMARK SMILES IDX 42 68 27 69 28 70 36 71 29 72 35 73 30 74 31 75 32 76 33 77
REMARK SMILES IDX 34 78 57 79 58 80 66 81 59 82 65 83 60 84 61 85 62 86 63 87
REMARK SMILES IDX 64 88 43 89 44 90 52 91 45 92 51 93 46 94 47 95 48 96 49 97
REMARK SMILES IDX 50 98
REMARK H PARENT 8 7 81 14 15 35 71 54 41 65
REMARK Flexibility Score: inf
ROOT
ATOM      1  C   UNL A   1      39.201  29.708  27.967  1.00  0.00     0.002 C 
ENDROOT
BRANCH   1   2
ATOM      2  C   UNL A   1      40.107  28.721  27.226  1.00  0.00     0.021 C 
BRANCH   2   3
ATOM      3  C   UNL A   1      39.698  27.264  27.422  1.00  0.00     0.116 C 
BRANCH   3   4
ATOM      4  N   UNL A   1      40.645  26.576  28.286  1.00  0.00    -0.355 N 
ATOM      5  C   UNL A   1      41.344  25.416  28.137  1.00  0.00     0.232 C 
ATOM      6  O   UNL A   1      42.043  25.080  29.098  1.00  0.00    -0.274 OA
ATOM      7  H   UNL A   1      40.815  27.037  29.139  1.00  0.00     0.163 HD
BRANCH   5   8
ATOM      8  C   UNL A   1      41.313  24.590  26.829  1.00  0.00     0.100 C 
ATOM      9  C   UNL A   1      42.495  23.603  26.744  1.00  0.00     0.029 C 
ATOM     10  C   UNL A   1      39.942  23.846  26.814  1.00  0.00     0.279 C 
ATOM     11  C   UNL A   1      42.281  22.567  25.648  1.00  0.00     0.063 C 
ATOM     12  N   UNL A   1      39.816  22.716  25.884  1.00  0.00    -0.330 N 
ATOM     13  C   UNL A   1      40.975  21.817  25.881  1.00  0.00     0.262 C 
ATOM     14  H   UNL A   1      39.799  23.133  24.953  1.00  0.00     0.348 HD
BRANCH   8  15
ATOM     15  C   UNL A   1      41.350  25.564  25.599  1.00  0.00     0.051 C 
BRANCH  15  16
ATOM     16  C   UNL A   1      42.740  26.092  25.205  1.00  0.00     0.161 C 
BRANCH  16  17
ATOM     17  O   UNL A   1      42.769  27.521  25.160  1.00  0.00    -0.385 OA
ATOM     18  C   UNL A   1      43.560  28.125  26.173  1.00  0.00     0.194 C 
ENDBRANCH  16  17
ENDBRANCH  15  16
ENDBRANCH   8  15
BRANCH  12  19
ATOM     19  C   UNL A   1      38.535  21.988  26.056  1.00  0.00     0.300 C 
BRANCH  19  20
ATOM     20  C   UNL A   1      37.313  22.630  25.431  1.00  0.00     0.025 A 
ATOM     21  C   UNL A   1      36.988  22.487  24.080  1.00  0.00     0.013 A 
ATOM     22  C   UNL A   1      36.486  23.452  26.189  1.00  0.00     0.121 A 
ATOM     23  C   UNL A   1      35.927  23.211  23.535  1.00  0.00     0.034 A 
ATOM     24  N   UNL A   1      35.448  24.160  25.690  1.00  0.00    -0.251 NA
ATOM     25  C   UNL A   1      35.182  24.057  24.358  1.00  0.00     0.144 A 
BRANCH  25  26
ATOM     26  C   UNL A   1      34.045  24.879  23.759  1.00  0.00     0.433 C 
ATOM     27  F   UNL A   1      34.038  24.863  22.398  1.00  0.00    -0.165 F 
ATOM     28  F   UNL A   1      32.809  24.472  24.162  1.00  0.00    -0.165 F 
ATOM     29  F   UNL A   1      34.119  26.201  24.110  1.00  0.00    -0.165 F 
ENDBRANCH  25  26
ENDBRANCH  19  20
ENDBRANCH  12  19
ENDBRANCH   5   8
ENDBRANCH   3   4
ENDBRANCH   2   3
ENDBRANCH   1   2
BRANCH   1  30
ATOM     30  C   UNL A   1      37.798  29.174  28.282  1.00  0.00     0.002 C 
BRANCH  30  31
ATOM     31  C   UNL A   1      36.647  29.986  27.681  1.00  0.00     0.021 C 
BRANCH  31  32
ATOM     32  C   UNL A   1      35.310  29.793  28.389  1.00  0.00     0.116 C 
BRANCH  32  33
ATOM     33  N   UNL A   1      34.742  31.063  28.813  1.00  0.00    -0.352 N 
ATOM     34  C   UNL A   1      35.066  31.829  29.900  1.00  0.00     0.251 C 
ATOM     35  H   UNL A   1      34.025  31.420  28.240  1.00  0.00     0.163 HD
ATOM     36  O   UNL A   1      34.327  32.754  30.243  1.00  0.00    -0.269 OA
BRANCH  34  37
ATOM     37  C   UNL A   1      36.299  31.542  30.660  1.00  0.00     0.039 A 
ATOM     38  C   UNL A   1      37.438  32.316  30.430  1.00  0.00     0.014 A 
ATOM     39  C   UNL A   1      36.332  30.497  31.589  1.00  0.00     0.014 A 
ATOM     40  C   UNL A   1      38.600  32.067  31.162  1.00  0.00     0.010 A 
ATOM     41  C   UNL A   1      37.467  30.300  32.369  1.00  0.00     0.010 A 
ATOM     42  C   UNL A   1      38.618  31.070  32.152  1.00  0.00    -0.014 A 
BRANCH  42  43
ATOM     43  C   UNL A   1      39.840  30.795  32.947  1.00  0.00     0.031 A 
ATOM     44  C   UNL A   1      40.022  31.451  34.291  1.00  0.00     0.074 A 
ATOM     45  C   UNL A   1      40.802  29.997  32.443  1.00  0.00     0.049 A 
ATOM     46  N   UNL A   1      41.042  31.390  35.107  1.00  0.00    -0.248 NA
ATOM     47  C   UNL A   1      38.922  32.306  34.769  1.00  0.00     0.031 C 
ATOM     48  C   UNL A   1      40.756  29.327  31.142  1.00  0.00     0.029 A 
ATOM     49  N   UNL A   1      42.013  29.617  32.967  1.00  0.00    -0.354 N 
ATOM     50  C   UNL A   1      40.714  32.204  36.184  1.00  0.00     0.074 A 
ATOM     51  C   UNL A   1      39.426  32.794  35.892  1.00  0.00     0.031 C 
ATOM     52  C   UNL A   1      41.871  28.595  30.983  1.00  0.00     0.029 A 
ATOM     53  C   UNL A   1      42.730  28.778  32.147  1.00  0.00     0.049 A 
ATOM     54  H   UNL A   1      42.336  29.917  33.847  1.00  0.00     0.167 HD
ATOM     55  C   UNL A   1      41.409  32.424  37.326  1.00  0.00     0.031 A 
ATOM     56  C   UNL A   1      43.946  28.222  32.315  1.00  0.00     0.031 A 
ATOM     57  C   UNL A   1      42.685  31.826  37.617  1.00  0.00     0.049 A 
ATOM     58  C   UNL A   1      44.709  28.502  33.582  1.00  0.00     0.074 A 
ATOM     59  C   UNL A   1      43.456  31.958  38.758  1.00  0.00     0.029 A 
ATOM     60  N   UNL A   1      43.374  30.978  36.764  1.00  0.00    -0.354 N 
ATOM     61  N   UNL A   1      44.361  29.240  34.610  1.00  0.00    -0.248 NA
ATOM     62  C   UNL A   1      46.024  27.861  33.718  1.00  0.00     0.031 C 
ATOM     63  C   UNL A   1      44.633  31.226  38.577  1.00  0.00     0.029 A 
ATOM     64  C   UNL A   1      44.568  30.589  37.347  1.00  0.00     0.049 A 
ATOM     65  H   UNL A   1      43.061  30.695  35.874  1.00  0.00     0.167 HD
ATOM     66  C   UNL A   1      45.397  29.120  35.530  1.00  0.00     0.074 A 
ATOM     67  C   UNL A   1      46.378  28.230  34.942  1.00  0.00     0.031 C 
ATOM     68  C   UNL A   1      45.525  29.691  36.754  1.00  0.00     0.031 A 
BRANCH  55  69
ATOM     69  C   UNL A   1      40.798  33.346  38.348  1.00  0.00    -0.014 A 
ATOM     70  C   UNL A   1      41.009  34.736  38.288  1.00  0.00     0.010 A 
ATOM     71  C   UNL A   1      39.965  32.826  39.355  1.00  0.00     0.010 A 
ATOM     72  C   UNL A   1      40.431  35.583  39.236  1.00  0.00     0.020 A 
ATOM     73  C   UNL A   1      39.360  33.673  40.289  1.00  0.00     0.020 A 
ATOM     74  C   UNL A   1      39.609  35.045  40.231  1.00  0.00     0.054 A 
BRANCH  74  75
ATOM     75  S   UNL A   1      38.846  36.174  41.429  1.00  0.00     0.124 S 
ATOM     76  O   UNL A   1      37.621  35.460  41.777  1.00  0.00    -0.237 OA
ATOM     77  O   UNL A   1      39.852  36.246  42.485  1.00  0.00    -0.237 OA
ATOM     78  O   UNL A   1      38.654  37.407  40.671  1.00  0.00    -0.744 OA
ENDBRANCH  74  75
ENDBRANCH  55  69
BRANCH  56  79
ATOM     79  C   UNL A   1      44.515  27.329  31.267  1.00  0.00    -0.014 A 
ATOM     80  C   UNL A   1      45.131  27.873  30.126  1.00  0.00     0.010 A 
ATOM     81  C   UNL A   1      44.431  25.931  31.395  1.00  0.00     0.010 A 
ATOM     82  C   UNL A   1      45.619  27.037  29.116  1.00  0.00     0.020 A 
ATOM     83  C   UNL A   1      44.946  25.091  30.402  1.00  0.00     0.020 A 
ATOM     84  C   UNL A   1      45.520  25.651  29.259  1.00  0.00     0.054 A 
BRANCH  84  85
ATOM     85  S   UNL A   1      46.175  24.588  27.943  1.00  0.00     0.124 S 
ATOM     86  O   UNL A   1      45.565  23.301  28.262  1.00  0.00    -0.237 OA
ATOM     87  O   UNL A   1      45.681  25.241  26.734  1.00  0.00    -0.237 OA
ATOM     88  O   UNL A   1      47.622  24.659  28.134  1.00  0.00    -0.744 OA
ENDBRANCH  84  85
ENDBRANCH  56  79
BRANCH  68  89
ATOM     89  C   UNL A   1      46.739  29.327  37.566  1.00  0.00    -0.014 A 
ATOM     90  C   UNL A   1      47.920  30.088  37.505  1.00  0.00     0.010 A 
ATOM     91  C   UNL A   1      46.674  28.231  38.447  1.00  0.00     0.010 A 
ATOM     92  C   UNL A   1      49.025  29.737  38.285  1.00  0.00     0.020 A 
ATOM     93  C   UNL A   1      47.767  27.897  39.250  1.00  0.00     0.020 A 
ATOM     94  C   UNL A   1      48.942  28.644  39.153  1.00  0.00     0.054 A 
BRANCH  94  95
ATOM     95  S   UNL A   1      50.376  28.235  40.183  1.00  0.00     0.124 S 
ATOM     96  O   UNL A   1      50.856  27.003  39.563  1.00  0.00    -0.237 OA
ATOM     97  O   UNL A   1      51.238  29.402  40.011  1.00  0.00    -0.237 OA
ATOM     98  O   UNL A   1      49.809  28.081  41.522  1.00  0.00    -0.744 OA
ENDBRANCH  94  95
ENDBRANCH  68  89
ENDBRANCH  42  43
ENDBRANCH  34  37
ENDBRANCH  32  33
ENDBRANCH  31  32
ENDBRANCH  30  31
ENDBRANCH   1  30
TORSDOF 22
ENDMDL
MODEL 2
REMARK VINA RESULT:      -7.4      5.664     10.275
REMARK SMILES COCC[C@]1(C(=O)NCCCCCCNC(=O)c2ccc(-c3c4nc(c(-c5ccc(S(=O)(=O)[O-])cc5)c5ccc([nH]5)c(-c5ccc(S(=O)(=O)[O-])cc5)c5nc(c(-c6ccc(S(=O)(=O)[O-])cc6)c6ccc3[nH]6)C=C5)C=C4)cc2)CCC[N@@H+](Cc2ccc(C(F)(F)F)nc2)C1
REMARK SMILES IDX 11 1 10 2 9 3 8 4 6 5 7 6 5 8 78 9 93 10 79 11 81 12 80 13
REMARK SMILES IDX 4 15 3 16 2 17 1 18 82 19 83 20 84 21 92 22 85 23 91 24
REMARK SMILES IDX 86 25 87 26 88 27 89 28 90 29 12 30 13 31 14 32 15 33 16 34
REMARK SMILES IDX 17 36 18 37 19 38 77 39 20 40 76 41 21 42 22 43 23 44 70 45
REMARK SMILES IDX 24 46 75 47 69 48 71 49 25 50 74 51 68 52 67 53 26 55 56 56
REMARK SMILES IDX 37 57 55 58 38 59 41 60 54 61 72 62 39 63 40 64 53 66 73 67
REMARK SMILES IDX 42 68 27 69 28 70 36 71 29 72 35 73 30 74 31 75 32 76 33 77
REMARK SMILES IDX 34 78 57 79 58 80 66 81 59 82 65 83 60 84 61 85 62 86 63 87
REMARK SMILES IDX 64 88 43 89 44 90 52 91 45 92 51 93 46 94 47 95 48 96 49 97
REMARK SMILES IDX 50 98
REMARK H PARENT 8 7 81 14 15 35 71 54 41 65
REMARK Flexibility Score: inf
ROOT
ATOM      1  C   UNL A   1      40.353  34.159  32.364  1.00  0.00     0.002 C 
ENDROOT
BRANCH   1   2
ATOM      2  C   UNL A   1      39.327  34.614  33.405  1.00  0.00     0.021 C 
BRANCH   2   3
ATOM      3  C   UNL A   1      37.963  34.941  32.803  1.00  0.00     0.116 C 
BRANCH   3   4
ATOM      4  N   UNL A   1      36.984  33.928  33.168  1.00  0.00    -0.355 N 
ATOM      5  C   UNL A   1      36.103  33.198  32.428  1.00  0.00     0.232 C 
ATOM      6  O   UNL A   1      35.364  32.440  33.063  1.00  0.00    -0.274 OA
ATOM      7  H   UNL A   1      36.953  33.731  34.132  1.00  0.00     0.163 HD
BRANCH   5   8
ATOM      8  C   UNL A   1      36.061  33.266  30.882  1.00  0.00     0.100 C 
ATOM      9  C   UNL A   1      37.435  33.633  30.286  1.00  0.00     0.029 C 
ATOM     10  C   UNL A   1      35.579  31.865  30.397  1.00  0.00     0.279 C 
ATOM     11  C   UNL A   1      37.483  33.364  28.787  1.00  0.00     0.063 C 
ATOM     12  N   UNL A   1      35.810  31.543  28.982  1.00  0.00    -0.330 N 
ATOM     13  C   UNL A   1      37.148  31.905  28.502  1.00  0.00     0.262 C 
ATOM     14  H   UNL A   1      35.169  32.140  28.461  1.00  0.00     0.348 HD
BRANCH   8  15
ATOM     15  C   UNL A   1      34.994  34.328  30.438  1.00  0.00     0.051 C 
BRANCH  15  16
ATOM     16  C   UNL A   1      33.666  34.307  31.214  1.00  0.00     0.161 C 
BRANCH  16  17
ATOM     17  O   UNL A   1      32.751  35.290  30.723  1.00  0.00    -0.385 OA
ATOM     18  C   UNL A   1      32.939  36.590  31.263  1.00  0.00     0.194 C 
ENDBRANCH  16  17
ENDBRANCH  15  16
ENDBRANCH   8  15
BRANCH  12  19
ATOM     19  C   UNL A   1      35.455  30.139  28.661  1.00  0.00     0.300 C 
BRANCH  19  20
ATOM     20  C   UNL A   1      34.477  29.941  27.521  1.00  0.00     0.025 A 
ATOM     21  C   UNL A   1      33.576  30.928  27.116  1.00  0.00     0.013 A 
ATOM     22  C   UNL A   1      34.403  28.719  26.863  1.00  0.00     0.121 A 
ATOM     23  C   UNL A   1      32.610  30.640  26.150  1.00  0.00     0.034 A 
ATOM     24  N   UNL A   1      33.483  28.413  25.920  1.00  0.00    -0.251 NA
ATOM     25  C   UNL A   1      32.572  29.367  25.580  1.00  0.00     0.144 A 
BRANCH  25  26
ATOM     26  C   UNL A   1      31.495  29.036  24.551  1.00  0.00     0.433 C 
ATOM     27  F   UNL A   1      31.951  29.084  23.270  1.00  0.00    -0.165 F 
ATOM     28  F   UNL A   1      30.939  27.805  24.724  1.00  0.00    -0.165 F 
ATOM     29  F   UNL A   1      30.443  29.913  24.600  1.00  0.00    -0.165 F 
ENDBRANCH  25  26
ENDBRANCH  19  20
ENDBRANCH  12  19
ENDBRANCH   5   8
ENDBRANCH   3   4
ENDBRANCH   2   3
ENDBRANCH   1   2
BRANCH   1  30
ATOM     30  C   UNL A   1      40.569  32.642  32.300  1.00  0.00     0.002 C 
BRANCH  30  31
ATOM     31  C   UNL A   1      39.536  31.810  33.067  1.00  0.00     0.021 C 
BRANCH  31  32
ATOM     32  C   UNL A   1      38.690  30.898  32.184  1.00  0.00     0.116 C 
BRANCH  32  33
ATOM     33  N   UNL A   1      38.448  29.612  32.821  1.00  0.00    -0.352 N 
ATOM     34  C   UNL A   1      39.077  28.415  32.606  1.00  0.00     0.251 C 
ATOM     35  H   UNL A   1      37.734  29.602  33.499  1.00  0.00     0.163 HD
ATOM     36  O   UNL A   1      38.590  27.377  33.056  1.00  0.00    -0.269 OA
BRANCH  34  37
ATOM     37  C   UNL A   1      40.333  28.373  31.832  1.00  0.00     0.039 A 
ATOM     38  C   UNL A   1      41.484  27.856  32.428  1.00  0.00     0.014 A 
ATOM     39  C   UNL A   1      40.375  28.860  30.521  1.00  0.00     0.014 A 
ATOM     40  C   UNL A   1      42.670  27.791  31.695  1.00  0.00     0.010 A 
ATOM     41  C   UNL A   1      41.537  28.724  29.769  1.00  0.00     0.010 A 
ATOM     42  C   UNL A   1      42.702  28.205  30.353  1.00  0.00    -0.014 A 
BRANCH  42  43
ATOM     43  C   UNL A   1      43.950  28.136  29.553  1.00  0.00     0.031 A 
ATOM     44  C   UNL A   1      44.933  29.275  29.600  1.00  0.00     0.074 A 
ATOM     45  C   UNL A   1      44.175  27.075  28.752  1.00  0.00     0.049 A 
ATOM     46  N   UNL A   1      46.045  29.434  28.930  1.00  0.00    -0.248 NA
ATOM     47  C   UNL A   1      44.613  30.394  30.503  1.00  0.00     0.031 C 
ATOM     48  C   UNL A   1      43.284  25.923  28.598  1.00  0.00     0.029 A 
ATOM     49  N   UNL A   1      45.223  26.797  27.912  1.00  0.00    -0.354 N 
ATOM     50  C   UNL A   1      46.548  30.670  29.318  1.00  0.00     0.074 A 
ATOM     51  C   UNL A   1      45.593  31.246  30.239  1.00  0.00     0.031 C 
ATOM     52  C   UNL A   1      43.839  25.049  27.741  1.00  0.00     0.029 A 
ATOM     53  C   UNL A   1      45.099  25.597  27.252  1.00  0.00     0.049 A 
ATOM     54  H   UNL A   1      45.992  27.400  27.793  1.00  0.00     0.167 HD
ATOM     55  C   UNL A   1      47.712  31.263  28.961  1.00  0.00     0.031 A 
ATOM     56  C   UNL A   1      45.909  25.008  26.351  1.00  0.00     0.031 A 
ATOM     57  C   UNL A   1      48.665  30.682  28.054  1.00  0.00     0.049 A 
ATOM     58  C   UNL A   1      47.185  25.700  25.952  1.00  0.00     0.074 A 
ATOM     59  C   UNL A   1      49.889  31.186  27.653  1.00  0.00     0.029 A 
ATOM     60  N   UNL A   1      48.504  29.463  27.413  1.00  0.00    -0.354 N 
ATOM     61  N   UNL A   1      47.665  26.848  26.366  1.00  0.00    -0.248 NA
ATOM     62  C   UNL A   1      48.037  25.008  24.975  1.00  0.00     0.031 C 
ATOM     63  C   UNL A   1      50.449  30.294  26.733  1.00  0.00     0.029 A 
ATOM     64  C   UNL A   1      49.601  29.205  26.608  1.00  0.00     0.049 A 
ATOM     65  H   UNL A   1      47.726  28.870  27.514  1.00  0.00     0.167 HD
ATOM     66  C   UNL A   1      48.893  26.997  25.728  1.00  0.00     0.074 A 
ATOM     67  C   UNL A   1      49.086  25.816  24.912  1.00  0.00     0.031 C 
ATOM     68  C   UNL A   1      49.783  28.017  25.814  1.00  0.00     0.031 A 
BRANCH  55  69
ATOM     69  C   UNL A   1      48.021  32.611  29.561  1.00  0.00    -0.014 A 
ATOM     70  C   UNL A   1      47.948  33.783  28.786  1.00  0.00     0.010 A 
ATOM     71  C   UNL A   1      48.342  32.715  30.927  1.00  0.00     0.010 A 
ATOM     72  C   UNL A   1      48.228  35.027  29.353  1.00  0.00     0.020 A 
ATOM     73  C   UNL A   1      48.595  33.962  31.506  1.00  0.00     0.020 A 
ATOM     74  C   UNL A   1      48.550  35.109  30.711  1.00  0.00     0.054 A 
BRANCH  74  75
ATOM     75  S   UNL A   1      48.877  36.743  31.428  1.00  0.00     0.124 S 
ATOM     76  O   UNL A   1      49.936  37.246  30.558  1.00  0.00    -0.237 OA
ATOM     77  O   UNL A   1      47.587  37.413  31.298  1.00  0.00    -0.237 OA
ATOM     78  O   UNL A   1      49.287  36.446  32.798  1.00  0.00    -0.744 OA
ENDBRANCH  74  75
ENDBRANCH  55  69
BRANCH  56  79
ATOM     79  C   UNL A   1      45.552  23.681  25.773  1.00  0.00    -0.014 A 
ATOM     80  C   UNL A   1      45.921  22.495  26.432  1.00  0.00     0.010 A 
ATOM     81  C   UNL A   1      44.855  23.596  24.554  1.00  0.00     0.010 A 
ATOM     82  C   UNL A   1      45.634  21.249  25.865  1.00  0.00     0.020 A 
ATOM     83  C   UNL A   1      44.539  22.351  24.000  1.00  0.00     0.020 A 
ATOM     84  C   UNL A   1      44.948  21.185  24.651  1.00  0.00     0.054 A 
BRANCH  84  85
ATOM     85  S   UNL A   1      44.571  19.558  23.944  1.00  0.00     0.124 S 
ATOM     86  O   UNL A   1      45.739  18.777  24.341  1.00  0.00    -0.237 OA
ATOM     87  O   UNL A   1      43.319  19.207  24.609  1.00  0.00    -0.237 OA
ATOM     88  O   UNL A   1      44.454  19.825  22.512  1.00  0.00    -0.744 OA
ENDBRANCH  84  85
ENDBRANCH  56  79
BRANCH  68  89
ATOM     89  C   UNL A   1      51.073  27.878  25.051  1.00  0.00    -0.014 A 
ATOM     90  C   UNL A   1      52.230  27.349  25.651  1.00  0.00     0.010 A 
ATOM     91  C   UNL A   1      51.109  28.235  23.689  1.00  0.00     0.010 A 
ATOM     92  C   UNL A   1      53.408  27.215  24.912  1.00  0.00     0.020 A 
ATOM     93  C   UNL A   1      52.277  28.073  22.941  1.00  0.00     0.020 A 
ATOM     94  C   UNL A   1      53.425  27.578  23.562  1.00  0.00     0.054 A 
BRANCH  94  95
ATOM     95  S   UNL A   1      54.955  27.354  22.616  1.00  0.00     0.124 S 
ATOM     96  O   UNL A   1      54.464  26.756  21.377  1.00  0.00    -0.237 OA
ATOM     97  O   UNL A   1      55.460  28.720  22.497  1.00  0.00    -0.237 OA
ATOM     98  O   UNL A   1      55.759  26.472  23.459  1.00  0.00    -0.744 OA
ENDBRANCH  94  95
ENDBRANCH  68  89
ENDBRANCH  42  43
ENDBRANCH  34  37
ENDBRANCH  32  33
ENDBRANCH  31  32
ENDBRANCH  30  31
ENDBRANCH   1  30
TORSDOF 22
ENDMDL
MODEL 3
REMARK VINA RESULT:      -7.4      6.265     12.118
REMARK SMILES COCC[C@]1(C(=O)NCCCCCCNC(=O)c2ccc(-c3c4nc(c(-c5ccc(S(=O)(=O)[O-])cc5)c5ccc([nH]5)c(-c5ccc(S(=O)(=O)[O-])cc5)c5nc(c(-c6ccc(S(=O)(=O)[O-])cc6)c6ccc3[nH]6)C=C5)C=C4)cc2)CCC[N@@H+](Cc2ccc(C(F)(F)F)nc2)C1
REMARK SMILES IDX 11 1 10 2 9 3 8 4 6 5 7 6 5 8 78 9 93 10 79 11 81 12 80 13
REMARK SMILES IDX 4 15 3 16 2 17 1 18 82 19 83 20 84 21 92 22 85 23 91 24
REMARK SMILES IDX 86 25 87 26 88 27 89 28 90 29 12 30 13 31 14 32 15 33 16 34
REMARK SMILES IDX 17 36 18 37 19 38 77 39 20 40 76 41 21 42 22 43 23 44 70 45
REMARK SMILES IDX 24 46 75 47 69 48 71 49 25 50 74 51 68 52 67 53 26 55 56 56
REMARK SMILES IDX 37 57 55 58 38 59 41 60 54 61 72 62 39 63 40 64 53 66 73 67
REMARK SMILES IDX 42 68 27 69 28 70 36 71 29 72 35 73 30 74 31 75 32 76 33 77
REMARK SMILES IDX 34 78 57 79 58 80 66 81 59 82 65 83 60 84 61 85 62 86 63 87
REMARK SMILES IDX 64 88 43 89 44 90 52 91 45 92 51 93 46 94 47 95 48 96 49 97
REMARK SMILES IDX 50 98
REMARK H PARENT 8 7 81 14 15 35 71 54 41 65
REMARK Flexibility Score: inf
ROOT
ATOM      1  C   UNL A   1      42.592  23.092  28.052  1.00  0.00     0.002 C 
ENDROOT
BRANCH   1   2
ATOM      2  C   UNL A   1      42.912  24.170  29.091  1.00  0.00     0.021 C 
BRANCH   2   3
ATOM      3  C   UNL A   1      43.710  23.642  30.279  1.00  0.00     0.116 C 
BRANCH   3   4
ATOM      4  N   UNL A   1      44.860  24.493  30.544  1.00  0.00    -0.355 N 
ATOM      5  C   UNL A   1      45.388  24.985  31.700  1.00  0.00     0.232 C 
ATOM      6  O   UNL A   1      46.363  25.732  31.573  1.00  0.00    -0.274 OA
ATOM      7  H   UNL A   1      45.351  24.764  29.735  1.00  0.00     0.163 HD
BRANCH   5   8
ATOM      8  C   UNL A   1      44.842  24.594  33.094  1.00  0.00     0.100 C 
ATOM      9  C   UNL A   1      44.221  23.183  33.093  1.00  0.00     0.029 C 
ATOM     10  C   UNL A   1      46.048  24.690  34.078  1.00  0.00     0.279 C 
ATOM     11  C   UNL A   1      44.002  22.667  34.510  1.00  0.00     0.063 C 
ATOM     12  N   UNL A   1      45.896  24.016  35.375  1.00  0.00    -0.330 N 
ATOM     13  C   UNL A   1      45.317  22.672  35.281  1.00  0.00     0.262 C 
ATOM     14  H   UNL A   1      45.207  24.568  35.886  1.00  0.00     0.348 HD
BRANCH   8  15
ATOM     15  C   UNL A   1      43.765  25.643  33.543  1.00  0.00     0.051 C 
BRANCH  15  16
ATOM     16  C   UNL A   1      43.991  27.085  33.057  1.00  0.00     0.161 C 
BRANCH  16  17
ATOM     17  O   UNL A   1      43.033  27.465  32.066  1.00  0.00    -0.385 OA
ATOM     18  C   UNL A   1      42.526  28.783  32.213  1.00  0.00     0.194 C 
ENDBRANCH  16  17
ENDBRANCH  15  16
ENDBRANCH   8  15
BRANCH  12  19
ATOM     19  C   UNL A   1      47.148  24.039  36.170  1.00  0.00     0.300 C 
BRANCH  19  20
ATOM     20  C   UNL A   1      48.176  22.980  35.827  1.00  0.00     0.025 A 
ATOM     21  C   UNL A   1      48.494  21.925  36.685  1.00  0.00     0.013 A 
ATOM     22  C   UNL A   1      48.898  23.060  34.641  1.00  0.00     0.121 A 
ATOM     23  C   UNL A   1      49.543  21.060  36.372  1.00  0.00     0.034 A 
ATOM     24  N   UNL A   1      49.914  22.233  34.308  1.00  0.00    -0.251 NA
ATOM     25  C   UNL A   1      50.252  21.246  35.185  1.00  0.00     0.144 A 
BRANCH  25  26
ATOM     26  C   UNL A   1      51.424  20.326  34.857  1.00  0.00     0.433 C 
ATOM     27  F   UNL A   1      52.015  20.623  33.668  1.00  0.00    -0.165 F 
ATOM     28  F   UNL A   1      52.408  20.343  35.799  1.00  0.00    -0.165 F 
ATOM     29  F   UNL A   1      51.043  19.014  34.761  1.00  0.00    -0.165 F 
ENDBRANCH  25  26
ENDBRANCH  19  20
ENDBRANCH  12  19
ENDBRANCH   5   8
ENDBRANCH   3   4
ENDBRANCH   2   3
ENDBRANCH   1   2
BRANCH   1  30
ATOM     30  C   UNL A   1      41.678  21.969  28.556  1.00  0.00     0.002 C 
BRANCH  30  31
ATOM     31  C   UNL A   1      41.054  21.100  27.459  1.00  0.00     0.021 C 
BRANCH  31  32
ATOM     32  C   UNL A   1      40.852  21.822  26.131  1.00  0.00     0.116 C 
BRANCH  32  33
ATOM     33  N   UNL A   1      39.442  22.057  25.860  1.00  0.00    -0.352 N 
ATOM     34  C   UNL A   1      38.666  23.128  26.213  1.00  0.00     0.251 C 
ATOM     35  H   UNL A   1      38.983  21.348  25.355  1.00  0.00     0.163 HD
ATOM     36  O   UNL A   1      37.439  23.058  26.113  1.00  0.00    -0.269 OA
BRANCH  34  37
ATOM     37  C   UNL A   1      39.301  24.361  26.718  1.00  0.00     0.039 A 
ATOM     38  C   UNL A   1      39.155  24.702  28.064  1.00  0.00     0.014 A 
ATOM     39  C   UNL A   1      40.028  25.189  25.856  1.00  0.00     0.014 A 
ATOM     40  C   UNL A   1      39.771  25.853  28.555  1.00  0.00     0.010 A 
ATOM     41  C   UNL A   1      40.702  26.294  26.363  1.00  0.00     0.010 A 
ATOM     42  C   UNL A   1      40.568  26.648  27.713  1.00  0.00    -0.014 A 
BRANCH  42  43
ATOM     43  C   UNL A   1      41.240  27.872  28.217  1.00  0.00     0.031 A 
ATOM     44  C   UNL A   1      42.741  27.981  28.153  1.00  0.00     0.074 A 
ATOM     45  C   UNL A   1      40.509  28.859  28.771  1.00  0.00     0.049 A 
ATOM     46  N   UNL A   1      43.518  28.935  28.596  1.00  0.00    -0.248 NA
ATOM     47  C   UNL A   1      43.465  26.860  27.530  1.00  0.00     0.031 C 
ATOM     48  C   UNL A   1      39.051  28.857  28.917  1.00  0.00     0.029 A 
ATOM     49  N   UNL A   1      40.894  30.055  29.321  1.00  0.00    -0.354 N 
ATOM     50  C   UNL A   1      44.817  28.525  28.318  1.00  0.00     0.074 A 
ATOM     51  C   UNL A   1      44.727  27.211  27.720  1.00  0.00     0.031 C 
ATOM     52  C   UNL A   1      38.665  30.010  29.488  1.00  0.00     0.029 A 
ATOM     53  C   UNL A   1      39.846  30.812  29.789  1.00  0.00     0.049 A 
ATOM     54  H   UNL A   1      41.834  30.345  29.375  1.00  0.00     0.167 HD
ATOM     55  C   UNL A   1      45.979  29.191  28.519  1.00  0.00     0.031 A 
ATOM     56  C   UNL A   1      39.839  32.015  30.396  1.00  0.00     0.031 A 
ATOM     57  C   UNL A   1      46.062  30.502  29.104  1.00  0.00     0.049 A 
ATOM     58  C   UNL A   1      41.146  32.723  30.630  1.00  0.00     0.074 A 
ATOM     59  C   UNL A   1      47.188  31.278  29.320  1.00  0.00     0.029 A 
ATOM     60  N   UNL A   1      44.977  31.236  29.559  1.00  0.00    -0.354 N 
ATOM     61  N   UNL A   1      42.361  32.338  30.318  1.00  0.00    -0.248 NA
ATOM     62  C   UNL A   1      41.080  34.037  31.285  1.00  0.00     0.031 C 
ATOM     63  C   UNL A   1      46.789  32.462  29.948  1.00  0.00     0.029 A 
ATOM     64  C   UNL A   1      45.408  32.450  30.067  1.00  0.00     0.049 A 
ATOM     65  H   UNL A   1      44.040  30.938  29.525  1.00  0.00     0.167 HD
ATOM     66  C   UNL A   1      43.199  33.380  30.704  1.00  0.00     0.074 A 
ATOM     67  C   UNL A   1      42.351  34.414  31.261  1.00  0.00     0.031 C 
ATOM     68  C   UNL A   1      44.548  33.474  30.604  1.00  0.00     0.031 A 
BRANCH  55  69
ATOM     69  C   UNL A   1      47.255  28.511  28.095  1.00  0.00    -0.014 A 
ATOM     70  C   UNL A   1      47.976  27.700  28.991  1.00  0.00     0.010 A 
ATOM     71  C   UNL A   1      47.716  28.645  26.773  1.00  0.00     0.010 A 
ATOM     72  C   UNL A   1      49.152  27.067  28.586  1.00  0.00     0.020 A 
ATOM     73  C   UNL A   1      48.879  27.989  26.354  1.00  0.00     0.020 A 
ATOM     74  C   UNL A   1      49.597  27.216  27.268  1.00  0.00     0.054 A 
BRANCH  74  75
ATOM     75  S   UNL A   1      51.111  26.357  26.762  1.00  0.00     0.124 S 
ATOM     76  O   UNL A   1      52.123  27.024  27.576  1.00  0.00    -0.237 OA
ATOM     77  O   UNL A   1      50.829  24.971  27.124  1.00  0.00    -0.237 OA
ATOM     78  O   UNL A   1      51.196  26.618  25.328  1.00  0.00    -0.744 OA
ENDBRANCH  74  75
ENDBRANCH  55  69
BRANCH  56  79
ATOM     79  C   UNL A   1      38.551  32.639  30.812  1.00  0.00    -0.014 A 
ATOM     80  C   UNL A   1      37.786  33.375  29.889  1.00  0.00     0.010 A 
ATOM     81  C   UNL A   1      38.091  32.517  32.135  1.00  0.00     0.010 A 
ATOM     82  C   UNL A   1      36.605  34.007  30.291  1.00  0.00     0.020 A 
ATOM     83  C   UNL A   1      36.894  33.121  32.533  1.00  0.00     0.020 A 
ATOM     84  C   UNL A   1      36.168  33.879  31.612  1.00  0.00     0.054 A 
BRANCH  84  85
ATOM     85  S   UNL A   1      34.624  34.692  32.104  1.00  0.00     0.124 S 
ATOM     86  O   UNL A   1      34.111  35.169  30.824  1.00  0.00    -0.237 OA
ATOM     87  O   UNL A   1      33.873  33.600  32.720  1.00  0.00    -0.237 OA
ATOM     88  O   UNL A   1      35.065  35.734  33.029  1.00  0.00    -0.744 OA
ENDBRANCH  84  85
ENDBRANCH  56  79
BRANCH  68  89
ATOM     89  C   UNL A   1      45.189  34.760  31.051  1.00  0.00    -0.014 A 
ATOM     90  C   UNL A   1      45.612  34.950  32.379  1.00  0.00     0.010 A 
ATOM     91  C   UNL A   1      45.419  35.779  30.106  1.00  0.00     0.010 A 
ATOM     92  C   UNL A   1      46.220  36.148  32.761  1.00  0.00     0.020 A 
ATOM     93  C   UNL A   1      46.055  36.965  30.479  1.00  0.00     0.020 A 
ATOM     94  C   UNL A   1      46.439  37.149  31.808  1.00  0.00     0.054 A 
BRANCH  94  95
ATOM     95  S   UNL A   1      47.267  38.677  32.321  1.00  0.00     0.124 S 
ATOM     96  O   UNL A   1      47.642  39.266  31.038  1.00  0.00    -0.237 OA
ATOM     97  O   UNL A   1      46.217  39.380  33.054  1.00  0.00    -0.237 OA
ATOM     98  O   UNL A   1      48.383  38.209  33.142  1.00  0.00    -0.744 OA
ENDBRANCH  94  95
ENDBRANCH  68  89
ENDBRANCH  42  43
ENDBRANCH  34  37
ENDBRANCH  32  33
ENDBRANCH  31  32
ENDBRANCH  30  31
ENDBRANCH   1  30
TORSDOF 22
ENDMDL
