MODEL 1
REMARK VINA RESULT:     -11.3      0.000      0.000
REMARK SMILES O=C(NCCCCCCNC(=O)c1cc(/C=C/c2cc(O)cc(O)c2)ccc1O)c1ccc(-c2c3nc(c(-c4ccc(S(=O)(=O)[O-])cc4)c4ccc([nH]4)c(-c4ccc(S(=O)(=O)[O-])cc4)c4nc(c(-c5ccc(S(=O)(=O)[O-])cc5)c5ccc2[nH]5)C=C4)C=C3)cc1
REMARK SMILES IDX 6 1 5 2 4 3 3 4 1 5 2 6 30 8 31 9 89 10 32 11 88 12 33 13
REMARK SMILES IDX 34 14 35 15 82 16 36 17 87 18 81 19 83 20 37 21 86 22 80 23
REMARK SMILES IDX 79 24 38 26 68 27 49 28 67 29 50 30 53 31 66 32 84 33 51 34
REMARK SMILES IDX 52 35 65 37 85 38 54 39 39 40 40 41 48 42 41 43 47 44 42 45
REMARK SMILES IDX 43 46 44 47 45 48 46 49 69 50 70 51 78 52 71 53 77 54 72 55
REMARK SMILES IDX 73 56 74 57 75 58 76 59 55 60 56 61 64 62 57 63 63 64 58 65
REMARK SMILES IDX 59 66 60 67 61 68 62 69 7 70 8 71 9 72 10 73 11 74 12 76
REMARK SMILES IDX 13 77 14 78 28 79 15 80 27 81 26 82 29 83 16 85 17 86 18 87
REMARK SMILES IDX 19 88 25 89 20 90 23 91 22 92 21 93 24 95
REMARK H PARENT 3 7 83 25 53 36 10 75 29 84 21 94 24 96
REMARK Flexibility Score: inf
ROOT
ATOM      1  C   UNL A   1      34.273  24.426  25.864  1.00  0.00     0.002 C 
ENDROOT
BRANCH   1   2
ATOM      2  C   UNL A   1      35.495  23.549  26.134  1.00  0.00     0.021 C 
BRANCH   2   3
ATOM      3  C   UNL A   1      36.701  23.805  25.239  1.00  0.00     0.116 C 
BRANCH   3   4
ATOM      4  N   UNL A   1      37.776  22.846  25.434  1.00  0.00    -0.352 N 
ATOM      5  O   UNL A   1      39.821  22.114  26.045  1.00  0.00    -0.269 OA
ATOM      6  C   UNL A   1      38.981  23.009  26.078  1.00  0.00     0.251 C 
ATOM      7  H   UNL A   1      37.621  21.953  25.050  1.00  0.00     0.163 HD
BRANCH   6   8
ATOM      8  C   UNL A   1      39.278  24.280  26.779  1.00  0.00     0.039 A 
ATOM      9  C   UNL A   1      40.027  25.283  26.162  1.00  0.00     0.014 A 
ATOM     10  C   UNL A   1      38.811  24.461  28.085  1.00  0.00     0.014 A 
ATOM     11  C   UNL A   1      40.443  26.388  26.900  1.00  0.00     0.010 A 
ATOM     12  C   UNL A   1      39.160  25.613  28.798  1.00  0.00     0.010 A 
ATOM     13  C   UNL A   1      40.018  26.567  28.226  1.00  0.00    -0.014 A 
BRANCH  13  14
ATOM     14  C   UNL A   1      40.468  27.766  28.980  1.00  0.00     0.031 A 
ATOM     15  C   UNL A   1      41.873  27.870  29.517  1.00  0.00     0.074 A 
ATOM     16  C   UNL A   1      39.613  28.796  29.138  1.00  0.00     0.049 A 
ATOM     17  N   UNL A   1      42.446  28.876  30.128  1.00  0.00    -0.248 NA
ATOM     18  C   UNL A   1      42.744  26.694  29.356  1.00  0.00     0.031 C 
ATOM     19  C   UNL A   1      38.222  28.815  28.674  1.00  0.00     0.029 A 
ATOM     20  N   UNL A   1      39.791  30.034  29.700  1.00  0.00    -0.354 N 
ATOM     21  C   UNL A   1      43.730  28.449  30.448  1.00  0.00     0.074 A 
ATOM     22  C   UNL A   1      43.847  27.085  29.979  1.00  0.00     0.031 C 
ATOM     23  C   UNL A   1      37.695  30.025  28.914  1.00  0.00     0.029 A 
ATOM     24  C   UNL A   1      38.688  30.848  29.596  1.00  0.00     0.049 A 
ATOM     25  H   UNL A   1      40.628  30.313  30.137  1.00  0.00     0.167 HD
ATOM     26  C   UNL A   1      44.724  29.130  31.070  1.00  0.00     0.031 A 
ATOM     27  C   UNL A   1      38.493  32.118  29.999  1.00  0.00     0.031 A 
ATOM     28  C   UNL A   1      44.613  30.493  31.525  1.00  0.00     0.049 A 
ATOM     29  C   UNL A   1      39.611  32.852  30.679  1.00  0.00     0.074 A 
ATOM     30  C   UNL A   1      45.577  31.280  32.132  1.00  0.00     0.029 A 
ATOM     31  N   UNL A   1      43.470  31.272  31.425  1.00  0.00    -0.354 N 
ATOM     32  N   UNL A   1      40.829  32.439  30.938  1.00  0.00    -0.248 NA
ATOM     33  C   UNL A   1      39.329  34.226  31.115  1.00  0.00     0.031 C 
ATOM     34  C   UNL A   1      45.005  32.520  32.434  1.00  0.00     0.029 A 
ATOM     35  C   UNL A   1      43.699  32.523  31.974  1.00  0.00     0.049 A 
ATOM     36  H   UNL A   1      42.620  30.978  31.023  1.00  0.00     0.167 HD
ATOM     37  C   UNL A   1      41.464  33.511  31.553  1.00  0.00     0.074 A 
ATOM     38  C   UNL A   1      40.502  34.593  31.611  1.00  0.00     0.031 C 
ATOM     39  C   UNL A   1      42.731  33.588  32.029  1.00  0.00     0.031 A 
BRANCH  26  40
ATOM     40  C   UNL A   1      46.018  28.402  31.323  1.00  0.00    -0.014 A 
ATOM     41  C   UNL A   1      47.074  28.450  30.396  1.00  0.00     0.010 A 
ATOM     42  C   UNL A   1      46.193  27.692  32.524  1.00  0.00     0.010 A 
ATOM     43  C   UNL A   1      48.268  27.766  30.649  1.00  0.00     0.020 A 
ATOM     44  C   UNL A   1      47.393  27.027  32.791  1.00  0.00     0.020 A 
ATOM     45  C   UNL A   1      48.417  27.053  31.842  1.00  0.00     0.054 A 
BRANCH  45  46
ATOM     46  S   UNL A   1      49.979  26.184  32.151  1.00  0.00     0.124 S 
ATOM     47  O   UNL A   1      50.964  27.205  31.802  1.00  0.00    -0.237 OA
ATOM     48  O   UNL A   1      49.892  25.858  33.572  1.00  0.00    -0.237 OA
ATOM     49  O   UNL A   1      49.923  25.037  31.248  1.00  0.00    -0.744 OA
ENDBRANCH  45  46
ENDBRANCH  26  40
BRANCH  27  50
ATOM     50  C   UNL A   1      37.181  32.774  29.752  1.00  0.00    -0.014 A 
ATOM     51  C   UNL A   1      36.253  32.924  30.796  1.00  0.00     0.010 A 
ATOM     52  C   UNL A   1      36.870  33.280  28.477  1.00  0.00     0.010 A 
ATOM     53  C   UNL A   1      35.031  33.562  30.568  1.00  0.00     0.020 A 
ATOM     54  C   UNL A   1      35.661  33.942  28.252  1.00  0.00     0.020 A 
ATOM     55  C   UNL A   1      34.744  34.069  29.297  1.00  0.00     0.054 A 
BRANCH  55  56
ATOM     56  S   UNL A   1      33.181  34.953  29.036  1.00  0.00     0.124 S 
ATOM     57  O   UNL A   1      32.541  34.138  28.008  1.00  0.00    -0.237 OA
ATOM     58  O   UNL A   1      32.563  34.905  30.358  1.00  0.00    -0.237 OA
ATOM     59  O   UNL A   1      33.611  36.282  28.608  1.00  0.00    -0.744 OA
ENDBRANCH  55  56
ENDBRANCH  27  50
BRANCH  39  60
ATOM     60  C   UNL A   1      43.157  34.902  32.625  1.00  0.00    -0.014 A 
ATOM     61  C   UNL A   1      43.753  35.901  31.837  1.00  0.00     0.010 A 
ATOM     62  C   UNL A   1      42.936  35.145  33.993  1.00  0.00     0.010 A 
ATOM     63  C   UNL A   1      44.159  37.107  32.414  1.00  0.00     0.020 A 
ATOM     64  C   UNL A   1      43.319  36.359  34.569  1.00  0.00     0.020 A 
ATOM     65  C   UNL A   1      43.945  37.326  33.778  1.00  0.00     0.054 A 
BRANCH  65  66
ATOM     66  S   UNL A   1      44.459  38.906  34.506  1.00  0.00     0.124 S 
ATOM     67  O   UNL A   1      43.347  39.781  34.146  1.00  0.00    -0.237 OA
ATOM     68  O   UNL A   1      44.573  38.586  35.927  1.00  0.00    -0.237 OA
ATOM     69  O   UNL A   1      45.724  39.197  33.837  1.00  0.00    -0.744 OA
ENDBRANCH  65  66
ENDBRANCH  39  60
ENDBRANCH  13  14
ENDBRANCH   6   8
ENDBRANCH   3   4
ENDBRANCH   2   3
ENDBRANCH   1   2
BRANCH   1  70
ATOM     70  C   UNL A   1      34.562  25.861  25.420  1.00  0.00     0.002 C 
BRANCH  70  71
ATOM     71  C   UNL A   1      33.638  26.945  25.987  1.00  0.00     0.021 C 
BRANCH  71  72
ATOM     72  C   UNL A   1      32.226  26.489  26.347  1.00  0.00     0.116 C 
BRANCH  72  73
ATOM     73  N   UNL A   1      31.204  27.285  25.694  1.00  0.00    -0.352 N 
ATOM     74  C   UNL A   1      30.864  27.315  24.366  1.00  0.00     0.255 C 
ATOM     75  H   UNL A   1      30.687  27.882  26.282  1.00  0.00     0.163 HD
ATOM     76  O   UNL A   1      30.007  28.100  23.964  1.00  0.00    -0.269 OA
BRANCH  74  77
ATOM     77  C   UNL A   1      31.587  26.474  23.391  1.00  0.00     0.082 A 
ATOM     78  C   UNL A   1      31.519  25.086  23.583  1.00  0.00     0.025 A 
ATOM     79  C   UNL A   1      32.342  27.003  22.342  1.00  0.00     0.128 A 
ATOM     80  C   UNL A   1      32.171  24.208  22.708  1.00  0.00    -0.025 A 
ATOM     81  C   UNL A   1      32.987  26.143  21.457  1.00  0.00     0.047 A 
ATOM     82  C   UNL A   1      32.895  24.758  21.638  1.00  0.00     0.012 A 
BRANCH  79  83
ATOM     83  O   UNL A   1      32.454  28.354  22.179  1.00  0.00    -0.507 OA
ATOM     84  H   UNL A   1      33.298  28.758  22.180  1.00  0.00     0.293 HD
ENDBRANCH  79  83
BRANCH  80  85
ATOM     85  C   UNL A   1      32.142  22.740  22.860  1.00  0.00     0.009 C 
ATOM     86  C   UNL A   1      32.369  22.060  23.996  1.00  0.00     0.009 C 
BRANCH  86  87
ATOM     87  C   UNL A   1      32.358  20.593  24.076  1.00  0.00    -0.018 A 
ATOM     88  C   UNL A   1      32.167  19.798  22.936  1.00  0.00     0.054 A 
ATOM     89  C   UNL A   1      32.616  19.976  25.308  1.00  0.00     0.054 A 
ATOM     90  C   UNL A   1      32.218  18.409  23.044  1.00  0.00     0.119 A 
ATOM     91  C   UNL A   1      32.660  18.585  25.392  1.00  0.00     0.119 A 
ATOM     92  C   UNL A   1      32.462  17.796  24.266  1.00  0.00     0.092 A 
BRANCH  90  93
ATOM     93  O   UNL A   1      32.041  17.608  21.953  1.00  0.00    -0.508 OA
ATOM     94  H   UNL A   1      31.176  17.361  21.689  1.00  0.00     0.293 HD
ENDBRANCH  90  93
BRANCH  91  95
ATOM     95  O   UNL A   1      32.903  17.955  26.577  1.00  0.00    -0.508 OA
ATOM     96  H   UNL A   1      32.883  18.440  27.379  1.00  0.00     0.293 HD
ENDBRANCH  91  95
ENDBRANCH  86  87
ENDBRANCH  80  85
ENDBRANCH  74  77
ENDBRANCH  72  73
ENDBRANCH  71  72
ENDBRANCH  70  71
ENDBRANCH   1  70
TORSDOF 21
ENDMDL
MODEL 2
REMARK VINA RESULT:     -11.0      4.228      9.731
REMARK SMILES O=C(NCCCCCCNC(=O)c1cc(/C=C/c2cc(O)cc(O)c2)ccc1O)c1ccc(-c2c3nc(c(-c4ccc(S(=O)(=O)[O-])cc4)c4ccc([nH]4)c(-c4ccc(S(=O)(=O)[O-])cc4)c4nc(c(-c5ccc(S(=O)(=O)[O-])cc5)c5ccc2[nH]5)C=C4)C=C3)cc1
REMARK SMILES IDX 6 1 5 2 4 3 3 4 1 5 2 6 30 8 31 9 89 10 32 11 88 12 33 13
REMARK SMILES IDX 34 14 35 15 82 16 36 17 87 18 81 19 83 20 37 21 86 22 80 23
REMARK SMILES IDX 79 24 38 26 68 27 49 28 67 29 50 30 53 31 66 32 84 33 51 34
REMARK SMILES IDX 52 35 65 37 85 38 54 39 39 40 40 41 48 42 41 43 47 44 42 45
REMARK SMILES IDX 43 46 44 47 45 48 46 49 69 50 70 51 78 52 71 53 77 54 72 55
REMARK SMILES IDX 73 56 74 57 75 58 76 59 55 60 56 61 64 62 57 63 63 64 58 65
REMARK SMILES IDX 59 66 60 67 61 68 62 69 7 70 8 71 9 72 10 73 11 74 12 76
REMARK SMILES IDX 13 77 14 78 28 79 15 80 27 81 26 82 29 83 16 85 17 86 18 87
REMARK SMILES IDX 19 88 25 89 20 90 23 91 22 92 21 93 24 95
REMARK H PARENT 3 7 83 25 53 36 10 75 29 84 21 94 24 96
REMARK Flexibility Score: inf
ROOT
ATOM      1  C   UNL A   1      34.649  29.144  27.405  1.00  0.00     0.002 C 
ENDROOT
BRANCH   1   2
ATOM      2  C   UNL A   1      34.604  30.666  27.541  1.00  0.00     0.021 C 
BRANCH   2   3
ATOM      3  C   UNL A   1      35.664  31.278  28.447  1.00  0.00     0.116 C 
BRANCH   3   4
ATOM      4  N   UNL A   1      35.566  30.835  29.828  1.00  0.00    -0.352 N 
ATOM      5  O   UNL A   1      36.215  29.819  31.734  1.00  0.00    -0.269 OA
ATOM      6  C   UNL A   1      36.516  30.229  30.617  1.00  0.00     0.251 C 
ATOM      7  H   UNL A   1      34.695  30.990  30.260  1.00  0.00     0.163 HD
BRANCH   6   8
ATOM      8  C   UNL A   1      37.893  30.039  30.102  1.00  0.00     0.039 A 
ATOM      9  C   UNL A   1      38.148  30.006  28.731  1.00  0.00     0.014 A 
ATOM     10  C   UNL A   1      38.941  29.875  31.012  1.00  0.00     0.014 A 
ATOM     11  C   UNL A   1      39.413  29.650  28.272  1.00  0.00     0.010 A 
ATOM     12  C   UNL A   1      40.232  29.601  30.547  1.00  0.00     0.010 A 
ATOM     13  C   UNL A   1      40.471  29.441  29.172  1.00  0.00    -0.014 A 
BRANCH  13  14
ATOM     14  C   UNL A   1      41.813  29.077  28.647  1.00  0.00     0.031 A 
ATOM     15  C   UNL A   1      42.949  30.068  28.652  1.00  0.00     0.074 A 
ATOM     16  C   UNL A   1      42.022  27.820  28.208  1.00  0.00     0.049 A 
ATOM     17  N   UNL A   1      44.197  29.887  28.301  1.00  0.00    -0.248 NA
ATOM     18  C   UNL A   1      42.646  31.438  29.098  1.00  0.00     0.031 C 
ATOM     19  C   UNL A   1      41.001  26.769  28.142  1.00  0.00     0.029 A 
ATOM     20  N   UNL A   1      43.163  27.201  27.764  1.00  0.00    -0.354 N 
ATOM     21  C   UNL A   1      44.822  31.120  28.457  1.00  0.00     0.074 A 
ATOM     22  C   UNL A   1      43.810  32.047  28.918  1.00  0.00     0.031 C 
ATOM     23  C   UNL A   1      41.575  25.624  27.745  1.00  0.00     0.029 A 
ATOM     24  C   UNL A   1      42.988  25.868  27.477  1.00  0.00     0.049 A 
ATOM     25  H   UNL A   1      44.024  27.667  27.660  1.00  0.00     0.167 HD
ATOM     26  C   UNL A   1      46.119  31.451  28.242  1.00  0.00     0.031 A 
ATOM     27  C   UNL A   1      43.864  24.940  27.049  1.00  0.00     0.031 A 
ATOM     28  C   UNL A   1      47.130  30.526  27.797  1.00  0.00     0.049 A 
ATOM     29  C   UNL A   1      45.296  25.330  26.826  1.00  0.00     0.074 A 
ATOM     30  C   UNL A   1      48.479  30.759  27.588  1.00  0.00     0.029 A 
ATOM     31  N   UNL A   1      46.905  29.192  27.491  1.00  0.00    -0.354 N 
ATOM     32  N   UNL A   1      45.871  26.494  27.015  1.00  0.00    -0.248 NA
ATOM     33  C   UNL A   1      46.198  24.279  26.336  1.00  0.00     0.031 C 
ATOM     34  C   UNL A   1      49.061  29.577  27.119  1.00  0.00     0.029 A 
ATOM     35  C   UNL A   1      48.085  28.595  27.079  1.00  0.00     0.049 A 
ATOM     36  H   UNL A   1      46.034  28.737  27.558  1.00  0.00     0.167 HD
ATOM     37  C   UNL A   1      47.207  26.310  26.683  1.00  0.00     0.074 A 
ATOM     38  C   UNL A   1      47.358  24.920  26.300  1.00  0.00     0.031 C 
ATOM     39  C   UNL A   1      48.218  27.213  26.696  1.00  0.00     0.031 A 
BRANCH  26  40
ATOM     40  C   UNL A   1      46.519  32.886  28.461  1.00  0.00    -0.014 A 
ATOM     41  C   UNL A   1      46.972  33.335  29.715  1.00  0.00     0.010 A 
ATOM     42  C   UNL A   1      46.478  33.791  27.384  1.00  0.00     0.010 A 
ATOM     43  C   UNL A   1      47.338  34.672  29.897  1.00  0.00     0.020 A 
ATOM     44  C   UNL A   1      46.865  35.123  27.558  1.00  0.00     0.020 A 
ATOM     45  C   UNL A   1      47.275  35.560  28.819  1.00  0.00     0.054 A 
BRANCH  45  46
ATOM     46  S   UNL A   1      47.767  37.286  29.078  1.00  0.00     0.124 S 
ATOM     47  O   UNL A   1      47.853  37.357  30.535  1.00  0.00    -0.237 OA
ATOM     48  O   UNL A   1      49.042  37.370  28.371  1.00  0.00    -0.237 OA
ATOM     49  O   UNL A   1      46.675  38.051  28.480  1.00  0.00    -0.744 OA
ENDBRANCH  45  46
ENDBRANCH  26  40
BRANCH  27  50
ATOM     50  C   UNL A   1      43.403  23.545  26.818  1.00  0.00    -0.014 A 
ATOM     51  C   UNL A   1      43.281  23.043  25.511  1.00  0.00     0.010 A 
ATOM     52  C   UNL A   1      43.116  22.704  27.907  1.00  0.00     0.010 A 
ATOM     53  C   UNL A   1      42.870  21.725  25.297  1.00  0.00     0.020 A 
ATOM     54  C   UNL A   1      42.731  21.377  27.698  1.00  0.00     0.020 A 
ATOM     55  C   UNL A   1      42.600  20.899  26.392  1.00  0.00     0.054 A 
BRANCH  55  56
ATOM     56  S   UNL A   1      42.134  19.171  26.097  1.00  0.00     0.124 S 
ATOM     57  O   UNL A   1      42.963  18.828  24.945  1.00  0.00    -0.237 OA
ATOM     58  O   UNL A   1      42.497  18.524  27.354  1.00  0.00    -0.237 OA
ATOM     59  O   UNL A   1      40.698  19.247  25.839  1.00  0.00    -0.744 OA
ENDBRANCH  55  56
ENDBRANCH  27  50
BRANCH  39  60
ATOM     60  C   UNL A   1      49.584  26.714  26.310  1.00  0.00    -0.014 A 
ATOM     61  C   UNL A   1      50.433  26.111  27.254  1.00  0.00     0.010 A 
ATOM     62  C   UNL A   1      50.013  26.831  24.975  1.00  0.00     0.010 A 
ATOM     63  C   UNL A   1      51.705  25.672  26.880  1.00  0.00     0.020 A 
ATOM     64  C   UNL A   1      51.275  26.371  24.593  1.00  0.00     0.020 A 
ATOM     65  C   UNL A   1      52.121  25.810  25.552  1.00  0.00     0.054 A 
BRANCH  65  66
ATOM     66  S   UNL A   1      53.768  25.214  25.080  1.00  0.00     0.124 S 
ATOM     67  O   UNL A   1      54.059  26.030  23.904  1.00  0.00    -0.237 OA
ATOM     68  O   UNL A   1      54.570  25.508  26.264  1.00  0.00    -0.237 OA
ATOM     69  O   UNL A   1      53.556  23.793  24.816  1.00  0.00    -0.744 OA
ENDBRANCH  65  66
ENDBRANCH  39  60
ENDBRANCH  13  14
ENDBRANCH   6   8
ENDBRANCH   3   4
ENDBRANCH   2   3
ENDBRANCH   1   2
BRANCH   1  70
ATOM     70  C   UNL A   1      33.320  28.460  27.077  1.00  0.00     0.002 C 
BRANCH  70  71
ATOM     71  C   UNL A   1      32.101  29.379  26.939  1.00  0.00     0.021 C 
BRANCH  71  72
ATOM     72  C   UNL A   1      31.534  29.520  25.529  1.00  0.00     0.116 C 
BRANCH  72  73
ATOM     73  N   UNL A   1      32.566  29.768  24.540  1.00  0.00    -0.352 N 
ATOM     74  C   UNL A   1      33.036  28.926  23.565  1.00  0.00     0.255 C 
ATOM     75  H   UNL A   1      32.985  30.659  24.574  1.00  0.00     0.163 HD
ATOM     76  O   UNL A   1      33.967  29.274  22.842  1.00  0.00    -0.269 OA
BRANCH  74  77
ATOM     77  C   UNL A   1      32.493  27.559  23.435  1.00  0.00     0.082 A 
ATOM     78  C   UNL A   1      33.334  26.506  23.824  1.00  0.00     0.025 A 
ATOM     79  C   UNL A   1      31.223  27.290  22.918  1.00  0.00     0.128 A 
ATOM     80  C   UNL A   1      32.905  25.176  23.739  1.00  0.00    -0.025 A 
ATOM     81  C   UNL A   1      30.777  25.974  22.837  1.00  0.00     0.047 A 
ATOM     82  C   UNL A   1      31.612  24.928  23.250  1.00  0.00     0.012 A 
BRANCH  79  83
ATOM     83  O   UNL A   1      30.418  28.307  22.491  1.00  0.00    -0.507 OA
ATOM     84  H   UNL A   1      30.607  28.750  21.688  1.00  0.00     0.293 HD
ENDBRANCH  79  83
BRANCH  80  85
ATOM     85  C   UNL A   1      33.745  24.025  24.126  1.00  0.00     0.009 C 
ATOM     86  C   UNL A   1      35.066  24.058  24.365  1.00  0.00     0.009 C 
BRANCH  86  87
ATOM     87  C   UNL A   1      35.853  22.868  24.717  1.00  0.00    -0.018 A 
ATOM     88  C   UNL A   1      35.291  21.583  24.695  1.00  0.00     0.054 A 
ATOM     89  C   UNL A   1      37.216  23.016  25.010  1.00  0.00     0.054 A 
ATOM     90  C   UNL A   1      36.085  20.474  24.981  1.00  0.00     0.119 A 
ATOM     91  C   UNL A   1      37.990  21.892  25.297  1.00  0.00     0.119 A 
ATOM     92  C   UNL A   1      37.433  20.620  25.284  1.00  0.00     0.092 A 
BRANCH  90  93
ATOM     93  O   UNL A   1      35.568  19.211  24.964  1.00  0.00    -0.508 OA
ATOM     94  H   UNL A   1      35.167  18.858  25.733  1.00  0.00     0.293 HD
ENDBRANCH  90  93
BRANCH  91  95
ATOM     95  O   UNL A   1      39.317  22.004  25.592  1.00  0.00    -0.508 OA
ATOM     96  H   UNL A   1      39.943  22.115  24.902  1.00  0.00     0.293 HD
ENDBRANCH  91  95
ENDBRANCH  86  87
ENDBRANCH  80  85
ENDBRANCH  74  77
ENDBRANCH  72  73
ENDBRANCH  71  72
ENDBRANCH  70  71
ENDBRANCH   1  70
TORSDOF 21
ENDMDL
MODEL 3
REMARK VINA RESULT:     -11.0      3.999      5.381
REMARK SMILES O=C(NCCCCCCNC(=O)c1cc(/C=C/c2cc(O)cc(O)c2)ccc1O)c1ccc(-c2c3nc(c(-c4ccc(S(=O)(=O)[O-])cc4)c4ccc([nH]4)c(-c4ccc(S(=O)(=O)[O-])cc4)c4nc(c(-c5ccc(S(=O)(=O)[O-])cc5)c5ccc2[nH]5)C=C4)C=C3)cc1
REMARK SMILES IDX 6 1 5 2 4 3 3 4 1 5 2 6 30 8 31 9 89 10 32 11 88 12 33 13
REMARK SMILES IDX 34 14 35 15 82 16 36 17 87 18 81 19 83 20 37 21 86 22 80 23
REMARK SMILES IDX 79 24 38 26 68 27 49 28 67 29 50 30 53 31 66 32 84 33 51 34
REMARK SMILES IDX 52 35 65 37 85 38 54 39 39 40 40 41 48 42 41 43 47 44 42 45
REMARK SMILES IDX 43 46 44 47 45 48 46 49 69 50 70 51 78 52 71 53 77 54 72 55
REMARK SMILES IDX 73 56 74 57 75 58 76 59 55 60 56 61 64 62 57 63 63 64 58 65
REMARK SMILES IDX 59 66 60 67 61 68 62 69 7 70 8 71 9 72 10 73 11 74 12 76
REMARK SMILES IDX 13 77 14 78 28 79 15 80 27 81 26 82 29 83 16 85 17 86 18 87
REMARK SMILES IDX 19 88 25 89 20 90 23 91 22 92 21 93 24 95
REMARK H PARENT 3 7 83 25 53 36 10 75 29 84 21 94 24 96
REMARK Flexibility Score: inf
ROOT
ATOM      1  C   UNL A   1      36.923  20.560  25.044  1.00  0.00     0.002 C 
ENDROOT
BRANCH   1   2
ATOM      2  C   UNL A   1      38.273  19.845  24.999  1.00  0.00     0.021 C 
BRANCH   2   3
ATOM      3  C   UNL A   1      39.321  20.352  25.981  1.00  0.00     0.116 C 
BRANCH   3   4
ATOM      4  N   UNL A   1      40.458  19.457  26.122  1.00  0.00    -0.352 N 
ATOM      5  O   UNL A   1      42.623  18.870  26.360  1.00  0.00    -0.269 OA
ATOM      6  C   UNL A   1      41.774  19.756  26.390  1.00  0.00     0.251 C 
ATOM      7  H   UNL A   1      40.258  18.499  26.008  1.00  0.00     0.163 HD
BRANCH   6   8
ATOM      8  C   UNL A   1      42.169  21.155  26.679  1.00  0.00     0.039 A 
ATOM      9  C   UNL A   1      42.304  22.090  25.652  1.00  0.00     0.014 A 
ATOM     10  C   UNL A   1      42.424  21.529  28.001  1.00  0.00     0.014 A 
ATOM     11  C   UNL A   1      42.847  23.342  25.924  1.00  0.00     0.010 A 
ATOM     12  C   UNL A   1      42.889  22.818  28.285  1.00  0.00     0.010 A 
ATOM     13  C   UNL A   1      43.148  23.722  27.242  1.00  0.00    -0.014 A 
BRANCH  13  14
ATOM     14  C   UNL A   1      43.711  25.074  27.499  1.00  0.00     0.031 A 
ATOM     15  C   UNL A   1      45.150  25.394  27.185  1.00  0.00     0.074 A 
ATOM     16  C   UNL A   1      42.899  26.038  27.976  1.00  0.00     0.049 A 
ATOM     17  N   UNL A   1      45.776  26.540  27.278  1.00  0.00    -0.248 NA
ATOM     18  C   UNL A   1      45.999  24.287  26.713  1.00  0.00     0.031 C 
ATOM     19  C   UNL A   1      41.488  25.853  28.330  1.00  0.00     0.029 A 
ATOM     20  N   UNL A   1      43.128  27.369  28.214  1.00  0.00    -0.354 N 
ATOM     21  C   UNL A   1      47.092  26.291  26.905  1.00  0.00     0.074 A 
ATOM     22  C   UNL A   1      47.180  24.879  26.600  1.00  0.00     0.031 C 
ATOM     23  C   UNL A   1      40.964  27.037  28.681  1.00  0.00     0.029 A 
ATOM     24  C   UNL A   1      42.010  28.054  28.628  1.00  0.00     0.049 A 
ATOM     25  H   UNL A   1      44.009  27.794  28.102  1.00  0.00     0.167 HD
ATOM     26  C   UNL A   1      48.132  27.157  26.819  1.00  0.00     0.031 A 
ATOM     27  C   UNL A   1      41.838  29.354  28.930  1.00  0.00     0.031 A 
ATOM     28  C   UNL A   1      48.041  28.565  27.109  1.00  0.00     0.049 A 
ATOM     29  C   UNL A   1      43.003  30.294  28.819  1.00  0.00     0.074 A 
ATOM     30  C   UNL A   1      49.030  29.529  27.013  1.00  0.00     0.029 A 
ATOM     31  N   UNL A   1      46.897  29.212  27.551  1.00  0.00    -0.354 N 
ATOM     32  N   UNL A   1      44.229  30.041  28.429  1.00  0.00    -0.248 NA
ATOM     33  C   UNL A   1      42.758  31.695  29.184  1.00  0.00     0.031 C 
ATOM     34  C   UNL A   1      48.495  30.751  27.435  1.00  0.00     0.029 A 
ATOM     35  C   UNL A   1      47.160  30.557  27.749  1.00  0.00     0.049 A 
ATOM     36  H   UNL A   1      46.026  28.778  27.702  1.00  0.00     0.167 HD
ATOM     37  C   UNL A   1      44.899  31.257  28.486  1.00  0.00     0.074 A 
ATOM     38  C   UNL A   1      43.937  32.246  28.930  1.00  0.00     0.031 C 
ATOM     39  C   UNL A   1      46.195  31.529  28.196  1.00  0.00     0.031 A 
BRANCH  26  40
ATOM     40  C   UNL A   1      49.472  26.600  26.417  1.00  0.00    -0.014 A 
ATOM     41  C   UNL A   1      50.311  25.969  27.353  1.00  0.00     0.010 A 
ATOM     42  C   UNL A   1      49.881  26.675  25.073  1.00  0.00     0.010 A 
ATOM     43  C   UNL A   1      51.552  25.459  26.959  1.00  0.00     0.020 A 
ATOM     44  C   UNL A   1      51.111  26.145  24.672  1.00  0.00     0.020 A 
ATOM     45  C   UNL A   1      51.948  25.557  25.622  1.00  0.00     0.054 A 
BRANCH  45  46
ATOM     46  S   UNL A   1      53.557  24.878  25.135  1.00  0.00     0.124 S 
ATOM     47  O   UNL A   1      53.254  23.455  25.001  1.00  0.00    -0.237 OA
ATOM     48  O   UNL A   1      53.839  25.578  23.884  1.00  0.00    -0.237 OA
ATOM     49  O   UNL A   1      54.433  25.227  26.251  1.00  0.00    -0.744 OA
ENDBRANCH  45  46
ENDBRANCH  26  40
BRANCH  27  50
ATOM     50  C   UNL A   1      40.497  29.839  29.353  1.00  0.00    -0.014 A 
ATOM     51  C   UNL A   1      39.441  29.907  28.430  1.00  0.00     0.010 A 
ATOM     52  C   UNL A   1      40.265  30.204  30.691  1.00  0.00     0.010 A 
ATOM     53  C   UNL A   1      38.175  30.340  28.835  1.00  0.00     0.020 A 
ATOM     54  C   UNL A   1      38.995  30.612  31.106  1.00  0.00     0.020 A 
ATOM     55  C   UNL A   1      37.960  30.688  30.172  1.00  0.00     0.054 A 
BRANCH  55  56
ATOM     56  S   UNL A   1      36.295  31.184  30.694  1.00  0.00     0.124 S 
ATOM     57  O   UNL A   1      35.583  31.238  29.421  1.00  0.00    -0.237 OA
ATOM     58  O   UNL A   1      35.907  30.099  31.591  1.00  0.00    -0.237 OA
ATOM     59  O   UNL A   1      36.514  32.471  31.348  1.00  0.00    -0.744 OA
ENDBRANCH  55  56
ENDBRANCH  27  50
BRANCH  39  60
ATOM     60  C   UNL A   1      46.637  32.961  28.323  1.00  0.00    -0.014 A 
ATOM     61  C   UNL A   1      47.167  33.456  29.527  1.00  0.00     0.010 A 
ATOM     62  C   UNL A   1      46.541  33.816  27.211  1.00  0.00     0.010 A 
ATOM     63  C   UNL A   1      47.554  34.794  29.630  1.00  0.00     0.020 A 
ATOM     64  C   UNL A   1      46.949  35.149  27.303  1.00  0.00     0.020 A 
ATOM     65  C   UNL A   1      47.437  35.634  28.518  1.00  0.00     0.054 A 
BRANCH  65  66
ATOM     66  S   UNL A   1      47.965  37.364  28.664  1.00  0.00     0.124 S 
ATOM     67  O   UNL A   1      47.359  37.759  29.933  1.00  0.00    -0.237 OA
ATOM     68  O   UNL A   1      49.421  37.258  28.669  1.00  0.00    -0.237 OA
ATOM     69  O   UNL A   1      47.397  37.998  27.477  1.00  0.00    -0.744 OA
ENDBRANCH  65  66
ENDBRANCH  39  60
ENDBRANCH  13  14
ENDBRANCH   6   8
ENDBRANCH   3   4
ENDBRANCH   2   3
ENDBRANCH   1   2
BRANCH   1  70
ATOM     70  C   UNL A   1      36.823  21.856  24.236  1.00  0.00     0.002 C 
BRANCH  70  71
ATOM     71  C   UNL A   1      37.043  23.158  25.015  1.00  0.00     0.021 C 
BRANCH  71  72
ATOM     72  C   UNL A   1      35.820  24.062  25.152  1.00  0.00     0.116 C 
BRANCH  72  73
ATOM     73  N   UNL A   1      35.303  24.492  23.866  1.00  0.00    -0.352 N 
ATOM     74  C   UNL A   1      34.053  24.294  23.338  1.00  0.00     0.255 C 
ATOM     75  H   UNL A   1      35.934  24.990  23.297  1.00  0.00     0.163 HD
ATOM     76  O   UNL A   1      33.795  24.674  22.197  1.00  0.00    -0.269 OA
BRANCH  74  77
ATOM     77  C   UNL A   1      33.034  23.542  24.097  1.00  0.00     0.082 A 
ATOM     78  C   UNL A   1      33.275  22.175  24.294  1.00  0.00     0.025 A 
ATOM     79  C   UNL A   1      31.857  24.125  24.574  1.00  0.00     0.128 A 
ATOM     80  C   UNL A   1      32.366  21.380  25.004  1.00  0.00    -0.025 A 
ATOM     81  C   UNL A   1      30.948  23.351  25.291  1.00  0.00     0.047 A 
ATOM     82  C   UNL A   1      31.207  21.992  25.508  1.00  0.00     0.012 A 
BRANCH  79  83
ATOM     83  O   UNL A   1      31.591  25.443  24.343  1.00  0.00    -0.507 OA
ATOM     84  H   UNL A   1      31.615  26.058  25.049  1.00  0.00     0.293 HD
ENDBRANCH  79  83
BRANCH  80  85
ATOM     85  C   UNL A   1      32.561  19.936  25.240  1.00  0.00     0.009 C 
ATOM     86  C   UNL A   1      33.399  19.133  24.565  1.00  0.00     0.009 C 
BRANCH  86  87
ATOM     87  C   UNL A   1      33.525  17.692  24.827  1.00  0.00    -0.018 A 
ATOM     88  C   UNL A   1      34.778  17.068  24.907  1.00  0.00     0.054 A 
ATOM     89  C   UNL A   1      32.367  16.942  25.074  1.00  0.00     0.054 A 
ATOM     90  C   UNL A   1      34.857  15.710  25.211  1.00  0.00     0.119 A 
ATOM     91  C   UNL A   1      32.470  15.584  25.374  1.00  0.00     0.119 A 
ATOM     92  C   UNL A   1      33.709  14.962  25.444  1.00  0.00     0.092 A 
BRANCH  90  93
ATOM     93  O   UNL A   1      36.062  15.074  25.301  1.00  0.00    -0.508 OA
ATOM     94  H   UNL A   1      36.143  14.183  25.020  1.00  0.00     0.293 HD
ENDBRANCH  90  93
BRANCH  91  95
ATOM     95  O   UNL A   1      31.362  14.826  25.613  1.00  0.00    -0.508 OA
ATOM     96  H   UNL A   1      30.598  15.218  25.990  1.00  0.00     0.293 HD
ENDBRANCH  91  95
ENDBRANCH  86  87
ENDBRANCH  80  85
ENDBRANCH  74  77
ENDBRANCH  72  73
ENDBRANCH  71  72
ENDBRANCH  70  71
ENDBRANCH   1  70
TORSDOF 21
ENDMDL
