MODEL 1
REMARK VINA RESULT:     -11.0      0.000      0.000
REMARK SMILES Cc1ccc(C[NH+]2CCC(C(=O)NCCCCCCNC(=O)c3ccc(-c4c5nc(c(-c6ccc(S(=O)(=O)[O-])cc6)c6ccc([nH]6)c(-c6ccc(S(=O)(=O)[O-])cc6)c6nc(c(-c7ccc(S(=O)(=O)[O-])cc7)c7ccc4[nH]7)C=C6)C=C5)cc3)(n3ccc(C(C)(C)C)n3)CC2)o1
REMARK SMILES IDX 17 1 16 2 15 3 14 4 13 5 11 6 12 7 10 9 7 10 8 11 93 12 9 14
REMARK SMILES IDX 92 15 6 16 5 17 1 18 2 19 3 20 94 21 4 22 83 23 84 24 91 25
REMARK SMILES IDX 85 26 86 27 87 28 88 29 89 30 90 31 18 32 19 33 20 34 21 35
REMARK SMILES IDX 22 37 23 38 24 39 82 40 25 41 81 42 26 43 27 44 28 45 75 46
REMARK SMILES IDX 29 47 80 48 74 49 76 50 30 51 79 52 73 53 72 54 31 56 61 57
REMARK SMILES IDX 42 58 60 59 43 60 46 61 59 62 77 63 44 64 45 65 58 67 78 68
REMARK SMILES IDX 47 69 32 70 33 71 41 72 34 73 40 74 35 75 36 76 37 77 38 78
REMARK SMILES IDX 39 79 62 80 63 81 71 82 64 83 70 84 65 85 66 86 67 87 68 88
REMARK SMILES IDX 69 89 48 90 49 91 57 92 50 93 56 94 51 95 52 96 53 97 54 98
REMARK SMILES IDX 55 99
REMARK H PARENT 13 8 7 13 20 36 76 55 46 66
REMARK Flexibility Score: inf
ROOT
ATOM      1  C   UNL A   1      35.976  32.366  27.973  1.00  0.00     0.002 C 
ENDROOT
BRANCH   1   2
ATOM      2  C   UNL A   1      35.344  31.101  28.562  1.00  0.00     0.002 C 
BRANCH   2   3
ATOM      3  C   UNL A   1      35.313  29.896  27.614  1.00  0.00     0.021 C 
BRANCH   3   4
ATOM      4  C   UNL A   1      34.014  29.769  26.820  1.00  0.00     0.116 C 
BRANCH   4   5
ATOM      5  N   UNL A   1      33.021  29.033  27.587  1.00  0.00    -0.354 N 
ATOM      6  C   UNL A   1      32.191  27.981  27.291  1.00  0.00     0.248 C 
ATOM      7  O   UNL A   1      31.376  27.756  28.190  1.00  0.00    -0.272 OA
ATOM      8  H   UNL A   1      32.923  29.358  28.512  1.00  0.00     0.163 HD
BRANCH   6   9
ATOM      9  C   UNL A   1      32.324  27.184  25.948  1.00  0.00     0.151 C 
ATOM     10  N   UNL A   1      33.179  24.469  25.101  1.00  0.00    -0.328 N 
ATOM     11  C   UNL A   1      34.088  25.596  24.896  1.00  0.00     0.265 C 
ATOM     12  C   UNL A   1      31.753  24.791  25.174  1.00  0.00     0.265 C 
ATOM     13  H   UNL A   1      33.411  24.139  26.037  1.00  0.00     0.348 HD
ATOM     14  C   UNL A   1      33.819  26.824  25.764  1.00  0.00     0.102 C 
ATOM     15  C   UNL A   1      31.405  25.948  26.094  1.00  0.00     0.102 C 
BRANCH  10  16
ATOM     16  C   UNL A   1      33.423  23.388  24.100  1.00  0.00     0.338 C 
BRANCH  16  17
ATOM     17  C   UNL A   1      33.183  21.990  24.600  1.00  0.00     0.158 A 
ATOM     18  C   UNL A   1      32.463  18.705  23.405  1.00  0.00     0.087 C 
ATOM     19  C   UNL A   1      32.756  19.854  24.285  1.00  0.00     0.101 A 
ATOM     20  C   UNL A   1      33.119  19.984  25.607  1.00  0.00     0.046 A 
ATOM     21  O   UNL A   1      32.728  21.077  23.691  1.00  0.00    -0.460 OA
ATOM     22  C   UNL A   1      33.382  21.363  25.815  1.00  0.00     0.052 A 
ENDBRANCH  16  17
ENDBRANCH  10  16
BRANCH   9  23
ATOM     23  N   UNL A   1      31.884  27.951  24.734  1.00  0.00    -0.256 N 
ATOM     24  C   UNL A   1      32.650  28.259  23.633  1.00  0.00     0.110 A 
ATOM     25  N   UNL A   1      30.636  28.438  24.588  1.00  0.00    -0.176 NA
ATOM     26  C   UNL A   1      31.880  29.000  22.782  1.00  0.00     0.046 A 
ATOM     27  C   UNL A   1      30.631  29.096  23.423  1.00  0.00     0.068 A 
BRANCH  27  28
ATOM     28  C   UNL A   1      29.403  29.818  22.907  1.00  0.00     0.006 C 
ATOM     29  C   UNL A   1      28.189  28.867  22.944  1.00  0.00     0.017 C 
ATOM     30  C   UNL A   1      29.112  31.038  23.804  1.00  0.00     0.017 C 
ATOM     31  C   UNL A   1      29.578  30.313  21.458  1.00  0.00     0.017 C 
ENDBRANCH  27  28
ENDBRANCH   9  23
ENDBRANCH   6   9
ENDBRANCH   4   5
ENDBRANCH   3   4
ENDBRANCH   2   3
ENDBRANCH   1   2
BRANCH   1  32
ATOM     32  C   UNL A   1      35.054  33.587  27.937  1.00  0.00     0.021 C 
BRANCH  32  33
ATOM     33  C   UNL A   1      33.601  33.286  28.285  1.00  0.00     0.116 C 
BRANCH  33  34
ATOM     34  N   UNL A   1      33.009  34.337  29.098  1.00  0.00    -0.352 N 
ATOM     35  C   UNL A   1      33.306  34.700  30.386  1.00  0.00     0.251 C 
ATOM     36  H   UNL A   1      32.298  34.860  28.663  1.00  0.00     0.163 HD
ATOM     37  O   UNL A   1      32.568  35.471  30.996  1.00  0.00    -0.269 OA
BRANCH  35  38
ATOM     38  C   UNL A   1      34.507  34.143  31.042  1.00  0.00     0.039 A 
ATOM     39  C   UNL A   1      34.436  32.874  31.621  1.00  0.00     0.014 A 
ATOM     40  C   UNL A   1      35.701  34.869  31.075  1.00  0.00     0.014 A 
ATOM     41  C   UNL A   1      35.582  32.310  32.185  1.00  0.00     0.010 A 
ATOM     42  C   UNL A   1      36.858  34.273  31.565  1.00  0.00     0.010 A 
ATOM     43  C   UNL A   1      36.810  32.991  32.132  1.00  0.00    -0.014 A 
BRANCH  43  44
ATOM     44  C   UNL A   1      38.055  32.375  32.659  1.00  0.00     0.031 A 
ATOM     45  C   UNL A   1      38.516  32.680  34.059  1.00  0.00     0.074 A 
ATOM     46  C   UNL A   1      38.805  31.595  31.856  1.00  0.00     0.049 A 
ATOM     47  N   UNL A   1      39.599  32.282  34.675  1.00  0.00    -0.248 NA
ATOM     48  C   UNL A   1      37.661  33.569  34.862  1.00  0.00     0.031 C 
ATOM     49  C   UNL A   1      38.488  31.260  30.465  1.00  0.00     0.029 A 
ATOM     50  N   UNL A   1      39.993  30.949  32.089  1.00  0.00    -0.354 N 
ATOM     51  C   UNL A   1      39.567  32.885  35.926  1.00  0.00     0.074 A 
ATOM     52  C   UNL A   1      38.385  33.717  35.963  1.00  0.00     0.031 C 
ATOM     53  C   UNL A   1      39.443  30.452  29.979  1.00  0.00     0.029 A 
ATOM     54  C   UNL A   1      40.463  30.249  31.002  1.00  0.00     0.049 A 
ATOM     55  H   UNL A   1      40.465  30.984  32.951  1.00  0.00     0.167 HD
ATOM     56  C   UNL A   1      40.435  32.747  36.957  1.00  0.00     0.031 A 
ATOM     57  C   UNL A   1      41.592  29.531  30.841  1.00  0.00     0.031 A 
ATOM     58  C   UNL A   1      41.609  31.916  36.914  1.00  0.00     0.049 A 
ATOM     59  C   UNL A   1      42.548  29.401  31.995  1.00  0.00     0.074 A 
ATOM     60  C   UNL A   1      42.516  31.658  37.926  1.00  0.00     0.029 A 
ATOM     61  N   UNL A   1      42.044  31.215  35.799  1.00  0.00    -0.354 N 
ATOM     62  N   UNL A   1      42.461  29.917  33.198  1.00  0.00    -0.248 NA
ATOM     63  C   UNL A   1      43.747  28.582  31.775  1.00  0.00     0.031 C 
ATOM     64  C   UNL A   1      43.537  30.857  37.403  1.00  0.00     0.029 A 
ATOM     65  C   UNL A   1      43.226  30.553  36.087  1.00  0.00     0.049 A 
ATOM     66  H   UNL A   1      41.581  31.191  34.930  1.00  0.00     0.167 HD
ATOM     67  C   UNL A   1      43.580  29.464  33.886  1.00  0.00     0.074 A 
ATOM     68  C   UNL A   1      44.320  28.620  32.970  1.00  0.00     0.031 C 
ATOM     69  C   UNL A   1      43.958  29.721  35.164  1.00  0.00     0.031 A 
BRANCH  56  70
ATOM     70  C   UNL A   1      40.156  33.534  38.213  1.00  0.00    -0.014 A 
ATOM     71  C   UNL A   1      39.408  32.986  39.271  1.00  0.00     0.010 A 
ATOM     72  C   UNL A   1      40.678  34.834  38.350  1.00  0.00     0.010 A 
ATOM     73  C   UNL A   1      39.141  33.739  40.417  1.00  0.00     0.020 A 
ATOM     74  C   UNL A   1      40.443  35.579  39.509  1.00  0.00     0.020 A 
ATOM     75  C   UNL A   1      39.658  35.033  40.527  1.00  0.00     0.054 A 
BRANCH  75  76
ATOM     76  S   UNL A   1      39.304  35.986  42.029  1.00  0.00     0.124 S 
ATOM     77  O   UNL A   1      40.368  35.541  42.926  1.00  0.00    -0.237 OA
ATOM     78  O   UNL A   1      39.410  37.366  41.565  1.00  0.00    -0.237 OA
ATOM     79  O   UNL A   1      37.957  35.559  42.403  1.00  0.00    -0.744 OA
ENDBRANCH  75  76
ENDBRANCH  56  70
BRANCH  57  80
ATOM     80  C   UNL A   1      41.869  28.878  29.532  1.00  0.00    -0.014 A 
ATOM     81  C   UNL A   1      41.498  27.541  29.304  1.00  0.00     0.010 A 
ATOM     82  C   UNL A   1      42.477  29.606  28.492  1.00  0.00     0.010 A 
ATOM     83  C   UNL A   1      41.738  26.943  28.063  1.00  0.00     0.020 A 
ATOM     84  C   UNL A   1      42.690  29.020  27.241  1.00  0.00     0.020 A 
ATOM     85  C   UNL A   1      42.325  27.689  27.037  1.00  0.00     0.054 A 
BRANCH  85  86
ATOM     86  S   UNL A   1      42.558  26.911  25.414  1.00  0.00     0.124 S 
ATOM     87  O   UNL A   1      41.358  26.090  25.295  1.00  0.00    -0.237 OA
ATOM     88  O   UNL A   1      42.630  28.064  24.521  1.00  0.00    -0.237 OA
ATOM     89  O   UNL A   1      43.810  26.172  25.567  1.00  0.00    -0.744 OA
ENDBRANCH  85  86
ENDBRANCH  57  80
BRANCH  69  90
ATOM     90  C   UNL A   1      45.215  29.060  35.665  1.00  0.00    -0.014 A 
ATOM     91  C   UNL A   1      46.450  29.732  35.661  1.00  0.00     0.010 A 
ATOM     92  C   UNL A   1      45.144  27.763  36.208  1.00  0.00     0.010 A 
ATOM     93  C   UNL A   1      47.596  29.110  36.164  1.00  0.00     0.020 A 
ATOM     94  C   UNL A   1      46.280  27.149  36.741  1.00  0.00     0.020 A 
ATOM     95  C   UNL A   1      47.503  27.823  36.704  1.00  0.00     0.054 A 
BRANCH  95  96
ATOM     96  S   UNL A   1      48.994  27.059  37.397  1.00  0.00     0.124 S 
ATOM     97  O   UNL A   1      50.030  28.017  37.022  1.00  0.00    -0.237 OA
ATOM     98  O   UNL A   1      48.686  26.992  38.823  1.00  0.00    -0.237 OA
ATOM     99  O   UNL A   1      49.069  25.765  36.720  1.00  0.00    -0.744 OA
ENDBRANCH  95  96
ENDBRANCH  69  90
ENDBRANCH  43  44
ENDBRANCH  35  38
ENDBRANCH  33  34
ENDBRANCH  32  33
ENDBRANCH   1  32
TORSDOF 20
ENDMDL
MODEL 2
REMARK VINA RESULT:     -10.8      5.767      9.936
REMARK SMILES Cc1ccc(C[NH+]2CCC(C(=O)NCCCCCCNC(=O)c3ccc(-c4c5nc(c(-c6ccc(S(=O)(=O)[O-])cc6)c6ccc([nH]6)c(-c6ccc(S(=O)(=O)[O-])cc6)c6nc(c(-c7ccc(S(=O)(=O)[O-])cc7)c7ccc4[nH]7)C=C6)C=C5)cc3)(n3ccc(C(C)(C)C)n3)CC2)o1
REMARK SMILES IDX 17 1 16 2 15 3 14 4 13 5 11 6 12 7 10 9 7 10 8 11 93 12 9 14
REMARK SMILES IDX 92 15 6 16 5 17 1 18 2 19 3 20 94 21 4 22 83 23 84 24 91 25
REMARK SMILES IDX 85 26 86 27 87 28 88 29 89 30 90 31 18 32 19 33 20 34 21 35
REMARK SMILES IDX 22 37 23 38 24 39 82 40 25 41 81 42 26 43 27 44 28 45 75 46
REMARK SMILES IDX 29 47 80 48 74 49 76 50 30 51 79 52 73 53 72 54 31 56 61 57
REMARK SMILES IDX 42 58 60 59 43 60 46 61 59 62 77 63 44 64 45 65 58 67 78 68
REMARK SMILES IDX 47 69 32 70 33 71 41 72 34 73 40 74 35 75 36 76 37 77 38 78
REMARK SMILES IDX 39 79 62 80 63 81 71 82 64 83 70 84 65 85 66 86 67 87 68 88
REMARK SMILES IDX 69 89 48 90 49 91 57 92 50 93 56 94 51 95 52 96 53 97 54 98
REMARK SMILES IDX 55 99
REMARK H PARENT 13 8 7 13 20 36 76 55 46 66
REMARK Flexibility Score: inf
ROOT
ATOM      1  C   UNL A   1      36.017  32.861  27.987  1.00  0.00     0.002 C 
ENDROOT
BRANCH   1   2
ATOM      2  C   UNL A   1      34.673  32.127  28.016  1.00  0.00     0.002 C 
BRANCH   2   3
ATOM      3  C   UNL A   1      34.760  30.617  27.766  1.00  0.00     0.021 C 
BRANCH   3   4
ATOM      4  C   UNL A   1      33.648  30.075  26.869  1.00  0.00     0.116 C 
BRANCH   4   5
ATOM      5  N   UNL A   1      32.755  29.215  27.630  1.00  0.00    -0.354 N 
ATOM      6  C   UNL A   1      32.053  28.076  27.322  1.00  0.00     0.248 C 
ATOM      7  O   UNL A   1      31.278  27.742  28.222  1.00  0.00    -0.272 OA
ATOM      8  H   UNL A   1      32.629  29.510  28.561  1.00  0.00     0.163 HD
BRANCH   6   9
ATOM      9  C   UNL A   1      32.266  27.323  25.965  1.00  0.00     0.151 C 
ATOM     10  N   UNL A   1      33.284  24.677  25.078  1.00  0.00    -0.328 N 
ATOM     11  C   UNL A   1      34.140  25.854  24.929  1.00  0.00     0.265 C 
ATOM     12  C   UNL A   1      31.842  24.925  25.114  1.00  0.00     0.265 C 
ATOM     13  H   UNL A   1      33.504  24.336  26.012  1.00  0.00     0.348 HD
ATOM     14  C   UNL A   1      33.783  27.044  25.818  1.00  0.00     0.102 C 
ATOM     15  C   UNL A   1      31.408  26.039  26.051  1.00  0.00     0.102 C 
BRANCH  10  16
ATOM     16  C   UNL A   1      33.613  23.637  24.059  1.00  0.00     0.338 C 
BRANCH  16  17
ATOM     17  C   UNL A   1      33.225  22.233  24.433  1.00  0.00     0.158 A 
ATOM     18  C   UNL A   1      34.597  18.946  24.660  1.00  0.00     0.087 C 
ATOM     19  C   UNL A   1      33.674  20.097  24.717  1.00  0.00     0.101 A 
ATOM     20  C   UNL A   1      32.439  20.312  25.288  1.00  0.00     0.046 A 
ATOM     21  O   UNL A   1      34.121  21.244  24.140  1.00  0.00    -0.460 OA
ATOM     22  C   UNL A   1      32.142  21.686  25.093  1.00  0.00     0.052 A 
ENDBRANCH  16  17
ENDBRANCH  10  16
BRANCH   9  23
ATOM     23  N   UNL A   1      31.825  28.099  24.757  1.00  0.00    -0.256 N 
ATOM     24  C   UNL A   1      32.603  28.459  23.680  1.00  0.00     0.110 A 
ATOM     25  N   UNL A   1      30.562  28.542  24.591  1.00  0.00    -0.176 NA
ATOM     26  C   UNL A   1      31.824  29.188  22.827  1.00  0.00     0.046 A 
ATOM     27  C   UNL A   1      30.558  29.223  23.441  1.00  0.00     0.068 A 
BRANCH  27  28
ATOM     28  C   UNL A   1      29.315  29.910  22.911  1.00  0.00     0.006 C 
ATOM     29  C   UNL A   1      29.025  31.172  23.749  1.00  0.00     0.017 C 
ATOM     30  C   UNL A   1      29.547  30.324  21.444  1.00  0.00     0.017 C 
ATOM     31  C   UNL A   1      28.073  29.001  22.969  1.00  0.00     0.017 C 
ENDBRANCH  27  28
ENDBRANCH   9  23
ENDBRANCH   6   9
ENDBRANCH   4   5
ENDBRANCH   3   4
ENDBRANCH   2   3
ENDBRANCH   1   2
BRANCH   1  32
ATOM     32  C   UNL A   1      36.293  33.743  29.206  1.00  0.00     0.021 C 
BRANCH  32  33
ATOM     33  C   UNL A   1      37.225  33.116  30.237  1.00  0.00     0.116 C 
BRANCH  33  34
ATOM     34  N   UNL A   1      36.572  32.054  30.985  1.00  0.00    -0.352 N 
ATOM     35  C   UNL A   1      36.900  30.725  31.058  1.00  0.00     0.251 C 
ATOM     36  H   UNL A   1      35.787  32.327  31.511  1.00  0.00     0.163 HD
ATOM     37  O   UNL A   1      36.119  29.924  31.568  1.00  0.00    -0.269 OA
BRANCH  35  38
ATOM     38  C   UNL A   1      38.187  30.260  30.502  1.00  0.00     0.039 A 
ATOM     39  C   UNL A   1      38.333  30.167  29.116  1.00  0.00     0.014 A 
ATOM     40  C   UNL A   1      39.249  29.927  31.348  1.00  0.00     0.014 A 
ATOM     41  C   UNL A   1      39.566  29.793  28.577  1.00  0.00     0.010 A 
ATOM     42  C   UNL A   1      40.496  29.632  30.808  1.00  0.00     0.010 A 
ATOM     43  C   UNL A   1      40.667  29.556  29.418  1.00  0.00    -0.014 A 
BRANCH  43  44
ATOM     44  C   UNL A   1      42.004  29.229  28.860  1.00  0.00     0.031 A 
ATOM     45  C   UNL A   1      42.300  27.839  28.366  1.00  0.00     0.074 A 
ATOM     46  C   UNL A   1      42.973  30.166  28.861  1.00  0.00     0.049 A 
ATOM     47  N   UNL A   1      43.420  27.352  27.897  1.00  0.00    -0.248 NA
ATOM     48  C   UNL A   1      41.201  26.862  28.431  1.00  0.00     0.031 C 
ATOM     49  C   UNL A   1      42.823  31.538  29.354  1.00  0.00     0.029 A 
ATOM     50  N   UNL A   1      44.279  30.106  28.442  1.00  0.00    -0.354 N 
ATOM     51  C   UNL A   1      43.168  26.012  27.631  1.00  0.00     0.074 A 
ATOM     52  C   UNL A   1      41.806  25.749  28.038  1.00  0.00     0.031 C 
ATOM     53  C   UNL A   1      43.982  32.194  29.185  1.00  0.00     0.029 A 
ATOM     54  C   UNL A   1      44.970  31.282  28.618  1.00  0.00     0.049 A 
ATOM     55  H   UNL A   1      44.682  29.298  28.052  1.00  0.00     0.167 HD
ATOM     56  C   UNL A   1      43.992  25.087  27.082  1.00  0.00     0.031 A 
ATOM     57  C   UNL A   1      46.256  31.592  28.363  1.00  0.00     0.031 A 
ATOM     58  C   UNL A   1      45.346  25.355  26.676  1.00  0.00     0.049 A 
ATOM     59  C   UNL A   1      47.156  30.546  27.764  1.00  0.00     0.074 A 
ATOM     60  C   UNL A   1      46.240  24.504  26.051  1.00  0.00     0.029 A 
ATOM     61  N   UNL A   1      46.005  26.562  26.862  1.00  0.00    -0.354 N 
ATOM     62  N   UNL A   1      46.877  29.304  27.447  1.00  0.00    -0.248 NA
ATOM     63  C   UNL A   1      48.540  30.946  27.477  1.00  0.00     0.031 C 
ATOM     64  C   UNL A   1      47.461  25.173  25.921  1.00  0.00     0.029 A 
ATOM     65  C   UNL A   1      47.306  26.467  26.396  1.00  0.00     0.049 A 
ATOM     66  H   UNL A   1      45.607  27.367  27.265  1.00  0.00     0.167 HD
ATOM     67  C   UNL A   1      48.042  28.781  26.899  1.00  0.00     0.074 A 
ATOM     68  C   UNL A   1      49.024  29.847  26.914  1.00  0.00     0.031 C 
ATOM     69  C   UNL A   1      48.277  27.533  26.423  1.00  0.00     0.031 A 
BRANCH  56  70
ATOM     70  C   UNL A   1      43.453  23.688  26.910  1.00  0.00    -0.014 A 
ATOM     71  C   UNL A   1      43.280  22.828  28.010  1.00  0.00     0.010 A 
ATOM     72  C   UNL A   1      43.084  23.237  25.629  1.00  0.00     0.010 A 
ATOM     73  C   UNL A   1      42.801  21.529  27.827  1.00  0.00     0.020 A 
ATOM     74  C   UNL A   1      42.573  21.950  25.444  1.00  0.00     0.020 A 
ATOM     75  C   UNL A   1      42.453  21.096  26.543  1.00  0.00     0.054 A 
BRANCH  75  76
ATOM     76  S   UNL A   1      41.826  19.408  26.335  1.00  0.00     0.124 S 
ATOM     77  O   UNL A   1      42.524  18.973  25.128  1.00  0.00    -0.237 OA
ATOM     78  O   UNL A   1      42.247  18.755  27.572  1.00  0.00    -0.237 OA
ATOM     79  O   UNL A   1      40.383  19.588  26.189  1.00  0.00    -0.744 OA
ENDBRANCH  75  76
ENDBRANCH  56  70
BRANCH  57  80
ATOM     80  C   UNL A   1      46.760  32.958  28.670  1.00  0.00    -0.014 A 
ATOM     81  C   UNL A   1      46.552  34.019  27.771  1.00  0.00     0.010 A 
ATOM     82  C   UNL A   1      47.422  33.213  29.885  1.00  0.00     0.010 A 
ATOM     83  C   UNL A   1      47.004  35.307  28.078  1.00  0.00     0.020 A 
ATOM     84  C   UNL A   1      47.849  34.504  30.209  1.00  0.00     0.020 A 
ATOM     85  C   UNL A   1      47.643  35.541  29.299  1.00  0.00     0.054 A 
BRANCH  85  86
ATOM     86  S   UNL A   1      48.155  37.234  29.706  1.00  0.00     0.124 S 
ATOM     87  O   UNL A   1      49.208  37.478  28.724  1.00  0.00    -0.237 OA
ATOM     88  O   UNL A   1      46.921  37.990  29.513  1.00  0.00    -0.237 OA
ATOM     89  O   UNL A   1      48.605  37.131  31.093  1.00  0.00    -0.744 OA
ENDBRANCH  85  86
ENDBRANCH  57  80
BRANCH  69  90
ATOM     90  C   UNL A   1      49.640  27.251  25.847  1.00  0.00    -0.014 A 
ATOM     91  C   UNL A   1      50.716  26.861  26.665  1.00  0.00     0.010 A 
ATOM     92  C   UNL A   1      49.829  27.318  24.454  1.00  0.00     0.010 A 
ATOM     93  C   UNL A   1      51.962  26.570  26.102  1.00  0.00     0.020 A 
ATOM     94  C   UNL A   1      51.064  26.998  23.885  1.00  0.00     0.020 A 
ATOM     95  C   UNL A   1      52.127  26.638  24.715  1.00  0.00     0.054 A 
BRANCH  95  96
ATOM     96  S   UNL A   1      53.740  26.206  24.007  1.00  0.00     0.124 S 
ATOM     97  O   UNL A   1      54.578  27.312  24.461  1.00  0.00    -0.237 OA
ATOM     98  O   UNL A   1      54.021  24.911  24.620  1.00  0.00    -0.237 OA
ATOM     99  O   UNL A   1      53.488  26.166  22.568  1.00  0.00    -0.744 OA
ENDBRANCH  95  96
ENDBRANCH  69  90
ENDBRANCH  43  44
ENDBRANCH  35  38
ENDBRANCH  33  34
ENDBRANCH  32  33
ENDBRANCH   1  32
TORSDOF 20
ENDMDL
MODEL 3
REMARK VINA RESULT:     -10.8      6.420      8.429
REMARK SMILES Cc1ccc(C[NH+]2CCC(C(=O)NCCCCCCNC(=O)c3ccc(-c4c5nc(c(-c6ccc(S(=O)(=O)[O-])cc6)c6ccc([nH]6)c(-c6ccc(S(=O)(=O)[O-])cc6)c6nc(c(-c7ccc(S(=O)(=O)[O-])cc7)c7ccc4[nH]7)C=C6)C=C5)cc3)(n3ccc(C(C)(C)C)n3)CC2)o1
REMARK SMILES IDX 17 1 16 2 15 3 14 4 13 5 11 6 12 7 10 9 7 10 8 11 93 12 9 14
REMARK SMILES IDX 92 15 6 16 5 17 1 18 2 19 3 20 94 21 4 22 83 23 84 24 91 25
REMARK SMILES IDX 85 26 86 27 87 28 88 29 89 30 90 31 18 32 19 33 20 34 21 35
REMARK SMILES IDX 22 37 23 38 24 39 82 40 25 41 81 42 26 43 27 44 28 45 75 46
REMARK SMILES IDX 29 47 80 48 74 49 76 50 30 51 79 52 73 53 72 54 31 56 61 57
REMARK SMILES IDX 42 58 60 59 43 60 46 61 59 62 77 63 44 64 45 65 58 67 78 68
REMARK SMILES IDX 47 69 32 70 33 71 41 72 34 73 40 74 35 75 36 76 37 77 38 78
REMARK SMILES IDX 39 79 62 80 63 81 71 82 64 83 70 84 65 85 66 86 67 87 68 88
REMARK SMILES IDX 69 89 48 90 49 91 57 92 50 93 56 94 51 95 52 96 53 97 54 98
REMARK SMILES IDX 55 99
REMARK H PARENT 13 8 7 13 20 36 76 55 46 66
REMARK Flexibility Score: inf
ROOT
ATOM      1  C   UNL A   1      33.526  28.611  26.021  1.00  0.00     0.002 C 
ENDROOT
BRANCH   1   2
ATOM      2  C   UNL A   1      32.015  28.360  25.991  1.00  0.00     0.002 C 
BRANCH   2   3
ATOM      3  C   UNL A   1      31.548  27.147  26.805  1.00  0.00     0.021 C 
BRANCH   3   4
ATOM      4  C   UNL A   1      30.853  26.074  25.970  1.00  0.00     0.116 C 
BRANCH   4   5
ATOM      5  N   UNL A   1      30.519  24.924  26.796  1.00  0.00    -0.354 N 
ATOM      6  C   UNL A   1      30.872  23.598  26.754  1.00  0.00     0.248 C 
ATOM      7  O   UNL A   1      30.235  22.916  27.560  1.00  0.00    -0.272 OA
ATOM      8  H   UNL A   1      29.914  25.143  27.542  1.00  0.00     0.163 HD
BRANCH   6   9
ATOM      9  C   UNL A   1      31.980  23.074  25.777  1.00  0.00     0.151 C 
ATOM     10  N   UNL A   1      33.119  20.450  24.981  1.00  0.00    -0.328 N 
ATOM     11  C   UNL A   1      33.876  21.305  25.895  1.00  0.00     0.265 C 
ATOM     12  C   UNL A   1      32.169  21.127  24.097  1.00  0.00     0.265 C 
ATOM     13  H   UNL A   1      32.533  19.893  25.601  1.00  0.00     0.348 HD
ATOM     14  C   UNL A   1      33.059  22.364  26.632  1.00  0.00     0.102 C 
ATOM     15  C   UNL A   1      31.260  22.132  24.784  1.00  0.00     0.102 C 
BRANCH  10  16
ATOM     16  C   UNL A   1      34.026  19.561  24.195  1.00  0.00     0.338 C 
BRANCH  16  17
ATOM     17  C   UNL A   1      34.152  18.157  24.718  1.00  0.00     0.158 A 
ATOM     18  C   UNL A   1      32.146  15.441  25.878  1.00  0.00     0.087 C 
ATOM     19  C   UNL A   1      33.297  16.275  25.475  1.00  0.00     0.101 A 
ATOM     20  C   UNL A   1      34.625  16.020  25.218  1.00  0.00     0.046 A 
ATOM     21  O   UNL A   1      33.024  17.585  25.236  1.00  0.00    -0.460 OA
ATOM     22  C   UNL A   1      35.181  17.236  24.743  1.00  0.00     0.052 A 
ENDBRANCH  16  17
ENDBRANCH  10  16
BRANCH   9  23
ATOM     23  N   UNL A   1      32.659  24.155  24.986  1.00  0.00    -0.256 N 
ATOM     24  C   UNL A   1      33.885  24.723  25.251  1.00  0.00     0.110 A 
ATOM     25  N   UNL A   1      32.118  24.705  23.881  1.00  0.00    -0.176 NA
ATOM     26  C   UNL A   1      34.109  25.691  24.313  1.00  0.00     0.046 A 
ATOM     27  C   UNL A   1      32.974  25.652  23.482  1.00  0.00     0.068 A 
BRANCH  27  28
ATOM     28  C   UNL A   1      32.708  26.527  22.274  1.00  0.00     0.006 C 
ATOM     29  C   UNL A   1      32.729  25.664  20.996  1.00  0.00     0.017 C 
ATOM     30  C   UNL A   1      31.319  27.183  22.414  1.00  0.00     0.017 C 
ATOM     31  C   UNL A   1      33.758  27.643  22.115  1.00  0.00     0.017 C 
ENDBRANCH  27  28
ENDBRANCH   9  23
ENDBRANCH   6   9
ENDBRANCH   4   5
ENDBRANCH   3   4
ENDBRANCH   2   3
ENDBRANCH   1   2
BRANCH   1  32
ATOM     32  C   UNL A   1      33.968  29.753  26.938  1.00  0.00     0.021 C 
BRANCH  32  33
ATOM     33  C   UNL A   1      35.254  29.477  27.709  1.00  0.00     0.116 C 
BRANCH  33  34
ATOM     34  N   UNL A   1      35.285  30.181  28.981  1.00  0.00    -0.352 N 
ATOM     35  C   UNL A   1      36.298  30.251  29.902  1.00  0.00     0.251 C 
ATOM     36  H   UNL A   1      34.467  30.676  29.213  1.00  0.00     0.163 HD
ATOM     37  O   UNL A   1      36.085  30.715  31.020  1.00  0.00    -0.269 OA
BRANCH  35  38
ATOM     38  C   UNL A   1      37.641  29.746  29.549  1.00  0.00     0.039 A 
ATOM     39  C   UNL A   1      38.081  29.857  28.228  1.00  0.00     0.014 A 
ATOM     40  C   UNL A   1      38.466  29.177  30.523  1.00  0.00     0.014 A 
ATOM     41  C   UNL A   1      39.373  29.445  27.896  1.00  0.00     0.010 A 
ATOM     42  C   UNL A   1      39.779  28.841  30.207  1.00  0.00     0.010 A 
ATOM     43  C   UNL A   1      40.244  28.965  28.889  1.00  0.00    -0.014 A 
BRANCH  43  44
ATOM     44  C   UNL A   1      41.646  28.593  28.568  1.00  0.00     0.031 A 
ATOM     45  C   UNL A   1      42.725  29.641  28.559  1.00  0.00     0.074 A 
ATOM     46  C   UNL A   1      41.934  27.323  28.218  1.00  0.00     0.049 A 
ATOM     47  N   UNL A   1      43.991  29.519  28.252  1.00  0.00    -0.248 NA
ATOM     48  C   UNL A   1      42.324  31.012  28.916  1.00  0.00     0.031 C 
ATOM     49  C   UNL A   1      40.967  26.225  28.147  1.00  0.00     0.029 A 
ATOM     50  N   UNL A   1      43.122  26.744  27.850  1.00  0.00    -0.354 N 
ATOM     51  C   UNL A   1      44.531  30.794  28.359  1.00  0.00     0.074 A 
ATOM     52  C   UNL A   1      43.447  31.685  28.709  1.00  0.00     0.031 C 
ATOM     53  C   UNL A   1      41.605  25.101  27.783  1.00  0.00     0.029 A 
ATOM     54  C   UNL A   1      43.013  25.406  27.550  1.00  0.00     0.049 A 
ATOM     55  H   UNL A   1      43.971  27.238  27.804  1.00  0.00     0.167 HD
ATOM     56  C   UNL A   1      45.818  31.186  28.197  1.00  0.00     0.031 A 
ATOM     57  C   UNL A   1      43.938  24.522  27.125  1.00  0.00     0.031 A 
ATOM     58  C   UNL A   1      46.893  30.294  27.852  1.00  0.00     0.049 A 
ATOM     59  C   UNL A   1      45.358  24.982  26.940  1.00  0.00     0.074 A 
ATOM     60  C   UNL A   1      48.241  30.580  27.728  1.00  0.00     0.029 A 
ATOM     61  N   UNL A   1      46.743  28.944  27.567  1.00  0.00    -0.354 N 
ATOM     62  N   UNL A   1      45.867  26.178  27.122  1.00  0.00    -0.248 NA
ATOM     63  C   UNL A   1      46.332  23.972  26.506  1.00  0.00     0.031 C 
ATOM     64  C   UNL A   1      48.896  29.421  27.301  1.00  0.00     0.029 A 
ATOM     65  C   UNL A   1      47.969  28.393  27.232  1.00  0.00     0.049 A 
ATOM     66  H   UNL A   1      45.892  28.451  27.598  1.00  0.00     0.167 HD
ATOM     67  C   UNL A   1      47.224  26.058  26.849  1.00  0.00     0.074 A 
ATOM     68  C   UNL A   1      47.460  24.670  26.505  1.00  0.00     0.031 C 
ATOM     69  C   UNL A   1      48.190  27.010  26.884  1.00  0.00     0.031 A 
BRANCH  56  70
ATOM     70  C   UNL A   1      46.128  32.652  28.371  1.00  0.00    -0.014 A 
ATOM     71  C   UNL A   1      46.025  33.555  27.297  1.00  0.00     0.010 A 
ATOM     72  C   UNL A   1      46.499  33.140  29.637  1.00  0.00     0.010 A 
ATOM     73  C   UNL A   1      46.338  34.905  27.473  1.00  0.00     0.020 A 
ATOM     74  C   UNL A   1      46.780  34.496  29.827  1.00  0.00     0.020 A 
ATOM     75  C   UNL A   1      46.717  35.367  28.737  1.00  0.00     0.054 A 
BRANCH  75  76
ATOM     76  S   UNL A   1      47.109  37.125  28.939  1.00  0.00     0.124 S 
ATOM     77  O   UNL A   1      46.446  37.717  27.779  1.00  0.00    -0.237 OA
ATOM     78  O   UNL A   1      46.509  37.441  30.233  1.00  0.00    -0.237 OA
ATOM     79  O   UNL A   1      48.569  37.163  28.907  1.00  0.00    -0.744 OA
ENDBRANCH  75  76
ENDBRANCH  56  70
BRANCH  57  80
ATOM     80  C   UNL A   1      43.542  23.114  26.853  1.00  0.00    -0.014 A 
ATOM     81  C   UNL A   1      43.803  22.522  25.605  1.00  0.00     0.010 A 
ATOM     82  C   UNL A   1      42.930  22.344  27.860  1.00  0.00     0.010 A 
ATOM     83  C   UNL A   1      43.451  21.189  25.366  1.00  0.00     0.020 A 
ATOM     84  C   UNL A   1      42.605  21.003  27.634  1.00  0.00     0.020 A 
ATOM     85  C   UNL A   1      42.862  20.437  26.385  1.00  0.00     0.054 A 
BRANCH  85  86
ATOM     86  S   UNL A   1      42.482  18.690  26.073  1.00  0.00     0.124 S 
ATOM     87  O   UNL A   1      42.768  18.080  27.368  1.00  0.00    -0.237 OA
ATOM     88  O   UNL A   1      41.073  18.739  25.693  1.00  0.00    -0.237 OA
ATOM     89  O   UNL A   1      43.399  18.328  24.994  1.00  0.00    -0.744 OA
ENDBRANCH  85  86
ENDBRANCH  57  80
BRANCH  69  90
ATOM     90  C   UNL A   1      49.601  26.585  26.572  1.00  0.00    -0.014 A 
ATOM     91  C   UNL A   1      50.434  26.028  27.558  1.00  0.00     0.010 A 
ATOM     92  C   UNL A   1      50.077  26.687  25.252  1.00  0.00     0.010 A 
ATOM     93  C   UNL A   1      51.727  25.607  27.235  1.00  0.00     0.020 A 
ATOM     94  C   UNL A   1      51.357  26.239  24.918  1.00  0.00     0.020 A 
ATOM     95  C   UNL A   1      52.180  25.713  25.916  1.00  0.00     0.054 A 
BRANCH  95  96
ATOM     96  S   UNL A   1      53.843  25.112  25.514  1.00  0.00     0.124 S 
ATOM     97  O   UNL A   1      54.385  26.218  24.729  1.00  0.00    -0.237 OA
ATOM     98  O   UNL A   1      54.442  24.923  26.832  1.00  0.00    -0.237 OA
ATOM     99  O   UNL A   1      53.596  23.881  24.766  1.00  0.00    -0.744 OA
ENDBRANCH  95  96
ENDBRANCH  69  90
ENDBRANCH  43  44
ENDBRANCH  35  38
ENDBRANCH  33  34
ENDBRANCH  32  33
ENDBRANCH   1  32
TORSDOF 20
ENDMDL
