MODEL 1
REMARK VINA RESULT:     -12.1      0.000      0.000
REMARK SMILES O=C(NCCCCCCNC(=O)[C@]1(NC(=O)C2CCN(C(=O)C3CC3)CC2)CCCc2ccccc21)c1ccc(-c2c3nc(c(-c4ccc(S(=O)(=O)[O-])cc4)c4ccc([nH]4)c(-c4ccc(S(=O)(=O)[O-])cc4)c4nc(c(-c5ccc(S(=O)(=O)[O-])cc5)c5ccc2[nH]5)C=C4)C=C3)cc1
REMARK SMILES IDX 6 1 5 2 4 3 3 4 1 5 2 6 37 8 38 9 96 10 39 11 95 12 40 13
REMARK SMILES IDX 41 14 42 15 89 16 43 17 94 18 88 19 90 20 44 21 93 22 87 23
REMARK SMILES IDX 86 24 45 26 75 27 56 28 74 29 57 30 60 31 73 32 91 33 58 34
REMARK SMILES IDX 59 35 72 37 92 38 61 39 46 40 47 41 55 42 48 43 54 44 49 45
REMARK SMILES IDX 50 46 51 47 52 48 53 49 76 50 77 51 85 52 78 53 84 54 79 55
REMARK SMILES IDX 80 56 81 57 82 58 83 59 62 60 63 61 71 62 64 63 70 64 65 65
REMARK SMILES IDX 66 66 67 67 68 68 69 69 7 70 8 71 9 72 10 73 11 74 12 76
REMARK SMILES IDX 13 77 28 78 36 79 29 80 31 81 35 82 30 83 32 84 34 85 33 86
REMARK SMILES IDX 14 87 15 88 16 90 17 91 18 92 27 93 19 94 26 95 20 96 21 97
REMARK SMILES IDX 22 98 23 99 24 100 25 101
REMARK H PARENT 3 7 90 25 60 36 10 75 14 89
REMARK Flexibility Score: inf
ROOT
ATOM      1  C   UNL A   1      34.307  32.017  28.302  1.00  0.00     0.002 C 
ENDROOT
BRANCH   1   2
ATOM      2  C   UNL A   1      35.240  33.208  28.521  1.00  0.00     0.021 C 
BRANCH   2   3
ATOM      3  C   UNL A   1      36.332  32.987  29.557  1.00  0.00     0.116 C 
BRANCH   3   4
ATOM      4  N   UNL A   1      35.949  32.021  30.570  1.00  0.00    -0.352 N 
ATOM      5  O   UNL A   1      36.072  30.082  31.720  1.00  0.00    -0.269 OA
ATOM      6  C   UNL A   1      36.609  30.880  30.959  1.00  0.00     0.251 C 
ATOM      7  H   UNL A   1      35.104  32.208  31.041  1.00  0.00     0.163 HD
BRANCH   6   8
ATOM      8  C   UNL A   1      37.963  30.615  30.425  1.00  0.00     0.039 A 
ATOM      9  C   UNL A   1      38.152  30.398  29.059  1.00  0.00     0.014 A 
ATOM     10  C   UNL A   1      39.044  30.551  31.306  1.00  0.00     0.014 A 
ATOM     11  C   UNL A   1      39.390  29.967  28.597  1.00  0.00     0.010 A 
ATOM     12  C   UNL A   1      40.310  30.206  30.823  1.00  0.00     0.010 A 
ATOM     13  C   UNL A   1      40.486  29.875  29.470  1.00  0.00    -0.014 A 
BRANCH  13  14
ATOM     14  C   UNL A   1      41.811  29.474  28.931  1.00  0.00     0.031 A 
ATOM     15  C   UNL A   1      42.969  30.436  28.909  1.00  0.00     0.074 A 
ATOM     16  C   UNL A   1      41.973  28.211  28.491  1.00  0.00     0.049 A 
ATOM     17  N   UNL A   1      44.200  30.229  28.516  1.00  0.00    -0.248 NA
ATOM     18  C   UNL A   1      42.715  31.807  29.381  1.00  0.00     0.031 C 
ATOM     19  C   UNL A   1      40.921  27.190  28.455  1.00  0.00     0.029 A 
ATOM     20  N   UNL A   1      43.082  27.558  28.018  1.00  0.00    -0.354 N 
ATOM     21  C   UNL A   1      44.860  31.444  28.662  1.00  0.00     0.074 A 
ATOM     22  C   UNL A   1      43.887  32.391  29.165  1.00  0.00     0.031 C 
ATOM     23  C   UNL A   1      41.449  26.028  28.048  1.00  0.00     0.029 A 
ATOM     24  C   UNL A   1      42.858  26.233  27.732  1.00  0.00     0.049 A 
ATOM     25  H   UNL A   1      43.955  27.997  27.897  1.00  0.00     0.167 HD
ATOM     26  C   UNL A   1      46.156  31.743  28.400  1.00  0.00     0.031 A 
ATOM     27  C   UNL A   1      43.688  25.285  27.260  1.00  0.00     0.031 A 
ATOM     28  C   UNL A   1      47.122  30.794  27.909  1.00  0.00     0.049 A 
ATOM     29  C   UNL A   1      45.118  25.643  26.982  1.00  0.00     0.074 A 
ATOM     30  C   UNL A   1      48.467  30.992  27.647  1.00  0.00     0.029 A 
ATOM     31  N   UNL A   1      46.849  29.469  27.606  1.00  0.00    -0.354 N 
ATOM     32  N   UNL A   1      45.726  26.792  27.153  1.00  0.00    -0.248 NA
ATOM     33  C   UNL A   1      45.974  24.575  26.449  1.00  0.00     0.031 C 
ATOM     34  C   UNL A   1      48.996  29.799  27.142  1.00  0.00     0.029 A 
ATOM     35  C   UNL A   1      47.994  28.842  27.142  1.00  0.00     0.049 A 
ATOM     36  H   UNL A   1      45.969  29.037  27.705  1.00  0.00     0.167 HD
ATOM     37  C   UNL A   1      47.045  26.581  26.770  1.00  0.00     0.074 A 
ATOM     38  C   UNL A   1      47.147  25.189  26.375  1.00  0.00     0.031 C 
ATOM     39  C   UNL A   1      48.078  27.458  26.749  1.00  0.00     0.031 A 
BRANCH  26  40
ATOM     40  C   UNL A   1      46.601  33.167  28.612  1.00  0.00    -0.014 A 
ATOM     41  C   UNL A   1      47.171  33.584  29.828  1.00  0.00     0.010 A 
ATOM     42  C   UNL A   1      46.485  34.094  27.559  1.00  0.00     0.010 A 
ATOM     43  C   UNL A   1      47.577  34.911  30.001  1.00  0.00     0.020 A 
ATOM     44  C   UNL A   1      46.913  35.416  27.720  1.00  0.00     0.020 A 
ATOM     45  C   UNL A   1      47.440  35.820  28.948  1.00  0.00     0.054 A 
BRANCH  45  46
ATOM     46  S   UNL A   1      47.985  37.532  29.196  1.00  0.00     0.124 S 
ATOM     47  O   UNL A   1      48.744  37.428  30.441  1.00  0.00    -0.237 OA
ATOM     48  O   UNL A   1      48.779  37.794  27.999  1.00  0.00    -0.237 OA
ATOM     49  O   UNL A   1      46.737  38.285  29.289  1.00  0.00    -0.744 OA
ENDBRANCH  45  46
ENDBRANCH  26  40
BRANCH  27  50
ATOM     50  C   UNL A   1      43.180  23.907  27.034  1.00  0.00    -0.014 A 
ATOM     51  C   UNL A   1      43.222  22.952  28.065  1.00  0.00     0.010 A 
ATOM     52  C   UNL A   1      42.618  23.552  25.794  1.00  0.00     0.010 A 
ATOM     53  C   UNL A   1      42.724  21.663  27.855  1.00  0.00     0.020 A 
ATOM     54  C   UNL A   1      42.093  22.273  25.589  1.00  0.00     0.020 A 
ATOM     55  C   UNL A   1      42.160  21.333  26.619  1.00  0.00     0.054 A 
BRANCH  55  56
ATOM     56  S   UNL A   1      41.465  19.674  26.386  1.00  0.00     0.124 S 
ATOM     57  O   UNL A   1      40.075  19.972  26.055  1.00  0.00    -0.237 OA
ATOM     58  O   UNL A   1      42.276  19.141  25.294  1.00  0.00    -0.237 OA
ATOM     59  O   UNL A   1      41.678  19.031  27.681  1.00  0.00    -0.744 OA
ENDBRANCH  55  56
ENDBRANCH  27  50
BRANCH  39  60
ATOM     60  C   UNL A   1      49.417  26.925  26.320  1.00  0.00    -0.014 A 
ATOM     61  C   UNL A   1      50.288  26.312  27.238  1.00  0.00     0.010 A 
ATOM     62  C   UNL A   1      49.797  27.020  24.969  1.00  0.00     0.010 A 
ATOM     63  C   UNL A   1      51.536  25.843  26.820  1.00  0.00     0.020 A 
ATOM     64  C   UNL A   1      51.033  26.529  24.542  1.00  0.00     0.020 A 
ATOM     65  C   UNL A   1      51.903  25.960  25.476  1.00  0.00     0.054 A 
BRANCH  65  66
ATOM     66  S   UNL A   1      53.519  25.327  24.950  1.00  0.00     0.124 S 
ATOM     67  O   UNL A   1      53.374  23.893  25.186  1.00  0.00    -0.237 OA
ATOM     68  O   UNL A   1      53.583  25.730  23.548  1.00  0.00    -0.237 OA
ATOM     69  O   UNL A   1      54.462  26.011  25.832  1.00  0.00    -0.744 OA
ENDBRANCH  65  66
ENDBRANCH  39  60
ENDBRANCH  13  14
ENDBRANCH   6   8
ENDBRANCH   3   4
ENDBRANCH   2   3
ENDBRANCH   1   2
BRANCH   1  70
ATOM     70  C   UNL A   1      34.783  30.975  27.283  1.00  0.00     0.002 C 
BRANCH  70  71
ATOM     71  C   UNL A   1      34.771  29.519  27.762  1.00  0.00     0.021 C 
BRANCH  71  72
ATOM     72  C   UNL A   1      33.975  28.572  26.876  1.00  0.00     0.116 C 
BRANCH  72  73
ATOM     73  N   UNL A   1      34.289  28.733  25.475  1.00  0.00    -0.354 N 
ATOM     74  C   UNL A   1      33.950  28.024  24.369  1.00  0.00     0.250 C 
ATOM     75  H   UNL A   1      34.862  29.511  25.285  1.00  0.00     0.163 HD
ATOM     76  O   UNL A   1      33.948  28.721  23.346  1.00  0.00    -0.272 OA
BRANCH  74  77
ATOM     77  C   UNL A   1      33.552  26.493  24.313  1.00  0.00     0.145 C 
ATOM     78  C   UNL A   1      33.976  26.048  22.877  1.00  0.00     0.044 C 
ATOM     79  C   UNL A   1      32.060  26.189  24.525  1.00  0.00    -0.010 A 
ATOM     80  C   UNL A   1      33.035  26.577  21.809  1.00  0.00     0.008 C 
ATOM     81  C   UNL A   1      31.185  25.963  23.430  1.00  0.00    -0.042 A 
ATOM     82  C   UNL A   1      31.514  26.191  25.825  1.00  0.00     0.007 A 
ATOM     83  C   UNL A   1      31.657  25.963  21.994  1.00  0.00     0.036 C 
ATOM     84  C   UNL A   1      29.814  25.758  23.661  1.00  0.00     0.004 A 
ATOM     85  C   UNL A   1      30.146  25.996  26.033  1.00  0.00     0.000 A 
ATOM     86  C   UNL A   1      29.297  25.787  24.952  1.00  0.00     0.000 A 
BRANCH  77  87
ATOM     87  N   UNL A   1      34.342  25.560  25.194  1.00  0.00    -0.338 N 
ATOM     88  C   UNL A   1      34.962  24.361  25.039  1.00  0.00     0.224 C 
ATOM     89  H   UNL A   1      34.431  25.905  26.112  1.00  0.00     0.164 HD
ATOM     90  O   UNL A   1      35.938  24.142  25.764  1.00  0.00    -0.275 OA
BRANCH  88  91
ATOM     91  C   UNL A   1      34.410  23.285  24.120  1.00  0.00     0.082 C 
ATOM     92  C   UNL A   1      33.082  22.739  24.694  1.00  0.00     0.035 C 
ATOM     93  C   UNL A   1      35.435  22.145  23.882  1.00  0.00     0.035 C 
ATOM     94  C   UNL A   1      33.262  21.682  25.773  1.00  0.00     0.120 C 
ATOM     95  C   UNL A   1      35.480  21.126  25.025  1.00  0.00     0.120 C 
ATOM     96  N   UNL A   1      34.134  20.631  25.276  1.00  0.00    -0.342 N 
ATOM     97  C   UNL A   1      33.534  19.434  24.885  1.00  0.00     0.225 C 
ATOM     98  O   UNL A   1      32.319  19.270  25.000  1.00  0.00    -0.275 OA
BRANCH  97  99
ATOM     99  C   UNL A   1      34.272  18.255  24.341  1.00  0.00     0.079 C 
ATOM    100  C   UNL A   1      34.033  16.792  24.555  1.00  0.00     0.014 C 
ATOM    101  C   UNL A   1      33.711  17.418  23.223  1.00  0.00     0.014 C 
ENDBRANCH  97  99
ENDBRANCH  88  91
ENDBRANCH  77  87
ENDBRANCH  74  77
ENDBRANCH  72  73
ENDBRANCH  71  72
ENDBRANCH  70  71
ENDBRANCH   1  70
TORSDOF 19
ENDMDL
MODEL 2
REMARK VINA RESULT:     -11.9      6.111     11.920
REMARK SMILES O=C(NCCCCCCNC(=O)[C@]1(NC(=O)C2CCN(C(=O)C3CC3)CC2)CCCc2ccccc21)c1ccc(-c2c3nc(c(-c4ccc(S(=O)(=O)[O-])cc4)c4ccc([nH]4)c(-c4ccc(S(=O)(=O)[O-])cc4)c4nc(c(-c5ccc(S(=O)(=O)[O-])cc5)c5ccc2[nH]5)C=C4)C=C3)cc1
REMARK SMILES IDX 6 1 5 2 4 3 3 4 1 5 2 6 37 8 38 9 96 10 39 11 95 12 40 13
REMARK SMILES IDX 41 14 42 15 89 16 43 17 94 18 88 19 90 20 44 21 93 22 87 23
REMARK SMILES IDX 86 24 45 26 75 27 56 28 74 29 57 30 60 31 73 32 91 33 58 34
REMARK SMILES IDX 59 35 72 37 92 38 61 39 46 40 47 41 55 42 48 43 54 44 49 45
REMARK SMILES IDX 50 46 51 47 52 48 53 49 76 50 77 51 85 52 78 53 84 54 79 55
REMARK SMILES IDX 80 56 81 57 82 58 83 59 62 60 63 61 71 62 64 63 70 64 65 65
REMARK SMILES IDX 66 66 67 67 68 68 69 69 7 70 8 71 9 72 10 73 11 74 12 76
REMARK SMILES IDX 13 77 28 78 36 79 29 80 31 81 35 82 30 83 32 84 34 85 33 86
REMARK SMILES IDX 14 87 15 88 16 90 17 91 18 92 27 93 19 94 26 95 20 96 21 97
REMARK SMILES IDX 22 98 23 99 24 100 25 101
REMARK H PARENT 3 7 90 25 60 36 10 75 14 89
REMARK Flexibility Score: inf
ROOT
ATOM      1  C   UNL A   1      38.702  22.199  25.757  1.00  0.00     0.002 C 
ENDROOT
BRANCH   1   2
ATOM      2  C   UNL A   1      39.744  22.133  26.873  1.00  0.00     0.021 C 
BRANCH   2   3
ATOM      3  C   UNL A   1      40.333  23.474  27.283  1.00  0.00     0.116 C 
BRANCH   3   4
ATOM      4  N   UNL A   1      41.001  24.146  26.184  1.00  0.00    -0.352 N 
ATOM      5  O   UNL A   1      41.693  25.919  24.968  1.00  0.00    -0.269 OA
ATOM      6  C   UNL A   1      41.262  25.487  26.032  1.00  0.00     0.251 C 
ATOM      7  H   UNL A   1      41.308  23.565  25.450  1.00  0.00     0.163 HD
BRANCH   6   8
ATOM      8  C   UNL A   1      40.986  26.406  27.159  1.00  0.00     0.039 A 
ATOM      9  C   UNL A   1      41.742  27.569  27.322  1.00  0.00     0.014 A 
ATOM     10  C   UNL A   1      39.986  26.079  28.077  1.00  0.00     0.014 A 
ATOM     11  C   UNL A   1      41.601  28.322  28.480  1.00  0.00     0.010 A 
ATOM     12  C   UNL A   1      39.784  26.891  29.197  1.00  0.00     0.010 A 
ATOM     13  C   UNL A   1      40.615  28.000  29.428  1.00  0.00    -0.014 A 
BRANCH  13  14
ATOM     14  C   UNL A   1      40.448  28.865  30.623  1.00  0.00     0.031 A 
ATOM     15  C   UNL A   1      41.364  28.742  31.811  1.00  0.00     0.074 A 
ATOM     16  C   UNL A   1      39.476  29.799  30.613  1.00  0.00     0.049 A 
ATOM     17  N   UNL A   1      41.382  29.452  32.911  1.00  0.00    -0.248 NA
ATOM     18  C   UNL A   1      42.387  27.685  31.766  1.00  0.00     0.031 C 
ATOM     19  C   UNL A   1      38.520  30.007  29.520  1.00  0.00     0.029 A 
ATOM     20  N   UNL A   1      39.146  30.764  31.529  1.00  0.00    -0.354 N 
ATOM     21  C   UNL A   1      42.390  28.912  33.701  1.00  0.00     0.074 A 
ATOM     22  C   UNL A   1      42.953  27.803  32.961  1.00  0.00     0.031 C 
ATOM     23  C   UNL A   1      37.757  31.073  29.801  1.00  0.00     0.029 A 
ATOM     24  C   UNL A   1      38.121  31.583  31.118  1.00  0.00     0.049 A 
ATOM     25  H   UNL A   1      39.600  30.861  32.397  1.00  0.00     0.167 HD
ATOM     26  C   UNL A   1      42.809  29.305  34.929  1.00  0.00     0.031 A 
ATOM     27  C   UNL A   1      37.532  32.625  31.731  1.00  0.00     0.031 A 
ATOM     28  C   UNL A   1      42.252  30.417  35.656  1.00  0.00     0.049 A 
ATOM     29  C   UNL A   1      38.017  33.039  33.089  1.00  0.00     0.074 A 
ATOM     30  C   UNL A   1      42.632  30.914  36.892  1.00  0.00     0.029 A 
ATOM     31  N   UNL A   1      41.198  31.203  35.217  1.00  0.00    -0.354 N 
ATOM     32  N   UNL A   1      38.991  32.531  33.804  1.00  0.00    -0.248 NA
ATOM     33  C   UNL A   1      37.325  34.171  33.719  1.00  0.00     0.031 C 
ATOM     34  C   UNL A   1      41.777  31.974  37.219  1.00  0.00     0.029 A 
ATOM     35  C   UNL A   1      40.901  32.171  36.164  1.00  0.00     0.049 A 
ATOM     36  H   UNL A   1      40.728  31.090  34.359  1.00  0.00     0.167 HD
ATOM     37  C   UNL A   1      39.045  33.296  34.964  1.00  0.00     0.074 A 
ATOM     38  C   UNL A   1      38.016  34.310  34.843  1.00  0.00     0.031 C 
ATOM     39  C   UNL A   1      39.871  33.170  36.030  1.00  0.00     0.031 A 
BRANCH  26  40
ATOM     40  C   UNL A   1      43.908  28.506  35.582  1.00  0.00    -0.014 A 
ATOM     41  C   UNL A   1      45.262  28.838  35.400  1.00  0.00     0.010 A 
ATOM     42  C   UNL A   1      43.576  27.430  36.425  1.00  0.00     0.010 A 
ATOM     43  C   UNL A   1      46.265  28.083  36.017  1.00  0.00     0.020 A 
ATOM     44  C   UNL A   1      44.575  26.687  37.063  1.00  0.00     0.020 A 
ATOM     45  C   UNL A   1      45.915  27.008  36.839  1.00  0.00     0.054 A 
BRANCH  45  46
ATOM     46  S   UNL A   1      47.235  26.052  37.635  1.00  0.00     0.124 S 
ATOM     47  O   UNL A   1      47.927  27.082  38.406  1.00  0.00    -0.237 OA
ATOM     48  O   UNL A   1      46.492  25.072  38.423  1.00  0.00    -0.237 OA
ATOM     49  O   UNL A   1      47.990  25.501  36.513  1.00  0.00    -0.744 OA
ENDBRANCH  45  46
ENDBRANCH  26  40
BRANCH  27  50
ATOM     50  C   UNL A   1      36.426  33.349  31.052  1.00  0.00    -0.014 A 
ATOM     51  C   UNL A   1      35.160  33.447  31.657  1.00  0.00     0.010 A 
ATOM     52  C   UNL A   1      36.642  33.976  29.811  1.00  0.00     0.010 A 
ATOM     53  C   UNL A   1      34.128  34.147  31.026  1.00  0.00     0.020 A 
ATOM     54  C   UNL A   1      35.621  34.699  29.191  1.00  0.00     0.020 A 
ATOM     55  C   UNL A   1      34.366  34.771  29.798  1.00  0.00     0.054 A 
BRANCH  55  56
ATOM     56  S   UNL A   1      33.031  35.724  29.025  1.00  0.00     0.124 S 
ATOM     57  O   UNL A   1      33.772  36.755  28.306  1.00  0.00    -0.237 OA
ATOM     58  O   UNL A   1      32.368  34.723  28.192  1.00  0.00    -0.237 OA
ATOM     59  O   UNL A   1      32.245  36.194  30.163  1.00  0.00    -0.744 OA
ENDBRANCH  55  56
ENDBRANCH  27  50
BRANCH  39  60
ATOM     60  C   UNL A   1      39.720  34.182  37.133  1.00  0.00    -0.014 A 
ATOM     61  C   UNL A   1      38.968  33.898  38.287  1.00  0.00     0.010 A 
ATOM     62  C   UNL A   1      40.363  35.427  37.019  1.00  0.00     0.010 A 
ATOM     63  C   UNL A   1      38.823  34.862  39.287  1.00  0.00     0.020 A 
ATOM     64  C   UNL A   1      40.243  36.384  38.030  1.00  0.00     0.020 A 
ATOM     65  C   UNL A   1      39.457  36.101  39.150  1.00  0.00     0.054 A 
BRANCH  65  66
ATOM     66  S   UNL A   1      39.274  37.331  40.470  1.00  0.00     0.124 S 
ATOM     67  O   UNL A   1      38.230  38.199  39.932  1.00  0.00    -0.237 OA
ATOM     68  O   UNL A   1      38.885  36.518  41.619  1.00  0.00    -0.237 OA
ATOM     69  O   UNL A   1      40.600  37.937  40.564  1.00  0.00    -0.744 OA
ENDBRANCH  65  66
ENDBRANCH  39  60
ENDBRANCH  13  14
ENDBRANCH   6   8
ENDBRANCH   3   4
ENDBRANCH   2   3
ENDBRANCH   1   2
BRANCH   1  70
ATOM     70  C   UNL A   1      37.575  23.220  25.956  1.00  0.00     0.002 C 
BRANCH  70  71
ATOM     71  C   UNL A   1      36.247  22.892  25.266  1.00  0.00     0.021 C 
BRANCH  71  72
ATOM     72  C   UNL A   1      35.060  23.703  25.765  1.00  0.00     0.116 C 
BRANCH  72  73
ATOM     73  N   UNL A   1      34.878  24.927  25.018  1.00  0.00    -0.354 N 
ATOM     74  C   UNL A   1      33.772  25.577  24.577  1.00  0.00     0.250 C 
ATOM     75  H   UNL A   1      35.721  25.376  24.784  1.00  0.00     0.163 HD
ATOM     76  O   UNL A   1      33.961  26.796  24.455  1.00  0.00    -0.272 OA
BRANCH  74  77
ATOM     77  C   UNL A   1      32.359  24.937  24.267  1.00  0.00     0.145 C 
ATOM     78  C   UNL A   1      31.456  25.433  25.442  1.00  0.00     0.044 C 
ATOM     79  C   UNL A   1      32.326  23.402  24.209  1.00  0.00    -0.010 A 
ATOM     80  C   UNL A   1      31.761  24.716  26.745  1.00  0.00     0.008 C 
ATOM     81  C   UNL A   1      31.900  22.625  25.318  1.00  0.00    -0.042 A 
ATOM     82  C   UNL A   1      32.784  22.726  23.059  1.00  0.00     0.007 A 
ATOM     83  C   UNL A   1      31.414  23.242  26.609  1.00  0.00     0.036 C 
ATOM     84  C   UNL A   1      31.952  21.222  25.251  1.00  0.00     0.004 A 
ATOM     85  C   UNL A   1      32.838  21.331  23.016  1.00  0.00     0.000 A 
ATOM     86  C   UNL A   1      32.430  20.581  24.112  1.00  0.00     0.000 A 
BRANCH  77  87
ATOM     87  N   UNL A   1      31.634  25.460  23.053  1.00  0.00    -0.338 N 
ATOM     88  C   UNL A   1      31.239  26.678  22.600  1.00  0.00     0.224 C 
ATOM     89  H   UNL A   1      31.384  24.737  22.433  1.00  0.00     0.164 HD
ATOM     90  O   UNL A   1      31.165  26.819  21.375  1.00  0.00    -0.275 OA
BRANCH  88  91
ATOM     91  C   UNL A   1      30.779  27.775  23.545  1.00  0.00     0.082 C 
ATOM     92  C   UNL A   1      29.294  27.558  23.915  1.00  0.00     0.035 C 
ATOM     93  C   UNL A   1      31.015  29.188  22.950  1.00  0.00     0.035 C 
ATOM     94  C   UNL A   1      28.314  28.085  22.876  1.00  0.00     0.120 C 
ATOM     95  C   UNL A   1      29.929  29.611  21.954  1.00  0.00     0.120 C 
ATOM     96  N   UNL A   1      28.624  29.474  22.584  1.00  0.00    -0.342 N 
ATOM     97  C   UNL A   1      27.798  30.446  23.149  1.00  0.00     0.225 C 
ATOM     98  O   UNL A   1      26.823  30.126  23.831  1.00  0.00    -0.275 OA
BRANCH  97  99
ATOM     99  C   UNL A   1      27.974  31.917  22.966  1.00  0.00     0.079 C 
ATOM    100  C   UNL A   1      29.221  32.712  22.726  1.00  0.00     0.014 C 
ATOM    101  C   UNL A   1      28.227  32.521  21.610  1.00  0.00     0.014 C 
ENDBRANCH  97  99
ENDBRANCH  88  91
ENDBRANCH  77  87
ENDBRANCH  74  77
ENDBRANCH  72  73
ENDBRANCH  71  72
ENDBRANCH  70  71
ENDBRANCH   1  70
TORSDOF 19
ENDMDL
MODEL 3
REMARK VINA RESULT:     -11.8      5.703      9.678
REMARK SMILES O=C(NCCCCCCNC(=O)[C@]1(NC(=O)C2CCN(C(=O)C3CC3)CC2)CCCc2ccccc21)c1ccc(-c2c3nc(c(-c4ccc(S(=O)(=O)[O-])cc4)c4ccc([nH]4)c(-c4ccc(S(=O)(=O)[O-])cc4)c4nc(c(-c5ccc(S(=O)(=O)[O-])cc5)c5ccc2[nH]5)C=C4)C=C3)cc1
REMARK SMILES IDX 6 1 5 2 4 3 3 4 1 5 2 6 37 8 38 9 96 10 39 11 95 12 40 13
REMARK SMILES IDX 41 14 42 15 89 16 43 17 94 18 88 19 90 20 44 21 93 22 87 23
REMARK SMILES IDX 86 24 45 26 75 27 56 28 74 29 57 30 60 31 73 32 91 33 58 34
REMARK SMILES IDX 59 35 72 37 92 38 61 39 46 40 47 41 55 42 48 43 54 44 49 45
REMARK SMILES IDX 50 46 51 47 52 48 53 49 76 50 77 51 85 52 78 53 84 54 79 55
REMARK SMILES IDX 80 56 81 57 82 58 83 59 62 60 63 61 71 62 64 63 70 64 65 65
REMARK SMILES IDX 66 66 67 67 68 68 69 69 7 70 8 71 9 72 10 73 11 74 12 76
REMARK SMILES IDX 13 77 28 78 36 79 29 80 31 81 35 82 30 83 32 84 34 85 33 86
REMARK SMILES IDX 14 87 15 88 16 90 17 91 18 92 27 93 19 94 26 95 20 96 21 97
REMARK SMILES IDX 22 98 23 99 24 100 25 101
REMARK H PARENT 3 7 90 25 60 36 10 75 14 89
REMARK Flexibility Score: inf
ROOT
ATOM      1  C   UNL A   1      35.250  32.039  28.322  1.00  0.00     0.002 C 
ENDROOT
BRANCH   1   2
ATOM      2  C   UNL A   1      34.012  32.885  28.024  1.00  0.00     0.021 C 
BRANCH   2   3
ATOM      3  C   UNL A   1      34.193  34.382  28.225  1.00  0.00     0.116 C 
BRANCH   3   4
ATOM      4  N   UNL A   1      33.243  34.935  29.172  1.00  0.00    -0.352 N 
ATOM      5  O   UNL A   1      32.296  35.247  31.198  1.00  0.00    -0.269 OA
ATOM      6  C   UNL A   1      33.262  34.865  30.544  1.00  0.00     0.251 C 
ATOM      7  H   UNL A   1      32.484  35.425  28.779  1.00  0.00     0.163 HD
BRANCH   6   8
ATOM      8  C   UNL A   1      34.449  34.295  31.219  1.00  0.00     0.039 A 
ATOM      9  C   UNL A   1      35.623  35.042  31.330  1.00  0.00     0.014 A 
ATOM     10  C   UNL A   1      34.393  32.990  31.712  1.00  0.00     0.014 A 
ATOM     11  C   UNL A   1      36.782  34.434  31.795  1.00  0.00     0.010 A 
ATOM     12  C   UNL A   1      35.539  32.410  32.264  1.00  0.00     0.010 A 
ATOM     13  C   UNL A   1      36.753  33.114  32.277  1.00  0.00    -0.014 A 
BRANCH  13  14
ATOM     14  C   UNL A   1      37.996  32.516  32.828  1.00  0.00     0.031 A 
ATOM     15  C   UNL A   1      38.912  31.687  31.968  1.00  0.00     0.074 A 
ATOM     16  C   UNL A   1      38.315  32.762  34.114  1.00  0.00     0.049 A 
ATOM     17  N   UNL A   1      40.057  31.135  32.283  1.00  0.00    -0.248 NA
ATOM     18  C   UNL A   1      38.491  31.438  30.580  1.00  0.00     0.031 C 
ATOM     19  C   UNL A   1      37.501  33.546  35.049  1.00  0.00     0.029 A 
ATOM     20  N   UNL A   1      39.415  32.408  34.852  1.00  0.00    -0.354 N 
ATOM     21  C   UNL A   1      40.478  30.449  31.150  1.00  0.00     0.074 A 
ATOM     22  C   UNL A   1      39.457  30.640  30.141  1.00  0.00     0.031 C 
ATOM     23  C   UNL A   1      38.158  33.665  36.211  1.00  0.00     0.029 A 
ATOM     24  C   UNL A   1      39.406  32.916  36.129  1.00  0.00     0.049 A 
ATOM     25  H   UNL A   1      40.141  31.844  34.500  1.00  0.00     0.167 HD
ATOM     26  C   UNL A   1      41.610  29.727  30.966  1.00  0.00     0.031 A 
ATOM     27  C   UNL A   1      40.297  32.790  37.129  1.00  0.00     0.031 A 
ATOM     28  C   UNL A   1      42.628  29.548  31.969  1.00  0.00     0.049 A 
ATOM     29  C   UNL A   1      41.542  31.987  36.897  1.00  0.00     0.074 A 
ATOM     30  C   UNL A   1      43.827  28.864  31.867  1.00  0.00     0.029 A 
ATOM     31  N   UNL A   1      42.568  30.056  33.258  1.00  0.00    -0.354 N 
ATOM     32  N   UNL A   1      41.932  31.370  35.808  1.00  0.00    -0.248 NA
ATOM     33  C   UNL A   1      42.469  31.866  38.030  1.00  0.00     0.031 C 
ATOM     34  C   UNL A   1      44.471  28.920  33.109  1.00  0.00     0.029 A 
ATOM     35  C   UNL A   1      43.699  29.686  33.968  1.00  0.00     0.049 A 
ATOM     36  H   UNL A   1      41.829  30.600  33.617  1.00  0.00     0.167 HD
ATOM     37  C   UNL A   1      43.163  30.804  36.116  1.00  0.00     0.074 A 
ATOM     38  C   UNL A   1      43.459  31.168  37.488  1.00  0.00     0.031 C 
ATOM     39  C   UNL A   1      43.976  30.053  35.333  1.00  0.00     0.031 A 
BRANCH  26  40
ATOM     40  C   UNL A   1      41.796  29.046  29.634  1.00  0.00    -0.014 A 
ATOM     41  C   UNL A   1      42.367  29.720  28.540  1.00  0.00     0.010 A 
ATOM     42  C   UNL A   1      41.433  27.694  29.489  1.00  0.00     0.010 A 
ATOM     43  C   UNL A   1      42.530  29.067  27.314  1.00  0.00     0.020 A 
ATOM     44  C   UNL A   1      41.618  27.031  28.272  1.00  0.00     0.020 A 
ATOM     45  C   UNL A   1      42.149  27.729  27.185  1.00  0.00     0.054 A 
BRANCH  45  46
ATOM     46  S   UNL A   1      42.383  26.903  25.587  1.00  0.00     0.124 S 
ATOM     47  O   UNL A   1      43.589  26.115  25.831  1.00  0.00    -0.237 OA
ATOM     48  O   UNL A   1      41.151  26.133  25.440  1.00  0.00    -0.237 OA
ATOM     49  O   UNL A   1      42.540  28.008  24.645  1.00  0.00    -0.744 OA
ENDBRANCH  45  46
ENDBRANCH  26  40
BRANCH  27  50
ATOM     50  C   UNL A   1      40.037  33.453  38.434  1.00  0.00    -0.014 A 
ATOM     51  C   UNL A   1      40.531  34.744  38.690  1.00  0.00     0.010 A 
ATOM     52  C   UNL A   1      39.264  32.808  39.417  1.00  0.00     0.010 A 
ATOM     53  C   UNL A   1      40.268  35.372  39.910  1.00  0.00     0.020 A 
ATOM     54  C   UNL A   1      38.975  33.444  40.626  1.00  0.00     0.020 A 
ATOM     55  C   UNL A   1      39.488  34.719  40.869  1.00  0.00     0.054 A 
BRANCH  55  56
ATOM     56  S   UNL A   1      39.108  35.575  42.422  1.00  0.00     0.124 S 
ATOM     57  O   UNL A   1      37.680  35.311  42.572  1.00  0.00    -0.237 OA
ATOM     58  O   UNL A   1      39.981  34.900  43.379  1.00  0.00    -0.237 OA
ATOM     59  O   UNL A   1      39.463  36.965  42.141  1.00  0.00    -0.744 OA
ENDBRANCH  55  56
ENDBRANCH  27  50
BRANCH  39  60
ATOM     60  C   UNL A   1      45.282  29.609  35.934  1.00  0.00    -0.014 A 
ATOM     61  C   UNL A   1      45.413  28.353  36.552  1.00  0.00     0.010 A 
ATOM     62  C   UNL A   1      46.400  30.459  35.857  1.00  0.00     0.010 A 
ATOM     63  C   UNL A   1      46.630  27.973  37.122  1.00  0.00     0.020 A 
ATOM     64  C   UNL A   1      47.626  30.071  36.403  1.00  0.00     0.020 A 
ATOM     65  C   UNL A   1      47.727  28.836  37.049  1.00  0.00     0.054 A 
BRANCH  65  66
ATOM     66  S   UNL A   1      49.304  28.315  37.778  1.00  0.00     0.124 S 
ATOM     67  O   UNL A   1      49.942  27.629  36.658  1.00  0.00    -0.237 OA
ATOM     68  O   UNL A   1      49.915  29.582  38.168  1.00  0.00    -0.237 OA
ATOM     69  O   UNL A   1      48.904  27.455  38.889  1.00  0.00    -0.744 OA
ENDBRANCH  65  66
ENDBRANCH  39  60
ENDBRANCH  13  14
ENDBRANCH   6   8
ENDBRANCH   3   4
ENDBRANCH   2   3
ENDBRANCH   1   2
BRANCH   1  70
ATOM     70  C   UNL A   1      35.257  30.631  27.717  1.00  0.00     0.002 C 
BRANCH  70  71
ATOM     71  C   UNL A   1      33.900  30.102  27.239  1.00  0.00     0.021 C 
BRANCH  71  72
ATOM     72  C   UNL A   1      33.955  28.733  26.577  1.00  0.00     0.116 C 
BRANCH  72  73
ATOM     73  N   UNL A   1      34.279  28.814  25.171  1.00  0.00    -0.354 N 
ATOM     74  C   UNL A   1      33.940  28.047  24.105  1.00  0.00     0.250 C 
ATOM     75  H   UNL A   1      34.861  29.574  24.943  1.00  0.00     0.163 HD
ATOM     76  O   UNL A   1      33.952  28.686  23.043  1.00  0.00    -0.272 OA
BRANCH  74  77
ATOM     77  C   UNL A   1      33.527  26.519  24.131  1.00  0.00     0.145 C 
ATOM     78  C   UNL A   1      33.915  26.002  22.708  1.00  0.00     0.044 C 
ATOM     79  C   UNL A   1      32.038  26.240  24.390  1.00  0.00    -0.010 A 
ATOM     80  C   UNL A   1      32.955  26.488  21.637  1.00  0.00     0.008 C 
ATOM     81  C   UNL A   1      31.137  25.971  23.327  1.00  0.00    -0.042 A 
ATOM     82  C   UNL A   1      31.522  26.310  25.700  1.00  0.00     0.007 A 
ATOM     83  C   UNL A   1      31.576  25.898  21.882  1.00  0.00     0.036 C 
ATOM     84  C   UNL A   1      29.769  25.791  23.597  1.00  0.00     0.004 A 
ATOM     85  C   UNL A   1      30.157  26.139  25.947  1.00  0.00     0.000 A 
ATOM     86  C   UNL A   1      29.282  25.887  24.897  1.00  0.00     0.000 A 
BRANCH  77  87
ATOM     87  N   UNL A   1      34.329  25.621  25.038  1.00  0.00    -0.338 N 
ATOM     88  C   UNL A   1      34.965  24.427  24.917  1.00  0.00     0.224 C 
ATOM     89  H   UNL A   1      34.412  25.993  25.945  1.00  0.00     0.164 HD
ATOM     90  O   UNL A   1      35.943  24.241  25.648  1.00  0.00    -0.275 OA
BRANCH  88  91
ATOM     91  C   UNL A   1      34.427  23.318  24.028  1.00  0.00     0.082 C 
ATOM     92  C   UNL A   1      33.064  22.830  24.569  1.00  0.00     0.035 C 
ATOM     93  C   UNL A   1      35.435  22.147  23.891  1.00  0.00     0.035 C 
ATOM     94  C   UNL A   1      33.173  21.824  25.705  1.00  0.00     0.120 C 
ATOM     95  C   UNL A   1      35.407  21.185  25.083  1.00  0.00     0.120 C 
ATOM     96  N   UNL A   1      34.041  20.732  25.299  1.00  0.00    -0.342 N 
ATOM     97  C   UNL A   1      33.431  19.530  24.940  1.00  0.00     0.225 C 
ATOM     98  O   UNL A   1      32.208  19.398  25.010  1.00  0.00    -0.275 OA
BRANCH  97  99
ATOM     99  C   UNL A   1      34.163  18.310  24.488  1.00  0.00     0.079 C 
ATOM    100  C   UNL A   1      33.836  16.863  24.693  1.00  0.00     0.014 C 
ATOM    101  C   UNL A   1      33.680  17.481  23.328  1.00  0.00     0.014 C 
ENDBRANCH  97  99
ENDBRANCH  88  91
ENDBRANCH  77  87
ENDBRANCH  74  77
ENDBRANCH  72  73
ENDBRANCH  71  72
ENDBRANCH  70  71
ENDBRANCH   1  70
TORSDOF 19
ENDMDL
