MODEL 1
REMARK VINA RESULT:      -9.6      0.000      0.000
REMARK SMILES CSCCC(=O)N1[C@H](C)CCC[C@@H]1C(=O)NCCCCCCNC(=O)c1ccc(-c2c3nc(c(-c4ccc(S(=O)(=O)[O-])cc4)c4ccc([nH]4)c(-c4ccc(S(=O)(=O)[O-])cc4)c4nc(c(-c5ccc(S(=O)(=O)[O-])cc5)c5ccc2[nH]5)C=C4)C=C3)cc1
REMARK SMILES IDX 19 1 18 2 17 3 16 4 14 5 15 6 13 8 7 9 8 10 9 11 10 12 12 13
REMARK SMILES IDX 11 14 5 15 6 16 4 17 3 18 2 19 1 20 20 21 21 22 22 23 23 24
REMARK SMILES IDX 24 25 25 27 26 28 27 29 85 30 28 31 84 32 29 33 30 34 31 35
REMARK SMILES IDX 78 36 32 37 83 38 77 39 79 40 33 41 82 42 76 43 75 44 34 46
REMARK SMILES IDX 64 47 45 48 63 49 46 50 49 51 62 52 80 53 47 54 48 55 61 57
REMARK SMILES IDX 81 58 50 59 35 60 36 61 44 62 37 63 43 64 38 65 39 66 40 67
REMARK SMILES IDX 41 68 42 69 65 70 66 71 74 72 67 73 73 74 68 75 69 76 70 77
REMARK SMILES IDX 71 78 72 79 51 80 52 81 60 82 53 83 59 84 54 85 55 86 56 87
REMARK SMILES IDX 57 88 58 89
REMARK H PARENT 16 7 23 26 79 45 49 56
REMARK Flexibility Score: inf
ROOT
ATOM      1  C   UNL A   1      33.820  22.217  23.754  1.00  0.00     0.002 C 
ENDROOT
BRANCH   1   2
ATOM      2  C   UNL A   1      32.680  23.038  24.376  1.00  0.00     0.021 C 
BRANCH   2   3
ATOM      3  C   UNL A   1      31.459  23.131  23.463  1.00  0.00     0.116 C 
BRANCH   3   4
ATOM      4  N   UNL A   1      31.481  24.214  22.496  1.00  0.00    -0.354 N 
ATOM      5  C   UNL A   1      32.453  25.188  22.414  1.00  0.00     0.242 C 
ATOM      6  O   UNL A   1      33.189  25.144  21.421  1.00  0.00    -0.273 OA
ATOM      7  H   UNL A   1      30.743  24.256  21.846  1.00  0.00     0.163 HD
BRANCH   5   8
ATOM      8  C   UNL A   1      32.578  26.358  23.455  1.00  0.00     0.174 C 
ATOM      9  N   UNL A   1      31.511  26.568  24.467  1.00  0.00    -0.328 N 
ATOM     10  C   UNL A   1      30.325  27.287  24.039  1.00  0.00     0.082 C 
ATOM     11  C   UNL A   1      29.126  26.360  23.844  1.00  0.00     0.031 C 
ATOM     12  C   UNL A   1      30.614  28.327  22.938  1.00  0.00     0.025 C 
ATOM     13  C   UNL A   1      33.039  27.677  22.809  1.00  0.00     0.035 C 
ATOM     14  C   UNL A   1      32.055  28.825  23.018  1.00  0.00     0.005 C 
BRANCH   9  15
ATOM     15  C   UNL A   1      31.806  26.507  25.834  1.00  0.00     0.224 C 
ATOM     16  O   UNL A   1      31.022  26.012  26.648  1.00  0.00    -0.275 OA
BRANCH  15  17
ATOM     17  C   UNL A   1      33.121  27.134  26.335  1.00  0.00     0.111 C 
BRANCH  17  18
ATOM     18  C   UNL A   1      33.143  28.639  26.653  1.00  0.00     0.079 C 
BRANCH  18  19
ATOM     19  S   UNL A   1      34.673  29.287  27.458  1.00  0.00    -0.165 SA
ATOM     20  C   UNL A   1      34.340  31.079  27.510  1.00  0.00     0.085 C 
ENDBRANCH  18  19
ENDBRANCH  17  18
ENDBRANCH  15  17
ENDBRANCH   9  15
ENDBRANCH   5   8
ENDBRANCH   3   4
ENDBRANCH   2   3
ENDBRANCH   1   2
BRANCH   1  21
ATOM     21  C   UNL A   1      35.241  22.783  23.888  1.00  0.00     0.002 C 
BRANCH  21  22
ATOM     22  C   UNL A   1      35.374  24.143  24.580  1.00  0.00     0.021 C 
BRANCH  22  23
ATOM     23  C   UNL A   1      36.327  24.198  25.775  1.00  0.00     0.116 C 
BRANCH  23  24
ATOM     24  N   UNL A   1      37.338  23.151  25.753  1.00  0.00    -0.352 N 
ATOM     25  C   UNL A   1      38.640  23.167  26.175  1.00  0.00     0.251 C 
ATOM     26  H   UNL A   1      37.037  22.294  25.372  1.00  0.00     0.163 HD
ATOM     27  O   UNL A   1      39.362  22.190  25.945  1.00  0.00    -0.269 OA
BRANCH  25  28
ATOM     28  C   UNL A   1      39.194  24.338  26.883  1.00  0.00     0.039 A 
ATOM     29  C   UNL A   1      39.977  25.249  26.167  1.00  0.00     0.014 A 
ATOM     30  C   UNL A   1      38.969  24.530  28.248  1.00  0.00     0.014 A 
ATOM     31  C   UNL A   1      40.481  26.384  26.806  1.00  0.00     0.010 A 
ATOM     32  C   UNL A   1      39.414  25.695  28.867  1.00  0.00     0.010 A 
ATOM     33  C   UNL A   1      40.176  26.632  28.154  1.00  0.00    -0.014 A 
BRANCH  33  34
ATOM     34  C   UNL A   1      40.642  27.869  28.832  1.00  0.00     0.031 A 
ATOM     35  C   UNL A   1      42.018  27.929  29.436  1.00  0.00     0.074 A 
ATOM     36  C   UNL A   1      39.800  28.913  28.960  1.00  0.00     0.049 A 
ATOM     37  N   UNL A   1      42.576  28.893  30.123  1.00  0.00    -0.248 NA
ATOM     38  C   UNL A   1      42.871  26.741  29.268  1.00  0.00     0.031 C 
ATOM     39  C   UNL A   1      38.426  28.961  28.453  1.00  0.00     0.029 A 
ATOM     40  N   UNL A   1      39.971  30.134  29.564  1.00  0.00    -0.354 N 
ATOM     41  C   UNL A   1      43.836  28.424  30.479  1.00  0.00     0.074 A 
ATOM     42  C   UNL A   1      43.939  27.070  29.979  1.00  0.00     0.031 C 
ATOM     43  C   UNL A   1      37.889  30.154  28.749  1.00  0.00     0.029 A 
ATOM     44  C   UNL A   1      38.860  30.941  29.500  1.00  0.00     0.049 A 
ATOM     45  H   UNL A   1      40.810  30.404  30.002  1.00  0.00     0.167 HD
ATOM     46  C   UNL A   1      44.825  29.069  31.143  1.00  0.00     0.031 A 
ATOM     47  C   UNL A   1      38.643  32.174  29.998  1.00  0.00     0.031 A 
ATOM     48  C   UNL A   1      44.717  30.417  31.635  1.00  0.00     0.049 A 
ATOM     49  C   UNL A   1      39.752  32.867  30.742  1.00  0.00     0.074 A 
ATOM     50  C   UNL A   1      45.676  31.177  32.282  1.00  0.00     0.029 A 
ATOM     51  N   UNL A   1      43.581  31.207  31.537  1.00  0.00    -0.354 N 
ATOM     52  N   UNL A   1      40.958  32.429  31.018  1.00  0.00    -0.248 NA
ATOM     53  C   UNL A   1      39.475  34.224  31.231  1.00  0.00     0.031 C 
ATOM     54  C   UNL A   1      45.103  32.408  32.620  1.00  0.00     0.029 A 
ATOM     55  C   UNL A   1      43.807  32.438  32.130  1.00  0.00     0.049 A 
ATOM     56  H   UNL A   1      42.737  30.933  31.109  1.00  0.00     0.167 HD
ATOM     57  C   UNL A   1      41.592  33.467  31.691  1.00  0.00     0.074 A 
ATOM     58  C   UNL A   1      40.642  34.558  31.766  1.00  0.00     0.031 C 
ATOM     59  C   UNL A   1      42.848  33.512  32.200  1.00  0.00     0.031 A 
BRANCH  46  60
ATOM     60  C   UNL A   1      46.110  28.316  31.378  1.00  0.00    -0.014 A 
ATOM     61  C   UNL A   1      46.294  27.540  32.537  1.00  0.00     0.010 A 
ATOM     62  C   UNL A   1      47.135  28.360  30.416  1.00  0.00     0.010 A 
ATOM     63  C   UNL A   1      47.497  26.864  32.754  1.00  0.00     0.020 A 
ATOM     64  C   UNL A   1      48.329  27.660  30.615  1.00  0.00     0.020 A 
ATOM     65  C   UNL A   1      48.510  26.932  31.793  1.00  0.00     0.054 A 
BRANCH  65  66
ATOM     66  S   UNL A   1      50.057  26.037  32.097  1.00  0.00     0.124 S 
ATOM     67  O   UNL A   1      50.830  26.359  30.900  1.00  0.00    -0.237 OA
ATOM     68  O   UNL A   1      50.539  26.641  33.337  1.00  0.00    -0.237 OA
ATOM     69  O   UNL A   1      49.636  24.642  32.209  1.00  0.00    -0.744 OA
ENDBRANCH  65  66
ENDBRANCH  46  60
BRANCH  47  70
ATOM     70  C   UNL A   1      37.323  32.832  29.798  1.00  0.00    -0.014 A 
ATOM     71  C   UNL A   1      36.347  32.802  30.809  1.00  0.00     0.010 A 
ATOM     72  C   UNL A   1      37.045  33.517  28.600  1.00  0.00     0.010 A 
ATOM     73  C   UNL A   1      35.111  33.429  30.620  1.00  0.00     0.020 A 
ATOM     74  C   UNL A   1      35.824  34.169  28.419  1.00  0.00     0.020 A 
ATOM     75  C   UNL A   1      34.860  34.112  29.427  1.00  0.00     0.054 A 
BRANCH  75  76
ATOM     76  S   UNL A   1      33.272  34.968  29.226  1.00  0.00     0.124 S 
ATOM     77  O   UNL A   1      32.598  34.129  28.240  1.00  0.00    -0.237 OA
ATOM     78  O   UNL A   1      32.719  34.927  30.578  1.00  0.00    -0.237 OA
ATOM     79  O   UNL A   1      33.658  36.297  28.760  1.00  0.00    -0.744 OA
ENDBRANCH  75  76
ENDBRANCH  47  70
BRANCH  59  80
ATOM     80  C   UNL A   1      43.282  34.795  32.859  1.00  0.00    -0.014 A 
ATOM     81  C   UNL A   1      43.838  35.848  32.110  1.00  0.00     0.010 A 
ATOM     82  C   UNL A   1      43.078  34.967  34.240  1.00  0.00     0.010 A 
ATOM     83  C   UNL A   1      44.208  37.040  32.738  1.00  0.00     0.020 A 
ATOM     84  C   UNL A   1      43.421  36.168  34.866  1.00  0.00     0.020 A 
ATOM     85  C   UNL A   1      43.997  37.192  34.112  1.00  0.00     0.054 A 
BRANCH  85  86
ATOM     86  S   UNL A   1      44.444  38.767  34.894  1.00  0.00     0.124 S 
ATOM     87  O   UNL A   1      43.567  39.709  34.203  1.00  0.00    -0.237 OA
ATOM     88  O   UNL A   1      44.129  38.528  36.299  1.00  0.00    -0.237 OA
ATOM     89  O   UNL A   1      45.868  38.910  34.596  1.00  0.00    -0.744 OA
ENDBRANCH  85  86
ENDBRANCH  59  80
ENDBRANCH  33  34
ENDBRANCH  25  28
ENDBRANCH  23  24
ENDBRANCH  22  23
ENDBRANCH  21  22
ENDBRANCH   1  21
TORSDOF 20
ENDMDL
MODEL 2
REMARK VINA RESULT:      -9.4      4.198      9.559
REMARK SMILES CSCCC(=O)N1[C@H](C)CCC[C@@H]1C(=O)NCCCCCCNC(=O)c1ccc(-c2c3nc(c(-c4ccc(S(=O)(=O)[O-])cc4)c4ccc([nH]4)c(-c4ccc(S(=O)(=O)[O-])cc4)c4nc(c(-c5ccc(S(=O)(=O)[O-])cc5)c5ccc2[nH]5)C=C4)C=C3)cc1
REMARK SMILES IDX 19 1 18 2 17 3 16 4 14 5 15 6 13 8 7 9 8 10 9 11 10 12 12 13
REMARK SMILES IDX 11 14 5 15 6 16 4 17 3 18 2 19 1 20 20 21 21 22 22 23 23 24
REMARK SMILES IDX 24 25 25 27 26 28 27 29 85 30 28 31 84 32 29 33 30 34 31 35
REMARK SMILES IDX 78 36 32 37 83 38 77 39 79 40 33 41 82 42 76 43 75 44 34 46
REMARK SMILES IDX 64 47 45 48 63 49 46 50 49 51 62 52 80 53 47 54 48 55 61 57
REMARK SMILES IDX 81 58 50 59 35 60 36 61 44 62 37 63 43 64 38 65 39 66 40 67
REMARK SMILES IDX 41 68 42 69 65 70 66 71 74 72 67 73 73 74 68 75 69 76 70 77
REMARK SMILES IDX 71 78 72 79 51 80 52 81 60 82 53 83 59 84 54 85 55 86 56 87
REMARK SMILES IDX 57 88 58 89
REMARK H PARENT 16 7 23 26 79 45 49 56
REMARK Flexibility Score: inf
ROOT
ATOM      1  C   UNL A   1      35.740  31.455  27.742  1.00  0.00     0.002 C 
ENDROOT
BRANCH   1   2
ATOM      2  C   UNL A   1      35.506  29.959  28.003  1.00  0.00     0.021 C 
BRANCH   2   3
ATOM      3  C   UNL A   1      34.672  29.296  26.910  1.00  0.00     0.116 C 
BRANCH   3   4
ATOM      4  N   UNL A   1      33.751  30.173  26.207  1.00  0.00    -0.354 N 
ATOM      5  C   UNL A   1      32.563  29.780  25.630  1.00  0.00     0.242 C 
ATOM      6  O   UNL A   1      31.530  30.191  26.172  1.00  0.00    -0.273 OA
ATOM      7  H   UNL A   1      33.995  31.124  26.138  1.00  0.00     0.163 HD
BRANCH   5   8
ATOM      8  C   UNL A   1      32.494  28.945  24.301  1.00  0.00     0.174 C 
ATOM      9  N   UNL A   1      31.368  28.003  24.074  1.00  0.00    -0.328 N 
ATOM     10  C   UNL A   1      31.457  26.698  24.703  1.00  0.00     0.082 C 
ATOM     11  C   UNL A   1      30.529  26.574  25.911  1.00  0.00     0.031 C 
ATOM     12  C   UNL A   1      32.908  26.202  24.860  1.00  0.00     0.025 C 
ATOM     13  C   UNL A   1      33.854  28.333  23.917  1.00  0.00     0.035 C 
ATOM     14  C   UNL A   1      33.814  26.812  23.793  1.00  0.00     0.005 C 
BRANCH   9  15
ATOM     15  C   UNL A   1      30.519  28.163  22.972  1.00  0.00     0.224 C 
ATOM     16  O   UNL A   1      30.592  27.432  21.982  1.00  0.00    -0.275 OA
BRANCH  15  17
ATOM     17  C   UNL A   1      29.510  29.327  22.980  1.00  0.00     0.111 C 
BRANCH  17  18
ATOM     18  C   UNL A   1      29.454  30.260  21.758  1.00  0.00     0.079 C 
BRANCH  18  19
ATOM     19  S   UNL A   1      28.662  31.908  22.017  1.00  0.00    -0.165 SA
ATOM     20  C   UNL A   1      27.893  32.214  20.392  1.00  0.00     0.085 C 
ENDBRANCH  18  19
ENDBRANCH  17  18
ENDBRANCH  15  17
ENDBRANCH   9  15
ENDBRANCH   5   8
ENDBRANCH   3   4
ENDBRANCH   2   3
ENDBRANCH   1   2
BRANCH   1  21
ATOM     21  C   UNL A   1      35.173  32.440  28.774  1.00  0.00     0.002 C 
BRANCH  21  22
ATOM     22  C   UNL A   1      33.896  33.187  28.379  1.00  0.00     0.021 C 
BRANCH  22  23
ATOM     23  C   UNL A   1      33.880  34.689  28.664  1.00  0.00     0.116 C 
BRANCH  23  24
ATOM     24  N   UNL A   1      33.001  35.057  29.764  1.00  0.00    -0.352 N 
ATOM     25  C   UNL A   1      33.139  34.863  31.112  1.00  0.00     0.251 C 
ATOM     26  H   UNL A   1      32.173  35.519  29.494  1.00  0.00     0.163 HD
ATOM     27  O   UNL A   1      32.200  35.150  31.863  1.00  0.00    -0.269 OA
BRANCH  25  28
ATOM     28  C   UNL A   1      34.382  34.300  31.674  1.00  0.00     0.039 A 
ATOM     29  C   UNL A   1      34.373  32.982  32.143  1.00  0.00     0.014 A 
ATOM     30  C   UNL A   1      35.546  35.067  31.765  1.00  0.00     0.014 A 
ATOM     31  C   UNL A   1      35.547  32.416  32.645  1.00  0.00     0.010 A 
ATOM     32  C   UNL A   1      36.731  34.480  32.202  1.00  0.00     0.010 A 
ATOM     33  C   UNL A   1      36.743  33.151  32.649  1.00  0.00    -0.014 A 
BRANCH  33  34
ATOM     34  C   UNL A   1      38.017  32.544  33.111  1.00  0.00     0.031 A 
ATOM     35  C   UNL A   1      38.538  32.835  34.491  1.00  0.00     0.074 A 
ATOM     36  C   UNL A   1      38.735  31.781  32.263  1.00  0.00     0.049 A 
ATOM     37  N   UNL A   1      39.659  32.453  35.048  1.00  0.00    -0.248 NA
ATOM     38  C   UNL A   1      37.702  33.690  35.351  1.00  0.00     0.031 C 
ATOM     39  C   UNL A   1      38.356  31.459  30.885  1.00  0.00     0.029 A 
ATOM     40  N   UNL A   1      39.941  31.147  32.430  1.00  0.00    -0.354 N 
ATOM     41  C   UNL A   1      39.669  33.028  36.314  1.00  0.00     0.074 A 
ATOM     42  C   UNL A   1      38.469  33.829  36.422  1.00  0.00     0.031 C 
ATOM     43  C   UNL A   1      39.297  30.672  30.341  1.00  0.00     0.029 A 
ATOM     44  C   UNL A   1      40.366  30.467  31.313  1.00  0.00     0.049 A 
ATOM     45  H   UNL A   1      40.453  31.176  33.270  1.00  0.00     0.167 HD
ATOM     46  C   UNL A   1      40.583  32.886  37.303  1.00  0.00     0.031 A 
ATOM     47  C   UNL A   1      41.493  29.763  31.092  1.00  0.00     0.031 A 
ATOM     48  C   UNL A   1      41.773  32.085  37.190  1.00  0.00     0.049 A 
ATOM     49  C   UNL A   1      42.500  29.628  32.201  1.00  0.00     0.074 A 
ATOM     50  C   UNL A   1      42.741  31.840  38.148  1.00  0.00     0.029 A 
ATOM     51  N   UNL A   1      42.160  31.399  36.047  1.00  0.00    -0.354 N 
ATOM     52  N   UNL A   1      42.463  30.132  33.412  1.00  0.00    -0.248 NA
ATOM     53  C   UNL A   1      43.693  28.819  31.919  1.00  0.00     0.031 C 
ATOM     54  C   UNL A   1      43.738  31.048  37.570  1.00  0.00     0.029 A 
ATOM     55  C   UNL A   1      43.362  30.749  36.270  1.00  0.00     0.049 A 
ATOM     56  H   UNL A   1      41.654  31.379  35.203  1.00  0.00     0.167 HD
ATOM     57  C   UNL A   1      43.616  29.681  34.044  1.00  0.00     0.074 A 
ATOM     58  C   UNL A   1      44.320  28.851  33.088  1.00  0.00     0.031 C 
ATOM     59  C   UNL A   1      44.052  29.930  35.304  1.00  0.00     0.031 A 
BRANCH  46  60
ATOM     60  C   UNL A   1      40.328  33.621  38.595  1.00  0.00    -0.014 A 
ATOM     61  C   UNL A   1      39.432  33.112  39.554  1.00  0.00     0.010 A 
ATOM     62  C   UNL A   1      41.012  34.819  38.867  1.00  0.00     0.010 A 
ATOM     63  C   UNL A   1      39.189  33.813  40.738  1.00  0.00     0.020 A 
ATOM     64  C   UNL A   1      40.793  35.508  40.064  1.00  0.00     0.020 A 
ATOM     65  C   UNL A   1      39.867  35.010  40.983  1.00  0.00     0.054 A 
BRANCH  65  66
ATOM     66  S   UNL A   1      39.538  35.893  42.533  1.00  0.00     0.124 S 
ATOM     67  O   UNL A   1      39.553  37.286  42.093  1.00  0.00    -0.237 OA
ATOM     68  O   UNL A   1      38.231  35.372  42.926  1.00  0.00    -0.237 OA
ATOM     69  O   UNL A   1      40.648  35.502  43.399  1.00  0.00    -0.744 OA
ENDBRANCH  65  66
ENDBRANCH  46  60
BRANCH  47  70
ATOM     70  C   UNL A   1      41.720  29.127  29.766  1.00  0.00    -0.014 A 
ATOM     71  C   UNL A   1      41.260  27.823  29.509  1.00  0.00     0.010 A 
ATOM     72  C   UNL A   1      42.376  29.834  28.741  1.00  0.00     0.010 A 
ATOM     73  C   UNL A   1      41.467  27.232  28.258  1.00  0.00     0.020 A 
ATOM     74  C   UNL A   1      42.559  29.258  27.481  1.00  0.00     0.020 A 
ATOM     75  C   UNL A   1      42.112  27.956  27.251  1.00  0.00     0.054 A 
BRANCH  75  76
ATOM     76  S   UNL A   1      42.318  27.191  25.619  1.00  0.00     0.124 S 
ATOM     77  O   UNL A   1      43.590  26.491  25.770  1.00  0.00    -0.237 OA
ATOM     78  O   UNL A   1      41.135  26.340  25.518  1.00  0.00    -0.237 OA
ATOM     79  O   UNL A   1      42.335  28.332  24.707  1.00  0.00    -0.744 OA
ENDBRANCH  75  76
ENDBRANCH  47  70
BRANCH  59  80
ATOM     80  C   UNL A   1      45.337  29.274  35.734  1.00  0.00    -0.014 A 
ATOM     81  C   UNL A   1      45.344  27.994  36.315  1.00  0.00     0.010 A 
ATOM     82  C   UNL A   1      46.561  29.929  35.501  1.00  0.00     0.010 A 
ATOM     83  C   UNL A   1      46.551  27.392  36.682  1.00  0.00     0.020 A 
ATOM     84  C   UNL A   1      47.771  29.319  35.840  1.00  0.00     0.020 A 
ATOM     85  C   UNL A   1      47.757  28.059  36.442  1.00  0.00     0.054 A 
BRANCH  85  86
ATOM     86  S   UNL A   1      49.311  27.237  36.885  1.00  0.00     0.124 S 
ATOM     87  O   UNL A   1      49.160  25.934  36.241  1.00  0.00    -0.237 OA
ATOM     88  O   UNL A   1      50.318  28.116  36.297  1.00  0.00    -0.237 OA
ATOM     89  O   UNL A   1      49.288  27.215  38.346  1.00  0.00    -0.744 OA
ENDBRANCH  85  86
ENDBRANCH  59  80
ENDBRANCH  33  34
ENDBRANCH  25  28
ENDBRANCH  23  24
ENDBRANCH  22  23
ENDBRANCH  21  22
ENDBRANCH   1  21
TORSDOF 20
ENDMDL
MODEL 3
REMARK VINA RESULT:      -9.3      1.192      2.102
REMARK SMILES CSCCC(=O)N1[C@H](C)CCC[C@@H]1C(=O)NCCCCCCNC(=O)c1ccc(-c2c3nc(c(-c4ccc(S(=O)(=O)[O-])cc4)c4ccc([nH]4)c(-c4ccc(S(=O)(=O)[O-])cc4)c4nc(c(-c5ccc(S(=O)(=O)[O-])cc5)c5ccc2[nH]5)C=C4)C=C3)cc1
REMARK SMILES IDX 19 1 18 2 17 3 16 4 14 5 15 6 13 8 7 9 8 10 9 11 10 12 12 13
REMARK SMILES IDX 11 14 5 15 6 16 4 17 3 18 2 19 1 20 20 21 21 22 22 23 23 24
REMARK SMILES IDX 24 25 25 27 26 28 27 29 85 30 28 31 84 32 29 33 30 34 31 35
REMARK SMILES IDX 78 36 32 37 83 38 77 39 79 40 33 41 82 42 76 43 75 44 34 46
REMARK SMILES IDX 64 47 45 48 63 49 46 50 49 51 62 52 80 53 47 54 48 55 61 57
REMARK SMILES IDX 81 58 50 59 35 60 36 61 44 62 37 63 43 64 38 65 39 66 40 67
REMARK SMILES IDX 41 68 42 69 65 70 66 71 74 72 67 73 73 74 68 75 69 76 70 77
REMARK SMILES IDX 71 78 72 79 51 80 52 81 60 82 53 83 59 84 54 85 55 86 56 87
REMARK SMILES IDX 57 88 58 89
REMARK H PARENT 16 7 23 26 79 45 49 56
REMARK Flexibility Score: inf
ROOT
ATOM      1  C   UNL A   1      33.811  21.766  23.800  1.00  0.00     0.002 C 
ENDROOT
BRANCH   1   2
ATOM      2  C   UNL A   1      32.689  21.847  24.848  1.00  0.00     0.021 C 
BRANCH   2   3
ATOM      3  C   UNL A   1      31.649  22.913  24.512  1.00  0.00     0.116 C 
BRANCH   3   4
ATOM      4  N   UNL A   1      31.679  23.409  23.147  1.00  0.00    -0.354 N 
ATOM      5  C   UNL A   1      32.119  24.658  22.764  1.00  0.00     0.242 C 
ATOM      6  O   UNL A   1      33.173  24.692  22.119  1.00  0.00    -0.273 OA
ATOM      7  H   UNL A   1      31.361  22.805  22.438  1.00  0.00     0.163 HD
BRANCH   5   8
ATOM      8  C   UNL A   1      31.297  25.971  23.029  1.00  0.00     0.174 C 
ATOM      9  N   UNL A   1      31.931  27.112  23.737  1.00  0.00    -0.328 N 
ATOM     10  C   UNL A   1      31.988  27.045  25.186  1.00  0.00     0.082 C 
ATOM     11  C   UNL A   1      33.393  26.727  25.695  1.00  0.00     0.031 C 
ATOM     12  C   UNL A   1      30.808  26.264  25.800  1.00  0.00     0.025 C 
ATOM     13  C   UNL A   1      29.874  25.683  23.539  1.00  0.00     0.035 C 
ATOM     14  C   UNL A   1      29.581  26.322  24.895  1.00  0.00     0.005 C 
BRANCH   9  15
ATOM     15  C   UNL A   1      32.038  28.363  23.116  1.00  0.00     0.224 C 
ATOM     16  O   UNL A   1      33.072  29.032  23.175  1.00  0.00    -0.275 OA
BRANCH  15  17
ATOM     17  C   UNL A   1      30.804  28.937  22.394  1.00  0.00     0.111 C 
BRANCH  17  18
ATOM     18  C   UNL A   1      29.815  29.797  23.201  1.00  0.00     0.079 C 
BRANCH  18  19
ATOM     19  S   UNL A   1      28.145  30.047  22.454  1.00  0.00    -0.165 SA
ATOM     20  C   UNL A   1      27.203  28.659  23.169  1.00  0.00     0.085 C 
ENDBRANCH  18  19
ENDBRANCH  17  18
ENDBRANCH  15  17
ENDBRANCH   9  15
ENDBRANCH   5   8
ENDBRANCH   3   4
ENDBRANCH   2   3
ENDBRANCH   1   2
BRANCH   1  21
ATOM     21  C   UNL A   1      35.200  22.259  24.227  1.00  0.00     0.002 C 
BRANCH  21  22
ATOM     22  C   UNL A   1      35.305  23.724  24.660  1.00  0.00     0.021 C 
BRANCH  22  23
ATOM     23  C   UNL A   1      36.461  24.065  25.601  1.00  0.00     0.116 C 
BRANCH  23  24
ATOM     24  N   UNL A   1      37.464  23.013  25.685  1.00  0.00    -0.352 N 
ATOM     25  C   UNL A   1      38.742  23.043  26.175  1.00  0.00     0.251 C 
ATOM     26  H   UNL A   1      37.176  22.140  25.333  1.00  0.00     0.163 HD
ATOM     27  O   UNL A   1      39.467  22.053  26.033  1.00  0.00    -0.269 OA
BRANCH  25  28
ATOM     28  C   UNL A   1      39.266  24.246  26.852  1.00  0.00     0.039 A 
ATOM     29  C   UNL A   1      40.044  25.147  26.116  1.00  0.00     0.014 A 
ATOM     30  C   UNL A   1      39.020  24.479  28.207  1.00  0.00     0.014 A 
ATOM     31  C   UNL A   1      40.521  26.310  26.725  1.00  0.00     0.010 A 
ATOM     32  C   UNL A   1      39.438  25.670  28.793  1.00  0.00     0.010 A 
ATOM     33  C   UNL A   1      40.194  26.596  28.060  1.00  0.00    -0.014 A 
BRANCH  33  34
ATOM     34  C   UNL A   1      40.630  27.862  28.704  1.00  0.00     0.031 A 
ATOM     35  C   UNL A   1      42.005  27.972  29.302  1.00  0.00     0.074 A 
ATOM     36  C   UNL A   1      39.763  28.888  28.805  1.00  0.00     0.049 A 
ATOM     37  N   UNL A   1      42.540  28.968  29.962  1.00  0.00    -0.248 NA
ATOM     38  C   UNL A   1      42.887  26.801  29.164  1.00  0.00     0.031 C 
ATOM     39  C   UNL A   1      38.387  28.888  28.300  1.00  0.00     0.029 A 
ATOM     40  N   UNL A   1      39.904  30.129  29.376  1.00  0.00    -0.354 N 
ATOM     41  C   UNL A   1      43.812  28.540  30.327  1.00  0.00     0.074 A 
ATOM     42  C   UNL A   1      43.948  27.176  29.863  1.00  0.00     0.031 C 
ATOM     43  C   UNL A   1      37.821  30.075  28.565  1.00  0.00     0.029 A 
ATOM     44  C   UNL A   1      38.774  30.906  29.293  1.00  0.00     0.049 A 
ATOM     45  H   UNL A   1      40.737  30.431  29.805  1.00  0.00     0.167 HD
ATOM     46  C   UNL A   1      44.786  29.227  30.971  1.00  0.00     0.031 A 
ATOM     47  C   UNL A   1      38.528  32.146  29.758  1.00  0.00     0.031 A 
ATOM     48  C   UNL A   1      44.646  30.585  31.426  1.00  0.00     0.049 A 
ATOM     49  C   UNL A   1      39.620  32.886  30.481  1.00  0.00     0.074 A 
ATOM     50  C   UNL A   1      45.587  31.385  32.051  1.00  0.00     0.029 A 
ATOM     51  N   UNL A   1      43.490  31.343  31.310  1.00  0.00    -0.354 N 
ATOM     52  N   UNL A   1      40.837  32.486  30.765  1.00  0.00    -0.248 NA
ATOM     53  C   UNL A   1      39.310  34.249  30.934  1.00  0.00     0.031 C 
ATOM     54  C   UNL A   1      44.984  32.610  32.357  1.00  0.00     0.029 A 
ATOM     55  C   UNL A   1      43.687  32.595  31.869  1.00  0.00     0.049 A 
ATOM     56  H   UNL A   1      42.653  31.037  30.892  1.00  0.00     0.167 HD
ATOM     57  C   UNL A   1      41.446  33.556  31.409  1.00  0.00     0.074 A 
ATOM     58  C   UNL A   1      40.470  34.626  31.457  1.00  0.00     0.031 C 
ATOM     59  C   UNL A   1      42.702  33.647  31.913  1.00  0.00     0.031 A 
BRANCH  46  60
ATOM     60  C   UNL A   1      46.090  28.512  31.223  1.00  0.00    -0.014 A 
ATOM     61  C   UNL A   1      47.144  28.578  30.293  1.00  0.00     0.010 A 
ATOM     62  C   UNL A   1      46.274  27.789  32.415  1.00  0.00     0.010 A 
ATOM     63  C   UNL A   1      48.339  27.893  30.528  1.00  0.00     0.020 A 
ATOM     64  C   UNL A   1      47.480  27.128  32.668  1.00  0.00     0.020 A 
ATOM     65  C   UNL A   1      48.498  27.169  31.712  1.00  0.00     0.054 A 
BRANCH  65  66
ATOM     66  S   UNL A   1      50.064  26.298  31.995  1.00  0.00     0.124 S 
ATOM     67  O   UNL A   1      50.305  26.567  33.410  1.00  0.00    -0.237 OA
ATOM     68  O   UNL A   1      49.726  24.916  31.667  1.00  0.00    -0.237 OA
ATOM     69  O   UNL A   1      50.993  26.946  31.072  1.00  0.00    -0.744 OA
ENDBRANCH  65  66
ENDBRANCH  46  60
BRANCH  47  70
ATOM     70  C   UNL A   1      37.191  32.766  29.544  1.00  0.00    -0.014 A 
ATOM     71  C   UNL A   1      36.166  32.604  30.492  1.00  0.00     0.010 A 
ATOM     72  C   UNL A   1      36.945  33.545  28.398  1.00  0.00     0.010 A 
ATOM     73  C   UNL A   1      34.915  33.195  30.290  1.00  0.00     0.020 A 
ATOM     74  C   UNL A   1      35.707  34.161  28.207  1.00  0.00     0.020 A 
ATOM     75  C   UNL A   1      34.695  33.974  29.151  1.00  0.00     0.054 A 
BRANCH  75  76
ATOM     76  S   UNL A   1      33.083  34.779  28.938  1.00  0.00     0.124 S 
ATOM     77  O   UNL A   1      33.459  36.064  28.357  1.00  0.00    -0.237 OA
ATOM     78  O   UNL A   1      32.386  33.859  28.042  1.00  0.00    -0.237 OA
ATOM     79  O   UNL A   1      32.549  34.838  30.297  1.00  0.00    -0.744 OA
ENDBRANCH  75  76
ENDBRANCH  47  70
BRANCH  59  80
ATOM     80  C   UNL A   1      43.105  34.957  32.536  1.00  0.00    -0.014 A 
ATOM     81  C   UNL A   1      43.734  35.961  31.780  1.00  0.00     0.010 A 
ATOM     82  C   UNL A   1      42.797  35.205  33.887  1.00  0.00     0.010 A 
ATOM     83  C   UNL A   1      44.076  37.181  32.371  1.00  0.00     0.020 A 
ATOM     84  C   UNL A   1      43.111  36.433  34.474  1.00  0.00     0.020 A 
ATOM     85  C   UNL A   1      43.761  37.408  33.715  1.00  0.00     0.054 A 
BRANCH  85  86
ATOM     86  S   UNL A   1      44.173  39.016  34.446  1.00  0.00     0.124 S 
ATOM     87  O   UNL A   1      43.095  39.864  33.942  1.00  0.00    -0.237 OA
ATOM     88  O   UNL A   1      44.136  38.736  35.879  1.00  0.00    -0.237 OA
ATOM     89  O   UNL A   1      45.500  39.312  33.909  1.00  0.00    -0.744 OA
ENDBRANCH  85  86
ENDBRANCH  59  80
ENDBRANCH  33  34
ENDBRANCH  25  28
ENDBRANCH  23  24
ENDBRANCH  22  23
ENDBRANCH  21  22
ENDBRANCH   1  21
TORSDOF 20
ENDMDL
