MODEL 1
REMARK VINA RESULT:     -11.5      0.000      0.000
REMARK SMILES CC1(C)[C@H](C(=O)NCCCCCCNC(=O)c2ccc(-c3c4nc(c(-c5ccc(S(=O)(=O)[O-])cc5)c5ccc([nH]5)c(-c5ccc(S(=O)(=O)[O-])cc5)c5nc(c(-c6ccc(S(=O)(=O)[O-])cc6)c6ccc3[nH]6)C=C5)C=C4)cc2)[C@H]1C(=O)Nc1cccc2[nH]ccc12
REMARK SMILES IDX 11 1 10 2 9 3 8 4 7 5 5 6 6 7 4 9 1 10 2 11 3 12 77 13 78 14
REMARK SMILES IDX 79 15 80 16 81 18 82 19 89 20 83 21 85 22 88 23 84 24 86 25
REMARK SMILES IDX 87 26 12 28 13 29 14 30 15 31 16 33 17 34 18 35 76 36 19 37
REMARK SMILES IDX 75 38 20 39 21 40 22 41 69 42 23 43 74 44 68 45 70 46 24 47
REMARK SMILES IDX 73 48 67 49 66 50 25 52 55 53 36 54 54 55 37 56 40 57 53 58
REMARK SMILES IDX 71 59 38 60 39 61 52 63 72 64 41 65 26 66 27 67 35 68 28 69
REMARK SMILES IDX 34 70 29 71 30 72 31 73 32 74 33 75 56 76 57 77 65 78 58 79
REMARK SMILES IDX 64 80 59 81 60 82 61 83 62 84 63 85 42 86 43 87 51 88 44 89
REMARK SMILES IDX 50 90 45 91 46 92 47 93 48 94 49 95
REMARK H PARENT 7 8 80 17 86 27 14 32 70 51 40 62
REMARK Flexibility Score: inf
ROOT
ATOM      1  C   UNL A   1      33.827  27.883  23.933  1.00  0.00     0.002 C 
ENDROOT
BRANCH   1   2
ATOM      2  C   UNL A   1      33.704  26.662  23.015  1.00  0.00     0.002 C 
BRANCH   2   3
ATOM      3  C   UNL A   1      32.588  25.681  23.388  1.00  0.00     0.021 C 
BRANCH   3   4
ATOM      4  C   UNL A   1      33.047  24.229  23.538  1.00  0.00     0.116 C 
BRANCH   4   5
ATOM      5  N   UNL A   1      34.392  24.051  23.052  1.00  0.00    -0.356 N 
ATOM      6  C   UNL A   1      35.366  23.129  23.283  1.00  0.00     0.224 C 
ATOM      7  O   UNL A   1      36.413  23.301  22.651  1.00  0.00    -0.275 OA
ATOM      8  H   UNL A   1      34.666  24.748  22.413  1.00  0.00     0.163 HD
BRANCH   6   9
ATOM      9  C   UNL A   1      35.318  21.949  24.191  1.00  0.00     0.098 C 
ATOM     10  C   UNL A   1      36.541  19.850  24.875  1.00  0.00     0.013 C 
ATOM     11  C   UNL A   1      36.363  21.325  25.125  1.00  0.00    -0.011 C 
ATOM     12  C   UNL A   1      37.622  21.862  25.749  1.00  0.00     0.013 C 
ATOM     13  C   UNL A   1      35.082  21.999  25.656  1.00  0.00     0.098 C 
BRANCH  13  14
ATOM     14  C   UNL A   1      34.081  21.305  26.523  1.00  0.00     0.228 C 
ATOM     15  O   UNL A   1      34.198  21.459  27.739  1.00  0.00    -0.274 OA
ATOM     16  N   UNL A   1      32.911  20.758  26.053  1.00  0.00    -0.325 N 
ATOM     17  H   UNL A   1      32.109  20.951  26.591  1.00  0.00     0.169 HD
BRANCH  16  18
ATOM     18  C   UNL A   1      32.695  19.968  24.921  1.00  0.00     0.050 A 
ATOM     19  C   UNL A   1      32.274  20.600  23.747  1.00  0.00     0.027 A 
ATOM     20  C   UNL A   1      32.739  18.555  24.949  1.00  0.00     0.023 A 
ATOM     21  C   UNL A   1      32.112  19.873  22.569  1.00  0.00     0.004 A 
ATOM     22  C   UNL A   1      32.643  17.862  23.740  1.00  0.00     0.047 A 
ATOM     23  C   UNL A   1      32.807  17.561  25.971  1.00  0.00     0.030 A 
ATOM     24  C   UNL A   1      32.358  18.499  22.528  1.00  0.00     0.027 A 
ATOM     25  N   UNL A   1      32.897  16.535  24.010  1.00  0.00    -0.361 N 
ATOM     26  C   UNL A   1      32.949  16.333  25.362  1.00  0.00     0.083 A 
ATOM     27  H   UNL A   1      33.022  15.834  23.329  1.00  0.00     0.166 HD
ENDBRANCH  16  18
ENDBRANCH  13  14
ENDBRANCH   6   9
ENDBRANCH   4   5
ENDBRANCH   3   4
ENDBRANCH   2   3
ENDBRANCH   1   2
BRANCH   1  28
ATOM     28  C   UNL A   1      33.143  27.748  25.297  1.00  0.00     0.021 C 
BRANCH  28  29
ATOM     29  C   UNL A   1      34.018  28.134  26.486  1.00  0.00     0.116 C 
BRANCH  29  30
ATOM     30  N   UNL A   1      33.724  29.480  26.952  1.00  0.00    -0.352 N 
ATOM     31  C   UNL A   1      34.443  30.286  27.796  1.00  0.00     0.251 C 
ATOM     32  H   UNL A   1      32.886  29.869  26.611  1.00  0.00     0.163 HD
ATOM     33  O   UNL A   1      33.916  31.281  28.286  1.00  0.00    -0.269 OA
BRANCH  31  34
ATOM     34  C   UNL A   1      35.848  29.956  28.115  1.00  0.00     0.039 A 
ATOM     35  C   UNL A   1      36.170  29.537  29.408  1.00  0.00     0.014 A 
ATOM     36  C   UNL A   1      36.851  30.095  27.151  1.00  0.00     0.014 A 
ATOM     37  C   UNL A   1      37.494  29.220  29.723  1.00  0.00     0.010 A 
ATOM     38  C   UNL A   1      38.157  29.712  27.447  1.00  0.00     0.010 A 
ATOM     39  C   UNL A   1      38.494  29.284  28.738  1.00  0.00    -0.014 A 
BRANCH  39  40
ATOM     40  C   UNL A   1      39.900  28.920  29.049  1.00  0.00     0.031 A 
ATOM     41  C   UNL A   1      40.821  29.931  29.680  1.00  0.00     0.074 A 
ATOM     42  C   UNL A   1      40.361  27.699  28.716  1.00  0.00     0.049 A 
ATOM     43  N   UNL A   1      42.087  29.813  29.987  1.00  0.00    -0.248 NA
ATOM     44  C   UNL A   1      40.251  31.255  29.982  1.00  0.00     0.031 C 
ATOM     45  C   UNL A   1      39.577  26.647  28.062  1.00  0.00     0.029 A 
ATOM     46  N   UNL A   1      41.601  27.136  28.877  1.00  0.00    -0.354 N 
ATOM     47  C   UNL A   1      42.469  31.047  30.501  1.00  0.00     0.074 A 
ATOM     48  C   UNL A   1      41.315  31.915  30.419  1.00  0.00     0.031 C 
ATOM     49  C   UNL A   1      40.349  25.560  27.903  1.00  0.00     0.029 A 
ATOM     50  C   UNL A   1      41.688  25.846  28.407  1.00  0.00     0.049 A 
ATOM     51  H   UNL A   1      42.358  27.610  29.291  1.00  0.00     0.167 HD
ATOM     52  C   UNL A   1      43.667  31.419  31.014  1.00  0.00     0.031 A 
ATOM     53  C   UNL A   1      42.729  24.993  28.380  1.00  0.00     0.031 A 
ATOM     54  C   UNL A   1      44.809  30.548  31.106  1.00  0.00     0.049 A 
ATOM     55  C   UNL A   1      44.047  25.428  28.959  1.00  0.00     0.074 A 
ATOM     56  C   UNL A   1      46.050  30.812  31.659  1.00  0.00     0.029 A 
ATOM     57  N   UNL A   1      44.850  29.245  30.634  1.00  0.00    -0.354 N 
ATOM     58  N   UNL A   1      44.369  26.578  29.500  1.00  0.00    -0.248 NA
ATOM     59  C   UNL A   1      45.137  24.442  28.939  1.00  0.00     0.031 C 
ATOM     60  C   UNL A   1      46.858  29.684  31.477  1.00  0.00     0.029 A 
ATOM     61  C   UNL A   1      46.101  28.698  30.865  1.00  0.00     0.049 A 
ATOM     62  H   UNL A   1      44.100  28.777  30.200  1.00  0.00     0.167 HD
ATOM     63  C   UNL A   1      45.692  26.444  29.912  1.00  0.00     0.074 A 
ATOM     64  C   UNL A   1      46.101  25.097  29.571  1.00  0.00     0.031 C 
ATOM     65  C   UNL A   1      46.493  27.354  30.520  1.00  0.00     0.031 A 
BRANCH  52  66
ATOM     66  C   UNL A   1      43.804  32.835  31.512  1.00  0.00    -0.014 A 
ATOM     67  C   UNL A   1      43.550  33.162  32.856  1.00  0.00     0.010 A 
ATOM     68  C   UNL A   1      44.236  33.846  30.633  1.00  0.00     0.010 A 
ATOM     69  C   UNL A   1      43.686  34.478  33.304  1.00  0.00     0.020 A 
ATOM     70  C   UNL A   1      44.401  35.159  31.083  1.00  0.00     0.020 A 
ATOM     71  C   UNL A   1      44.109  35.470  32.413  1.00  0.00     0.054 A 
BRANCH  71  72
ATOM     72  S   UNL A   1      44.302  37.165  33.028  1.00  0.00     0.124 S 
ATOM     73  O   UNL A   1      43.437  37.159  34.205  1.00  0.00    -0.237 OA
ATOM     74  O   UNL A   1      45.734  37.246  33.302  1.00  0.00    -0.237 OA
ATOM     75  O   UNL A   1      43.835  37.993  31.919  1.00  0.00    -0.744 OA
ENDBRANCH  71  72
ENDBRANCH  52  66
BRANCH  53  76
ATOM     76  C   UNL A   1      42.559  23.631  27.802  1.00  0.00    -0.014 A 
ATOM     77  C   UNL A   1      42.195  22.547  28.620  1.00  0.00     0.010 A 
ATOM     78  C   UNL A   1      42.754  23.414  26.425  1.00  0.00     0.010 A 
ATOM     79  C   UNL A   1      42.049  21.267  28.077  1.00  0.00     0.020 A 
ATOM     80  C   UNL A   1      42.581  22.141  25.874  1.00  0.00     0.020 A 
ATOM     81  C   UNL A   1      42.243  21.073  26.706  1.00  0.00     0.054 A 
BRANCH  81  82
ATOM     82  S   UNL A   1      42.006  19.411  26.016  1.00  0.00     0.124 S 
ATOM     83  O   UNL A   1      42.410  18.560  27.130  1.00  0.00    -0.237 OA
ATOM     84  O   UNL A   1      40.580  19.403  25.695  1.00  0.00    -0.237 OA
ATOM     85  O   UNL A   1      42.895  19.393  24.857  1.00  0.00    -0.744 OA
ENDBRANCH  81  82
ENDBRANCH  53  76
BRANCH  65  86
ATOM     86  C   UNL A   1      47.883  26.911  30.892  1.00  0.00    -0.014 A 
ATOM     87  C   UNL A   1      48.971  27.108  30.023  1.00  0.00     0.010 A 
ATOM     88  C   UNL A   1      48.108  26.327  32.152  1.00  0.00     0.010 A 
ATOM     89  C   UNL A   1      50.253  26.693  30.393  1.00  0.00     0.020 A 
ATOM     90  C   UNL A   1      49.393  25.937  32.537  1.00  0.00     0.020 A 
ATOM     91  C   UNL A   1      50.455  26.106  31.647  1.00  0.00     0.054 A 
BRANCH  91  92
ATOM     92  S   UNL A   1      52.132  25.604  32.117  1.00  0.00     0.124 S 
ATOM     93  O   UNL A   1      52.362  26.401  33.320  1.00  0.00    -0.237 OA
ATOM     94  O   UNL A   1      51.988  24.167  32.335  1.00  0.00    -0.237 OA
ATOM     95  O   UNL A   1      52.943  25.975  30.960  1.00  0.00    -0.744 OA
ENDBRANCH  91  92
ENDBRANCH  65  86
ENDBRANCH  39  40
ENDBRANCH  31  34
ENDBRANCH  29  30
ENDBRANCH  28  29
ENDBRANCH   1  28
TORSDOF 18
ENDMDL
MODEL 2
REMARK VINA RESULT:     -11.2      1.594      2.781
REMARK SMILES CC1(C)[C@H](C(=O)NCCCCCCNC(=O)c2ccc(-c3c4nc(c(-c5ccc(S(=O)(=O)[O-])cc5)c5ccc([nH]5)c(-c5ccc(S(=O)(=O)[O-])cc5)c5nc(c(-c6ccc(S(=O)(=O)[O-])cc6)c6ccc3[nH]6)C=C5)C=C4)cc2)[C@H]1C(=O)Nc1cccc2[nH]ccc12
REMARK SMILES IDX 11 1 10 2 9 3 8 4 7 5 5 6 6 7 4 9 1 10 2 11 3 12 77 13 78 14
REMARK SMILES IDX 79 15 80 16 81 18 82 19 89 20 83 21 85 22 88 23 84 24 86 25
REMARK SMILES IDX 87 26 12 28 13 29 14 30 15 31 16 33 17 34 18 35 76 36 19 37
REMARK SMILES IDX 75 38 20 39 21 40 22 41 69 42 23 43 74 44 68 45 70 46 24 47
REMARK SMILES IDX 73 48 67 49 66 50 25 52 55 53 36 54 54 55 37 56 40 57 53 58
REMARK SMILES IDX 71 59 38 60 39 61 52 63 72 64 41 65 26 66 27 67 35 68 28 69
REMARK SMILES IDX 34 70 29 71 30 72 31 73 32 74 33 75 56 76 57 77 65 78 58 79
REMARK SMILES IDX 64 80 59 81 60 82 61 83 62 84 63 85 42 86 43 87 51 88 44 89
REMARK SMILES IDX 50 90 45 91 46 92 47 93 48 94 49 95
REMARK H PARENT 7 8 80 17 86 27 14 32 70 51 40 62
REMARK Flexibility Score: inf
ROOT
ATOM      1  C   UNL A   1      33.807  28.319  24.049  1.00  0.00     0.002 C 
ENDROOT
BRANCH   1   2
ATOM      2  C   UNL A   1      32.999  28.949  22.909  1.00  0.00     0.002 C 
BRANCH   2   3
ATOM      3  C   UNL A   1      31.478  28.839  23.054  1.00  0.00     0.021 C 
BRANCH   3   4
ATOM      4  C   UNL A   1      30.847  27.701  22.251  1.00  0.00     0.116 C 
BRANCH   4   5
ATOM      5  N   UNL A   1      31.851  26.888  21.613  1.00  0.00    -0.356 N 
ATOM      6  C   UNL A   1      32.485  25.732  21.949  1.00  0.00     0.224 C 
ATOM      7  O   UNL A   1      33.296  25.316  21.116  1.00  0.00    -0.275 OA
ATOM      8  H   UNL A   1      32.142  27.248  20.744  1.00  0.00     0.163 HD
BRANCH   6   9
ATOM      9  C   UNL A   1      32.313  24.914  23.182  1.00  0.00     0.098 C 
ATOM     10  C   UNL A   1      31.026  22.994  24.195  1.00  0.00     0.013 C 
ATOM     11  C   UNL A   1      32.247  23.398  23.412  1.00  0.00    -0.011 C 
ATOM     12  C   UNL A   1      32.704  22.223  22.592  1.00  0.00     0.013 C 
ATOM     13  C   UNL A   1      33.410  24.262  23.941  1.00  0.00     0.098 C 
BRANCH  13  14
ATOM     14  C   UNL A   1      33.796  24.334  25.384  1.00  0.00     0.228 C 
ATOM     15  O   UNL A   1      33.414  25.321  26.012  1.00  0.00    -0.274 OA
ATOM     16  N   UNL A   1      34.288  23.267  26.098  1.00  0.00    -0.325 N 
ATOM     17  H   UNL A   1      33.900  23.144  26.994  1.00  0.00     0.169 HD
BRANCH  16  18
ATOM     18  C   UNL A   1      35.260  22.332  25.735  1.00  0.00     0.050 A 
ATOM     19  C   UNL A   1      34.838  21.043  25.393  1.00  0.00     0.027 A 
ATOM     20  C   UNL A   1      36.647  22.583  25.839  1.00  0.00     0.023 A 
ATOM     21  C   UNL A   1      35.755  20.089  24.954  1.00  0.00     0.004 A 
ATOM     22  C   UNL A   1      37.536  21.635  25.325  1.00  0.00     0.047 A 
ATOM     23  C   UNL A   1      37.453  23.605  26.424  1.00  0.00     0.030 A 
ATOM     24  C   UNL A   1      37.115  20.390  24.849  1.00  0.00     0.027 A 
ATOM     25  N   UNL A   1      38.796  22.189  25.378  1.00  0.00    -0.361 N 
ATOM     26  C   UNL A   1      38.766  23.359  26.086  1.00  0.00     0.083 A 
ATOM     27  H   UNL A   1      39.602  21.798  24.966  1.00  0.00     0.166 HD
ENDBRANCH  16  18
ENDBRANCH  13  14
ENDBRANCH   6   9
ENDBRANCH   4   5
ENDBRANCH   3   4
ENDBRANCH   2   3
ENDBRANCH   1   2
BRANCH   1  28
ATOM     28  C   UNL A   1      33.142  28.369  25.427  1.00  0.00     0.021 C 
BRANCH  28  29
ATOM     29  C   UNL A   1      34.098  28.652  26.583  1.00  0.00     0.116 C 
BRANCH  29  30
ATOM     30  N   UNL A   1      33.884  29.978  27.141  1.00  0.00    -0.352 N 
ATOM     31  C   UNL A   1      34.642  30.674  28.046  1.00  0.00     0.251 C 
ATOM     32  H   UNL A   1      33.077  30.442  26.822  1.00  0.00     0.163 HD
ATOM     33  O   UNL A   1      34.174  31.663  28.603  1.00  0.00    -0.269 OA
BRANCH  31  34
ATOM     34  C   UNL A   1      36.020  30.233  28.352  1.00  0.00     0.039 A 
ATOM     35  C   UNL A   1      36.994  30.310  27.353  1.00  0.00     0.014 A 
ATOM     36  C   UNL A   1      36.341  29.711  29.608  1.00  0.00     0.014 A 
ATOM     37  C   UNL A   1      38.301  29.899  27.628  1.00  0.00     0.010 A 
ATOM     38  C   UNL A   1      37.658  29.368  29.902  1.00  0.00     0.010 A 
ATOM     39  C   UNL A   1      38.648  29.445  28.912  1.00  0.00    -0.014 A 
BRANCH  39  40
ATOM     40  C   UNL A   1      40.039  29.034  29.230  1.00  0.00     0.031 A 
ATOM     41  C   UNL A   1      40.983  30.005  29.890  1.00  0.00     0.074 A 
ATOM     42  C   UNL A   1      40.468  27.806  28.877  1.00  0.00     0.049 A 
ATOM     43  N   UNL A   1      42.242  29.843  30.208  1.00  0.00    -0.248 NA
ATOM     44  C   UNL A   1      40.449  31.339  30.213  1.00  0.00     0.031 C 
ATOM     45  C   UNL A   1      39.661  26.791  28.194  1.00  0.00     0.029 A 
ATOM     46  N   UNL A   1      41.689  27.204  29.040  1.00  0.00    -0.354 N 
ATOM     47  C   UNL A   1      42.654  31.055  30.751  1.00  0.00     0.074 A 
ATOM     48  C   UNL A   1      41.527  31.958  30.674  1.00  0.00     0.031 C 
ATOM     49  C   UNL A   1      40.402  25.685  28.022  1.00  0.00     0.029 A 
ATOM     50  C   UNL A   1      41.743  25.922  28.545  1.00  0.00     0.049 A 
ATOM     51  H   UNL A   1      42.455  27.647  29.471  1.00  0.00     0.167 HD
ATOM     52  C   UNL A   1      43.857  31.382  31.282  1.00  0.00     0.031 A 
ATOM     53  C   UNL A   1      42.758  25.038  28.512  1.00  0.00     0.031 A 
ATOM     54  C   UNL A   1      44.971  30.475  31.369  1.00  0.00     0.049 A 
ATOM     55  C   UNL A   1      44.083  25.423  29.114  1.00  0.00     0.074 A 
ATOM     56  C   UNL A   1      46.214  30.691  31.940  1.00  0.00     0.029 A 
ATOM     57  N   UNL A   1      44.979  29.181  30.872  1.00  0.00    -0.354 N 
ATOM     58  N   UNL A   1      44.433  26.552  29.681  1.00  0.00    -0.248 NA
ATOM     59  C   UNL A   1      45.143  24.405  29.085  1.00  0.00     0.031 C 
ATOM     60  C   UNL A   1      46.990  29.544  31.745  1.00  0.00     0.029 A 
ATOM     61  C   UNL A   1      46.211  28.593  31.105  1.00  0.00     0.049 A 
ATOM     62  H   UNL A   1      44.221  28.744  30.421  1.00  0.00     0.167 HD
ATOM     63  C   UNL A   1      45.746  26.371  30.103  1.00  0.00     0.074 A 
ATOM     64  C   UNL A   1      46.119  25.020  29.739  1.00  0.00     0.031 C 
ATOM     65  C   UNL A   1      46.567  27.245  30.737  1.00  0.00     0.031 A 
BRANCH  52  66
ATOM     66  C   UNL A   1      44.030  32.782  31.810  1.00  0.00    -0.014 A 
ATOM     67  C   UNL A   1      43.703  33.106  33.139  1.00  0.00     0.010 A 
ATOM     68  C   UNL A   1      44.569  33.781  30.977  1.00  0.00     0.010 A 
ATOM     69  C   UNL A   1      43.873  34.408  33.615  1.00  0.00     0.020 A 
ATOM     70  C   UNL A   1      44.768  35.079  31.457  1.00  0.00     0.020 A 
ATOM     71  C   UNL A   1      44.403  35.388  32.769  1.00  0.00     0.054 A 
BRANCH  71  72
ATOM     72  S   UNL A   1      44.638  37.064  33.421  1.00  0.00     0.124 S 
ATOM     73  O   UNL A   1      45.726  36.866  34.376  1.00  0.00    -0.237 OA
ATOM     74  O   UNL A   1      44.983  37.828  32.225  1.00  0.00    -0.237 OA
ATOM     75  O   UNL A   1      43.343  37.391  34.013  1.00  0.00    -0.744 OA
ENDBRANCH  71  72
ENDBRANCH  52  66
BRANCH  53  76
ATOM     76  C   UNL A   1      42.555  23.694  27.905  1.00  0.00    -0.014 A 
ATOM     77  C   UNL A   1      42.252  22.583  28.712  1.00  0.00     0.010 A 
ATOM     78  C   UNL A   1      42.656  23.519  26.513  1.00  0.00     0.010 A 
ATOM     79  C   UNL A   1      42.075  21.320  28.141  1.00  0.00     0.020 A 
ATOM     80  C   UNL A   1      42.451  22.263  25.935  1.00  0.00     0.020 A 
ATOM     81  C   UNL A   1      42.176  21.168  26.756  1.00  0.00     0.054 A 
BRANCH  81  82
ATOM     82  S   UNL A   1      41.898  19.527  26.032  1.00  0.00     0.124 S 
ATOM     83  O   UNL A   1      40.464  19.553  25.763  1.00  0.00    -0.237 OA
ATOM     84  O   UNL A   1      42.765  19.549  24.856  1.00  0.00    -0.237 OA
ATOM     85  O   UNL A   1      42.322  18.612  27.090  1.00  0.00    -0.744 OA
ENDBRANCH  81  82
ENDBRANCH  53  76
BRANCH  65  86
ATOM     86  C   UNL A   1      47.939  26.754  31.115  1.00  0.00    -0.014 A 
ATOM     87  C   UNL A   1      49.028  26.875  30.233  1.00  0.00     0.010 A 
ATOM     88  C   UNL A   1      48.148  26.201  32.391  1.00  0.00     0.010 A 
ATOM     89  C   UNL A   1      50.294  26.416  30.608  1.00  0.00     0.020 A 
ATOM     90  C   UNL A   1      49.418  25.767  32.781  1.00  0.00     0.020 A 
ATOM     91  C   UNL A   1      50.479  25.862  31.880  1.00  0.00     0.054 A 
BRANCH  91  92
ATOM     92  S   UNL A   1      52.137  25.302  32.355  1.00  0.00     0.124 S 
ATOM     93  O   UNL A   1      51.978  23.850  32.357  1.00  0.00    -0.237 OA
ATOM     94  O   UNL A   1      52.977  25.841  31.288  1.00  0.00    -0.237 OA
ATOM     95  O   UNL A   1      52.345  25.908  33.668  1.00  0.00    -0.744 OA
ENDBRANCH  91  92
ENDBRANCH  65  86
ENDBRANCH  39  40
ENDBRANCH  31  34
ENDBRANCH  29  30
ENDBRANCH  28  29
ENDBRANCH   1  28
TORSDOF 18
ENDMDL
MODEL 3
REMARK VINA RESULT:     -11.2      3.088      4.277
REMARK SMILES CC1(C)[C@H](C(=O)NCCCCCCNC(=O)c2ccc(-c3c4nc(c(-c5ccc(S(=O)(=O)[O-])cc5)c5ccc([nH]5)c(-c5ccc(S(=O)(=O)[O-])cc5)c5nc(c(-c6ccc(S(=O)(=O)[O-])cc6)c6ccc3[nH]6)C=C5)C=C4)cc2)[C@H]1C(=O)Nc1cccc2[nH]ccc12
REMARK SMILES IDX 11 1 10 2 9 3 8 4 7 5 5 6 6 7 4 9 1 10 2 11 3 12 77 13 78 14
REMARK SMILES IDX 79 15 80 16 81 18 82 19 89 20 83 21 85 22 88 23 84 24 86 25
REMARK SMILES IDX 87 26 12 28 13 29 14 30 15 31 16 33 17 34 18 35 76 36 19 37
REMARK SMILES IDX 75 38 20 39 21 40 22 41 69 42 23 43 74 44 68 45 70 46 24 47
REMARK SMILES IDX 73 48 67 49 66 50 25 52 55 53 36 54 54 55 37 56 40 57 53 58
REMARK SMILES IDX 71 59 38 60 39 61 52 63 72 64 41 65 26 66 27 67 35 68 28 69
REMARK SMILES IDX 34 70 29 71 30 72 31 73 32 74 33 75 56 76 57 77 65 78 58 79
REMARK SMILES IDX 64 80 59 81 60 82 61 83 62 84 63 85 42 86 43 87 51 88 44 89
REMARK SMILES IDX 50 90 45 91 46 92 47 93 48 94 49 95
REMARK H PARENT 7 8 80 17 86 27 14 32 70 51 40 62
REMARK Flexibility Score: inf
ROOT
ATOM      1  C   UNL A   1      33.316  29.720  26.015  1.00  0.00     0.002 C 
ENDROOT
BRANCH   1   2
ATOM      2  C   UNL A   1      31.814  29.438  25.904  1.00  0.00     0.002 C 
BRANCH   2   3
ATOM      3  C   UNL A   1      31.374  28.775  24.595  1.00  0.00     0.021 C 
BRANCH   3   4
ATOM      4  C   UNL A   1      32.427  28.805  23.486  1.00  0.00     0.116 C 
BRANCH   4   5
ATOM      5  N   UNL A   1      32.038  27.983  22.369  1.00  0.00    -0.356 N 
ATOM      6  C   UNL A   1      31.794  26.653  22.214  1.00  0.00     0.224 C 
ATOM      7  O   UNL A   1      31.455  26.310  21.077  1.00  0.00    -0.275 OA
ATOM      8  H   UNL A   1      31.924  28.495  21.536  1.00  0.00     0.163 HD
BRANCH   6   9
ATOM      9  C   UNL A   1      31.877  25.577  23.240  1.00  0.00     0.098 C 
ATOM     10  C   UNL A   1      31.336  23.157  23.709  1.00  0.00     0.013 C 
ATOM     11  C   UNL A   1      32.360  24.122  23.170  1.00  0.00    -0.011 C 
ATOM     12  C   UNL A   1      33.251  23.390  22.205  1.00  0.00     0.013 C 
ATOM     13  C   UNL A   1      33.101  25.197  23.991  1.00  0.00     0.098 C 
BRANCH  13  14
ATOM     14  C   UNL A   1      33.369  25.079  25.457  1.00  0.00     0.228 C 
ATOM     15  O   UNL A   1      32.844  25.920  26.187  1.00  0.00    -0.274 OA
ATOM     16  N   UNL A   1      33.910  23.963  26.048  1.00  0.00    -0.325 N 
ATOM     17  H   UNL A   1      33.470  23.669  26.878  1.00  0.00     0.169 HD
BRANCH  16  18
ATOM     18  C   UNL A   1      34.995  23.183  25.640  1.00  0.00     0.050 A 
ATOM     19  C   UNL A   1      36.214  23.826  25.400  1.00  0.00     0.027 A 
ATOM     20  C   UNL A   1      34.880  21.811  25.320  1.00  0.00     0.023 A 
ATOM     21  C   UNL A   1      37.349  23.090  25.060  1.00  0.00     0.004 A 
ATOM     22  C   UNL A   1      36.046  21.090  25.052  1.00  0.00     0.047 A 
ATOM     23  C   UNL A   1      33.798  20.901  25.126  1.00  0.00     0.030 A 
ATOM     24  C   UNL A   1      37.300  21.699  24.944  1.00  0.00     0.027 A 
ATOM     25  N   UNL A   1      35.690  19.762  24.955  1.00  0.00    -0.361 N 
ATOM     26  C   UNL A   1      34.327  19.641  24.949  1.00  0.00     0.083 A 
ATOM     27  H   UNL A   1      36.324  19.011  24.898  1.00  0.00     0.166 HD
ENDBRANCH  16  18
ENDBRANCH  13  14
ENDBRANCH   6   9
ENDBRANCH   4   5
ENDBRANCH   3   4
ENDBRANCH   2   3
ENDBRANCH   1   2
BRANCH   1  28
ATOM     28  C   UNL A   1      34.004  29.124  27.248  1.00  0.00     0.021 C 
BRANCH  28  29
ATOM     29  C   UNL A   1      35.366  29.734  27.570  1.00  0.00     0.116 C 
BRANCH  29  30
ATOM     30  N   UNL A   1      35.394  30.301  28.909  1.00  0.00    -0.352 N 
ATOM     31  C   UNL A   1      36.382  30.246  29.857  1.00  0.00     0.251 C 
ATOM     32  H   UNL A   1      34.585  30.796  29.172  1.00  0.00     0.163 HD
ATOM     33  O   UNL A   1      36.131  30.551  31.020  1.00  0.00    -0.269 OA
BRANCH  31  34
ATOM     34  C   UNL A   1      37.746  29.819  29.479  1.00  0.00     0.039 A 
ATOM     35  C   UNL A   1      38.102  29.801  28.128  1.00  0.00     0.014 A 
ATOM     36  C   UNL A   1      38.660  29.404  30.452  1.00  0.00     0.014 A 
ATOM     37  C   UNL A   1      39.389  29.402  27.757  1.00  0.00     0.010 A 
ATOM     38  C   UNL A   1      39.963  29.075  30.087  1.00  0.00     0.010 A 
ATOM     39  C   UNL A   1      40.336  29.057  28.735  1.00  0.00    -0.014 A 
BRANCH  39  40
ATOM     40  C   UNL A   1      41.717  28.662  28.359  1.00  0.00     0.031 A 
ATOM     41  C   UNL A   1      42.810  29.697  28.294  1.00  0.00     0.074 A 
ATOM     42  C   UNL A   1      41.976  27.382  28.027  1.00  0.00     0.049 A 
ATOM     43  N   UNL A   1      44.063  29.551  27.948  1.00  0.00    -0.248 NA
ATOM     44  C   UNL A   1      42.439  31.080  28.639  1.00  0.00     0.031 C 
ATOM     45  C   UNL A   1      40.993  26.295  28.011  1.00  0.00     0.029 A 
ATOM     46  N   UNL A   1      43.144  26.778  27.635  1.00  0.00    -0.354 N 
ATOM     47  C   UNL A   1      44.625  30.821  28.017  1.00  0.00     0.074 A 
ATOM     48  C   UNL A   1      43.565  31.733  28.389  1.00  0.00     0.031 C 
ATOM     49  C   UNL A   1      41.605  25.155  27.654  1.00  0.00     0.029 A 
ATOM     50  C   UNL A   1      43.011  25.433  27.381  1.00  0.00     0.049 A 
ATOM     51  H   UNL A   1      43.997  27.261  27.545  1.00  0.00     0.167 HD
ATOM     52  C   UNL A   1      45.911  31.193  27.807  1.00  0.00     0.031 A 
ATOM     53  C   UNL A   1      43.917  24.526  26.970  1.00  0.00     0.031 A 
ATOM     54  C   UNL A   1      46.965  30.279  27.451  1.00  0.00     0.049 A 
ATOM     55  C   UNL A   1      45.340  24.962  26.749  1.00  0.00     0.074 A 
ATOM     56  C   UNL A   1      48.311  30.547  27.271  1.00  0.00     0.029 A 
ATOM     57  N   UNL A   1      46.793  28.923  27.219  1.00  0.00    -0.354 N 
ATOM     58  N   UNL A   1      45.865  26.157  26.882  1.00  0.00    -0.248 NA
ATOM     59  C   UNL A   1      46.295  23.923  26.338  1.00  0.00     0.031 C 
ATOM     60  C   UNL A   1      48.944  29.361  26.883  1.00  0.00     0.029 A 
ATOM     61  C   UNL A   1      48.003  28.344  26.880  1.00  0.00     0.049 A 
ATOM     62  H   UNL A   1      45.935  28.442  27.288  1.00  0.00     0.167 HD
ATOM     63  C   UNL A   1      47.220  26.007  26.600  1.00  0.00     0.074 A 
ATOM     64  C   UNL A   1      47.432  24.605  26.305  1.00  0.00     0.031 C 
ATOM     65  C   UNL A   1      48.198  26.946  26.589  1.00  0.00     0.031 A 
BRANCH  52  66
ATOM     66  C   UNL A   1      46.249  32.653  27.956  1.00  0.00    -0.014 A 
ATOM     67  C   UNL A   1      46.161  33.536  26.864  1.00  0.00     0.010 A 
ATOM     68  C   UNL A   1      46.617  33.161  29.216  1.00  0.00     0.010 A 
ATOM     69  C   UNL A   1      46.473  34.888  27.019  1.00  0.00     0.020 A 
ATOM     70  C   UNL A   1      46.902  34.519  29.382  1.00  0.00     0.020 A 
ATOM     71  C   UNL A   1      46.845  35.372  28.278  1.00  0.00     0.054 A 
BRANCH  71  72
ATOM     72  S   UNL A   1      47.219  37.138  28.455  1.00  0.00     0.124 S 
ATOM     73  O   UNL A   1      47.708  37.206  29.830  1.00  0.00    -0.237 OA
ATOM     74  O   UNL A   1      48.225  37.357  27.419  1.00  0.00    -0.237 OA
ATOM     75  O   UNL A   1      45.934  37.791  28.220  1.00  0.00    -0.744 OA
ENDBRANCH  71  72
ENDBRANCH  52  66
BRANCH  53  76
ATOM     76  C   UNL A   1      43.510  23.109  26.760  1.00  0.00    -0.014 A 
ATOM     77  C   UNL A   1      43.626  22.513  25.491  1.00  0.00     0.010 A 
ATOM     78  C   UNL A   1      43.012  22.345  27.831  1.00  0.00     0.010 A 
ATOM     79  C   UNL A   1      43.231  21.187  25.293  1.00  0.00     0.020 A 
ATOM     80  C   UNL A   1      42.643  21.011  27.643  1.00  0.00     0.020 A 
ATOM     81  C   UNL A   1      42.742  20.444  26.372  1.00  0.00     0.054 A 
BRANCH  81  82
ATOM     82  S   UNL A   1      42.277  18.711  26.101  1.00  0.00     0.124 S 
ATOM     83  O   UNL A   1      40.884  18.833  25.681  1.00  0.00    -0.237 OA
ATOM     84  O   UNL A   1      43.217  18.289  25.065  1.00  0.00    -0.237 OA
ATOM     85  O   UNL A   1      42.485  18.093  27.408  1.00  0.00    -0.744 OA
ENDBRANCH  81  82
ENDBRANCH  53  76
BRANCH  65  86
ATOM     86  C   UNL A   1      49.598  26.481  26.285  1.00  0.00    -0.014 A 
ATOM     87  C   UNL A   1      50.149  26.610  24.998  1.00  0.00     0.010 A 
ATOM     88  C   UNL A   1      50.388  25.945  27.319  1.00  0.00     0.010 A 
ATOM     89  C   UNL A   1      51.453  26.175  24.742  1.00  0.00     0.020 A 
ATOM     90  C   UNL A   1      51.701  25.537  27.074  1.00  0.00     0.020 A 
ATOM     91  C   UNL A   1      52.219  25.638  25.782  1.00  0.00     0.054 A 
BRANCH  91  92
ATOM     92  S   UNL A   1      53.918  25.111  25.433  1.00  0.00     0.124 S 
ATOM     93  O   UNL A   1      53.735  23.701  25.097  1.00  0.00    -0.237 OA
ATOM     94  O   UNL A   1      54.301  25.976  24.319  1.00  0.00    -0.237 OA
ATOM     95  O   UNL A   1      54.626  25.367  26.684  1.00  0.00    -0.744 OA
ENDBRANCH  91  92
ENDBRANCH  65  86
ENDBRANCH  39  40
ENDBRANCH  31  34
ENDBRANCH  29  30
ENDBRANCH  28  29
ENDBRANCH   1  28
TORSDOF 18
ENDMDL
