MODEL 1
REMARK VINA RESULT:     -13.4      0.000      0.000
REMARK SMILES Cc1ccc(-c2nc(NC(=O)[C@H]3[C@@H](C(=O)NCCCCCCNC(=O)c4ccc(-c5c6nc(c(-c7ccc(S(=O)(=O)[O-])cc7)c7ccc([nH]7)c(-c7ccc(S(=O)(=O)[O-])cc7)c7nc(c(-c8ccc(S(=O)(=O)[O-])cc8)c8ccc5[nH]8)C=C7)C=C6)cc4)[C@@H]4CC[C@H]3O4)sc2C)cc1
REMARK SMILES IDX 19 1 18 2 17 3 16 4 14 5 15 6 13 8 12 9 89 10 86 11 88 12
REMARK SMILES IDX 90 13 87 14 10 15 9 16 11 18 8 19 6 20 7 21 92 22 91 23
REMARK SMILES IDX 93 24 5 25 1 26 2 27 3 28 95 29 4 30 94 31 20 32 21 33 22 34
REMARK SMILES IDX 23 35 24 36 25 38 26 39 27 40 85 41 28 42 84 43 29 44 30 45
REMARK SMILES IDX 31 46 78 47 32 48 83 49 77 50 79 51 33 52 82 53 76 54 75 55
REMARK SMILES IDX 34 57 64 58 45 59 63 60 46 61 49 62 62 63 80 64 47 65 48 66
REMARK SMILES IDX 61 68 81 69 50 70 35 71 36 72 44 73 37 74 43 75 38 76 39 77
REMARK SMILES IDX 40 78 41 79 42 80 65 81 66 82 74 83 67 84 73 85 68 86 69 87
REMARK SMILES IDX 70 88 71 89 72 90 51 91 52 92 60 93 53 94 59 95 54 96 55 97
REMARK SMILES IDX 56 98 57 99 58 100
REMARK H PARENT 16 7 9 17 23 37 79 56 49 67
REMARK Flexibility Score: inf
ROOT
ATOM      1  C   UNL A   1      32.946  28.140  25.329  1.00  0.00     0.002 C 
ENDROOT
BRANCH   1   2
ATOM      2  C   UNL A   1      31.769  27.433  25.994  1.00  0.00     0.021 C 
BRANCH   2   3
ATOM      3  C   UNL A   1      32.026  26.160  26.789  1.00  0.00     0.116 C 
BRANCH   3   4
ATOM      4  N   UNL A   1      31.508  24.926  26.231  1.00  0.00    -0.356 N 
ATOM      5  C   UNL A   1      32.218  23.779  26.026  1.00  0.00     0.226 C 
ATOM      6  O   UNL A   1      31.707  22.711  26.370  1.00  0.00    -0.275 OA
ATOM      7  H   UNL A   1      30.557  24.915  25.976  1.00  0.00     0.163 HD
BRANCH   5   8
ATOM      8  C   UNL A   1      33.645  23.869  25.545  1.00  0.00     0.122 C 
ATOM      9  C   UNL A   1      34.081  24.337  24.151  1.00  0.00     0.123 C 
ATOM     10  C   UNL A   1      35.419  23.581  24.042  1.00  0.00     0.132 C 
ATOM     11  C   UNL A   1      34.484  22.569  25.720  1.00  0.00     0.132 C 
ATOM     12  C   UNL A   1      36.368  23.879  25.232  1.00  0.00     0.035 C 
ATOM     13  O   UNL A   1      34.940  22.260  24.374  1.00  0.00    -0.373 OA
ATOM     14  C   UNL A   1      35.837  22.935  26.319  1.00  0.00     0.035 C 
BRANCH   9  15
ATOM     15  C   UNL A   1      33.437  24.327  22.738  1.00  0.00     0.232 C 
ATOM     16  N   UNL A   1      32.388  24.938  22.152  1.00  0.00    -0.302 N 
ATOM     17  H   UNL A   1      32.355  24.735  21.189  1.00  0.00     0.172 HD
ATOM     18  O   UNL A   1      34.006  23.542  21.943  1.00  0.00    -0.274 OA
BRANCH  16  19
ATOM     19  C   UNL A   1      31.357  25.758  22.513  1.00  0.00     0.190 A 
ATOM     20  C   UNL A   1      30.159  27.621  22.820  1.00  0.00     0.086 A 
ATOM     21  N   UNL A   1      31.312  27.055  22.250  1.00  0.00    -0.220 NA
ATOM     22  C   UNL A   1      29.330  26.688  23.429  1.00  0.00     0.031 A 
ATOM     23  S   UNL A   1      29.974  25.129  23.206  1.00  0.00    -0.101 S 
ATOM     24  C   UNL A   1      28.040  26.787  24.159  1.00  0.00     0.059 C 
BRANCH  20  25
ATOM     25  C   UNL A   1      29.830  29.058  22.751  1.00  0.00     0.001 A 
ATOM     26  C   UNL A   1      28.435  33.179  22.820  1.00  0.00     0.044 C 
ATOM     27  C   UNL A   1      28.933  31.762  22.783  1.00  0.00    -0.051 A 
ATOM     28  C   UNL A   1      28.833  30.982  21.622  1.00  0.00     0.004 A 
ATOM     29  C   UNL A   1      29.533  31.199  23.908  1.00  0.00     0.004 A 
ATOM     30  C   UNL A   1      29.276  29.642  21.605  1.00  0.00     0.010 A 
ATOM     31  C   UNL A   1      29.992  29.876  23.882  1.00  0.00     0.010 A 
ENDBRANCH  20  25
ENDBRANCH  16  19
ENDBRANCH   9  15
ENDBRANCH   5   8
ENDBRANCH   3   4
ENDBRANCH   2   3
ENDBRANCH   1   2
BRANCH   1  32
ATOM     32  C   UNL A   1      33.203  29.618  25.624  1.00  0.00     0.002 C 
BRANCH  32  33
ATOM     33  C   UNL A   1      33.367  30.072  27.071  1.00  0.00     0.021 C 
BRANCH  33  34
ATOM     34  C   UNL A   1      34.631  29.588  27.773  1.00  0.00     0.116 C 
BRANCH  34  35
ATOM     35  N   UNL A   1      35.239  30.663  28.555  1.00  0.00    -0.352 N 
ATOM     36  C   UNL A   1      36.444  30.707  29.230  1.00  0.00     0.251 C 
ATOM     37  H   UNL A   1      34.703  31.488  28.609  1.00  0.00     0.163 HD
ATOM     38  O   UNL A   1      36.784  31.636  29.932  1.00  0.00    -0.269 OA
BRANCH  36  39
ATOM     39  C   UNL A   1      37.400  29.628  28.929  1.00  0.00     0.039 A 
ATOM     40  C   UNL A   1      37.679  28.737  29.970  1.00  0.00     0.014 A 
ATOM     41  C   UNL A   1      38.195  29.698  27.789  1.00  0.00     0.014 A 
ATOM     42  C   UNL A   1      38.889  28.062  29.959  1.00  0.00     0.010 A 
ATOM     43  C   UNL A   1      39.438  29.103  27.825  1.00  0.00     0.010 A 
ATOM     44  C   UNL A   1      39.801  28.341  28.939  1.00  0.00    -0.014 A 
BRANCH  44  45
ATOM     45  C   UNL A   1      41.162  27.832  28.979  1.00  0.00     0.031 A 
ATOM     46  C   UNL A   1      41.361  26.424  28.575  1.00  0.00     0.074 A 
ATOM     47  C   UNL A   1      42.169  28.590  29.466  1.00  0.00     0.049 A 
ATOM     48  N   UNL A   1      42.247  25.629  29.069  1.00  0.00    -0.248 NA
ATOM     49  C   UNL A   1      40.472  25.773  27.613  1.00  0.00     0.031 C 
ATOM     50  C   UNL A   1      43.579  28.211  29.548  1.00  0.00     0.029 A 
ATOM     51  N   UNL A   1      42.116  29.779  30.202  1.00  0.00    -0.354 N 
ATOM     52  C   UNL A   1      42.233  24.479  28.309  1.00  0.00     0.074 A 
ATOM     53  C   UNL A   1      41.044  24.574  27.498  1.00  0.00     0.031 C 
ATOM     54  C   UNL A   1      44.143  28.911  30.548  1.00  0.00     0.029 A 
ATOM     55  C   UNL A   1      43.074  29.639  31.213  1.00  0.00     0.049 A 
ATOM     56  H   UNL A   1      41.528  30.552  30.042  1.00  0.00     0.167 HD
ATOM     57  C   UNL A   1      43.314  23.649  28.324  1.00  0.00     0.031 A 
ATOM     58  C   UNL A   1      42.782  29.534  32.544  1.00  0.00     0.031 A 
ATOM     59  C   UNL A   1      44.284  24.069  29.337  1.00  0.00     0.049 A 
ATOM     60  C   UNL A   1      43.313  28.246  33.161  1.00  0.00     0.074 A 
ATOM     61  C   UNL A   1      45.451  24.813  29.268  1.00  0.00     0.029 A 
ATOM     62  N   UNL A   1      43.917  24.043  30.682  1.00  0.00    -0.354 N 
ATOM     63  N   UNL A   1      43.616  27.172  32.478  1.00  0.00    -0.248 NA
ATOM     64  C   UNL A   1      43.548  28.072  34.593  1.00  0.00     0.031 C 
ATOM     65  C   UNL A   1      45.721  25.327  30.567  1.00  0.00     0.029 A 
ATOM     66  C   UNL A   1      44.747  24.857  31.432  1.00  0.00     0.049 A 
ATOM     67  H   UNL A   1      43.171  23.516  31.048  1.00  0.00     0.167 HD
ATOM     68  C   UNL A   1      44.117  26.207  33.321  1.00  0.00     0.074 A 
ATOM     69  C   UNL A   1      44.054  26.827  34.635  1.00  0.00     0.031 C 
ATOM     70  C   UNL A   1      44.555  24.989  32.876  1.00  0.00     0.031 A 
BRANCH  57  71
ATOM     71  C   UNL A   1      43.608  22.725  27.158  1.00  0.00    -0.014 A 
ATOM     72  C   UNL A   1      42.770  21.619  26.908  1.00  0.00     0.010 A 
ATOM     73  C   UNL A   1      44.756  22.821  26.346  1.00  0.00     0.010 A 
ATOM     74  C   UNL A   1      43.131  20.602  26.005  1.00  0.00     0.020 A 
ATOM     75  C   UNL A   1      45.158  21.791  25.482  1.00  0.00     0.020 A 
ATOM     76  C   UNL A   1      44.346  20.675  25.328  1.00  0.00     0.054 A 
BRANCH  76  77
ATOM     77  S   UNL A   1      44.863  19.302  24.262  1.00  0.00     0.124 S 
ATOM     78  O   UNL A   1      44.117  18.173  24.814  1.00  0.00    -0.237 OA
ATOM     79  O   UNL A   1      44.436  19.755  22.941  1.00  0.00    -0.237 OA
ATOM     80  O   UNL A   1      46.309  19.234  24.459  1.00  0.00    -0.744 OA
ENDBRANCH  76  77
ENDBRANCH  57  71
BRANCH  58  81
ATOM     81  C   UNL A   1      41.588  30.294  33.013  1.00  0.00    -0.014 A 
ATOM     82  C   UNL A   1      40.344  29.627  33.029  1.00  0.00     0.010 A 
ATOM     83  C   UNL A   1      41.704  31.499  33.726  1.00  0.00     0.010 A 
ATOM     84  C   UNL A   1      39.292  30.073  33.838  1.00  0.00     0.020 A 
ATOM     85  C   UNL A   1      40.650  31.950  34.542  1.00  0.00     0.020 A 
ATOM     86  C   UNL A   1      39.472  31.202  34.636  1.00  0.00     0.054 A 
BRANCH  86  87
ATOM     87  S   UNL A   1      38.175  31.639  35.836  1.00  0.00     0.124 S 
ATOM     88  O   UNL A   1      37.032  31.940  34.978  1.00  0.00    -0.237 OA
ATOM     89  O   UNL A   1      38.055  30.412  36.623  1.00  0.00    -0.237 OA
ATOM     90  O   UNL A   1      38.740  32.782  36.543  1.00  0.00    -0.744 OA
ENDBRANCH  86  87
ENDBRANCH  58  81
BRANCH  70  91
ATOM     91  C   UNL A   1      44.945  23.802  33.742  1.00  0.00    -0.014 A 
ATOM     92  C   UNL A   1      44.051  23.047  34.515  1.00  0.00     0.010 A 
ATOM     93  C   UNL A   1      46.283  23.333  33.692  1.00  0.00     0.010 A 
ATOM     94  C   UNL A   1      44.477  21.923  35.242  1.00  0.00     0.020 A 
ATOM     95  C   UNL A   1      46.708  22.186  34.370  1.00  0.00     0.020 A 
ATOM     96  C   UNL A   1      45.802  21.498  35.164  1.00  0.00     0.054 A 
BRANCH  96  97
ATOM     97  S   UNL A   1      46.316  19.995  36.032  1.00  0.00     0.124 S 
ATOM     98  O   UNL A   1      45.739  18.948  35.193  1.00  0.00    -0.237 OA
ATOM     99  O   UNL A   1      47.775  20.086  36.005  1.00  0.00    -0.237 OA
ATOM    100  O   UNL A   1      45.716  20.140  37.356  1.00  0.00    -0.744 OA
ENDBRANCH  96  97
ENDBRANCH  70  91
ENDBRANCH  44  45
ENDBRANCH  36  39
ENDBRANCH  34  35
ENDBRANCH  33  34
ENDBRANCH  32  33
ENDBRANCH   1  32
TORSDOF 19
ENDMDL
MODEL 2
REMARK VINA RESULT:     -12.4      4.802     10.897
REMARK SMILES Cc1ccc(-c2nc(NC(=O)[C@H]3[C@@H](C(=O)NCCCCCCNC(=O)c4ccc(-c5c6nc(c(-c7ccc(S(=O)(=O)[O-])cc7)c7ccc([nH]7)c(-c7ccc(S(=O)(=O)[O-])cc7)c7nc(c(-c8ccc(S(=O)(=O)[O-])cc8)c8ccc5[nH]8)C=C7)C=C6)cc4)[C@@H]4CC[C@H]3O4)sc2C)cc1
REMARK SMILES IDX 19 1 18 2 17 3 16 4 14 5 15 6 13 8 12 9 89 10 86 11 88 12
REMARK SMILES IDX 90 13 87 14 10 15 9 16 11 18 8 19 6 20 7 21 92 22 91 23
REMARK SMILES IDX 93 24 5 25 1 26 2 27 3 28 95 29 4 30 94 31 20 32 21 33 22 34
REMARK SMILES IDX 23 35 24 36 25 38 26 39 27 40 85 41 28 42 84 43 29 44 30 45
REMARK SMILES IDX 31 46 78 47 32 48 83 49 77 50 79 51 33 52 82 53 76 54 75 55
REMARK SMILES IDX 34 57 64 58 45 59 63 60 46 61 49 62 62 63 80 64 47 65 48 66
REMARK SMILES IDX 61 68 81 69 50 70 35 71 36 72 44 73 37 74 43 75 38 76 39 77
REMARK SMILES IDX 40 78 41 79 42 80 65 81 66 82 74 83 67 84 73 85 68 86 69 87
REMARK SMILES IDX 70 88 71 89 72 90 51 91 52 92 60 93 53 94 59 95 54 96 55 97
REMARK SMILES IDX 56 98 57 99 58 100
REMARK H PARENT 16 7 9 17 23 37 79 56 49 67
REMARK Flexibility Score: inf
ROOT
ATOM      1  C   UNL A   1      36.296  22.158  25.650  1.00  0.00     0.002 C 
ENDROOT
BRANCH   1   2
ATOM      2  C   UNL A   1      35.610  21.313  24.581  1.00  0.00     0.021 C 
BRANCH   2   3
ATOM      3  C   UNL A   1      34.836  20.072  25.005  1.00  0.00     0.116 C 
BRANCH   3   4
ATOM      4  N   UNL A   1      33.617  20.289  25.758  1.00  0.00    -0.356 N 
ATOM      5  C   UNL A   1      32.581  21.097  25.389  1.00  0.00     0.226 C 
ATOM      6  O   UNL A   1      31.434  20.659  25.506  1.00  0.00    -0.275 OA
ATOM      7  H   UNL A   1      33.528  19.811  26.614  1.00  0.00     0.163 HD
BRANCH   5   8
ATOM      8  C   UNL A   1      32.874  22.412  24.712  1.00  0.00     0.122 C 
ATOM      9  C   UNL A   1      32.634  23.796  25.325  1.00  0.00     0.123 C 
ATOM     10  C   UNL A   1      32.444  24.613  24.032  1.00  0.00     0.132 C 
ATOM     11  C   UNL A   1      32.247  22.580  23.297  1.00  0.00     0.132 C 
ATOM     12  C   UNL A   1      33.634  24.455  23.051  1.00  0.00     0.035 C 
ATOM     13  O   UNL A   1      31.439  23.784  23.409  1.00  0.00    -0.373 OA
ATOM     14  C   UNL A   1      33.309  23.129  22.351  1.00  0.00     0.035 C 
BRANCH   9  15
ATOM     15  C   UNL A   1      31.649  24.376  26.377  1.00  0.00     0.232 C 
ATOM     16  N   UNL A   1      31.115  25.588  26.632  1.00  0.00    -0.302 N 
ATOM     17  H   UNL A   1      30.446  25.532  27.352  1.00  0.00     0.172 HD
ATOM     18  O   UNL A   1      31.271  23.527  27.218  1.00  0.00    -0.274 OA
BRANCH  16  19
ATOM     19  C   UNL A   1      31.236  26.870  26.178  1.00  0.00     0.190 A 
ATOM     20  C   UNL A   1      30.928  28.696  24.925  1.00  0.00     0.086 A 
ATOM     21  N   UNL A   1      30.506  27.385  25.202  1.00  0.00    -0.220 NA
ATOM     22  C   UNL A   1      31.926  29.145  25.780  1.00  0.00     0.031 A 
ATOM     23  S   UNL A   1      32.251  27.950  26.948  1.00  0.00    -0.101 S 
ATOM     24  C   UNL A   1      32.688  30.417  25.887  1.00  0.00     0.059 C 
BRANCH  20  25
ATOM     25  C   UNL A   1      30.351  29.537  23.859  1.00  0.00     0.001 A 
ATOM     26  C   UNL A   1      28.189  31.815  20.847  1.00  0.00     0.044 C 
ATOM     27  C   UNL A   1      28.954  31.036  21.879  1.00  0.00    -0.051 A 
ATOM     28  C   UNL A   1      29.737  29.928  21.526  1.00  0.00     0.004 A 
ATOM     29  C   UNL A   1      28.920  31.421  23.219  1.00  0.00     0.004 A 
ATOM     30  C   UNL A   1      30.429  29.183  22.506  1.00  0.00     0.010 A 
ATOM     31  C   UNL A   1      29.625  30.695  24.186  1.00  0.00     0.010 A 
ENDBRANCH  20  25
ENDBRANCH  16  19
ENDBRANCH   9  15
ENDBRANCH   5   8
ENDBRANCH   3   4
ENDBRANCH   2   3
ENDBRANCH   1   2
BRANCH   1  32
ATOM     32  C   UNL A   1      37.820  22.279  25.653  1.00  0.00     0.002 C 
BRANCH  32  33
ATOM     33  C   UNL A   1      38.472  23.487  26.321  1.00  0.00     0.021 C 
BRANCH  33  34
ATOM     34  C   UNL A   1      39.672  23.179  27.208  1.00  0.00     0.116 C 
BRANCH  34  35
ATOM     35  N   UNL A   1      40.911  23.655  26.594  1.00  0.00    -0.352 N 
ATOM     36  C   UNL A   1      41.385  24.941  26.419  1.00  0.00     0.251 C 
ATOM     37  H   UNL A   1      41.501  22.945  26.250  1.00  0.00     0.163 HD
ATOM     38  O   UNL A   1      42.392  25.203  25.795  1.00  0.00    -0.269 OA
BRANCH  36  39
ATOM     39  C   UNL A   1      40.696  25.999  27.177  1.00  0.00     0.039 A 
ATOM     40  C   UNL A   1      40.541  27.228  26.528  1.00  0.00     0.014 A 
ATOM     41  C   UNL A   1      40.507  25.865  28.549  1.00  0.00     0.014 A 
ATOM     42  C   UNL A   1      40.404  28.372  27.296  1.00  0.00     0.010 A 
ATOM     43  C   UNL A   1      40.468  27.010  29.316  1.00  0.00     0.010 A 
ATOM     44  C   UNL A   1      40.481  28.257  28.685  1.00  0.00    -0.014 A 
BRANCH  44  45
ATOM     45  C   UNL A   1      40.555  29.431  29.540  1.00  0.00     0.031 A 
ATOM     46  C   UNL A   1      39.453  30.409  29.430  1.00  0.00     0.074 A 
ATOM     47  C   UNL A   1      41.641  29.654  30.315  1.00  0.00     0.049 A 
ATOM     48  N   UNL A   1      39.575  31.683  29.575  1.00  0.00    -0.248 NA
ATOM     49  C   UNL A   1      38.105  29.998  29.036  1.00  0.00     0.031 C 
ATOM     50  C   UNL A   1      41.837  30.778  31.229  1.00  0.00     0.029 A 
ATOM     51  N   UNL A   1      42.899  29.043  30.286  1.00  0.00    -0.354 N 
ATOM     52  C   UNL A   1      38.305  32.218  29.579  1.00  0.00     0.074 A 
ATOM     53  C   UNL A   1      37.443  31.152  29.130  1.00  0.00     0.031 C 
ATOM     54  C   UNL A   1      43.159  30.978  31.367  1.00  0.00     0.029 A 
ATOM     55  C   UNL A   1      43.825  30.083  30.435  1.00  0.00     0.049 A 
ATOM     56  H   UNL A   1      43.093  28.084  30.182  1.00  0.00     0.167 HD
ATOM     57  C   UNL A   1      38.094  33.451  30.122  1.00  0.00     0.031 A 
ATOM     58  C   UNL A   1      44.691  30.490  29.459  1.00  0.00     0.031 A 
ATOM     59  C   UNL A   1      39.362  34.094  30.470  1.00  0.00     0.049 A 
ATOM     60  C   UNL A   1      44.517  31.960  29.097  1.00  0.00     0.074 A 
ATOM     61  C   UNL A   1      40.060  34.211  31.662  1.00  0.00     0.029 A 
ATOM     62  N   UNL A   1      40.267  34.407  29.456  1.00  0.00    -0.354 N 
ATOM     63  N   UNL A   1      43.432  32.653  29.330  1.00  0.00    -0.248 NA
ATOM     64  C   UNL A   1      45.554  32.762  28.451  1.00  0.00     0.031 C 
ATOM     65  C   UNL A   1      41.419  34.487  31.349  1.00  0.00     0.029 A 
ATOM     66  C   UNL A   1      41.539  34.585  29.973  1.00  0.00     0.049 A 
ATOM     67  H   UNL A   1      40.033  34.490  28.504  1.00  0.00     0.167 HD
ATOM     68  C   UNL A   1      43.616  33.958  28.935  1.00  0.00     0.074 A 
ATOM     69  C   UNL A   1      44.965  33.970  28.393  1.00  0.00     0.031 C 
ATOM     70  C   UNL A   1      42.658  34.923  29.095  1.00  0.00     0.031 A 
BRANCH  57  71
ATOM     71  C   UNL A   1      36.732  33.848  30.658  1.00  0.00    -0.014 A 
ATOM     72  C   UNL A   1      35.661  34.065  29.768  1.00  0.00     0.010 A 
ATOM     73  C   UNL A   1      36.473  34.140  32.013  1.00  0.00     0.010 A 
ATOM     74  C   UNL A   1      34.459  34.668  30.183  1.00  0.00     0.020 A 
ATOM     75  C   UNL A   1      35.303  34.790  32.434  1.00  0.00     0.020 A 
ATOM     76  C   UNL A   1      34.305  35.065  31.509  1.00  0.00     0.054 A 
BRANCH  76  77
ATOM     77  S   UNL A   1      32.806  35.954  32.010  1.00  0.00     0.124 S 
ATOM     78  O   UNL A   1      33.314  36.906  32.995  1.00  0.00    -0.237 OA
ATOM     79  O   UNL A   1      32.351  36.532  30.749  1.00  0.00    -0.237 OA
ATOM     80  O   UNL A   1      31.948  34.906  32.559  1.00  0.00    -0.744 OA
ENDBRANCH  76  77
ENDBRANCH  57  71
BRANCH  58  81
ATOM     81  C   UNL A   1      45.196  29.425  28.546  1.00  0.00    -0.014 A 
ATOM     82  C   UNL A   1      44.359  29.010  27.487  1.00  0.00     0.010 A 
ATOM     83  C   UNL A   1      46.552  29.064  28.500  1.00  0.00     0.010 A 
ATOM     84  C   UNL A   1      44.883  28.377  26.355  1.00  0.00     0.020 A 
ATOM     85  C   UNL A   1      47.083  28.428  27.363  1.00  0.00     0.020 A 
ATOM     86  C   UNL A   1      46.254  28.140  26.274  1.00  0.00     0.054 A 
BRANCH  86  87
ATOM     87  S   UNL A   1      46.941  27.513  24.710  1.00  0.00     0.124 S 
ATOM     88  O   UNL A   1      46.689  28.613  23.783  1.00  0.00    -0.237 OA
ATOM     89  O   UNL A   1      48.348  27.299  25.052  1.00  0.00    -0.237 OA
ATOM     90  O   UNL A   1      46.168  26.301  24.462  1.00  0.00    -0.744 OA
ENDBRANCH  86  87
ENDBRANCH  58  81
BRANCH  70  91
ATOM     91  C   UNL A   1      42.697  36.332  28.526  1.00  0.00    -0.014 A 
ATOM     92  C   UNL A   1      42.071  36.732  27.336  1.00  0.00     0.010 A 
ATOM     93  C   UNL A   1      43.305  37.360  29.292  1.00  0.00     0.010 A 
ATOM     94  C   UNL A   1      42.099  38.069  26.905  1.00  0.00     0.020 A 
ATOM     95  C   UNL A   1      43.295  38.702  28.899  1.00  0.00     0.020 A 
ATOM     96  C   UNL A   1      42.708  39.046  27.690  1.00  0.00     0.054 A 
BRANCH  96  97
ATOM     97  S   UNL A   1      42.657  40.779  27.168  1.00  0.00     0.124 S 
ATOM     98  O   UNL A   1      41.220  41.030  27.093  1.00  0.00    -0.237 OA
ATOM     99  O   UNL A   1      43.356  41.466  28.252  1.00  0.00    -0.237 OA
ATOM    100  O   UNL A   1      43.361  40.773  25.888  1.00  0.00    -0.744 OA
ENDBRANCH  96  97
ENDBRANCH  70  91
ENDBRANCH  44  45
ENDBRANCH  36  39
ENDBRANCH  34  35
ENDBRANCH  33  34
ENDBRANCH  32  33
ENDBRANCH   1  32
TORSDOF 19
ENDMDL
MODEL 3
REMARK VINA RESULT:     -12.3      3.912     10.360
REMARK SMILES Cc1ccc(-c2nc(NC(=O)[C@H]3[C@@H](C(=O)NCCCCCCNC(=O)c4ccc(-c5c6nc(c(-c7ccc(S(=O)(=O)[O-])cc7)c7ccc([nH]7)c(-c7ccc(S(=O)(=O)[O-])cc7)c7nc(c(-c8ccc(S(=O)(=O)[O-])cc8)c8ccc5[nH]8)C=C7)C=C6)cc4)[C@@H]4CC[C@H]3O4)sc2C)cc1
REMARK SMILES IDX 19 1 18 2 17 3 16 4 14 5 15 6 13 8 12 9 89 10 86 11 88 12
REMARK SMILES IDX 90 13 87 14 10 15 9 16 11 18 8 19 6 20 7 21 92 22 91 23
REMARK SMILES IDX 93 24 5 25 1 26 2 27 3 28 95 29 4 30 94 31 20 32 21 33 22 34
REMARK SMILES IDX 23 35 24 36 25 38 26 39 27 40 85 41 28 42 84 43 29 44 30 45
REMARK SMILES IDX 31 46 78 47 32 48 83 49 77 50 79 51 33 52 82 53 76 54 75 55
REMARK SMILES IDX 34 57 64 58 45 59 63 60 46 61 49 62 62 63 80 64 47 65 48 66
REMARK SMILES IDX 61 68 81 69 50 70 35 71 36 72 44 73 37 74 43 75 38 76 39 77
REMARK SMILES IDX 40 78 41 79 42 80 65 81 66 82 74 83 67 84 73 85 68 86 69 87
REMARK SMILES IDX 70 88 71 89 72 90 51 91 52 92 60 93 53 94 59 95 54 96 55 97
REMARK SMILES IDX 56 98 57 99 58 100
REMARK H PARENT 16 7 9 17 23 37 79 56 49 67
REMARK Flexibility Score: inf
ROOT
ATOM      1  C   UNL A   1      40.184  21.586  26.589  1.00  0.00     0.002 C 
ENDROOT
BRANCH   1   2
ATOM      2  C   UNL A   1      39.007  22.553  26.505  1.00  0.00     0.021 C 
BRANCH   2   3
ATOM      3  C   UNL A   1      38.009  22.404  25.364  1.00  0.00     0.116 C 
BRANCH   3   4
ATOM      4  N   UNL A   1      37.283  23.596  24.974  1.00  0.00    -0.356 N 
ATOM      5  C   UNL A   1      35.927  23.750  24.991  1.00  0.00     0.226 C 
ATOM      6  O   UNL A   1      35.467  24.792  25.465  1.00  0.00    -0.275 OA
ATOM      7  H   UNL A   1      37.816  24.365  24.667  1.00  0.00     0.163 HD
BRANCH   5   8
ATOM      8  C   UNL A   1      35.047  22.594  24.587  1.00  0.00     0.122 C 
ATOM      9  C   UNL A   1      34.199  22.530  23.311  1.00  0.00     0.123 C 
ATOM     10  C   UNL A   1      33.100  21.561  23.790  1.00  0.00     0.132 C 
ATOM     11  C   UNL A   1      34.026  22.132  25.669  1.00  0.00     0.132 C 
ATOM     12  C   UNL A   1      33.679  20.232  24.339  1.00  0.00     0.035 C 
ATOM     13  O   UNL A   1      32.735  22.246  25.007  1.00  0.00    -0.373 OA
ATOM     14  C   UNL A   1      34.073  20.612  25.772  1.00  0.00     0.035 C 
BRANCH   9  15
ATOM     15  C   UNL A   1      33.513  23.578  22.395  1.00  0.00     0.232 C 
ATOM     16  N   UNL A   1      32.855  24.741  22.583  1.00  0.00    -0.302 N 
ATOM     17  H   UNL A   1      32.641  25.167  21.722  1.00  0.00     0.172 HD
ATOM     18  O   UNL A   1      33.548  23.269  21.181  1.00  0.00    -0.274 OA
BRANCH  16  19
ATOM     19  C   UNL A   1      32.400  25.494  23.627  1.00  0.00     0.190 A 
ATOM     20  C   UNL A   1      32.331  27.070  25.213  1.00  0.00     0.086 A 
ATOM     21  N   UNL A   1      33.014  26.571  24.090  1.00  0.00    -0.220 NA
ATOM     22  C   UNL A   1      31.164  26.375  25.500  1.00  0.00     0.031 A 
ATOM     23  S   UNL A   1      30.914  25.176  24.319  1.00  0.00    -0.101 S 
ATOM     24  C   UNL A   1      30.130  26.505  26.560  1.00  0.00     0.059 C 
BRANCH  20  25
ATOM     25  C   UNL A   1      32.780  28.238  25.994  1.00  0.00     0.001 A 
ATOM     26  C   UNL A   1      34.182  31.919  27.843  1.00  0.00     0.044 C 
ATOM     27  C   UNL A   1      33.697  30.639  27.224  1.00  0.00    -0.051 A 
ATOM     28  C   UNL A   1      34.510  29.497  27.176  1.00  0.00     0.004 A 
ATOM     29  C   UNL A   1      32.407  30.555  26.704  1.00  0.00     0.004 A 
ATOM     30  C   UNL A   1      34.057  28.307  26.566  1.00  0.00     0.010 A 
ATOM     31  C   UNL A   1      31.952  29.367  26.119  1.00  0.00     0.010 A 
ENDBRANCH  20  25
ENDBRANCH  16  19
ENDBRANCH   9  15
ENDBRANCH   5   8
ENDBRANCH   3   4
ENDBRANCH   2   3
ENDBRANCH   1   2
BRANCH   1  32
ATOM     32  C   UNL A   1      41.545  22.093  27.064  1.00  0.00     0.002 C 
BRANCH  32  33
ATOM     33  C   UNL A   1      41.639  22.860  28.381  1.00  0.00     0.021 C 
BRANCH  33  34
ATOM     34  C   UNL A   1      41.685  24.378  28.256  1.00  0.00     0.116 C 
BRANCH  34  35
ATOM     35  N   UNL A   1      41.872  24.781  26.863  1.00  0.00    -0.352 N 
ATOM     36  C   UNL A   1      41.287  25.805  26.142  1.00  0.00     0.251 C 
ATOM     37  H   UNL A   1      42.520  24.236  26.358  1.00  0.00     0.163 HD
ATOM     38  O   UNL A   1      41.457  25.966  24.952  1.00  0.00    -0.269 OA
BRANCH  36  39
ATOM     39  C   UNL A   1      40.557  26.818  26.922  1.00  0.00     0.039 A 
ATOM     40  C   UNL A   1      41.086  28.113  26.907  1.00  0.00     0.014 A 
ATOM     41  C   UNL A   1      39.599  26.427  27.853  1.00  0.00     0.014 A 
ATOM     42  C   UNL A   1      40.807  28.956  27.970  1.00  0.00     0.010 A 
ATOM     43  C   UNL A   1      39.399  27.228  28.956  1.00  0.00     0.010 A 
ATOM     44  C   UNL A   1      40.055  28.459  29.037  1.00  0.00    -0.014 A 
BRANCH  44  45
ATOM     45  C   UNL A   1      39.901  29.213  30.271  1.00  0.00     0.031 A 
ATOM     46  C   UNL A   1      39.046  30.418  30.216  1.00  0.00     0.074 A 
ATOM     47  C   UNL A   1      40.597  28.874  31.379  1.00  0.00     0.049 A 
ATOM     48  N   UNL A   1      39.233  31.490  30.905  1.00  0.00    -0.248 NA
ATOM     49  C   UNL A   1      37.936  30.524  29.269  1.00  0.00     0.031 C 
ATOM     50  C   UNL A   1      40.525  29.531  32.683  1.00  0.00     0.029 A 
ATOM     51  N   UNL A   1      41.689  28.010  31.517  1.00  0.00    -0.354 N 
ATOM     52  C   UNL A   1      38.133  32.298  30.710  1.00  0.00     0.074 A 
ATOM     53  C   UNL A   1      37.419  31.706  29.605  1.00  0.00     0.031 C 
ATOM     54  C   UNL A   1      41.692  29.327  33.318  1.00  0.00     0.029 A 
ATOM     55  C   UNL A   1      42.580  28.663  32.377  1.00  0.00     0.049 A 
ATOM     56  H   UNL A   1      41.805  27.127  31.098  1.00  0.00     0.167 HD
ATOM     57  C   UNL A   1      37.852  33.283  31.609  1.00  0.00     0.031 A 
ATOM     58  C   UNL A   1      43.803  29.142  32.002  1.00  0.00     0.031 A 
ATOM     59  C   UNL A   1      38.932  33.423  32.588  1.00  0.00     0.049 A 
ATOM     60  C   UNL A   1      43.946  30.640  32.242  1.00  0.00     0.074 A 
ATOM     61  C   UNL A   1      39.097  32.946  33.878  1.00  0.00     0.029 A 
ATOM     62  N   UNL A   1      40.196  33.819  32.154  1.00  0.00    -0.354 N 
ATOM     63  N   UNL A   1      42.939  31.465  32.368  1.00  0.00    -0.248 NA
ATOM     64  C   UNL A   1      45.234  31.320  32.365  1.00  0.00     0.031 C 
ATOM     65  C   UNL A   1      40.488  32.954  34.175  1.00  0.00     0.029 A 
ATOM     66  C   UNL A   1      41.162  33.480  33.085  1.00  0.00     0.049 A 
ATOM     67  H   UNL A   1      40.377  34.278  31.302  1.00  0.00     0.167 HD
ATOM     68  C   UNL A   1      43.403  32.733  32.629  1.00  0.00     0.074 A 
ATOM     69  C   UNL A   1      44.849  32.583  32.619  1.00  0.00     0.031 C 
ATOM     70  C   UNL A   1      42.569  33.798  32.848  1.00  0.00     0.031 A 
BRANCH  57  71
ATOM     71  C   UNL A   1      36.439  33.809  31.779  1.00  0.00    -0.014 A 
ATOM     72  C   UNL A   1      35.577  33.883  30.667  1.00  0.00     0.010 A 
ATOM     73  C   UNL A   1      35.942  34.356  32.979  1.00  0.00     0.010 A 
ATOM     74  C   UNL A   1      34.358  34.584  30.717  1.00  0.00     0.020 A 
ATOM     75  C   UNL A   1      34.756  35.104  33.033  1.00  0.00     0.020 A 
ATOM     76  C   UNL A   1      33.975  35.227  31.892  1.00  0.00     0.054 A 
BRANCH  76  77
ATOM     77  S   UNL A   1      32.466  36.232  31.912  1.00  0.00     0.124 S 
ATOM     78  O   UNL A   1      31.483  35.319  32.491  1.00  0.00    -0.237 OA
ATOM     79  O   UNL A   1      32.854  37.359  32.756  1.00  0.00    -0.237 OA
ATOM     80  O   UNL A   1      32.245  36.556  30.505  1.00  0.00    -0.744 OA
ENDBRANCH  76  77
ENDBRANCH  57  71
BRANCH  58  81
ATOM     81  C   UNL A   1      44.518  28.358  30.953  1.00  0.00    -0.014 A 
ATOM     82  C   UNL A   1      45.402  27.341  31.375  1.00  0.00     0.010 A 
ATOM     83  C   UNL A   1      44.113  28.369  29.609  1.00  0.00     0.010 A 
ATOM     84  C   UNL A   1      45.761  26.292  30.521  1.00  0.00     0.020 A 
ATOM     85  C   UNL A   1      44.471  27.317  28.746  1.00  0.00     0.020 A 
ATOM     86  C   UNL A   1      45.246  26.256  29.226  1.00  0.00     0.054 A 
BRANCH  86  87
ATOM     87  S   UNL A   1      45.552  24.779  28.206  1.00  0.00     0.124 S 
ATOM     88  O   UNL A   1      44.796  25.067  26.990  1.00  0.00    -0.237 OA
ATOM     89  O   UNL A   1      47.007  24.804  28.054  1.00  0.00    -0.237 OA
ATOM     90  O   UNL A   1      45.027  23.691  29.022  1.00  0.00    -0.744 OA
ENDBRANCH  86  87
ENDBRANCH  58  81
BRANCH  70  91
ATOM     91  C   UNL A   1      42.983  35.256  32.957  1.00  0.00    -0.014 A 
ATOM     92  C   UNL A   1      43.686  35.965  31.972  1.00  0.00     0.010 A 
ATOM     93  C   UNL A   1      42.538  36.008  34.075  1.00  0.00     0.010 A 
ATOM     94  C   UNL A   1      43.978  37.331  32.117  1.00  0.00     0.020 A 
ATOM     95  C   UNL A   1      42.778  37.380  34.207  1.00  0.00     0.020 A 
ATOM     96  C   UNL A   1      43.522  38.031  33.232  1.00  0.00     0.054 A 
BRANCH  96  97
ATOM     97  S   UNL A   1      43.826  39.811  33.364  1.00  0.00     0.124 S 
ATOM     98  O   UNL A   1      43.995  39.983  34.804  1.00  0.00    -0.237 OA
ATOM     99  O   UNL A   1      45.037  39.993  32.566  1.00  0.00    -0.237 OA
ATOM    100  O   UNL A   1      42.621  40.409  32.796  1.00  0.00    -0.744 OA
ENDBRANCH  96  97
ENDBRANCH  70  91
ENDBRANCH  44  45
ENDBRANCH  36  39
ENDBRANCH  34  35
ENDBRANCH  33  34
ENDBRANCH  32  33
ENDBRANCH   1  32
TORSDOF 19
ENDMDL
