MODEL 1
REMARK VINA RESULT:     -11.5      0.000      0.000
REMARK SMILES COc1ccc(-n2c(SCc3cn(-c4ccc(C(=O)NCCCCCCNC(=O)c5ccc(-c6c7nc(c(-c8ccc(S(=O)(=O)[O-])cc8)c8ccc([nH]8)c(-c8ccc(S(=O)(=O)[O-])cc8)c8nc(c(-c9ccc(S(=O)(=O)[O-])cc9)c9ccc6[nH]9)C=C8)C=C7)cc5)cc4)nn3)nc3ccccc3c2=O)cc1
REMARK SMILES IDX 22 1 21 2 20 3 18 4 19 5 17 7 14 8 15 9 91 10 16 11 90 12
REMARK SMILES IDX 13 13 11 14 12 15 93 16 92 17 10 18 9 19 8 20 7 21 101 22
REMARK SMILES IDX 94 23 100 24 102 25 95 26 99 27 96 28 98 29 97 30 6 31 3 32
REMARK SMILES IDX 4 33 104 34 5 35 103 36 2 37 1 38 23 39 24 40 25 41 26 42
REMARK SMILES IDX 27 43 28 44 29 46 30 47 31 48 89 49 32 50 88 51 33 52 34 53
REMARK SMILES IDX 35 54 82 55 36 56 87 57 81 58 83 59 37 60 86 61 80 62 79 63
REMARK SMILES IDX 38 65 68 66 49 67 67 68 50 69 53 70 66 71 84 72 51 73 52 74
REMARK SMILES IDX 65 76 85 77 54 78 39 79 40 80 48 81 41 82 47 83 42 84 43 85
REMARK SMILES IDX 44 86 45 87 46 88 69 89 70 90 78 91 71 92 77 93 72 94 73 95
REMARK SMILES IDX 74 96 75 97 76 98 55 99 56 100 64 101 57 102 63 103 58 104
REMARK SMILES IDX 59 105 60 106 61 107 62 108
REMARK H PARENT 20 6 27 45 83 64 53 75
REMARK Flexibility Score: inf
ROOT
ATOM      1  C   UNL A   1      37.018  31.959  31.624  1.00  0.00     0.021 C 
ENDROOT
BRANCH   1   2
ATOM      2  C   UNL A   1      36.088  31.443  30.525  1.00  0.00     0.116 C 
BRANCH   2   3
ATOM      3  N   UNL A   1      36.021  32.411  29.443  1.00  0.00    -0.352 N 
ATOM      4  C   UNL A   1      35.530  32.326  28.166  1.00  0.00     0.251 C 
ATOM      5  O   UNL A   1      35.619  33.309  27.432  1.00  0.00    -0.269 OA
ATOM      6  H   UNL A   1      36.400  33.292  29.669  1.00  0.00     0.163 HD
BRANCH   4   7
ATOM      7  C   UNL A   1      34.775  31.137  27.708  1.00  0.00     0.039 A 
ATOM      8  C   UNL A   1      33.215  28.909  27.451  1.00  0.00     0.066 A 
ATOM      9  C   UNL A   1      32.584  30.146  27.432  1.00  0.00     0.029 A 
ATOM     10  C   UNL A   1      34.600  28.761  27.423  1.00  0.00     0.029 A 
ATOM     11  C   UNL A   1      33.380  31.270  27.597  1.00  0.00     0.016 A 
ATOM     12  C   UNL A   1      35.379  29.899  27.479  1.00  0.00     0.016 A 
BRANCH   8  13
ATOM     13  N   UNL A   1      32.457  27.754  27.412  1.00  0.00    -0.220 N 
ATOM     14  C   UNL A   1      31.551  26.102  26.365  1.00  0.00     0.093 A 
ATOM     15  C   UNL A   1      32.772  26.613  26.718  1.00  0.00     0.141 A 
ATOM     16  N   UNL A   1      30.582  26.896  26.895  1.00  0.00    -0.134 NA
ATOM     17  N   UNL A   1      31.140  27.853  27.600  1.00  0.00    -0.062 NA
BRANCH  14  18
ATOM     18  C   UNL A   1      31.196  24.985  25.484  1.00  0.00     0.138 C 
BRANCH  18  19
ATOM     19  S   UNL A   1      30.180  25.543  24.128  1.00  0.00    -0.081 SA
BRANCH  19  20
ATOM     20  C   UNL A   1      31.324  25.990  22.788  1.00  0.00     0.176 A 
ATOM     21  N   UNL A   1      32.628  26.237  23.198  1.00  0.00    -0.255 N 
ATOM     22  C   UNL A   1      32.950  27.557  23.488  1.00  0.00     0.266 A 
ATOM     23  N   UNL A   1      30.776  26.796  21.928  1.00  0.00    -0.223 NA
ATOM     24  C   UNL A   1      31.805  28.504  23.325  1.00  0.00     0.066 A 
ATOM     25  O   UNL A   1      34.032  27.965  23.899  1.00  0.00    -0.268 OA
ATOM     26  C   UNL A   1      30.769  28.105  22.458  1.00  0.00     0.079 A 
ATOM     27  C   UNL A   1      31.640  29.596  24.173  1.00  0.00     0.016 A 
ATOM     28  C   UNL A   1      29.592  28.849  22.390  1.00  0.00     0.029 A 
ATOM     29  C   UNL A   1      30.423  30.282  24.159  1.00  0.00     0.001 A 
ATOM     30  C   UNL A   1      29.412  29.924  23.260  1.00  0.00     0.002 A 
BRANCH  21  31
ATOM     31  C   UNL A   1      33.609  25.207  23.172  1.00  0.00     0.052 A 
ATOM     32  C   UNL A   1      34.977  22.849  23.808  1.00  0.00     0.119 A 
ATOM     33  C   UNL A   1      34.128  22.871  22.704  1.00  0.00     0.048 A 
ATOM     34  C   UNL A   1      35.289  24.038  24.467  1.00  0.00     0.048 A 
ATOM     35  C   UNL A   1      33.420  24.047  22.401  1.00  0.00     0.030 A 
ATOM     36  C   UNL A   1      34.635  25.227  24.121  1.00  0.00     0.030 A 
BRANCH  32  37
ATOM     37  O   UNL A   1      35.507  21.653  24.218  1.00  0.00    -0.497 OA
ATOM     38  C   UNL A   1      34.523  20.826  24.851  1.00  0.00     0.278 C 
ENDBRANCH  32  37
ENDBRANCH  21  31
ENDBRANCH  19  20
ENDBRANCH  18  19
ENDBRANCH  14  18
ENDBRANCH   8  13
ENDBRANCH   4   7
ENDBRANCH   2   3
ENDBRANCH   1   2
BRANCH   1  39
ATOM     39  C   UNL A   1      36.377  31.888  33.015  1.00  0.00     0.002 C 
BRANCH  39  40
ATOM     40  C   UNL A   1      37.125  32.665  34.107  1.00  0.00     0.002 C 
BRANCH  40  41
ATOM     41  C   UNL A   1      38.421  33.358  33.659  1.00  0.00     0.021 C 
BRANCH  41  42
ATOM     42  C   UNL A   1      39.607  33.038  34.557  1.00  0.00     0.116 C 
BRANCH  42  43
ATOM     43  N   UNL A   1      39.254  32.031  35.556  1.00  0.00    -0.352 N 
ATOM     44  C   UNL A   1      39.287  30.654  35.459  1.00  0.00     0.251 C 
ATOM     45  H   UNL A   1      38.948  32.386  36.422  1.00  0.00     0.163 HD
ATOM     46  O   UNL A   1      38.631  29.964  36.218  1.00  0.00    -0.269 OA
BRANCH  44  47
ATOM     47  C   UNL A   1      40.141  30.040  34.427  1.00  0.00     0.039 A 
ATOM     48  C   UNL A   1      39.597  29.580  33.225  1.00  0.00     0.014 A 
ATOM     49  C   UNL A   1      41.505  29.930  34.682  1.00  0.00     0.014 A 
ATOM     50  C   UNL A   1      40.452  29.072  32.250  1.00  0.00     0.010 A 
ATOM     51  C   UNL A   1      42.359  29.569  33.674  1.00  0.00     0.010 A 
ATOM     52  C   UNL A   1      41.834  29.083  32.481  1.00  0.00    -0.014 A 
BRANCH  52  53
ATOM     53  C   UNL A   1      42.776  28.690  31.441  1.00  0.00     0.031 A 
ATOM     54  C   UNL A   1      42.981  29.712  30.379  1.00  0.00     0.074 A 
ATOM     55  C   UNL A   1      43.605  27.634  31.588  1.00  0.00     0.049 A 
ATOM     56  N   UNL A   1      42.634  29.650  29.136  1.00  0.00    -0.248 NA
ATOM     57  C   UNL A   1      43.503  31.031  30.783  1.00  0.00     0.031 C 
ATOM     58  C   UNL A   1      43.768  26.768  32.762  1.00  0.00     0.029 A 
ATOM     59  N   UNL A   1      44.599  27.204  30.767  1.00  0.00    -0.354 N 
ATOM     60  C   UNL A   1      43.110  30.821  28.551  1.00  0.00     0.074 A 
ATOM     61  C   UNL A   1      43.423  31.712  29.639  1.00  0.00     0.031 C 
ATOM     62  C   UNL A   1      44.953  26.121  32.683  1.00  0.00     0.029 A 
ATOM     63  C   UNL A   1      45.547  26.395  31.387  1.00  0.00     0.049 A 
ATOM     64  H   UNL A   1      44.645  27.446  29.814  1.00  0.00     0.167 HD
ATOM     65  C   UNL A   1      43.472  30.868  27.236  1.00  0.00     0.031 A 
ATOM     66  C   UNL A   1      46.758  26.038  30.885  1.00  0.00     0.031 A 
ATOM     67  C   UNL A   1      43.030  29.695  26.523  1.00  0.00     0.049 A 
ATOM     68  C   UNL A   1      46.710  26.286  29.421  1.00  0.00     0.074 A 
ATOM     69  C   UNL A   1      41.808  29.085  26.318  1.00  0.00     0.029 A 
ATOM     70  N   UNL A   1      43.981  28.738  26.249  1.00  0.00    -0.354 N 
ATOM     71  N   UNL A   1      45.945  25.619  28.604  1.00  0.00    -0.248 NA
ATOM     72  C   UNL A   1      47.156  27.585  28.938  1.00  0.00     0.031 C 
ATOM     73  C   UNL A   1      42.076  27.689  26.433  1.00  0.00     0.029 A 
ATOM     74  C   UNL A   1      43.450  27.526  26.608  1.00  0.00     0.049 A 
ATOM     75  H   UNL A   1      44.874  28.895  25.866  1.00  0.00     0.167 HD
ATOM     76  C   UNL A   1      45.457  26.571  27.720  1.00  0.00     0.074 A 
ATOM     77  C   UNL A   1      46.307  27.744  27.919  1.00  0.00     0.031 C 
ATOM     78  C   UNL A   1      44.236  26.424  27.123  1.00  0.00     0.031 A 
BRANCH  65  79
ATOM     79  C   UNL A   1      44.574  31.751  26.693  1.00  0.00    -0.014 A 
ATOM     80  C   UNL A   1      45.907  31.474  27.066  1.00  0.00     0.010 A 
ATOM     81  C   UNL A   1      44.337  32.989  26.063  1.00  0.00     0.010 A 
ATOM     82  C   UNL A   1      46.926  32.420  26.889  1.00  0.00     0.020 A 
ATOM     83  C   UNL A   1      45.353  33.919  25.837  1.00  0.00     0.020 A 
ATOM     84  C   UNL A   1      46.636  33.643  26.284  1.00  0.00     0.054 A 
BRANCH  84  85
ATOM     85  S   UNL A   1      47.936  34.892  26.138  1.00  0.00     0.124 S 
ATOM     86  O   UNL A   1      48.553  34.838  27.458  1.00  0.00    -0.237 OA
ATOM     87  O   UNL A   1      48.742  34.371  25.037  1.00  0.00    -0.237 OA
ATOM     88  O   UNL A   1      47.198  36.117  25.836  1.00  0.00    -0.744 OA
ENDBRANCH  84  85
ENDBRANCH  65  79
BRANCH  66  89
ATOM     89  C   UNL A   1      48.040  25.815  31.607  1.00  0.00    -0.014 A 
ATOM     90  C   UNL A   1      48.035  25.455  32.969  1.00  0.00     0.010 A 
ATOM     91  C   UNL A   1      49.245  25.654  30.893  1.00  0.00     0.010 A 
ATOM     92  C   UNL A   1      49.163  24.869  33.568  1.00  0.00     0.020 A 
ATOM     93  C   UNL A   1      50.377  25.081  31.488  1.00  0.00     0.020 A 
ATOM     94  C   UNL A   1      50.318  24.656  32.813  1.00  0.00     0.054 A 
BRANCH  94  95
ATOM     95  S   UNL A   1      51.686  23.690  33.523  1.00  0.00     0.124 S 
ATOM     96  O   UNL A   1      51.831  24.283  34.849  1.00  0.00    -0.237 OA
ATOM     97  O   UNL A   1      51.158  22.329  33.493  1.00  0.00    -0.237 OA
ATOM     98  O   UNL A   1      52.795  23.941  32.604  1.00  0.00    -0.744 OA
ENDBRANCH  94  95
ENDBRANCH  66  89
BRANCH  78  99
ATOM     99  C   UNL A   1      43.549  25.079  27.180  1.00  0.00    -0.014 A 
ATOM    100  C   UNL A   1      42.660  24.678  28.197  1.00  0.00     0.010 A 
ATOM    101  C   UNL A   1      43.718  24.232  26.071  1.00  0.00     0.010 A 
ATOM    102  C   UNL A   1      41.999  23.441  28.125  1.00  0.00     0.020 A 
ATOM    103  C   UNL A   1      43.048  23.012  25.982  1.00  0.00     0.020 A 
ATOM    104  C   UNL A   1      42.204  22.613  27.016  1.00  0.00     0.054 A 
BRANCH 104 105
ATOM    105  S   UNL A   1      41.352  21.014  26.921  1.00  0.00     0.124 S 
ATOM    106  O   UNL A   1      40.011  21.341  27.395  1.00  0.00    -0.237 OA
ATOM    107  O   UNL A   1      41.454  20.675  25.503  1.00  0.00    -0.237 OA
ATOM    108  O   UNL A   1      42.128  20.152  27.812  1.00  0.00    -0.744 OA
ENDBRANCH 104 105
ENDBRANCH  78  99
ENDBRANCH  52  53
ENDBRANCH  44  47
ENDBRANCH  42  43
ENDBRANCH  41  42
ENDBRANCH  40  41
ENDBRANCH  39  40
ENDBRANCH   1  39
TORSDOF 22
ENDMDL
MODEL 2
REMARK VINA RESULT:     -11.1      5.100     12.096
REMARK SMILES COc1ccc(-n2c(SCc3cn(-c4ccc(C(=O)NCCCCCCNC(=O)c5ccc(-c6c7nc(c(-c8ccc(S(=O)(=O)[O-])cc8)c8ccc([nH]8)c(-c8ccc(S(=O)(=O)[O-])cc8)c8nc(c(-c9ccc(S(=O)(=O)[O-])cc9)c9ccc6[nH]9)C=C8)C=C7)cc5)cc4)nn3)nc3ccccc3c2=O)cc1
REMARK SMILES IDX 22 1 21 2 20 3 18 4 19 5 17 7 14 8 15 9 91 10 16 11 90 12
REMARK SMILES IDX 13 13 11 14 12 15 93 16 92 17 10 18 9 19 8 20 7 21 101 22
REMARK SMILES IDX 94 23 100 24 102 25 95 26 99 27 96 28 98 29 97 30 6 31 3 32
REMARK SMILES IDX 4 33 104 34 5 35 103 36 2 37 1 38 23 39 24 40 25 41 26 42
REMARK SMILES IDX 27 43 28 44 29 46 30 47 31 48 89 49 32 50 88 51 33 52 34 53
REMARK SMILES IDX 35 54 82 55 36 56 87 57 81 58 83 59 37 60 86 61 80 62 79 63
REMARK SMILES IDX 38 65 68 66 49 67 67 68 50 69 53 70 66 71 84 72 51 73 52 74
REMARK SMILES IDX 65 76 85 77 54 78 39 79 40 80 48 81 41 82 47 83 42 84 43 85
REMARK SMILES IDX 44 86 45 87 46 88 69 89 70 90 78 91 71 92 77 93 72 94 73 95
REMARK SMILES IDX 74 96 75 97 76 98 55 99 56 100 64 101 57 102 63 103 58 104
REMARK SMILES IDX 59 105 60 106 61 107 62 108
REMARK H PARENT 20 6 27 45 83 64 53 75
REMARK Flexibility Score: inf
ROOT
ATOM      1  C   UNL A   1      42.229  37.477  28.132  1.00  0.00     0.021 C 
ENDROOT
BRANCH   1   2
ATOM      2  C   UNL A   1      42.669  36.469  27.068  1.00  0.00     0.116 C 
BRANCH   2   3
ATOM      3  N   UNL A   1      44.086  36.637  26.788  1.00  0.00    -0.352 N 
ATOM      4  C   UNL A   1      45.152  35.784  26.915  1.00  0.00     0.251 C 
ATOM      5  O   UNL A   1      46.274  36.194  26.622  1.00  0.00    -0.269 OA
ATOM      6  H   UNL A   1      44.324  37.528  26.446  1.00  0.00     0.163 HD
BRANCH   4   7
ATOM      7  C   UNL A   1      44.961  34.356  27.254  1.00  0.00     0.039 A 
ATOM      8  C   UNL A   1      44.105  31.776  27.537  1.00  0.00     0.066 A 
ATOM      9  C   UNL A   1      44.822  32.099  26.392  1.00  0.00     0.029 A 
ATOM     10  C   UNL A   1      43.952  32.652  28.610  1.00  0.00     0.029 A 
ATOM     11  C   UNL A   1      45.223  33.418  26.240  1.00  0.00     0.016 A 
ATOM     12  C   UNL A   1      44.454  33.931  28.485  1.00  0.00     0.016 A 
BRANCH   8  13
ATOM     13  N   UNL A   1      43.578  30.507  27.679  1.00  0.00    -0.220 N 
ATOM     14  C   UNL A   1      42.345  28.868  27.016  1.00  0.00     0.093 A 
ATOM     15  C   UNL A   1      43.477  29.565  26.687  1.00  0.00     0.141 A 
ATOM     16  N   UNL A   1      41.862  29.360  28.187  1.00  0.00    -0.134 NA
ATOM     17  N   UNL A   1      42.663  30.303  28.628  1.00  0.00    -0.062 NA
BRANCH  14  18
ATOM     18  C   UNL A   1      41.604  27.838  26.282  1.00  0.00     0.138 C 
BRANCH  18  19
ATOM     19  S   UNL A   1      42.468  26.279  26.326  1.00  0.00    -0.081 SA
BRANCH  19  20
ATOM     20  C   UNL A   1      42.380  25.699  28.048  1.00  0.00     0.176 A 
ATOM     21  N   UNL A   1      43.084  24.528  28.301  1.00  0.00    -0.255 N 
ATOM     22  C   UNL A   1      42.374  23.339  28.196  1.00  0.00     0.266 A 
ATOM     23  N   UNL A   1      41.186  25.831  28.545  1.00  0.00    -0.223 NA
ATOM     24  C   UNL A   1      40.945  23.527  27.797  1.00  0.00     0.066 A 
ATOM     25  O   UNL A   1      42.829  22.209  28.343  1.00  0.00    -0.268 OA
ATOM     26  C   UNL A   1      40.368  24.782  28.073  1.00  0.00     0.079 A 
ATOM     27  C   UNL A   1      40.297  22.613  26.970  1.00  0.00     0.016 A 
ATOM     28  C   UNL A   1      39.103  25.091  27.576  1.00  0.00     0.029 A 
ATOM     29  C   UNL A   1      39.069  22.968  26.407  1.00  0.00     0.001 A 
ATOM     30  C   UNL A   1      38.465  24.191  26.723  1.00  0.00     0.002 A 
BRANCH  21  31
ATOM     31  C   UNL A   1      44.420  24.572  28.789  1.00  0.00     0.052 A 
ATOM     32  C   UNL A   1      47.000  25.509  29.336  1.00  0.00     0.119 A 
ATOM     33  C   UNL A   1      46.019  25.589  30.323  1.00  0.00     0.048 A 
ATOM     34  C   UNL A   1      46.750  24.795  28.165  1.00  0.00     0.048 A 
ATOM     35  C   UNL A   1      44.716  25.144  30.037  1.00  0.00     0.030 A 
ATOM     36  C   UNL A   1      45.469  24.288  27.909  1.00  0.00     0.030 A 
BRANCH  32  37
ATOM     37  O   UNL A   1      48.207  26.123  29.546  1.00  0.00    -0.497 OA
ATOM     38  C   UNL A   1      48.357  26.547  30.907  1.00  0.00     0.278 C 
ENDBRANCH  32  37
ENDBRANCH  21  31
ENDBRANCH  19  20
ENDBRANCH  18  19
ENDBRANCH  14  18
ENDBRANCH   8  13
ENDBRANCH   4   7
ENDBRANCH   2   3
ENDBRANCH   1   2
BRANCH   1  39
ATOM     39  C   UNL A   1      43.121  38.723  28.161  1.00  0.00     0.002 C 
BRANCH  39  40
ATOM     40  C   UNL A   1      42.674  39.808  29.151  1.00  0.00     0.002 C 
BRANCH  40  41
ATOM     41  C   UNL A   1      43.797  40.684  29.727  1.00  0.00     0.021 C 
BRANCH  41  42
ATOM     42  C   UNL A   1      44.093  40.386  31.189  1.00  0.00     0.116 C 
BRANCH  42  43
ATOM     43  N   UNL A   1      45.362  39.675  31.335  1.00  0.00    -0.352 N 
ATOM     44  C   UNL A   1      45.638  38.511  32.022  1.00  0.00     0.251 C 
ATOM     45  H   UNL A   1      46.130  40.087  30.876  1.00  0.00     0.163 HD
ATOM     46  O   UNL A   1      46.778  38.245  32.357  1.00  0.00    -0.269 OA
BRANCH  44  47
ATOM     47  C   UNL A   1      44.527  37.594  32.332  1.00  0.00     0.039 A 
ATOM     48  C   UNL A   1      44.001  36.745  31.353  1.00  0.00     0.014 A 
ATOM     49  C   UNL A   1      44.015  37.594  33.626  1.00  0.00     0.014 A 
ATOM     50  C   UNL A   1      42.999  35.845  31.710  1.00  0.00     0.010 A 
ATOM     51  C   UNL A   1      43.139  36.615  34.012  1.00  0.00     0.010 A 
ATOM     52  C   UNL A   1      42.585  35.780  33.047  1.00  0.00    -0.014 A 
BRANCH  52  53
ATOM     53  C   UNL A   1      41.640  34.766  33.496  1.00  0.00     0.031 A 
ATOM     54  C   UNL A   1      41.965  33.384  33.047  1.00  0.00     0.074 A 
ATOM     55  C   UNL A   1      40.735  35.009  34.468  1.00  0.00     0.049 A 
ATOM     56  N   UNL A   1      41.315  32.645  32.211  1.00  0.00    -0.248 NA
ATOM     57  C   UNL A   1      43.256  32.809  33.467  1.00  0.00     0.031 C 
ATOM     58  C   UNL A   1      40.570  36.231  35.265  1.00  0.00     0.029 A 
ATOM     59  N   UNL A   1      39.866  34.151  35.063  1.00  0.00    -0.354 N 
ATOM     60  C   UNL A   1      41.983  31.423  32.185  1.00  0.00     0.074 A 
ATOM     61  C   UNL A   1      43.270  31.661  32.787  1.00  0.00     0.031 C 
ATOM     62  C   UNL A   1      39.872  35.945  36.387  1.00  0.00     0.029 A 
ATOM     63  C   UNL A   1      39.401  34.574  36.306  1.00  0.00     0.049 A 
ATOM     64  H   UNL A   1      39.589  33.301  34.651  1.00  0.00     0.167 HD
ATOM     65  C   UNL A   1      41.329  30.254  31.928  1.00  0.00     0.031 A 
ATOM     66  C   UNL A   1      38.737  33.820  37.220  1.00  0.00     0.031 A 
ATOM     67  C   UNL A   1      40.000  30.492  31.421  1.00  0.00     0.049 A 
ATOM     68  C   UNL A   1      38.215  32.629  36.502  1.00  0.00     0.074 A 
ATOM     69  C   UNL A   1      39.478  31.191  30.351  1.00  0.00     0.029 A 
ATOM     70  N   UNL A   1      38.957  30.317  32.303  1.00  0.00    -0.354 N 
ATOM     71  N   UNL A   1      37.296  32.691  35.580  1.00  0.00    -0.248 NA
ATOM     72  C   UNL A   1      39.048  31.435  36.472  1.00  0.00     0.031 C 
ATOM     73  C   UNL A   1      38.314  31.832  30.869  1.00  0.00     0.029 A 
ATOM     74  C   UNL A   1      38.143  31.414  32.189  1.00  0.00     0.049 A 
ATOM     75  H   UNL A   1      38.821  29.548  32.902  1.00  0.00     0.167 HD
ATOM     76  C   UNL A   1      37.710  31.792  34.607  1.00  0.00     0.074 A 
ATOM     77  C   UNL A   1      38.744  30.984  35.252  1.00  0.00     0.031 C 
ATOM     78  C   UNL A   1      37.388  31.974  33.290  1.00  0.00     0.031 A 
BRANCH  65  79
ATOM     79  C   UNL A   1      41.717  28.918  32.523  1.00  0.00    -0.014 A 
ATOM     80  C   UNL A   1      41.029  28.462  33.667  1.00  0.00     0.010 A 
ATOM     81  C   UNL A   1      42.897  28.228  32.177  1.00  0.00     0.010 A 
ATOM     82  C   UNL A   1      41.539  27.426  34.462  1.00  0.00     0.020 A 
ATOM     83  C   UNL A   1      43.389  27.163  32.933  1.00  0.00     0.020 A 
ATOM     84  C   UNL A   1      42.724  26.792  34.093  1.00  0.00     0.054 A 
BRANCH  84  85
ATOM     85  S   UNL A   1      43.423  25.517  35.169  1.00  0.00     0.124 S 
ATOM     86  O   UNL A   1      44.744  25.322  34.584  1.00  0.00    -0.237 OA
ATOM     87  O   UNL A   1      43.395  26.168  36.476  1.00  0.00    -0.237 OA
ATOM     88  O   UNL A   1      42.494  24.398  35.017  1.00  0.00    -0.744 OA
ENDBRANCH  84  85
ENDBRANCH  65  79
BRANCH  66  89
ATOM     89  C   UNL A   1      38.798  33.882  38.705  1.00  0.00    -0.014 A 
ATOM     90  C   UNL A   1      39.004  35.114  39.357  1.00  0.00     0.010 A 
ATOM     91  C   UNL A   1      38.353  32.797  39.487  1.00  0.00     0.010 A 
ATOM     92  C   UNL A   1      38.685  35.279  40.716  1.00  0.00     0.020 A 
ATOM     93  C   UNL A   1      38.044  32.951  40.845  1.00  0.00     0.020 A 
ATOM     94  C   UNL A   1      38.177  34.201  41.444  1.00  0.00     0.054 A 
BRANCH  94  95
ATOM     95  S   UNL A   1      37.549  34.477  43.128  1.00  0.00     0.124 S 
ATOM     96  O   UNL A   1      38.145  35.764  43.476  1.00  0.00    -0.237 OA
ATOM     97  O   UNL A   1      36.103  34.482  42.929  1.00  0.00    -0.237 OA
ATOM     98  O   UNL A   1      38.064  33.331  43.877  1.00  0.00    -0.744 OA
ENDBRANCH  94  95
ENDBRANCH  66  89
BRANCH  78  99
ATOM     99  C   UNL A   1      36.321  32.982  32.929  1.00  0.00    -0.014 A 
ATOM    100  C   UNL A   1      36.461  34.378  33.067  1.00  0.00     0.010 A 
ATOM    101  C   UNL A   1      35.168  32.487  32.296  1.00  0.00     0.010 A 
ATOM    102  C   UNL A   1      35.450  35.246  32.624  1.00  0.00     0.020 A 
ATOM    103  C   UNL A   1      34.170  33.345  31.834  1.00  0.00     0.020 A 
ATOM    104  C   UNL A   1      34.306  34.720  32.015  1.00  0.00     0.054 A 
BRANCH 104 105
ATOM    105  S   UNL A   1      32.997  35.839  31.443  1.00  0.00     0.124 S 
ATOM    106  O   UNL A   1      32.872  35.486  30.032  1.00  0.00    -0.237 OA
ATOM    107  O   UNL A   1      31.863  35.472  32.288  1.00  0.00    -0.237 OA
ATOM    108  O   UNL A   1      33.543  37.172  31.699  1.00  0.00    -0.744 OA
ENDBRANCH 104 105
ENDBRANCH  78  99
ENDBRANCH  52  53
ENDBRANCH  44  47
ENDBRANCH  42  43
ENDBRANCH  41  42
ENDBRANCH  40  41
ENDBRANCH  39  40
ENDBRANCH   1  39
TORSDOF 22
ENDMDL
MODEL 3
REMARK VINA RESULT:     -10.9      4.569      8.191
REMARK SMILES COc1ccc(-n2c(SCc3cn(-c4ccc(C(=O)NCCCCCCNC(=O)c5ccc(-c6c7nc(c(-c8ccc(S(=O)(=O)[O-])cc8)c8ccc([nH]8)c(-c8ccc(S(=O)(=O)[O-])cc8)c8nc(c(-c9ccc(S(=O)(=O)[O-])cc9)c9ccc6[nH]9)C=C8)C=C7)cc5)cc4)nn3)nc3ccccc3c2=O)cc1
REMARK SMILES IDX 22 1 21 2 20 3 18 4 19 5 17 7 14 8 15 9 91 10 16 11 90 12
REMARK SMILES IDX 13 13 11 14 12 15 93 16 92 17 10 18 9 19 8 20 7 21 101 22
REMARK SMILES IDX 94 23 100 24 102 25 95 26 99 27 96 28 98 29 97 30 6 31 3 32
REMARK SMILES IDX 4 33 104 34 5 35 103 36 2 37 1 38 23 39 24 40 25 41 26 42
REMARK SMILES IDX 27 43 28 44 29 46 30 47 31 48 89 49 32 50 88 51 33 52 34 53
REMARK SMILES IDX 35 54 82 55 36 56 87 57 81 58 83 59 37 60 86 61 80 62 79 63
REMARK SMILES IDX 38 65 68 66 49 67 67 68 50 69 53 70 66 71 84 72 51 73 52 74
REMARK SMILES IDX 65 76 85 77 54 78 39 79 40 80 48 81 41 82 47 83 42 84 43 85
REMARK SMILES IDX 44 86 45 87 46 88 69 89 70 90 78 91 71 92 77 93 72 94 73 95
REMARK SMILES IDX 74 96 75 97 76 98 55 99 56 100 64 101 57 102 63 103 58 104
REMARK SMILES IDX 59 105 60 106 61 107 62 108
REMARK H PARENT 20 6 27 45 83 64 53 75
REMARK Flexibility Score: inf
ROOT
ATOM      1  C   UNL A   1      38.682  31.256  29.483  1.00  0.00     0.021 C 
ENDROOT
BRANCH   1   2
ATOM      2  C   UNL A   1      39.086  29.960  28.777  1.00  0.00     0.116 C 
BRANCH   2   3
ATOM      3  N   UNL A   1      40.376  29.511  29.275  1.00  0.00    -0.352 N 
ATOM      4  C   UNL A   1      41.036  28.315  29.163  1.00  0.00     0.251 C 
ATOM      5  O   UNL A   1      42.131  28.190  29.710  1.00  0.00    -0.269 OA
ATOM      6  H   UNL A   1      40.866  30.193  29.790  1.00  0.00     0.163 HD
BRANCH   4   7
ATOM      7  C   UNL A   1      40.529  27.234  28.287  1.00  0.00     0.039 A 
ATOM      8  C   UNL A   1      39.985  24.894  26.987  1.00  0.00     0.066 A 
ATOM      9  C   UNL A   1      39.346  25.125  28.198  1.00  0.00     0.029 A 
ATOM     10  C   UNL A   1      40.747  25.859  26.333  1.00  0.00     0.029 A 
ATOM     11  C   UNL A   1      39.654  26.300  28.867  1.00  0.00     0.016 A 
ATOM     12  C   UNL A   1      40.954  27.067  26.967  1.00  0.00     0.016 A 
BRANCH   8  13
ATOM     13  N   UNL A   1      39.808  23.686  26.339  1.00  0.00    -0.220 N 
ATOM     14  C   UNL A   1      38.720  21.862  25.969  1.00  0.00     0.093 A 
ATOM     15  C   UNL A   1      38.625  23.220  25.823  1.00  0.00     0.141 A 
ATOM     16  N   UNL A   1      39.941  21.570  26.493  1.00  0.00    -0.134 NA
ATOM     17  N   UNL A   1      40.630  22.678  26.638  1.00  0.00    -0.062 NA
BRANCH  14  18
ATOM     18  C   UNL A   1      37.730  20.801  25.759  1.00  0.00     0.138 C 
BRANCH  18  19
ATOM     19  S   UNL A   1      36.443  21.343  24.650  1.00  0.00    -0.081 SA
BRANCH  19  20
ATOM     20  C   UNL A   1      34.869  20.953  25.470  1.00  0.00     0.176 A 
ATOM     21  N   UNL A   1      33.895  20.422  24.633  1.00  0.00    -0.255 N 
ATOM     22  C   UNL A   1      33.009  21.324  24.057  1.00  0.00     0.266 A 
ATOM     23  N   UNL A   1      34.525  21.869  26.326  1.00  0.00    -0.223 NA
ATOM     24  C   UNL A   1      33.276  22.747  24.430  1.00  0.00     0.066 A 
ATOM     25  O   UNL A   1      32.112  21.053  23.265  1.00  0.00    -0.268 OA
ATOM     26  C   UNL A   1      33.975  22.970  25.632  1.00  0.00     0.079 A 
ATOM     27  C   UNL A   1      33.077  23.785  23.523  1.00  0.00     0.016 A 
ATOM     28  C   UNL A   1      34.412  24.252  25.957  1.00  0.00     0.029 A 
ATOM     29  C   UNL A   1      33.596  25.047  23.818  1.00  0.00     0.001 A 
ATOM     30  C   UNL A   1      34.242  25.285  25.037  1.00  0.00     0.002 A 
BRANCH  21  31
ATOM     31  C   UNL A   1      33.733  19.014  24.502  1.00  0.00     0.052 A 
ATOM     32  C   UNL A   1      33.778  16.285  25.120  1.00  0.00     0.119 A 
ATOM     33  C   UNL A   1      32.587  16.996  25.250  1.00  0.00     0.048 A 
ATOM     34  C   UNL A   1      34.879  16.880  24.506  1.00  0.00     0.048 A 
ATOM     35  C   UNL A   1      32.572  18.373  24.966  1.00  0.00     0.030 A 
ATOM     36  C   UNL A   1      34.843  18.237  24.158  1.00  0.00     0.030 A 
BRANCH  32  37
ATOM     37  O   UNL A   1      33.838  14.997  25.586  1.00  0.00    -0.497 OA
ATOM     38  C   UNL A   1      32.541  14.391  25.639  1.00  0.00     0.278 C 
ENDBRANCH  32  37
ENDBRANCH  21  31
ENDBRANCH  19  20
ENDBRANCH  18  19
ENDBRANCH  14  18
ENDBRANCH   8  13
ENDBRANCH   4   7
ENDBRANCH   2   3
ENDBRANCH   1   2
BRANCH   1  39
ATOM     39  C   UNL A   1      37.304  31.759  29.039  1.00  0.00     0.002 C 
BRANCH  39  40
ATOM     40  C   UNL A   1      37.214  33.277  28.826  1.00  0.00     0.002 C 
BRANCH  40  41
ATOM     41  C   UNL A   1      35.828  33.898  29.055  1.00  0.00     0.021 C 
BRANCH  41  42
ATOM     42  C   UNL A   1      34.839  32.928  29.684  1.00  0.00     0.116 C 
BRANCH  42  43
ATOM     43  N   UNL A   1      34.080  33.572  30.754  1.00  0.00    -0.352 N 
ATOM     44  C   UNL A   1      34.359  33.641  32.104  1.00  0.00     0.251 C 
ATOM     45  H   UNL A   1      33.251  34.023  30.471  1.00  0.00     0.163 HD
ATOM     46  O   UNL A   1      33.476  33.881  32.907  1.00  0.00    -0.269 OA
BRANCH  44  47
ATOM     47  C   UNL A   1      35.748  33.428  32.550  1.00  0.00     0.039 A 
ATOM     48  C   UNL A   1      36.148  32.203  33.092  1.00  0.00     0.014 A 
ATOM     49  C   UNL A   1      36.650  34.479  32.416  1.00  0.00     0.014 A 
ATOM     50  C   UNL A   1      37.487  32.024  33.433  1.00  0.00     0.010 A 
ATOM     51  C   UNL A   1      37.987  34.257  32.612  1.00  0.00     0.010 A 
ATOM     52  C   UNL A   1      38.401  33.055  33.176  1.00  0.00    -0.014 A 
BRANCH  52  53
ATOM     53  C   UNL A   1      39.830  32.867  33.388  1.00  0.00     0.031 A 
ATOM     54  C   UNL A   1      40.467  33.909  34.238  1.00  0.00     0.074 A 
ATOM     55  C   UNL A   1      40.451  31.705  33.095  1.00  0.00     0.049 A 
ATOM     56  N   UNL A   1      41.329  34.806  33.889  1.00  0.00    -0.248 NA
ATOM     57  C   UNL A   1      39.970  34.072  35.618  1.00  0.00     0.031 C 
ATOM     58  C   UNL A   1      39.851  30.457  32.604  1.00  0.00     0.029 A 
ATOM     59  N   UNL A   1      41.738  31.339  33.327  1.00  0.00    -0.354 N 
ATOM     60  C   UNL A   1      41.663  35.488  35.056  1.00  0.00     0.074 A 
ATOM     61  C   UNL A   1      40.645  35.151  36.019  1.00  0.00     0.031 C 
ATOM     62  C   UNL A   1      40.698  29.429  32.837  1.00  0.00     0.029 A 
ATOM     63  C   UNL A   1      41.954  29.963  33.332  1.00  0.00     0.049 A 
ATOM     64  H   UNL A   1      42.459  31.992  33.478  1.00  0.00     0.167 HD
ATOM     65  C   UNL A   1      42.893  36.051  35.230  1.00  0.00     0.031 A 
ATOM     66  C   UNL A   1      43.064  29.320  33.778  1.00  0.00     0.031 A 
ATOM     67  C   UNL A   1      43.633  36.097  33.993  1.00  0.00     0.049 A 
ATOM     68  C   UNL A   1      44.153  30.329  33.841  1.00  0.00     0.074 A 
ATOM     69  C   UNL A   1      43.402  36.632  32.741  1.00  0.00     0.029 A 
ATOM     70  N   UNL A   1      44.624  35.156  33.825  1.00  0.00    -0.354 N 
ATOM     71  N   UNL A   1      44.659  30.907  32.788  1.00  0.00    -0.248 NA
ATOM     72  C   UNL A   1      44.348  31.039  35.097  1.00  0.00     0.031 C 
ATOM     73  C   UNL A   1      43.884  35.645  31.831  1.00  0.00     0.029 A 
ATOM     74  C   UNL A   1      44.461  34.616  32.575  1.00  0.00     0.049 A 
ATOM     75  H   UNL A   1      45.319  34.917  34.479  1.00  0.00     0.167 HD
ATOM     76  C   UNL A   1      44.836  32.232  33.163  1.00  0.00     0.074 A 
ATOM     77  C   UNL A   1      44.714  32.233  34.620  1.00  0.00     0.031 C 
ATOM     78  C   UNL A   1      44.776  33.242  32.244  1.00  0.00     0.031 A 
BRANCH  65  79
ATOM     79  C   UNL A   1      43.589  36.170  36.568  1.00  0.00    -0.014 A 
ATOM     80  C   UNL A   1      44.407  37.294  36.808  1.00  0.00     0.010 A 
ATOM     81  C   UNL A   1      43.694  35.104  37.485  1.00  0.00     0.010 A 
ATOM     82  C   UNL A   1      45.333  37.313  37.859  1.00  0.00     0.020 A 
ATOM     83  C   UNL A   1      44.578  35.131  38.565  1.00  0.00     0.020 A 
ATOM     84  C   UNL A   1      45.418  36.223  38.724  1.00  0.00     0.054 A 
BRANCH  84  85
ATOM     85  S   UNL A   1      46.675  36.216  40.025  1.00  0.00     0.124 S 
ATOM     86  O   UNL A   1      47.611  37.225  39.542  1.00  0.00    -0.237 OA
ATOM     87  O   UNL A   1      45.898  36.584  41.206  1.00  0.00    -0.237 OA
ATOM     88  O   UNL A   1      47.168  34.841  40.015  1.00  0.00    -0.744 OA
ENDBRANCH  84  85
ENDBRANCH  65  79
BRANCH  66  89
ATOM     89  C   UNL A   1      43.171  28.000  34.455  1.00  0.00    -0.014 A 
ATOM     90  C   UNL A   1      43.343  26.824  33.697  1.00  0.00     0.010 A 
ATOM     91  C   UNL A   1      43.411  27.923  35.842  1.00  0.00     0.010 A 
ATOM     92  C   UNL A   1      43.829  25.645  34.287  1.00  0.00     0.020 A 
ATOM     93  C   UNL A   1      43.885  26.747  36.438  1.00  0.00     0.020 A 
ATOM     94  C   UNL A   1      44.127  25.624  35.651  1.00  0.00     0.054 A 
BRANCH  94  95
ATOM     95  S   UNL A   1      44.971  24.178  36.360  1.00  0.00     0.124 S 
ATOM     96  O   UNL A   1      44.826  24.404  37.795  1.00  0.00    -0.237 OA
ATOM     97  O   UNL A   1      44.201  23.064  35.814  1.00  0.00    -0.237 OA
ATOM     98  O   UNL A   1      46.336  24.293  35.848  1.00  0.00    -0.744 OA
ENDBRANCH  94  95
ENDBRANCH  66  89
BRANCH  78  99
ATOM     99  C   UNL A   1      44.825  32.900  30.773  1.00  0.00    -0.014 A 
ATOM    100  C   UNL A   1      45.993  32.927  29.984  1.00  0.00     0.010 A 
ATOM    101  C   UNL A   1      43.645  32.399  30.198  1.00  0.00     0.010 A 
ATOM    102  C   UNL A   1      45.962  32.508  28.644  1.00  0.00     0.020 A 
ATOM    103  C   UNL A   1      43.612  31.961  28.874  1.00  0.00     0.020 A 
ATOM    104  C   UNL A   1      44.766  32.033  28.097  1.00  0.00     0.054 A 
BRANCH 104 105
ATOM    105  S   UNL A   1      44.724  31.493  26.365  1.00  0.00     0.124 S 
ATOM    106  O   UNL A   1      46.141  31.408  26.025  1.00  0.00    -0.237 OA
ATOM    107  O   UNL A   1      44.016  30.217  26.440  1.00  0.00    -0.237 OA
ATOM    108  O   UNL A   1      43.990  32.560  25.685  1.00  0.00    -0.744 OA
ENDBRANCH 104 105
ENDBRANCH  78  99
ENDBRANCH  52  53
ENDBRANCH  44  47
ENDBRANCH  42  43
ENDBRANCH  41  42
ENDBRANCH  40  41
ENDBRANCH  39  40
ENDBRANCH   1  39
TORSDOF 22
ENDMDL
