MODEL 1
REMARK VINA RESULT:     -11.4      0.000      0.000
REMARK SMILES COc1cc(Cl)c2c(c1)C=C(C(=O)NCCCCCCNC(=O)c1ccc(-c3c4nc(c(-c5ccc(S(=O)(=O)[O-])cc5)c5ccc([nH]5)c(-c5ccc(S(=O)(=O)[O-])cc5)c5nc(c(-c6ccc(S(=O)(=O)[O-])cc6)c6ccc3[nH]6)C=C5)C=C4)cc1)[C@@H](C(F)(F)F)O2
REMARK SMILES IDX 18 1 17 2 16 3 15 4 14 5 12 6 13 7 11 9 3 10 4 11 9 12 5 13
REMARK SMILES IDX 8 14 6 15 7 16 10 17 89 18 84 19 2 20 1 21 85 22 86 23 87 24
REMARK SMILES IDX 88 25 19 26 20 27 21 28 22 29 23 31 24 32 25 33 83 34 26 35
REMARK SMILES IDX 82 36 27 37 28 38 29 39 76 40 30 41 81 42 75 43 77 44 31 45
REMARK SMILES IDX 80 46 74 47 73 48 32 50 62 51 43 52 61 53 44 54 47 55 60 56
REMARK SMILES IDX 78 57 45 58 46 59 59 61 79 62 48 63 33 64 34 65 42 66 35 67
REMARK SMILES IDX 41 68 36 69 37 70 38 71 39 72 40 73 63 74 64 75 72 76 65 77
REMARK SMILES IDX 71 78 66 79 67 80 68 81 69 82 70 83 49 84 50 85 58 86 51 87
REMARK SMILES IDX 57 88 52 89 53 90 54 91 55 92 56 93
REMARK H PARENT 14 8 21 30 77 49 47 60
REMARK Flexibility Score: inf
ROOT
ATOM      1  C   UNL A   1      35.292  21.845  24.834  1.00  0.00     0.002 C 
ENDROOT
BRANCH   1   2
ATOM      2  C   UNL A   1      34.338  21.085  25.765  1.00  0.00     0.002 C 
BRANCH   2   3
ATOM      3  C   UNL A   1      33.129  20.441  25.079  1.00  0.00     0.021 C 
BRANCH   3   4
ATOM      4  C   UNL A   1      32.068  21.443  24.634  1.00  0.00     0.116 C 
BRANCH   4   5
ATOM      5  N   UNL A   1      31.368  22.021  25.769  1.00  0.00    -0.352 N 
ATOM      6  C   UNL A   1      31.148  23.255  26.274  1.00  0.00     0.251 C 
ATOM      7  O   UNL A   1      30.451  23.286  27.295  1.00  0.00    -0.270 OA
ATOM      8  H   UNL A   1      30.938  21.325  26.317  1.00  0.00     0.163 HD
BRANCH   6   9
ATOM      9  C   UNL A   1      31.670  24.533  25.701  1.00  0.00     0.067 C 
ATOM     10  C   UNL A   1      32.704  29.196  26.458  1.00  0.00     0.121 A 
ATOM     11  C   UNL A   1      33.240  29.303  25.176  1.00  0.00     0.070 A 
ATOM     12  C   UNL A   1      32.255  27.962  26.931  1.00  0.00     0.058 A 
ATOM     13  C   UNL A   1      33.278  28.181  24.350  1.00  0.00     0.087 A 
ATOM     14  C   UNL A   1      32.280  26.838  26.100  1.00  0.00     0.022 A 
ATOM     15  Cl  UNL A   1      33.947  28.348  22.767  1.00  0.00    -0.080 Cl
ATOM     16  C   UNL A   1      32.780  26.954  24.802  1.00  0.00     0.146 A 
ATOM     17  C   UNL A   1      31.819  25.542  26.581  1.00  0.00     0.025 C 
ATOM     18  O   UNL A   1      32.852  25.878  23.963  1.00  0.00    -0.474 OA
ATOM     19  C   UNL A   1      31.975  24.756  24.246  1.00  0.00     0.314 C 
BRANCH  10  20
ATOM     20  O   UNL A   1      32.640  30.242  27.338  1.00  0.00    -0.497 OA
ATOM     21  C   UNL A   1      33.915  30.815  27.624  1.00  0.00     0.278 C 
ENDBRANCH  10  20
BRANCH  19  22
ATOM     22  C   UNL A   1      30.702  24.871  23.386  1.00  0.00     0.429 C 
ATOM     23  F   UNL A   1      29.779  25.649  23.997  1.00  0.00    -0.167 F 
ATOM     24  F   UNL A   1      30.945  25.436  22.180  1.00  0.00    -0.167 F 
ATOM     25  F   UNL A   1      30.134  23.666  23.147  1.00  0.00    -0.167 F 
ENDBRANCH  19  22
ENDBRANCH   6   9
ENDBRANCH   4   5
ENDBRANCH   3   4
ENDBRANCH   2   3
ENDBRANCH   1   2
BRANCH   1  26
ATOM     26  C   UNL A   1      35.338  23.363  25.035  1.00  0.00     0.021 C 
BRANCH  26  27
ATOM     27  C   UNL A   1      36.552  23.860  25.813  1.00  0.00     0.116 C 
BRANCH  27  28
ATOM     28  N   UNL A   1      37.570  22.829  25.927  1.00  0.00    -0.352 N 
ATOM     29  C   UNL A   1      38.879  22.960  26.315  1.00  0.00     0.251 C 
ATOM     30  H   UNL A   1      37.282  21.916  25.698  1.00  0.00     0.163 HD
ATOM     31  O   UNL A   1      39.674  22.040  26.144  1.00  0.00    -0.269 OA
BRANCH  29  32
ATOM     32  C   UNL A   1      39.321  24.224  26.933  1.00  0.00     0.039 A 
ATOM     33  C   UNL A   1      40.084  25.120  26.182  1.00  0.00     0.014 A 
ATOM     34  C   UNL A   1      38.980  24.514  28.258  1.00  0.00     0.014 A 
ATOM     35  C   UNL A   1      40.477  26.332  26.751  1.00  0.00     0.010 A 
ATOM     36  C   UNL A   1      39.334  25.741  28.809  1.00  0.00     0.010 A 
ATOM     37  C   UNL A   1      40.095  26.654  28.063  1.00  0.00    -0.014 A 
BRANCH  37  38
ATOM     38  C   UNL A   1      40.526  27.924  28.690  1.00  0.00     0.031 A 
ATOM     39  C   UNL A   1      41.925  28.046  29.226  1.00  0.00     0.074 A 
ATOM     40  C   UNL A   1      39.659  28.947  28.805  1.00  0.00     0.049 A 
ATOM     41  N   UNL A   1      42.479  29.052  29.851  1.00  0.00    -0.248 NA
ATOM     42  C   UNL A   1      42.812  26.883  29.049  1.00  0.00     0.031 C 
ATOM     43  C   UNL A   1      38.270  28.936  28.340  1.00  0.00     0.029 A 
ATOM     44  N   UNL A   1      39.817  30.194  29.355  1.00  0.00    -0.354 N 
ATOM     45  C   UNL A   1      43.775  28.646  30.139  1.00  0.00     0.074 A 
ATOM     46  C   UNL A   1      43.914  27.288  29.663  1.00  0.00     0.031 C 
ATOM     47  C   UNL A   1      37.709  30.126  28.612  1.00  0.00     0.029 A 
ATOM     48  C   UNL A   1      38.686  30.972  29.292  1.00  0.00     0.049 A 
ATOM     49  H   UNL A   1      40.662  30.502  29.756  1.00  0.00     0.167 HD
ATOM     50  C   UNL A   1      44.769  29.352  30.726  1.00  0.00     0.031 A 
ATOM     51  C   UNL A   1      38.460  32.225  29.736  1.00  0.00     0.031 A 
ATOM     52  C   UNL A   1      44.633  30.705  31.187  1.00  0.00     0.049 A 
ATOM     53  C   UNL A   1      39.573  32.982  30.404  1.00  0.00     0.074 A 
ATOM     54  C   UNL A   1      45.593  31.511  31.772  1.00  0.00     0.029 A 
ATOM     55  N   UNL A   1      43.471  31.456  31.106  1.00  0.00    -0.354 N 
ATOM     56  N   UNL A   1      40.800  32.587  30.649  1.00  0.00    -0.248 NA
ATOM     57  C   UNL A   1      39.279  34.352  30.846  1.00  0.00     0.031 C 
ATOM     58  C   UNL A   1      45.002  32.741  32.077  1.00  0.00     0.029 A 
ATOM     59  C   UNL A   1      43.686  32.714  31.640  1.00  0.00     0.049 A 
ATOM     60  H   UNL A   1      42.619  31.140  30.725  1.00  0.00     0.167 HD
ATOM     61  C   UNL A   1      41.428  33.666  31.261  1.00  0.00     0.074 A 
ATOM     62  C   UNL A   1      40.451  34.732  31.341  1.00  0.00     0.031 C 
ATOM     63  C   UNL A   1      42.702  33.763  31.712  1.00  0.00     0.031 A 
BRANCH  50  64
ATOM     64  C   UNL A   1      46.102  28.680  30.885  1.00  0.00    -0.014 A 
ATOM     65  C   UNL A   1      47.070  28.768  29.870  1.00  0.00     0.010 A 
ATOM     66  C   UNL A   1      46.421  28.024  32.088  1.00  0.00     0.010 A 
ATOM     67  C   UNL A   1      48.334  28.201  30.049  1.00  0.00     0.020 A 
ATOM     68  C   UNL A   1      47.691  27.471  32.278  1.00  0.00     0.020 A 
ATOM     69  C   UNL A   1      48.638  27.563  31.256  1.00  0.00     0.054 A 
BRANCH  69  70
ATOM     70  S   UNL A   1      50.303  26.879  31.471  1.00  0.00     0.124 S 
ATOM     71  O   UNL A   1      50.098  25.468  31.149  1.00  0.00    -0.237 OA
ATOM     72  O   UNL A   1      51.083  27.638  30.497  1.00  0.00    -0.237 OA
ATOM     73  O   UNL A   1      50.616  27.154  32.871  1.00  0.00    -0.744 OA
ENDBRANCH  69  70
ENDBRANCH  50  64
BRANCH  51  74
ATOM     74  C   UNL A   1      37.119  32.836  29.544  1.00  0.00    -0.014 A 
ATOM     75  C   UNL A   1      36.197  32.876  30.602  1.00  0.00     0.010 A 
ATOM     76  C   UNL A   1      36.780  33.430  28.314  1.00  0.00     0.010 A 
ATOM     77  C   UNL A   1      34.958  33.503  30.436  1.00  0.00     0.020 A 
ATOM     78  C   UNL A   1      35.551  34.074  28.150  1.00  0.00     0.020 A 
ATOM     79  C   UNL A   1      34.648  34.108  29.214  1.00  0.00     0.054 A 
BRANCH  79  80
ATOM     80  S   UNL A   1      33.060  34.971  29.051  1.00  0.00     0.124 S 
ATOM     81  O   UNL A   1      32.361  34.147  28.071  1.00  0.00    -0.237 OA
ATOM     82  O   UNL A   1      32.538  34.913  30.415  1.00  0.00    -0.237 OA
ATOM     83  O   UNL A   1      33.439  36.305  28.590  1.00  0.00    -0.744 OA
ENDBRANCH  79  80
ENDBRANCH  51  74
BRANCH  63  84
ATOM     84  C   UNL A   1      43.137  35.064  32.323  1.00  0.00    -0.014 A 
ATOM     85  C   UNL A   1      43.780  36.042  31.546  1.00  0.00     0.010 A 
ATOM     86  C   UNL A   1      42.785  35.358  33.653  1.00  0.00     0.010 A 
ATOM     87  C   UNL A   1      44.063  37.297  32.091  1.00  0.00     0.020 A 
ATOM     88  C   UNL A   1      43.050  36.617  34.193  1.00  0.00     0.020 A 
ATOM     89  C   UNL A   1      43.686  37.580  33.407  1.00  0.00     0.054 A 
BRANCH  89  90
ATOM     90  S   UNL A   1      44.002  39.243  34.059  1.00  0.00     0.124 S 
ATOM     91  O   UNL A   1      42.770  39.948  33.713  1.00  0.00    -0.237 OA
ATOM     92  O   UNL A   1      44.203  38.989  35.482  1.00  0.00    -0.237 OA
ATOM     93  O   UNL A   1      45.191  39.682  33.332  1.00  0.00    -0.744 OA
ENDBRANCH  89  90
ENDBRANCH  63  84
ENDBRANCH  37  38
ENDBRANCH  29  32
ENDBRANCH  27  28
ENDBRANCH  26  27
ENDBRANCH   1  26
TORSDOF 18
ENDMDL
MODEL 2
REMARK VINA RESULT:     -11.2      1.558      2.158
REMARK SMILES COc1cc(Cl)c2c(c1)C=C(C(=O)NCCCCCCNC(=O)c1ccc(-c3c4nc(c(-c5ccc(S(=O)(=O)[O-])cc5)c5ccc([nH]5)c(-c5ccc(S(=O)(=O)[O-])cc5)c5nc(c(-c6ccc(S(=O)(=O)[O-])cc6)c6ccc3[nH]6)C=C5)C=C4)cc1)[C@@H](C(F)(F)F)O2
REMARK SMILES IDX 18 1 17 2 16 3 15 4 14 5 12 6 13 7 11 9 3 10 4 11 9 12 5 13
REMARK SMILES IDX 8 14 6 15 7 16 10 17 89 18 84 19 2 20 1 21 85 22 86 23 87 24
REMARK SMILES IDX 88 25 19 26 20 27 21 28 22 29 23 31 24 32 25 33 83 34 26 35
REMARK SMILES IDX 82 36 27 37 28 38 29 39 76 40 30 41 81 42 75 43 77 44 31 45
REMARK SMILES IDX 80 46 74 47 73 48 32 50 62 51 43 52 61 53 44 54 47 55 60 56
REMARK SMILES IDX 78 57 45 58 46 59 59 61 79 62 48 63 33 64 34 65 42 66 35 67
REMARK SMILES IDX 41 68 36 69 37 70 38 71 39 72 40 73 63 74 64 75 72 76 65 77
REMARK SMILES IDX 71 78 66 79 67 80 68 81 69 82 70 83 49 84 50 85 58 86 51 87
REMARK SMILES IDX 57 88 52 89 53 90 54 91 55 92 56 93
REMARK H PARENT 14 8 21 30 77 49 47 60
REMARK Flexibility Score: inf
ROOT
ATOM      1  C   UNL A   1      35.476  21.933  24.269  1.00  0.00     0.002 C 
ENDROOT
BRANCH   1   2
ATOM      2  C   UNL A   1      34.400  21.628  25.320  1.00  0.00     0.002 C 
BRANCH   2   3
ATOM      3  C   UNL A   1      33.048  21.177  24.759  1.00  0.00     0.021 C 
BRANCH   3   4
ATOM      4  C   UNL A   1      32.068  22.321  24.522  1.00  0.00     0.116 C 
BRANCH   4   5
ATOM      5  N   UNL A   1      31.233  22.561  25.687  1.00  0.00    -0.352 N 
ATOM      6  C   UNL A   1      30.712  23.630  26.331  1.00  0.00     0.251 C 
ATOM      7  O   UNL A   1      30.015  23.358  27.315  1.00  0.00    -0.270 OA
ATOM      8  H   UNL A   1      30.977  21.717  26.125  1.00  0.00     0.163 HD
BRANCH   6   9
ATOM      9  C   UNL A   1      30.915  25.059  25.945  1.00  0.00     0.067 C 
ATOM     10  C   UNL A   1      29.653  28.690  23.010  1.00  0.00     0.121 A 
ATOM     11  C   UNL A   1      30.480  29.567  23.711  1.00  0.00     0.070 A 
ATOM     12  C   UNL A   1      29.498  27.372  23.444  1.00  0.00     0.058 A 
ATOM     13  C   UNL A   1      31.190  29.106  24.818  1.00  0.00     0.087 A 
ATOM     14  C   UNL A   1      30.220  26.904  24.547  1.00  0.00     0.022 A 
ATOM     15  Cl  UNL A   1      32.207  30.217  25.663  1.00  0.00    -0.080 Cl
ATOM     16  C   UNL A   1      31.079  27.772  25.225  1.00  0.00     0.146 A 
ATOM     17  C   UNL A   1      30.065  25.533  25.014  1.00  0.00     0.025 C 
ATOM     18  O   UNL A   1      31.782  27.368  26.323  1.00  0.00    -0.474 OA
ATOM     19  C   UNL A   1      32.006  25.943  26.482  1.00  0.00     0.314 C 
BRANCH  10  20
ATOM     20  O   UNL A   1      28.912  29.061  21.922  1.00  0.00    -0.497 OA
ATOM     21  C   UNL A   1      29.067  30.438  21.579  1.00  0.00     0.278 C 
ENDBRANCH  10  20
BRANCH  19  22
ATOM     22  C   UNL A   1      33.394  25.577  25.921  1.00  0.00     0.429 C 
ATOM     23  F   UNL A   1      33.308  25.238  24.614  1.00  0.00    -0.167 F 
ATOM     24  F   UNL A   1      34.268  26.609  25.995  1.00  0.00    -0.167 F 
ATOM     25  F   UNL A   1      33.956  24.539  26.581  1.00  0.00    -0.167 F 
ENDBRANCH  19  22
ENDBRANCH   6   9
ENDBRANCH   4   5
ENDBRANCH   3   4
ENDBRANCH   2   3
ENDBRANCH   1   2
BRANCH   1  26
ATOM     26  C   UNL A   1      35.896  23.403  24.165  1.00  0.00     0.021 C 
BRANCH  26  27
ATOM     27  C   UNL A   1      36.937  23.836  25.192  1.00  0.00     0.116 C 
BRANCH  27  28
ATOM     28  N   UNL A   1      37.827  22.743  25.542  1.00  0.00    -0.352 N 
ATOM     29  C   UNL A   1      39.049  22.801  26.163  1.00  0.00     0.251 C 
ATOM     30  H   UNL A   1      37.511  21.842  25.305  1.00  0.00     0.163 HD
ATOM     31  O   UNL A   1      39.782  21.817  26.186  1.00  0.00    -0.269 OA
BRANCH  29  32
ATOM     32  C   UNL A   1      39.473  24.064  26.795  1.00  0.00     0.039 A 
ATOM     33  C   UNL A   1      40.233  24.974  26.056  1.00  0.00     0.014 A 
ATOM     34  C   UNL A   1      39.119  24.340  28.120  1.00  0.00     0.014 A 
ATOM     35  C   UNL A   1      40.609  26.185  26.638  1.00  0.00     0.010 A 
ATOM     36  C   UNL A   1      39.457  25.566  28.683  1.00  0.00     0.010 A 
ATOM     37  C   UNL A   1      40.214  26.493  27.950  1.00  0.00    -0.014 A 
BRANCH  37  38
ATOM     38  C   UNL A   1      40.628  27.761  28.591  1.00  0.00     0.031 A 
ATOM     39  C   UNL A   1      42.017  27.890  29.149  1.00  0.00     0.074 A 
ATOM     40  C   UNL A   1      39.752  28.778  28.699  1.00  0.00     0.049 A 
ATOM     41  N   UNL A   1      42.555  28.895  29.787  1.00  0.00    -0.248 NA
ATOM     42  C   UNL A   1      42.914  26.734  28.977  1.00  0.00     0.031 C 
ATOM     43  C   UNL A   1      38.370  28.761  28.214  1.00  0.00     0.029 A 
ATOM     44  N   UNL A   1      39.894  30.023  29.259  1.00  0.00    -0.354 N 
ATOM     45  C   UNL A   1      43.850  28.497  30.092  1.00  0.00     0.074 A 
ATOM     46  C   UNL A   1      44.005  27.142  29.610  1.00  0.00     0.031 C 
ATOM     47  C   UNL A   1      37.797  29.945  28.484  1.00  0.00     0.029 A 
ATOM     48  C   UNL A   1      38.758  30.794  29.184  1.00  0.00     0.049 A 
ATOM     49  H   UNL A   1      40.730  30.334  29.674  1.00  0.00     0.167 HD
ATOM     50  C   UNL A   1      44.830  29.205  30.697  1.00  0.00     0.031 A 
ATOM     51  C   UNL A   1      38.518  32.042  29.632  1.00  0.00     0.031 A 
ATOM     52  C   UNL A   1      44.679  30.555  31.164  1.00  0.00     0.049 A 
ATOM     53  C   UNL A   1      39.615  32.803  30.320  1.00  0.00     0.074 A 
ATOM     54  C   UNL A   1      45.625  31.363  31.768  1.00  0.00     0.029 A 
ATOM     55  N   UNL A   1      43.513  31.298  31.070  1.00  0.00    -0.354 N 
ATOM     56  N   UNL A   1      40.841  32.415  30.581  1.00  0.00    -0.248 NA
ATOM     57  C   UNL A   1      39.306  34.168  30.766  1.00  0.00     0.031 C 
ATOM     58  C   UNL A   1      45.021  32.587  32.072  1.00  0.00     0.029 A 
ATOM     59  C   UNL A   1      43.712  32.554  31.615  1.00  0.00     0.049 A 
ATOM     60  H   UNL A   1      42.669  30.979  30.675  1.00  0.00     0.167 HD
ATOM     61  C   UNL A   1      41.453  33.494  31.208  1.00  0.00     0.074 A 
ATOM     62  C   UNL A   1      40.468  34.553  31.280  1.00  0.00     0.031 C 
ATOM     63  C   UNL A   1      42.720  33.596  31.678  1.00  0.00     0.031 A 
BRANCH  50  64
ATOM     64  C   UNL A   1      46.165  28.541  30.872  1.00  0.00    -0.014 A 
ATOM     65  C   UNL A   1      46.429  27.758  32.009  1.00  0.00     0.010 A 
ATOM     66  C   UNL A   1      47.135  28.633  29.858  1.00  0.00     0.010 A 
ATOM     67  C   UNL A   1      47.646  27.085  32.136  1.00  0.00     0.020 A 
ATOM     68  C   UNL A   1      48.348  27.947  29.973  1.00  0.00     0.020 A 
ATOM     69  C   UNL A   1      48.594  27.178  31.113  1.00  0.00     0.054 A 
BRANCH  69  70
ATOM     70  S   UNL A   1      50.145  26.254  31.290  1.00  0.00     0.124 S 
ATOM     71  O   UNL A   1      51.077  27.069  30.513  1.00  0.00    -0.237 OA
ATOM     72  O   UNL A   1      50.353  26.266  32.736  1.00  0.00    -0.237 OA
ATOM     73  O   UNL A   1      49.840  24.946  30.715  1.00  0.00    -0.744 OA
ENDBRANCH  69  70
ENDBRANCH  50  64
BRANCH  51  74
ATOM     74  C   UNL A   1      37.176  32.646  29.424  1.00  0.00    -0.014 A 
ATOM     75  C   UNL A   1      36.162  32.475  30.380  1.00  0.00     0.010 A 
ATOM     76  C   UNL A   1      36.923  33.440  28.290  1.00  0.00     0.010 A 
ATOM     77  C   UNL A   1      34.919  33.092  30.210  1.00  0.00     0.020 A 
ATOM     78  C   UNL A   1      35.689  34.074  28.125  1.00  0.00     0.020 A 
ATOM     79  C   UNL A   1      34.694  33.897  29.089  1.00  0.00     0.054 A 
BRANCH  79  80
ATOM     80  S   UNL A   1      33.094  34.737  28.930  1.00  0.00     0.124 S 
ATOM     81  O   UNL A   1      32.604  34.729  30.304  1.00  0.00    -0.237 OA
ATOM     82  O   UNL A   1      33.485  36.044  28.404  1.00  0.00    -0.237 OA
ATOM     83  O   UNL A   1      32.352  33.892  27.996  1.00  0.00    -0.744 OA
ENDBRANCH  79  80
ENDBRANCH  51  74
BRANCH  63  84
ATOM     84  C   UNL A   1      43.137  34.897  32.303  1.00  0.00    -0.014 A 
ATOM     85  C   UNL A   1      43.037  35.090  33.691  1.00  0.00     0.010 A 
ATOM     86  C   UNL A   1      43.752  35.882  31.510  1.00  0.00     0.010 A 
ATOM     87  C   UNL A   1      43.548  36.252  34.277  1.00  0.00     0.020 A 
ATOM     88  C   UNL A   1      44.278  37.035  32.094  1.00  0.00     0.020 A 
ATOM     89  C   UNL A   1      44.175  37.211  33.476  1.00  0.00     0.054 A 
BRANCH  89  90
ATOM     90  S   UNL A   1      44.892  38.672  34.277  1.00  0.00     0.124 S 
ATOM     91  O   UNL A   1      45.814  38.073  35.240  1.00  0.00    -0.237 OA
ATOM     92  O   UNL A   1      45.517  39.369  33.158  1.00  0.00    -0.237 OA
ATOM     93  O   UNL A   1      43.738  39.350  34.864  1.00  0.00    -0.744 OA
ENDBRANCH  89  90
ENDBRANCH  63  84
ENDBRANCH  37  38
ENDBRANCH  29  32
ENDBRANCH  27  28
ENDBRANCH  26  27
ENDBRANCH   1  26
TORSDOF 18
ENDMDL
MODEL 3
REMARK VINA RESULT:     -10.8      2.413      3.080
REMARK SMILES COc1cc(Cl)c2c(c1)C=C(C(=O)NCCCCCCNC(=O)c1ccc(-c3c4nc(c(-c5ccc(S(=O)(=O)[O-])cc5)c5ccc([nH]5)c(-c5ccc(S(=O)(=O)[O-])cc5)c5nc(c(-c6ccc(S(=O)(=O)[O-])cc6)c6ccc3[nH]6)C=C5)C=C4)cc1)[C@@H](C(F)(F)F)O2
REMARK SMILES IDX 18 1 17 2 16 3 15 4 14 5 12 6 13 7 11 9 3 10 4 11 9 12 5 13
REMARK SMILES IDX 8 14 6 15 7 16 10 17 89 18 84 19 2 20 1 21 85 22 86 23 87 24
REMARK SMILES IDX 88 25 19 26 20 27 21 28 22 29 23 31 24 32 25 33 83 34 26 35
REMARK SMILES IDX 82 36 27 37 28 38 29 39 76 40 30 41 81 42 75 43 77 44 31 45
REMARK SMILES IDX 80 46 74 47 73 48 32 50 62 51 43 52 61 53 44 54 47 55 60 56
REMARK SMILES IDX 78 57 45 58 46 59 59 61 79 62 48 63 33 64 34 65 42 66 35 67
REMARK SMILES IDX 41 68 36 69 37 70 38 71 39 72 40 73 63 74 64 75 72 76 65 77
REMARK SMILES IDX 71 78 66 79 67 80 68 81 69 82 70 83 49 84 50 85 58 86 51 87
REMARK SMILES IDX 57 88 52 89 53 90 54 91 55 92 56 93
REMARK H PARENT 14 8 21 30 77 49 47 60
REMARK Flexibility Score: inf
ROOT
ATOM      1  C   UNL A   1      35.679  22.210  24.117  1.00  0.00     0.002 C 
ENDROOT
BRANCH   1   2
ATOM      2  C   UNL A   1      34.242  22.394  23.610  1.00  0.00     0.002 C 
BRANCH   2   3
ATOM      3  C   UNL A   1      33.152  21.794  24.504  1.00  0.00     0.021 C 
BRANCH   3   4
ATOM      4  C   UNL A   1      31.764  22.376  24.257  1.00  0.00     0.116 C 
BRANCH   4   5
ATOM      5  N   UNL A   1      31.051  22.607  25.502  1.00  0.00    -0.352 N 
ATOM      6  C   UNL A   1      30.664  23.672  26.239  1.00  0.00     0.251 C 
ATOM      7  O   UNL A   1      30.037  23.395  27.268  1.00  0.00    -0.270 OA
ATOM      8  H   UNL A   1      30.777  21.760  25.922  1.00  0.00     0.163 HD
BRANCH   6   9
ATOM      9  C   UNL A   1      30.931  25.104  25.903  1.00  0.00     0.067 C 
ATOM     10  C   UNL A   1      29.836  28.888  23.098  1.00  0.00     0.121 A 
ATOM     11  C   UNL A   1      30.700  29.702  23.829  1.00  0.00     0.070 A 
ATOM     12  C   UNL A   1      29.622  27.564  23.486  1.00  0.00     0.058 A 
ATOM     13  C   UNL A   1      31.388  29.171  24.919  1.00  0.00     0.087 A 
ATOM     14  C   UNL A   1      30.320  27.026  24.571  1.00  0.00     0.022 A 
ATOM     15  Cl  UNL A   1      32.452  30.206  25.802  1.00  0.00    -0.080 Cl
ATOM     16  C   UNL A   1      31.216  27.830  25.279  1.00  0.00     0.146 A 
ATOM     17  C   UNL A   1      30.103  25.647  24.990  1.00  0.00     0.025 C 
ATOM     18  O   UNL A   1      31.899  27.357  26.363  1.00  0.00    -0.474 OA
ATOM     19  C   UNL A   1      32.059  25.919  26.471  1.00  0.00     0.314 C 
BRANCH  10  20
ATOM     20  O   UNL A   1      29.113  29.330  22.024  1.00  0.00    -0.497 OA
ATOM     21  C   UNL A   1      27.733  29.537  22.322  1.00  0.00     0.278 C 
ENDBRANCH  10  20
BRANCH  19  22
ATOM     22  C   UNL A   1      33.430  25.511  25.898  1.00  0.00     0.429 C 
ATOM     23  F   UNL A   1      33.351  25.314  24.561  1.00  0.00    -0.167 F 
ATOM     24  F   UNL A   1      34.373  26.463  26.091  1.00  0.00    -0.167 F 
ATOM     25  F   UNL A   1      33.901  24.373  26.456  1.00  0.00    -0.167 F 
ENDBRANCH  19  22
ENDBRANCH   6   9
ENDBRANCH   4   5
ENDBRANCH   3   4
ENDBRANCH   2   3
ENDBRANCH   1   2
BRANCH   1  26
ATOM     26  C   UNL A   1      36.423  23.502  24.469  1.00  0.00     0.021 C 
BRANCH  26  27
ATOM     27  C   UNL A   1      37.004  23.530  25.880  1.00  0.00     0.116 C 
BRANCH  27  28
ATOM     28  N   UNL A   1      37.931  22.433  26.097  1.00  0.00    -0.352 N 
ATOM     29  C   UNL A   1      39.263  22.492  26.418  1.00  0.00     0.251 C 
ATOM     30  H   UNL A   1      37.554  21.529  26.002  1.00  0.00     0.163 HD
ATOM     31  O   UNL A   1      39.965  21.487  26.346  1.00  0.00    -0.269 OA
BRANCH  29  32
ATOM     32  C   UNL A   1      39.842  23.779  26.844  1.00  0.00     0.039 A 
ATOM     33  C   UNL A   1      39.862  24.848  25.947  1.00  0.00     0.014 A 
ATOM     34  C   UNL A   1      40.368  23.919  28.133  1.00  0.00     0.014 A 
ATOM     35  C   UNL A   1      40.379  26.078  26.356  1.00  0.00     0.010 A 
ATOM     36  C   UNL A   1      40.842  25.158  28.554  1.00  0.00     0.010 A 
ATOM     37  C   UNL A   1      40.861  26.243  27.664  1.00  0.00    -0.014 A 
BRANCH  37  38
ATOM     38  C   UNL A   1      41.437  27.533  28.105  1.00  0.00     0.031 A 
ATOM     39  C   UNL A   1      42.922  27.748  28.021  1.00  0.00     0.074 A 
ATOM     40  C   UNL A   1      40.636  28.493  28.606  1.00  0.00     0.049 A 
ATOM     41  N   UNL A   1      43.624  28.783  28.398  1.00  0.00    -0.248 NA
ATOM     42  C   UNL A   1      43.723  26.652  27.449  1.00  0.00     0.031 C 
ATOM     43  C   UNL A   1      39.183  28.389  28.756  1.00  0.00     0.029 A 
ATOM     44  N   UNL A   1      40.933  29.742  29.089  1.00  0.00    -0.354 N 
ATOM     45  C   UNL A   1      44.945  28.467  28.111  1.00  0.00     0.074 A 
ATOM     46  C   UNL A   1      44.955  27.126  27.569  1.00  0.00     0.031 C 
ATOM     47  C   UNL A   1      38.715  29.534  29.280  1.00  0.00     0.029 A 
ATOM     48  C   UNL A   1      39.833  30.440  29.528  1.00  0.00     0.049 A 
ATOM     49  H   UNL A   1      41.848  30.104  29.117  1.00  0.00     0.167 HD
ATOM     50  C   UNL A   1      46.048  29.234  28.262  1.00  0.00     0.031 A 
ATOM     51  C   UNL A   1      39.738  31.669  30.072  1.00  0.00     0.031 A 
ATOM     52  C   UNL A   1      46.036  30.570  28.788  1.00  0.00     0.049 A 
ATOM     53  C   UNL A   1      40.980  32.496  30.250  1.00  0.00     0.074 A 
ATOM     54  C   UNL A   1      47.102  31.435  28.955  1.00  0.00     0.029 A 
ATOM     55  N   UNL A   1      44.902  31.239  29.222  1.00  0.00    -0.354 N 
ATOM     56  N   UNL A   1      42.219  32.185  29.951  1.00  0.00    -0.248 NA
ATOM     57  C   UNL A   1      40.815  33.838  30.825  1.00  0.00     0.031 C 
ATOM     58  C   UNL A   1      46.619  32.617  29.523  1.00  0.00     0.029 A 
ATOM     59  C   UNL A   1      45.244  32.503  29.667  1.00  0.00     0.049 A 
ATOM     60  H   UNL A   1      43.989  30.868  29.215  1.00  0.00     0.167 HD
ATOM     61  C   UNL A   1      42.979  33.299  30.290  1.00  0.00     0.074 A 
ATOM     62  C   UNL A   1      42.061  34.293  30.806  1.00  0.00     0.031 C 
ATOM     63  C   UNL A   1      44.317  33.480  30.178  1.00  0.00     0.031 A 
BRANCH  50  64
ATOM     64  C   UNL A   1      47.365  28.655  27.831  1.00  0.00    -0.014 A 
ATOM     65  C   UNL A   1      48.179  27.973  28.751  1.00  0.00     0.010 A 
ATOM     66  C   UNL A   1      47.756  28.723  26.482  1.00  0.00     0.010 A 
ATOM     67  C   UNL A   1      49.370  27.376  28.332  1.00  0.00     0.020 A 
ATOM     68  C   UNL A   1      48.939  28.111  26.055  1.00  0.00     0.020 A 
ATOM     69  C   UNL A   1      49.738  27.442  26.985  1.00  0.00     0.054 A 
BRANCH  69  70
ATOM     70  S   UNL A   1      51.268  26.617  26.469  1.00  0.00     0.124 S 
ATOM     71  O   UNL A   1      52.199  27.738  26.361  1.00  0.00    -0.237 OA
ATOM     72  O   UNL A   1      51.517  25.697  27.575  1.00  0.00    -0.237 OA
ATOM     73  O   UNL A   1      50.912  25.985  25.200  1.00  0.00    -0.744 OA
ENDBRANCH  69  70
ENDBRANCH  50  64
BRANCH  51  74
ATOM     74  C   UNL A   1      38.404  32.188  30.474  1.00  0.00    -0.014 A 
ATOM     75  C   UNL A   1      37.917  31.970  31.773  1.00  0.00     0.010 A 
ATOM     76  C   UNL A   1      37.638  32.948  29.572  1.00  0.00     0.010 A 
ATOM     77  C   UNL A   1      36.688  32.508  32.166  1.00  0.00     0.020 A 
ATOM     78  C   UNL A   1      36.417  33.503  29.966  1.00  0.00     0.020 A 
ATOM     79  C   UNL A   1      35.952  33.280  31.263  1.00  0.00     0.054 A 
BRANCH  79  80
ATOM     80  S   UNL A   1      34.392  34.020  31.824  1.00  0.00     0.124 S 
ATOM     81  O   UNL A   1      34.851  35.221  32.513  1.00  0.00    -0.237 OA
ATOM     82  O   UNL A   1      33.688  34.243  30.563  1.00  0.00    -0.237 OA
ATOM     83  O   UNL A   1      33.812  32.990  32.684  1.00  0.00    -0.744 OA
ENDBRANCH  79  80
ENDBRANCH  51  74
BRANCH  63  84
ATOM     84  C   UNL A   1      44.888  34.802  30.604  1.00  0.00    -0.014 A 
ATOM     85  C   UNL A   1      44.965  35.875  29.700  1.00  0.00     0.010 A 
ATOM     86  C   UNL A   1      45.230  35.009  31.953  1.00  0.00     0.010 A 
ATOM     87  C   UNL A   1      45.377  37.136  30.140  1.00  0.00     0.020 A 
ATOM     88  C   UNL A   1      45.624  36.271  32.399  1.00  0.00     0.020 A 
ATOM     89  C   UNL A   1      45.692  37.329  31.489  1.00  0.00     0.054 A 
BRANCH  89  90
ATOM     90  S   UNL A   1      46.150  38.994  32.041  1.00  0.00     0.124 S 
ATOM     91  O   UNL A   1      47.372  39.245  31.280  1.00  0.00    -0.237 OA
ATOM     92  O   UNL A   1      44.990  39.786  31.646  1.00  0.00    -0.237 OA
ATOM     93  O   UNL A   1      46.338  38.845  33.482  1.00  0.00    -0.744 OA
ENDBRANCH  89  90
ENDBRANCH  63  84
ENDBRANCH  37  38
ENDBRANCH  29  32
ENDBRANCH  27  28
ENDBRANCH  26  27
ENDBRANCH   1  26
TORSDOF 18
ENDMDL
