MODEL 1
REMARK VINA RESULT:     -11.3      0.000      0.000
REMARK SMILES O=C(NCc1ccc(C(=O)NCCCCCCNC(=O)c2ccc(-c3c4nc(c(-c5ccc(S(=O)(=O)[O-])cc5)c5ccc([nH]5)c(-c5ccc(S(=O)(=O)[O-])cc5)c5nc(c(-c6ccc(S(=O)(=O)[O-])cc6)c6ccc3[nH]6)C=C5)C=C4)cc2)o1)Nc1ccc(F)c(Cl)c1
REMARK SMILES IDX 14 1 13 2 12 3 11 4 9 5 10 6 8 8 5 9 6 10 81 11 7 12 4 13
REMARK SMILES IDX 3 14 1 15 2 16 82 17 83 20 84 21 90 22 85 23 88 24 86 25
REMARK SMILES IDX 89 26 87 27 15 28 16 29 17 30 18 31 19 32 20 34 21 35 22 36
REMARK SMILES IDX 80 37 23 38 79 39 24 40 25 41 26 42 73 43 27 44 78 45 72 46
REMARK SMILES IDX 74 47 28 48 77 49 71 50 70 51 29 53 59 54 40 55 58 56 41 57
REMARK SMILES IDX 44 58 57 59 75 60 42 61 43 62 56 64 76 65 45 66 30 67 31 68
REMARK SMILES IDX 39 69 32 70 38 71 33 72 34 73 35 74 36 75 37 76 60 77 61 78
REMARK SMILES IDX 69 79 62 80 68 81 63 82 64 83 65 84 66 85 67 86 46 87 47 88
REMARK SMILES IDX 55 89 48 90 54 91 49 92 50 93 51 94 52 95 53 96
REMARK H PARENT 11 7 3 18 82 19 18 33 74 52 44 63
REMARK Flexibility Score: inf
ROOT
ATOM      1  C   UNL A   1      32.361  29.371  27.066  1.00  0.00     0.002 C 
ENDROOT
BRANCH   1   2
ATOM      2  C   UNL A   1      31.403  28.176  27.177  1.00  0.00     0.021 C 
BRANCH   2   3
ATOM      3  C   UNL A   1      31.785  27.000  26.279  1.00  0.00     0.116 C 
BRANCH   3   4
ATOM      4  N   UNL A   1      31.291  25.752  26.820  1.00  0.00    -0.349 N 
ATOM      5  C   UNL A   1      31.580  24.442  26.533  1.00  0.00     0.286 C 
ATOM      6  O   UNL A   1      31.013  23.612  27.251  1.00  0.00    -0.266 OA
ATOM      7  H   UNL A   1      30.620  25.865  27.532  1.00  0.00     0.163 HD
BRANCH   5   8
ATOM      8  C   UNL A   1      32.499  24.055  25.474  1.00  0.00     0.191 A 
ATOM      9  C   UNL A   1      33.355  24.337  23.444  1.00  0.00     0.124 A 
ATOM     10  C   UNL A   1      34.029  23.275  23.998  1.00  0.00     0.048 A 
ATOM     11  O   UNL A   1      32.423  24.799  24.319  1.00  0.00    -0.454 OA
ATOM     12  C   UNL A   1      33.505  23.117  25.308  1.00  0.00     0.056 A 
BRANCH   9  13
ATOM     13  C   UNL A   1      33.465  25.071  22.162  1.00  0.00     0.193 C 
BRANCH  13  14
ATOM     14  N   UNL A   1      33.655  26.473  22.472  1.00  0.00    -0.331 N 
ATOM     15  O   UNL A   1      33.226  28.635  22.671  1.00  0.00    -0.248 OA
ATOM     16  C   UNL A   1      32.773  27.495  22.603  1.00  0.00     0.319 C 
ATOM     17  N   UNL A   1      31.451  27.159  22.676  1.00  0.00    -0.308 N 
ATOM     18  H   UNL A   1      34.595  26.730  22.614  1.00  0.00     0.165 HD
ATOM     19  H   UNL A   1      31.242  26.198  22.736  1.00  0.00     0.171 HD
BRANCH  17  20
ATOM     20  C   UNL A   1      30.352  28.045  22.675  1.00  0.00     0.044 A 
ATOM     21  C   UNL A   1      30.566  29.334  22.166  1.00  0.00     0.029 A 
ATOM     22  C   UNL A   1      29.084  27.707  23.163  1.00  0.00     0.049 A 
ATOM     23  C   UNL A   1      29.520  30.259  22.111  1.00  0.00     0.043 A 
ATOM     24  C   UNL A   1      28.041  28.636  23.116  1.00  0.00     0.078 A 
ATOM     25  C   UNL A   1      28.262  29.904  22.584  1.00  0.00     0.141 A 
ATOM     26  Cl  UNL A   1      26.487  28.203  23.720  1.00  0.00    -0.081 Cl
ATOM     27  F   UNL A   1      27.271  30.804  22.515  1.00  0.00    -0.205 F 
ENDBRANCH  17  20
ENDBRANCH  13  14
ENDBRANCH   9  13
ENDBRANCH   5   8
ENDBRANCH   3   4
ENDBRANCH   2   3
ENDBRANCH   1   2
BRANCH   1  28
ATOM     28  C   UNL A   1      31.897  30.499  26.135  1.00  0.00     0.002 C 
BRANCH  28  29
ATOM     29  C   UNL A   1      31.745  31.873  26.796  1.00  0.00     0.021 C 
BRANCH  29  30
ATOM     30  C   UNL A   1      33.024  32.421  27.420  1.00  0.00     0.116 C 
BRANCH  30  31
ATOM     31  N   UNL A   1      32.887  33.819  27.790  1.00  0.00    -0.352 N 
ATOM     32  C   UNL A   1      33.510  34.520  28.793  1.00  0.00     0.251 C 
ATOM     33  H   UNL A   1      32.257  34.340  27.243  1.00  0.00     0.163 HD
ATOM     34  O   UNL A   1      33.106  35.639  29.092  1.00  0.00    -0.269 OA
BRANCH  32  35
ATOM     35  C   UNL A   1      34.658  33.927  29.516  1.00  0.00     0.039 A 
ATOM     36  C   UNL A   1      35.953  34.227  29.087  1.00  0.00     0.014 A 
ATOM     37  C   UNL A   1      34.461  33.044  30.581  1.00  0.00     0.014 A 
ATOM     38  C   UNL A   1      37.051  33.671  29.748  1.00  0.00     0.010 A 
ATOM     39  C   UNL A   1      35.556  32.545  31.284  1.00  0.00     0.010 A 
ATOM     40  C   UNL A   1      36.862  32.838  30.862  1.00  0.00    -0.014 A 
BRANCH  40  41
ATOM     41  C   UNL A   1      38.017  32.235  31.574  1.00  0.00     0.031 A 
ATOM     42  C   UNL A   1      38.433  32.767  32.921  1.00  0.00     0.074 A 
ATOM     43  C   UNL A   1      38.719  31.242  30.994  1.00  0.00     0.049 A 
ATOM     44  N   UNL A   1      39.434  32.399  33.681  1.00  0.00    -0.248 NA
ATOM     45  C   UNL A   1      37.637  33.875  33.474  1.00  0.00     0.031 C 
ATOM     46  C   UNL A   1      38.442  30.666  29.676  1.00  0.00     0.029 A 
ATOM     47  N   UNL A   1      39.813  30.542  31.439  1.00  0.00    -0.354 N 
ATOM     48  C   UNL A   1      39.398  33.238  34.788  1.00  0.00     0.074 A 
ATOM     49  C   UNL A   1      38.310  34.168  34.577  1.00  0.00     0.031 C 
ATOM     50  C   UNL A   1      39.325  29.683  29.433  1.00  0.00     0.029 A 
ATOM     51  C   UNL A   1      40.248  29.581  30.557  1.00  0.00     0.049 A 
ATOM     52  H   UNL A   1      40.245  30.712  32.306  1.00  0.00     0.167 HD
ATOM     53  C   UNL A   1      40.184  33.225  35.892  1.00  0.00     0.031 A 
ATOM     54  C   UNL A   1      41.275  28.714  30.645  1.00  0.00     0.031 A 
ATOM     55  C   UNL A   1      41.254  32.289  36.107  1.00  0.00     0.049 A 
ATOM     56  C   UNL A   1      42.127  28.708  31.886  1.00  0.00     0.074 A 
ATOM     57  C   UNL A   1      42.075  32.159  37.213  1.00  0.00     0.029 A 
ATOM     58  N   UNL A   1      41.648  31.316  35.200  1.00  0.00    -0.354 N 
ATOM     59  N   UNL A   1      42.041  29.475  32.947  1.00  0.00    -0.248 NA
ATOM     60  C   UNL A   1      43.201  27.707  31.948  1.00  0.00     0.031 C 
ATOM     61  C   UNL A   1      42.996  31.135  36.956  1.00  0.00     0.029 A 
ATOM     62  C   UNL A   1      42.709  30.592  35.714  1.00  0.00     0.049 A 
ATOM     63  H   UNL A   1      41.233  31.163  34.320  1.00  0.00     0.167 HD
ATOM     64  C   UNL A   1      43.030  29.026  33.817  1.00  0.00     0.074 A 
ATOM     65  C   UNL A   1      43.691  27.917  33.161  1.00  0.00     0.031 C 
ATOM     66  C   UNL A   1      43.357  29.489  35.049  1.00  0.00     0.031 A 
BRANCH  53  67
ATOM     67  C   UNL A   1      39.913  34.265  36.949  1.00  0.00    -0.014 A 
ATOM     68  C   UNL A   1      40.569  35.509  36.930  1.00  0.00     0.010 A 
ATOM     69  C   UNL A   1      38.970  34.005  37.961  1.00  0.00     0.010 A 
ATOM     70  C   UNL A   1      40.324  36.455  37.929  1.00  0.00     0.020 A 
ATOM     71  C   UNL A   1      38.702  34.960  38.946  1.00  0.00     0.020 A 
ATOM     72  C   UNL A   1      39.395  36.172  38.934  1.00  0.00     0.054 A 
BRANCH  72  73
ATOM     73  S   UNL A   1      39.088  37.421  40.213  1.00  0.00     0.124 S 
ATOM     74  O   UNL A   1      38.165  38.326  39.532  1.00  0.00    -0.237 OA
ATOM     75  O   UNL A   1      38.509  36.633  41.298  1.00  0.00    -0.237 OA
ATOM     76  O   UNL A   1      40.414  37.972  40.485  1.00  0.00    -0.744 OA
ENDBRANCH  72  73
ENDBRANCH  53  67
BRANCH  54  77
ATOM     77  C   UNL A   1      41.535  27.758  29.535  1.00  0.00    -0.014 A 
ATOM     78  C   UNL A   1      42.571  27.996  28.615  1.00  0.00     0.010 A 
ATOM     79  C   UNL A   1      40.756  26.593  29.402  1.00  0.00     0.010 A 
ATOM     80  C   UNL A   1      42.814  27.098  27.571  1.00  0.00     0.020 A 
ATOM     81  C   UNL A   1      41.013  25.680  28.375  1.00  0.00     0.020 A 
ATOM     82  C   UNL A   1      42.033  25.944  27.460  1.00  0.00     0.054 A 
BRANCH  82  83
ATOM     83  S   UNL A   1      42.399  24.765  26.130  1.00  0.00     0.124 S 
ATOM     84  O   UNL A   1      42.077  25.542  24.937  1.00  0.00    -0.237 OA
ATOM     85  O   UNL A   1      43.817  24.482  26.339  1.00  0.00    -0.237 OA
ATOM     86  O   UNL A   1      41.502  23.645  26.411  1.00  0.00    -0.744 OA
ENDBRANCH  82  83
ENDBRANCH  54  77
BRANCH  66  87
ATOM     87  C   UNL A   1      44.451  28.769  35.790  1.00  0.00    -0.014 A 
ATOM     88  C   UNL A   1      45.795  29.168  35.681  1.00  0.00     0.010 A 
ATOM     89  C   UNL A   1      44.120  27.699  36.642  1.00  0.00     0.010 A 
ATOM     90  C   UNL A   1      46.792  28.484  36.382  1.00  0.00     0.020 A 
ATOM     91  C   UNL A   1      45.111  27.031  37.364  1.00  0.00     0.020 A 
ATOM     92  C   UNL A   1      46.444  27.418  37.216  1.00  0.00     0.054 A 
BRANCH  92  93
ATOM     93  S   UNL A   1      47.753  26.564  38.137  1.00  0.00     0.124 S 
ATOM     94  O   UNL A   1      47.634  27.168  39.461  1.00  0.00    -0.237 OA
ATOM     95  O   UNL A   1      47.350  25.163  38.046  1.00  0.00    -0.237 OA
ATOM     96  O   UNL A   1      48.970  26.904  37.403  1.00  0.00    -0.744 OA
ENDBRANCH  92  93
ENDBRANCH  66  87
ENDBRANCH  40  41
ENDBRANCH  32  35
ENDBRANCH  30  31
ENDBRANCH  29  30
ENDBRANCH  28  29
ENDBRANCH   1  28
TORSDOF 19
ENDMDL
MODEL 2
REMARK VINA RESULT:     -11.2      6.131     11.550
REMARK SMILES O=C(NCc1ccc(C(=O)NCCCCCCNC(=O)c2ccc(-c3c4nc(c(-c5ccc(S(=O)(=O)[O-])cc5)c5ccc([nH]5)c(-c5ccc(S(=O)(=O)[O-])cc5)c5nc(c(-c6ccc(S(=O)(=O)[O-])cc6)c6ccc3[nH]6)C=C5)C=C4)cc2)o1)Nc1ccc(F)c(Cl)c1
REMARK SMILES IDX 14 1 13 2 12 3 11 4 9 5 10 6 8 8 5 9 6 10 81 11 7 12 4 13
REMARK SMILES IDX 3 14 1 15 2 16 82 17 83 20 84 21 90 22 85 23 88 24 86 25
REMARK SMILES IDX 89 26 87 27 15 28 16 29 17 30 18 31 19 32 20 34 21 35 22 36
REMARK SMILES IDX 80 37 23 38 79 39 24 40 25 41 26 42 73 43 27 44 78 45 72 46
REMARK SMILES IDX 74 47 28 48 77 49 71 50 70 51 29 53 59 54 40 55 58 56 41 57
REMARK SMILES IDX 44 58 57 59 75 60 42 61 43 62 56 64 76 65 45 66 30 67 31 68
REMARK SMILES IDX 39 69 32 70 38 71 33 72 34 73 35 74 36 75 37 76 60 77 61 78
REMARK SMILES IDX 69 79 62 80 68 81 63 82 64 83 65 84 66 85 67 86 46 87 47 88
REMARK SMILES IDX 55 89 48 90 54 91 49 92 50 93 51 94 52 95 53 96
REMARK H PARENT 11 7 3 18 82 19 18 33 74 52 44 63
REMARK Flexibility Score: inf
ROOT
ATOM      1  C   UNL A   1      38.550  23.765  26.448  1.00  0.00     0.002 C 
ENDROOT
BRANCH   1   2
ATOM      2  C   UNL A   1      37.481  23.231  25.484  1.00  0.00     0.021 C 
BRANCH   2   3
ATOM      3  C   UNL A   1      36.097  23.093  26.119  1.00  0.00     0.116 C 
BRANCH   3   4
ATOM      4  N   UNL A   1      35.524  21.795  25.838  1.00  0.00    -0.349 N 
ATOM      5  C   UNL A   1      34.618  21.368  24.899  1.00  0.00     0.286 C 
ATOM      6  O   UNL A   1      34.400  20.153  24.899  1.00  0.00    -0.266 OA
ATOM      7  H   UNL A   1      35.846  21.081  26.434  1.00  0.00     0.163 HD
BRANCH   5   8
ATOM      8  C   UNL A   1      33.976  22.275  23.960  1.00  0.00     0.191 A 
ATOM      9  C   UNL A   1      32.207  23.428  23.273  1.00  0.00     0.124 A 
ATOM     10  C   UNL A   1      33.214  23.709  22.382  1.00  0.00     0.048 A 
ATOM     11  O   UNL A   1      32.652  22.554  24.214  1.00  0.00    -0.454 OA
ATOM     12  C   UNL A   1      34.354  22.997  22.840  1.00  0.00     0.056 A 
BRANCH   9  13
ATOM     13  C   UNL A   1      30.810  23.899  23.431  1.00  0.00     0.193 C 
BRANCH  13  14
ATOM     14  N   UNL A   1      30.607  24.211  24.830  1.00  0.00    -0.331 N 
ATOM     15  O   UNL A   1      30.873  25.170  26.807  1.00  0.00    -0.248 OA
ATOM     16  C   UNL A   1      31.018  25.257  25.590  1.00  0.00     0.319 C 
ATOM     17  N   UNL A   1      31.535  26.333  24.925  1.00  0.00    -0.308 N 
ATOM     18  H   UNL A   1      30.071  23.544  25.318  1.00  0.00     0.165 HD
ATOM     19  H   UNL A   1      31.472  26.316  23.943  1.00  0.00     0.171 HD
BRANCH  17  20
ATOM     20  C   UNL A   1      32.149  27.467  25.500  1.00  0.00     0.044 A 
ATOM     21  C   UNL A   1      33.448  27.309  26.003  1.00  0.00     0.029 A 
ATOM     22  C   UNL A   1      31.526  28.717  25.602  1.00  0.00     0.049 A 
ATOM     23  C   UNL A   1      34.128  28.391  26.566  1.00  0.00     0.043 A 
ATOM     24  C   UNL A   1      32.204  29.796  26.173  1.00  0.00     0.078 A 
ATOM     25  C   UNL A   1      33.503  29.630  26.645  1.00  0.00     0.141 A 
ATOM     26  Cl  UNL A   1      31.422  31.327  26.290  1.00  0.00    -0.081 Cl
ATOM     27  F   UNL A   1      34.177  30.658  27.183  1.00  0.00    -0.205 F 
ENDBRANCH  17  20
ENDBRANCH  13  14
ENDBRANCH   9  13
ENDBRANCH   5   8
ENDBRANCH   3   4
ENDBRANCH   2   3
ENDBRANCH   1   2
BRANCH   1  28
ATOM     28  C   UNL A   1      39.668  22.774  26.802  1.00  0.00     0.002 C 
BRANCH  28  29
ATOM     29  C   UNL A   1      39.621  21.440  26.050  1.00  0.00     0.021 C 
BRANCH  29  30
ATOM     30  C   UNL A   1      40.099  20.239  26.860  1.00  0.00     0.116 C 
BRANCH  30  31
ATOM     31  N   UNL A   1      41.174  19.530  26.188  1.00  0.00    -0.352 N 
ATOM     32  C   UNL A   1      42.365  20.009  25.702  1.00  0.00     0.251 C 
ATOM     33  H   UNL A   1      41.028  18.565  26.063  1.00  0.00     0.163 HD
ATOM     34  O   UNL A   1      43.052  19.302  24.972  1.00  0.00    -0.269 OA
BRANCH  32  35
ATOM     35  C   UNL A   1      42.815  21.377  26.049  1.00  0.00     0.039 A 
ATOM     36  C   UNL A   1      42.914  22.331  25.034  1.00  0.00     0.014 A 
ATOM     37  C   UNL A   1      43.181  21.706  27.357  1.00  0.00     0.014 A 
ATOM     38  C   UNL A   1      43.346  23.625  25.336  1.00  0.00     0.010 A 
ATOM     39  C   UNL A   1      43.544  23.014  27.670  1.00  0.00     0.010 A 
ATOM     40  C   UNL A   1      43.650  23.982  26.660  1.00  0.00    -0.014 A 
BRANCH  40  41
ATOM     41  C   UNL A   1      44.113  25.351  26.998  1.00  0.00     0.031 A 
ATOM     42  C   UNL A   1      45.545  25.746  26.744  1.00  0.00     0.074 A 
ATOM     43  C   UNL A   1      43.263  26.226  27.570  1.00  0.00     0.049 A 
ATOM     44  N   UNL A   1      46.147  26.879  27.004  1.00  0.00    -0.248 NA
ATOM     45  C   UNL A   1      46.421  24.725  26.146  1.00  0.00     0.031 C 
ATOM     46  C   UNL A   1      41.863  25.953  27.903  1.00  0.00     0.029 A 
ATOM     47  N   UNL A   1      43.453  27.522  27.977  1.00  0.00    -0.354 N 
ATOM     48  C   UNL A   1      47.472  26.702  26.619  1.00  0.00     0.074 A 
ATOM     49  C   UNL A   1      47.597  25.336  26.158  1.00  0.00     0.031 C 
ATOM     50  C   UNL A   1      41.315  27.057  28.437  1.00  0.00     0.029 A 
ATOM     51  C   UNL A   1      42.330  28.102  28.516  1.00  0.00     0.049 A 
ATOM     52  H   UNL A   1      44.314  27.993  27.892  1.00  0.00     0.167 HD
ATOM     53  C   UNL A   1      48.487  27.598  26.628  1.00  0.00     0.031 A 
ATOM     54  C   UNL A   1      42.136  29.338  29.016  1.00  0.00     0.031 A 
ATOM     55  C   UNL A   1      48.356  28.960  27.071  1.00  0.00     0.049 A 
ATOM     56  C   UNL A   1      43.275  30.322  29.003  1.00  0.00     0.074 A 
ATOM     57  C   UNL A   1      49.311  29.961  27.072  1.00  0.00     0.029 A 
ATOM     58  N   UNL A   1      47.194  29.514  27.588  1.00  0.00    -0.354 N 
ATOM     59  N   UNL A   1      44.506  30.151  28.582  1.00  0.00    -0.248 NA
ATOM     60  C   UNL A   1      42.993  31.670  29.514  1.00  0.00     0.031 C 
ATOM     61  C   UNL A   1      48.739  31.110  27.630  1.00  0.00     0.029 A 
ATOM     62  C   UNL A   1      47.412  30.839  27.924  1.00  0.00     0.049 A 
ATOM     63  H   UNL A   1      46.341  29.036  27.699  1.00  0.00     0.167 HD
ATOM     64  C   UNL A   1      45.136  31.380  28.749  1.00  0.00     0.074 A 
ATOM     65  C   UNL A   1      44.146  32.285  29.297  1.00  0.00     0.031 C 
ATOM     66  C   UNL A   1      46.416  31.728  28.468  1.00  0.00     0.031 A 
BRANCH  53  67
ATOM     67  C   UNL A   1      49.835  27.124  26.145  1.00  0.00    -0.014 A 
ATOM     68  C   UNL A   1      50.277  27.401  24.839  1.00  0.00     0.010 A 
ATOM     69  C   UNL A   1      50.681  26.416  27.018  1.00  0.00     0.010 A 
ATOM     70  C   UNL A   1      51.519  26.936  24.398  1.00  0.00     0.020 A 
ATOM     71  C   UNL A   1      51.937  25.975  26.589  1.00  0.00     0.020 A 
ATOM     72  C   UNL A   1      52.339  26.221  25.275  1.00  0.00     0.054 A 
BRANCH  72  73
ATOM     73  S   UNL A   1      53.951  25.639  24.681  1.00  0.00     0.124 S 
ATOM     74  O   UNL A   1      53.844  24.197  24.890  1.00  0.00    -0.237 OA
ATOM     75  O   UNL A   1      53.954  26.074  23.286  1.00  0.00    -0.237 OA
ATOM     76  O   UNL A   1      54.908  26.325  25.546  1.00  0.00    -0.744 OA
ENDBRANCH  72  73
ENDBRANCH  53  67
BRANCH  54  77
ATOM     77  C   UNL A   1      40.799  29.724  29.543  1.00  0.00    -0.014 A 
ATOM     78  C   UNL A   1      39.759  30.074  28.665  1.00  0.00     0.010 A 
ATOM     79  C   UNL A   1      40.555  29.728  30.929  1.00  0.00     0.010 A 
ATOM     80  C   UNL A   1      38.503  30.438  29.161  1.00  0.00     0.020 A 
ATOM     81  C   UNL A   1      39.293  30.066  31.427  1.00  0.00     0.020 A 
ATOM     82  C   UNL A   1      38.279  30.430  30.540  1.00  0.00     0.054 A 
BRANCH  82  83
ATOM     83  S   UNL A   1      36.627  30.854  31.161  1.00  0.00     0.124 S 
ATOM     84  O   UNL A   1      35.879  31.052  29.923  1.00  0.00    -0.237 OA
ATOM     85  O   UNL A   1      36.268  29.670  31.936  1.00  0.00    -0.237 OA
ATOM     86  O   UNL A   1      36.860  32.060  31.954  1.00  0.00    -0.744 OA
ENDBRANCH  82  83
ENDBRANCH  54  77
BRANCH  66  87
ATOM     87  C   UNL A   1      46.811  33.161  28.708  1.00  0.00    -0.014 A 
ATOM     88  C   UNL A   1      46.541  34.163  27.760  1.00  0.00     0.010 A 
ATOM     89  C   UNL A   1      47.425  33.513  29.924  1.00  0.00     0.010 A 
ATOM     90  C   UNL A   1      46.914  35.487  28.008  1.00  0.00     0.020 A 
ATOM     91  C   UNL A   1      47.775  34.840  30.187  1.00  0.00     0.020 A 
ATOM     92  C   UNL A   1      47.532  35.816  29.218  1.00  0.00     0.054 A 
BRANCH  92  93
ATOM     93  S   UNL A   1      47.982  37.546  29.529  1.00  0.00     0.124 S 
ATOM     94  O   UNL A   1      48.714  37.446  30.789  1.00  0.00    -0.237 OA
ATOM     95  O   UNL A   1      48.786  37.885  28.359  1.00  0.00    -0.237 OA
ATOM     96  O   UNL A   1      46.692  38.228  29.609  1.00  0.00    -0.744 OA
ENDBRANCH  92  93
ENDBRANCH  66  87
ENDBRANCH  40  41
ENDBRANCH  32  35
ENDBRANCH  30  31
ENDBRANCH  29  30
ENDBRANCH  28  29
ENDBRANCH   1  28
TORSDOF 19
ENDMDL
MODEL 3
REMARK VINA RESULT:     -11.1      2.617      8.802
REMARK SMILES O=C(NCc1ccc(C(=O)NCCCCCCNC(=O)c2ccc(-c3c4nc(c(-c5ccc(S(=O)(=O)[O-])cc5)c5ccc([nH]5)c(-c5ccc(S(=O)(=O)[O-])cc5)c5nc(c(-c6ccc(S(=O)(=O)[O-])cc6)c6ccc3[nH]6)C=C5)C=C4)cc2)o1)Nc1ccc(F)c(Cl)c1
REMARK SMILES IDX 14 1 13 2 12 3 11 4 9 5 10 6 8 8 5 9 6 10 81 11 7 12 4 13
REMARK SMILES IDX 3 14 1 15 2 16 82 17 83 20 84 21 90 22 85 23 88 24 86 25
REMARK SMILES IDX 89 26 87 27 15 28 16 29 17 30 18 31 19 32 20 34 21 35 22 36
REMARK SMILES IDX 80 37 23 38 79 39 24 40 25 41 26 42 73 43 27 44 78 45 72 46
REMARK SMILES IDX 74 47 28 48 77 49 71 50 70 51 29 53 59 54 40 55 58 56 41 57
REMARK SMILES IDX 44 58 57 59 75 60 42 61 43 62 56 64 76 65 45 66 30 67 31 68
REMARK SMILES IDX 39 69 32 70 38 71 33 72 34 73 35 74 36 75 37 76 60 77 61 78
REMARK SMILES IDX 69 79 62 80 68 81 63 82 64 83 65 84 66 85 67 86 46 87 47 88
REMARK SMILES IDX 55 89 48 90 54 91 49 92 50 93 51 94 52 95 53 96
REMARK H PARENT 11 7 3 18 82 19 18 33 74 52 44 63
REMARK Flexibility Score: inf
ROOT
ATOM      1  C   UNL A   1      39.750  22.124  26.188  1.00  0.00     0.002 C 
ENDROOT
BRANCH   1   2
ATOM      2  C   UNL A   1      38.582  23.120  26.210  1.00  0.00     0.021 C 
BRANCH   2   3
ATOM      3  C   UNL A   1      37.296  22.568  25.594  1.00  0.00     0.116 C 
BRANCH   3   4
ATOM      4  N   UNL A   1      36.196  22.648  26.531  1.00  0.00    -0.349 N 
ATOM      5  C   UNL A   1      34.839  22.755  26.356  1.00  0.00     0.286 C 
ATOM      6  O   UNL A   1      34.175  22.728  27.397  1.00  0.00    -0.266 OA
ATOM      7  H   UNL A   1      36.475  22.620  27.475  1.00  0.00     0.163 HD
BRANCH   5   8
ATOM      8  C   UNL A   1      34.224  22.871  25.043  1.00  0.00     0.191 A 
ATOM      9  C   UNL A   1      32.577  23.561  23.723  1.00  0.00     0.124 A 
ATOM     10  C   UNL A   1      33.488  22.940  22.903  1.00  0.00     0.048 A 
ATOM     11  O   UNL A   1      33.005  23.508  25.012  1.00  0.00    -0.454 OA
ATOM     12  C   UNL A   1      34.556  22.528  23.743  1.00  0.00     0.056 A 
BRANCH   9  13
ATOM     13  C   UNL A   1      31.303  24.280  23.488  1.00  0.00     0.193 C 
BRANCH  13  14
ATOM     14  N   UNL A   1      31.624  25.565  22.901  1.00  0.00    -0.331 N 
ATOM     15  O   UNL A   1      32.033  27.734  22.742  1.00  0.00    -0.248 OA
ATOM     16  C   UNL A   1      32.026  26.735  23.457  1.00  0.00     0.319 C 
ATOM     17  N   UNL A   1      32.416  26.691  24.766  1.00  0.00    -0.308 N 
ATOM     18  H   UNL A   1      31.534  25.593  21.921  1.00  0.00     0.165 HD
ATOM     19  H   UNL A   1      32.479  25.799  25.177  1.00  0.00     0.171 HD
BRANCH  17  20
ATOM     20  C   UNL A   1      32.739  27.791  25.589  1.00  0.00     0.044 A 
ATOM     21  C   UNL A   1      31.725  28.727  25.839  1.00  0.00     0.029 A 
ATOM     22  C   UNL A   1      34.007  27.996  26.147  1.00  0.00     0.049 A 
ATOM     23  C   UNL A   1      31.963  29.830  26.662  1.00  0.00     0.043 A 
ATOM     24  C   UNL A   1      34.246  29.104  26.963  1.00  0.00     0.078 A 
ATOM     25  C   UNL A   1      33.222  30.011  27.223  1.00  0.00     0.141 A 
ATOM     26  Cl  UNL A   1      35.812  29.339  27.641  1.00  0.00    -0.081 Cl
ATOM     27  F   UNL A   1      33.426  31.072  28.017  1.00  0.00    -0.205 F 
ENDBRANCH  17  20
ENDBRANCH  13  14
ENDBRANCH   9  13
ENDBRANCH   5   8
ENDBRANCH   3   4
ENDBRANCH   2   3
ENDBRANCH   1   2
BRANCH   1  28
ATOM     28  C   UNL A   1      40.428  21.879  27.543  1.00  0.00     0.002 C 
BRANCH  28  29
ATOM     29  C   UNL A   1      41.958  21.828  27.509  1.00  0.00     0.021 C 
BRANCH  29  30
ATOM     30  C   UNL A   1      42.641  23.190  27.570  1.00  0.00     0.116 C 
BRANCH  30  31
ATOM     31  N   UNL A   1      42.474  23.933  26.332  1.00  0.00    -0.352 N 
ATOM     32  C   UNL A   1      41.959  25.189  26.133  1.00  0.00     0.251 C 
ATOM     33  H   UNL A   1      42.773  23.467  25.519  1.00  0.00     0.163 HD
ATOM     34  O   UNL A   1      41.697  25.564  24.994  1.00  0.00    -0.269 OA
BRANCH  32  35
ATOM     35  C   UNL A   1      41.714  26.086  27.285  1.00  0.00     0.039 A 
ATOM     36  C   UNL A   1      42.562  27.179  27.481  1.00  0.00     0.014 A 
ATOM     37  C   UNL A   1      40.683  25.829  28.193  1.00  0.00     0.014 A 
ATOM     38  C   UNL A   1      42.355  28.033  28.567  1.00  0.00     0.010 A 
ATOM     39  C   UNL A   1      40.434  26.720  29.235  1.00  0.00     0.010 A 
ATOM     40  C   UNL A   1      41.279  27.820  29.445  1.00  0.00    -0.014 A 
BRANCH  40  41
ATOM     41  C   UNL A   1      41.047  28.716  30.606  1.00  0.00     0.031 A 
ATOM     42  C   UNL A   1      41.901  28.586  31.840  1.00  0.00     0.074 A 
ATOM     43  C   UNL A   1      40.045  29.616  30.569  1.00  0.00     0.049 A 
ATOM     44  N   UNL A   1      41.829  29.249  32.967  1.00  0.00    -0.248 NA
ATOM     45  C   UNL A   1      42.954  27.558  31.816  1.00  0.00     0.031 C 
ATOM     46  C   UNL A   1      39.123  29.813  29.448  1.00  0.00     0.029 A 
ATOM     47  N   UNL A   1      39.632  30.532  31.503  1.00  0.00    -0.354 N 
ATOM     48  C   UNL A   1      42.812  28.708  33.788  1.00  0.00     0.074 A 
ATOM     49  C   UNL A   1      43.431  27.628  33.050  1.00  0.00     0.031 C 
ATOM     50  C   UNL A   1      38.272  30.807  29.750  1.00  0.00     0.029 A 
ATOM     51  C   UNL A   1      38.564  31.294  31.094  1.00  0.00     0.049 A 
ATOM     52  H   UNL A   1      40.059  30.634  32.384  1.00  0.00     0.167 HD
ATOM     53  C   UNL A   1      43.183  29.088  35.034  1.00  0.00     0.031 A 
ATOM     54  C   UNL A   1      37.894  32.276  31.728  1.00  0.00     0.031 A 
ATOM     55  C   UNL A   1      42.579  30.173  35.759  1.00  0.00     0.049 A 
ATOM     56  C   UNL A   1      38.332  32.691  33.107  1.00  0.00     0.074 A 
ATOM     57  C   UNL A   1      42.915  30.670  37.006  1.00  0.00     0.029 A 
ATOM     58  N   UNL A   1      41.514  30.935  35.299  1.00  0.00    -0.354 N 
ATOM     59  N   UNL A   1      39.301  32.203  33.845  1.00  0.00    -0.248 NA
ATOM     60  C   UNL A   1      37.598  33.800  33.730  1.00  0.00     0.031 C 
ATOM     61  C   UNL A   1      42.026  31.705  37.319  1.00  0.00     0.029 A 
ATOM     62  C   UNL A   1      41.172  31.888  36.242  1.00  0.00     0.049 A 
ATOM     63  H   UNL A   1      41.068  30.815  34.429  1.00  0.00     0.167 HD
ATOM     64  C   UNL A   1      39.313  32.969  35.006  1.00  0.00     0.074 A 
ATOM     65  C   UNL A   1      38.263  33.957  34.865  1.00  0.00     0.031 C 
ATOM     66  C   UNL A   1      40.125  32.865  36.088  1.00  0.00     0.031 A 
BRANCH  53  67
ATOM     67  C   UNL A   1      44.296  28.314  35.693  1.00  0.00    -0.014 A 
ATOM     68  C   UNL A   1      45.629  28.758  35.627  1.00  0.00     0.010 A 
ATOM     69  C   UNL A   1      44.002  27.140  36.411  1.00  0.00     0.010 A 
ATOM     70  C   UNL A   1      46.653  28.018  36.224  1.00  0.00     0.020 A 
ATOM     71  C   UNL A   1      45.021  26.413  37.034  1.00  0.00     0.020 A 
ATOM     72  C   UNL A   1      46.343  26.847  36.920  1.00  0.00     0.054 A 
BRANCH  72  73
ATOM     73  S   UNL A   1      47.690  25.912  37.694  1.00  0.00     0.124 S 
ATOM     74  O   UNL A   1      48.268  25.213  36.548  1.00  0.00    -0.237 OA
ATOM     75  O   UNL A   1      48.522  26.965  38.271  1.00  0.00    -0.237 OA
ATOM     76  O   UNL A   1      47.008  25.059  38.665  1.00  0.00    -0.744 OA
ENDBRANCH  72  73
ENDBRANCH  53  67
BRANCH  54  77
ATOM     77  C   UNL A   1      36.757  32.956  31.050  1.00  0.00    -0.014 A 
ATOM     78  C   UNL A   1      36.966  33.696  29.873  1.00  0.00     0.010 A 
ATOM     79  C   UNL A   1      35.454  32.854  31.572  1.00  0.00     0.010 A 
ATOM     80  C   UNL A   1      35.897  34.336  29.238  1.00  0.00     0.020 A 
ATOM     81  C   UNL A   1      34.379  33.471  30.925  1.00  0.00     0.020 A 
ATOM     82  C   UNL A   1      34.610  34.217  29.769  1.00  0.00     0.054 A 
BRANCH  82  83
ATOM     83  S   UNL A   1      33.229  35.011  28.900  1.00  0.00     0.124 S 
ATOM     84  O   UNL A   1      32.276  35.232  29.982  1.00  0.00    -0.237 OA
ATOM     85  O   UNL A   1      33.851  36.212  28.348  1.00  0.00    -0.237 OA
ATOM     86  O   UNL A   1      32.833  34.014  27.907  1.00  0.00    -0.744 OA
ENDBRANCH  82  83
ENDBRANCH  54  77
BRANCH  66  87
ATOM     87  C   UNL A   1      39.938  33.875  37.189  1.00  0.00    -0.014 A 
ATOM     88  C   UNL A   1      40.434  35.185  37.074  1.00  0.00     0.010 A 
ATOM     89  C   UNL A   1      39.217  33.513  38.341  1.00  0.00     0.010 A 
ATOM     90  C   UNL A   1      40.245  36.104  38.109  1.00  0.00     0.020 A 
ATOM     91  C   UNL A   1      39.002  34.437  39.367  1.00  0.00     0.020 A 
ATOM     92  C   UNL A   1      39.533  35.723  39.251  1.00  0.00     0.054 A 
BRANCH  92  93
ATOM     93  S   UNL A   1      39.276  36.942  40.569  1.00  0.00     0.124 S 
ATOM     94  O   UNL A   1      40.553  36.899  41.275  1.00  0.00    -0.237 OA
ATOM     95  O   UNL A   1      39.010  38.170  39.824  1.00  0.00    -0.237 OA
ATOM     96  O   UNL A   1      38.133  36.413  41.311  1.00  0.00    -0.744 OA
ENDBRANCH  92  93
ENDBRANCH  66  87
ENDBRANCH  40  41
ENDBRANCH  32  35
ENDBRANCH  30  31
ENDBRANCH  29  30
ENDBRANCH  28  29
ENDBRANCH   1  28
TORSDOF 19
ENDMDL
