MODEL 1
REMARK VINA RESULT:     -11.5      0.000      0.000
REMARK SMILES CN1C(=O)C[C@@H](C(=O)NCCCCCCNC(=O)c2ccc(-c3c4nc(c(-c5ccc(S(=O)(=O)[O-])cc5)c5ccc([nH]5)c(-c5ccc(S(=O)(=O)[O-])cc5)c5nc(c(-c6ccc(S(=O)(=O)[O-])cc6)c6ccc3[nH]6)C=C5)C=C4)cc2)C12CC[NH+](CCSc1ccccc1)CC2
REMARK SMILES IDX 12 1 11 2 10 3 9 4 7 5 8 6 6 8 1 9 2 10 3 11 79 12 4 13 5 14
REMARK SMILES IDX 80 15 93 16 81 17 92 18 82 19 83 21 84 22 85 23 86 24 87 25
REMARK SMILES IDX 91 26 88 27 90 28 89 29 13 30 14 31 15 32 16 33 17 34 18 36
REMARK SMILES IDX 19 37 20 38 78 39 21 40 77 41 22 42 23 43 24 44 71 45 25 46
REMARK SMILES IDX 76 47 70 48 72 49 26 50 75 51 69 52 68 53 27 55 57 56 38 57
REMARK SMILES IDX 56 58 39 59 42 60 55 61 73 62 40 63 41 64 54 66 74 67 43 68
REMARK SMILES IDX 28 69 29 70 37 71 30 72 36 73 31 74 32 75 33 76 34 77 35 78
REMARK SMILES IDX 58 79 59 80 67 81 60 82 66 83 61 84 62 85 63 86 64 87 65 88
REMARK SMILES IDX 44 89 45 90 53 91 46 92 52 93 47 94 48 95 49 96 50 97 51 98
REMARK H PARENT 9 7 82 20 16 35 72 54 42 65
REMARK Flexibility Score: inf
ROOT
ATOM      1  C   UNL A   1      38.059  22.374  25.856  1.00  0.00     0.002 C 
ENDROOT
BRANCH   1   2
ATOM      2  C   UNL A   1      37.395  21.772  24.623  1.00  0.00     0.021 C 
BRANCH   2   3
ATOM      3  C   UNL A   1      35.888  21.652  24.773  1.00  0.00     0.116 C 
BRANCH   3   4
ATOM      4  N   UNL A   1      35.512  21.641  26.164  1.00  0.00    -0.356 N 
ATOM      5  C   UNL A   1      34.312  21.846  26.743  1.00  0.00     0.226 C 
ATOM      6  O   UNL A   1      34.282  21.930  27.974  1.00  0.00    -0.275 OA
ATOM      7  H   UNL A   1      36.248  21.455  26.791  1.00  0.00     0.163 HD
BRANCH   5   8
ATOM      8  C   UNL A   1      33.026  21.961  25.957  1.00  0.00     0.114 C 
ATOM      9  C   UNL A   1      32.910  23.198  22.379  1.00  0.00     0.147 C 
ATOM     10  N   UNL A   1      32.941  22.507  23.662  1.00  0.00    -0.339 N 
ATOM     11  C   UNL A   1      32.665  21.147  23.717  1.00  0.00     0.223 C 
ATOM     12  C   UNL A   1      32.811  23.158  24.987  1.00  0.00     0.065 C 
ATOM     13  O   UNL A   1      32.481  20.404  22.757  1.00  0.00    -0.275 OA
ATOM     14  C   UNL A   1      32.628  20.710  25.155  1.00  0.00     0.116 C 
ATOM     15  C   UNL A   1      33.721  24.412  25.136  1.00  0.00     0.091 C 
ATOM     16  C   UNL A   1      31.339  23.530  25.191  1.00  0.00     0.091 C 
ATOM     17  C   UNL A   1      33.204  25.591  25.978  1.00  0.00     0.264 C 
ATOM     18  C   UNL A   1      31.137  24.503  26.333  1.00  0.00     0.264 C 
ATOM     19  N   UNL A   1      31.760  25.758  26.026  1.00  0.00    -0.334 N 
ATOM     20  H   UNL A   1      31.597  26.399  26.804  1.00  0.00     0.348 HD
BRANCH  19  21
ATOM     21  C   UNL A   1      31.084  26.642  25.063  1.00  0.00     0.273 C 
BRANCH  21  22
ATOM     22  C   UNL A   1      31.694  27.933  24.416  1.00  0.00     0.136 C 
BRANCH  22  23
ATOM     23  S   UNL A   1      31.448  29.634  25.157  1.00  0.00    -0.120 SA
BRANCH  23  24
ATOM     24  C   UNL A   1      32.859  29.994  26.197  1.00  0.00     0.007 A 
ATOM     25  C   UNL A   1      32.978  31.136  26.999  1.00  0.00     0.015 A 
ATOM     26  C   UNL A   1      33.919  29.073  26.193  1.00  0.00     0.015 A 
ATOM     27  C   UNL A   1      34.065  31.271  27.886  1.00  0.00     0.001 A 
ATOM     28  C   UNL A   1      34.980  29.188  27.098  1.00  0.00     0.001 A 
ATOM     29  C   UNL A   1      35.040  30.275  27.964  1.00  0.00     0.000 A 
ENDBRANCH  23  24
ENDBRANCH  22  23
ENDBRANCH  21  22
ENDBRANCH  19  21
ENDBRANCH   5   8
ENDBRANCH   3   4
ENDBRANCH   2   3
ENDBRANCH   1   2
BRANCH   1  30
ATOM     30  C   UNL A   1      39.563  22.100  25.941  1.00  0.00     0.002 C 
BRANCH  30  31
ATOM     31  C   UNL A   1      40.144  22.197  27.356  1.00  0.00     0.021 C 
BRANCH  31  32
ATOM     32  C   UNL A   1      41.247  23.238  27.504  1.00  0.00     0.116 C 
BRANCH  32  33
ATOM     33  N   UNL A   1      41.376  24.033  26.298  1.00  0.00    -0.352 N 
ATOM     34  C   UNL A   1      41.098  25.358  26.124  1.00  0.00     0.251 C 
ATOM     35  H   UNL A   1      41.708  23.556  25.504  1.00  0.00     0.163 HD
ATOM     36  O   UNL A   1      40.979  25.822  24.993  1.00  0.00    -0.269 OA
BRANCH  34  37
ATOM     37  C   UNL A   1      40.951  26.216  27.310  1.00  0.00     0.039 A 
ATOM     38  C   UNL A   1      39.874  26.000  28.168  1.00  0.00     0.014 A 
ATOM     39  C   UNL A   1      41.867  27.247  27.551  1.00  0.00     0.014 A 
ATOM     40  C   UNL A   1      39.712  26.825  29.276  1.00  0.00     0.010 A 
ATOM     41  C   UNL A   1      41.744  28.023  28.695  1.00  0.00     0.010 A 
ATOM     42  C   UNL A   1      40.646  27.840  29.547  1.00  0.00    -0.014 A 
BRANCH  42  43
ATOM     43  C   UNL A   1      40.445  28.754  30.693  1.00  0.00     0.031 A 
ATOM     44  C   UNL A   1      41.313  28.622  31.914  1.00  0.00     0.074 A 
ATOM     45  C   UNL A   1      39.478  29.687  30.631  1.00  0.00     0.049 A 
ATOM     46  N   UNL A   1      41.316  29.345  33.003  1.00  0.00    -0.248 NA
ATOM     47  C   UNL A   1      42.288  27.516  31.926  1.00  0.00     0.031 C 
ATOM     48  C   UNL A   1      38.549  29.871  29.513  1.00  0.00     0.029 A 
ATOM     49  N   UNL A   1      39.123  30.663  31.524  1.00  0.00    -0.354 N 
ATOM     50  C   UNL A   1      42.281  28.780  33.829  1.00  0.00     0.074 A 
ATOM     51  C   UNL A   1      42.802  27.620  33.142  1.00  0.00     0.031 C 
ATOM     52  C   UNL A   1      37.754  30.921  29.773  1.00  0.00     0.029 A 
ATOM     53  C   UNL A   1      38.099  31.466  31.081  1.00  0.00     0.049 A 
ATOM     54  H   UNL A   1      39.558  30.777  32.400  1.00  0.00     0.167 HD
ATOM     55  C   UNL A   1      42.709  29.202  35.041  1.00  0.00     0.031 A 
ATOM     56  C   UNL A   1      37.516  32.531  31.662  1.00  0.00     0.031 A 
ATOM     57  C   UNL A   1      42.194  30.367  35.708  1.00  0.00     0.049 A 
ATOM     58  C   UNL A   1      38.029  32.999  32.996  1.00  0.00     0.074 A 
ATOM     59  C   UNL A   1      42.587  30.915  36.915  1.00  0.00     0.029 A 
ATOM     60  N   UNL A   1      41.171  31.167  35.219  1.00  0.00    -0.354 N 
ATOM     61  N   UNL A   1      38.986  32.490  33.736  1.00  0.00    -0.248 NA
ATOM     62  C   UNL A   1      37.399  34.199  33.562  1.00  0.00     0.031 C 
ATOM     63  C   UNL A   1      41.774  32.024  37.176  1.00  0.00     0.029 A 
ATOM     64  C   UNL A   1      40.912  32.198  36.104  1.00  0.00     0.049 A 
ATOM     65  H   UNL A   1      40.699  31.022  34.366  1.00  0.00     0.167 HD
ATOM     66  C   UNL A   1      39.094  33.327  34.841  1.00  0.00     0.074 A 
ATOM     67  C   UNL A   1      38.115  34.379  34.663  1.00  0.00     0.031 C 
ATOM     68  C   UNL A   1      39.932  33.235  35.904  1.00  0.00     0.031 A 
BRANCH  55  69
ATOM     69  C   UNL A   1      43.787  28.397  35.717  1.00  0.00    -0.014 A 
ATOM     70  C   UNL A   1      43.473  27.442  36.701  1.00  0.00     0.010 A 
ATOM     71  C   UNL A   1      45.132  28.580  35.347  1.00  0.00     0.010 A 
ATOM     72  C   UNL A   1      44.485  26.716  37.334  1.00  0.00     0.020 A 
ATOM     73  C   UNL A   1      46.146  27.835  35.958  1.00  0.00     0.020 A 
ATOM     74  C   UNL A   1      45.817  26.921  36.961  1.00  0.00     0.054 A 
BRANCH  74  75
ATOM     75  S   UNL A   1      47.110  25.954  37.787  1.00  0.00     0.124 S 
ATOM     76  O   UNL A   1      48.141  26.961  38.013  1.00  0.00    -0.237 OA
ATOM     77  O   UNL A   1      46.433  25.468  38.986  1.00  0.00    -0.237 OA
ATOM     78  O   UNL A   1      47.450  24.923  36.808  1.00  0.00    -0.744 OA
ENDBRANCH  74  75
ENDBRANCH  55  69
BRANCH  56  79
ATOM     79  C   UNL A   1      36.417  33.246  30.962  1.00  0.00    -0.014 A 
ATOM     80  C   UNL A   1      35.177  33.444  31.594  1.00  0.00     0.010 A 
ATOM     81  C   UNL A   1      36.614  33.757  29.667  1.00  0.00     0.010 A 
ATOM     82  C   UNL A   1      34.147  34.122  30.936  1.00  0.00     0.020 A 
ATOM     83  C   UNL A   1      35.596  34.460  29.015  1.00  0.00     0.020 A 
ATOM     84  C   UNL A   1      34.364  34.627  29.651  1.00  0.00     0.054 A 
BRANCH  84  85
ATOM     85  S   UNL A   1      33.030  35.549  28.836  1.00  0.00     0.124 S 
ATOM     86  O   UNL A   1      32.211  35.963  29.970  1.00  0.00    -0.237 OA
ATOM     87  O   UNL A   1      33.754  36.618  28.154  1.00  0.00    -0.237 OA
ATOM     88  O   UNL A   1      32.421  34.557  27.952  1.00  0.00    -0.744 OA
ENDBRANCH  84  85
ENDBRANCH  56  79
BRANCH  68  89
ATOM     89  C   UNL A   1      39.851  34.326  36.936  1.00  0.00    -0.014 A 
ATOM     90  C   UNL A   1      40.605  35.506  36.813  1.00  0.00     0.010 A 
ATOM     91  C   UNL A   1      38.973  34.180  38.025  1.00  0.00     0.010 A 
ATOM     92  C   UNL A   1      40.513  36.504  37.786  1.00  0.00     0.020 A 
ATOM     93  C   UNL A   1      38.858  35.188  38.985  1.00  0.00     0.020 A 
ATOM     94  C   UNL A   1      39.643  36.336  38.867  1.00  0.00     0.054 A 
BRANCH  94  95
ATOM     95  S   UNL A   1      39.520  37.658  40.103  1.00  0.00     0.124 S 
ATOM     96  O   UNL A   1      39.329  36.901  41.339  1.00  0.00    -0.237 OA
ATOM     97  O   UNL A   1      40.805  38.339  39.976  1.00  0.00    -0.237 OA
ATOM     98  O   UNL A   1      38.363  38.436  39.664  1.00  0.00    -0.744 OA
ENDBRANCH  94  95
ENDBRANCH  68  89
ENDBRANCH  42  43
ENDBRANCH  34  37
ENDBRANCH  32  33
ENDBRANCH  31  32
ENDBRANCH  30  31
ENDBRANCH   1  30
TORSDOF 20
ENDMDL
MODEL 2
REMARK VINA RESULT:     -11.3      3.005      9.397
REMARK SMILES CN1C(=O)C[C@@H](C(=O)NCCCCCCNC(=O)c2ccc(-c3c4nc(c(-c5ccc(S(=O)(=O)[O-])cc5)c5ccc([nH]5)c(-c5ccc(S(=O)(=O)[O-])cc5)c5nc(c(-c6ccc(S(=O)(=O)[O-])cc6)c6ccc3[nH]6)C=C5)C=C4)cc2)C12CC[NH+](CCSc1ccccc1)CC2
REMARK SMILES IDX 12 1 11 2 10 3 9 4 7 5 8 6 6 8 1 9 2 10 3 11 79 12 4 13 5 14
REMARK SMILES IDX 80 15 93 16 81 17 92 18 82 19 83 21 84 22 85 23 86 24 87 25
REMARK SMILES IDX 91 26 88 27 90 28 89 29 13 30 14 31 15 32 16 33 17 34 18 36
REMARK SMILES IDX 19 37 20 38 78 39 21 40 77 41 22 42 23 43 24 44 71 45 25 46
REMARK SMILES IDX 76 47 70 48 72 49 26 50 75 51 69 52 68 53 27 55 57 56 38 57
REMARK SMILES IDX 56 58 39 59 42 60 55 61 73 62 40 63 41 64 54 66 74 67 43 68
REMARK SMILES IDX 28 69 29 70 37 71 30 72 36 73 31 74 32 75 33 76 34 77 35 78
REMARK SMILES IDX 58 79 59 80 67 81 60 82 66 83 61 84 62 85 63 86 64 87 65 88
REMARK SMILES IDX 44 89 45 90 53 91 46 92 52 93 47 94 48 95 49 96 50 97 51 98
REMARK H PARENT 9 7 82 20 16 35 72 54 42 65
REMARK Flexibility Score: inf
ROOT
ATOM      1  C   UNL A   1      31.023  29.173  24.745  1.00  0.00     0.002 C 
ENDROOT
BRANCH   1   2
ATOM      2  C   UNL A   1      31.825  28.915  23.474  1.00  0.00     0.021 C 
BRANCH   2   3
ATOM      3  C   UNL A   1      31.076  28.042  22.482  1.00  0.00     0.116 C 
BRANCH   3   4
ATOM      4  N   UNL A   1      31.994  27.279  21.675  1.00  0.00    -0.356 N 
ATOM      5  C   UNL A   1      32.350  25.981  21.753  1.00  0.00     0.226 C 
ATOM      6  O   UNL A   1      33.277  25.602  21.031  1.00  0.00    -0.275 OA
ATOM      7  H   UNL A   1      32.432  27.786  20.954  1.00  0.00     0.163 HD
BRANCH   5   8
ATOM      8  C   UNL A   1      31.662  24.990  22.664  1.00  0.00     0.114 C 
ATOM      9  C   UNL A   1      31.915  25.151  26.439  1.00  0.00     0.147 C 
ATOM     10  N   UNL A   1      31.609  25.192  25.015  1.00  0.00    -0.339 N 
ATOM     11  C   UNL A   1      30.331  25.540  24.596  1.00  0.00     0.223 C 
ATOM     12  C   UNL A   1      32.374  24.495  23.954  1.00  0.00     0.065 C 
ATOM     13  O   UNL A   1      29.411  25.924  25.312  1.00  0.00    -0.275 OA
ATOM     14  C   UNL A   1      30.239  25.376  23.104  1.00  0.00     0.116 C 
ATOM     15  C   UNL A   1      33.911  24.699  24.085  1.00  0.00     0.091 C 
ATOM     16  C   UNL A   1      32.019  23.006  24.016  1.00  0.00     0.091 C 
ATOM     17  C   UNL A   1      34.837  23.540  23.677  1.00  0.00     0.264 C 
ATOM     18  C   UNL A   1      32.985  22.144  23.230  1.00  0.00     0.264 C 
ATOM     19  N   UNL A   1      34.290  22.201  23.824  1.00  0.00    -0.334 N 
ATOM     20  H   UNL A   1      34.916  21.602  23.285  1.00  0.00     0.348 HD
BRANCH  19  21
ATOM     21  C   UNL A   1      34.513  21.442  25.064  1.00  0.00     0.273 C 
BRANCH  21  22
ATOM     22  C   UNL A   1      35.662  20.403  25.311  1.00  0.00     0.136 C 
BRANCH  22  23
ATOM     23  S   UNL A   1      37.391  20.649  24.639  1.00  0.00    -0.120 SA
BRANCH  23  24
ATOM     24  C   UNL A   1      38.164  21.970  25.567  1.00  0.00     0.007 A 
ATOM     25  C   UNL A   1      37.618  23.250  25.723  1.00  0.00     0.015 A 
ATOM     26  C   UNL A   1      39.405  21.701  26.165  1.00  0.00     0.015 A 
ATOM     27  C   UNL A   1      38.230  24.184  26.581  1.00  0.00     0.001 A 
ATOM     28  C   UNL A   1      39.996  22.614  27.045  1.00  0.00     0.001 A 
ATOM     29  C   UNL A   1      39.395  23.848  27.274  1.00  0.00     0.000 A 
ENDBRANCH  23  24
ENDBRANCH  22  23
ENDBRANCH  21  22
ENDBRANCH  19  21
ENDBRANCH   5   8
ENDBRANCH   3   4
ENDBRANCH   2   3
ENDBRANCH   1   2
BRANCH   1  30
ATOM     30  C   UNL A   1      31.843  29.027  26.029  1.00  0.00     0.002 C 
BRANCH  30  31
ATOM     31  C   UNL A   1      33.167  28.274  25.851  1.00  0.00     0.021 C 
BRANCH  31  32
ATOM     32  C   UNL A   1      34.394  29.067  26.286  1.00  0.00     0.116 C 
BRANCH  32  33
ATOM     33  N   UNL A   1      34.023  30.396  26.733  1.00  0.00    -0.352 N 
ATOM     34  C   UNL A   1      34.521  31.106  27.786  1.00  0.00     0.251 C 
ATOM     35  H   UNL A   1      33.321  30.844  26.206  1.00  0.00     0.163 HD
ATOM     36  O   UNL A   1      33.917  32.085  28.214  1.00  0.00    -0.269 OA
BRANCH  34  37
ATOM     37  C   UNL A   1      35.793  30.681  28.392  1.00  0.00     0.039 A 
ATOM     38  C   UNL A   1      35.773  29.699  29.381  1.00  0.00     0.014 A 
ATOM     39  C   UNL A   1      36.996  31.277  27.996  1.00  0.00     0.014 A 
ATOM     40  C   UNL A   1      36.968  29.311  29.978  1.00  0.00     0.010 A 
ATOM     41  C   UNL A   1      38.194  30.839  28.542  1.00  0.00     0.010 A 
ATOM     42  C   UNL A   1      38.185  29.878  29.562  1.00  0.00    -0.014 A 
BRANCH  42  43
ATOM     43  C   UNL A   1      39.450  29.509  30.234  1.00  0.00     0.031 A 
ATOM     44  C   UNL A   1      39.856  30.214  31.499  1.00  0.00     0.074 A 
ATOM     45  C   UNL A   1      40.229  28.552  29.697  1.00  0.00     0.049 A 
ATOM     46  N   UNL A   1      40.905  30.012  32.252  1.00  0.00    -0.248 NA
ATOM     47  C   UNL A   1      38.983  31.306  31.966  1.00  0.00     0.031 C 
ATOM     48  C   UNL A   1      39.952  27.838  28.448  1.00  0.00     0.029 A 
ATOM     49  N   UNL A   1      41.406  28.009  30.138  1.00  0.00    -0.354 N 
ATOM     50  C   UNL A   1      40.824  30.954  33.272  1.00  0.00     0.074 A 
ATOM     51  C   UNL A   1      39.657  31.764  33.011  1.00  0.00     0.031 C 
ATOM     52  C   UNL A   1      40.914  26.924  28.244  1.00  0.00     0.029 A 
ATOM     53  C   UNL A   1      41.885  27.006  29.330  1.00  0.00     0.049 A 
ATOM     54  H   UNL A   1      41.865  28.308  30.956  1.00  0.00     0.167 HD
ATOM     55  C   UNL A   1      41.637  31.114  34.342  1.00  0.00     0.031 A 
ATOM     56  C   UNL A   1      42.978  26.231  29.460  1.00  0.00     0.031 A 
ATOM     57  C   UNL A   1      42.788  30.290  34.600  1.00  0.00     0.049 A 
ATOM     58  C   UNL A   1      43.850  26.408  30.672  1.00  0.00     0.074 A 
ATOM     59  C   UNL A   1      43.654  30.332  35.677  1.00  0.00     0.029 A 
ATOM     60  N   UNL A   1      43.230  29.272  33.768  1.00  0.00    -0.354 N 
ATOM     61  N   UNL A   1      43.724  27.262  31.661  1.00  0.00    -0.248 NA
ATOM     62  C   UNL A   1      44.998  25.501  30.798  1.00  0.00     0.031 C 
ATOM     63  C   UNL A   1      44.645  29.364  35.476  1.00  0.00     0.029 A 
ATOM     64  C   UNL A   1      44.363  28.684  34.302  1.00  0.00     0.049 A 
ATOM     65  H   UNL A   1      42.800  29.006  32.923  1.00  0.00     0.167 HD
ATOM     66  C   UNL A   1      44.759  26.974  32.543  1.00  0.00     0.074 A 
ATOM     67  C   UNL A   1      45.491  25.860  31.975  1.00  0.00     0.031 C 
ATOM     68  C   UNL A   1      45.073  27.574  33.718  1.00  0.00     0.031 A 
BRANCH  55  69
ATOM     69  C   UNL A   1      41.306  32.220  35.308  1.00  0.00    -0.014 A 
ATOM     70  C   UNL A   1      40.579  31.964  36.485  1.00  0.00     0.010 A 
ATOM     71  C   UNL A   1      41.746  33.530  35.049  1.00  0.00     0.010 A 
ATOM     72  C   UNL A   1      40.261  33.003  37.363  1.00  0.00     0.020 A 
ATOM     73  C   UNL A   1      41.454  34.569  35.939  1.00  0.00     0.020 A 
ATOM     74  C   UNL A   1      40.697  34.301  37.081  1.00  0.00     0.054 A 
BRANCH  74  75
ATOM     75  S   UNL A   1      40.285  35.629  38.246  1.00  0.00     0.124 S 
ATOM     76  O   UNL A   1      41.565  35.854  38.910  1.00  0.00    -0.237 OA
ATOM     77  O   UNL A   1      39.838  36.704  37.363  1.00  0.00    -0.237 OA
ATOM     78  O   UNL A   1      39.242  35.043  39.085  1.00  0.00    -0.744 OA
ENDBRANCH  74  75
ENDBRANCH  55  69
BRANCH  56  79
ATOM     79  C   UNL A   1      43.276  25.195  28.437  1.00  0.00    -0.014 A 
ATOM     80  C   UNL A   1      42.921  23.852  28.656  1.00  0.00     0.010 A 
ATOM     81  C   UNL A   1      43.894  25.550  27.225  1.00  0.00     0.010 A 
ATOM     82  C   UNL A   1      43.195  22.881  27.691  1.00  0.00     0.020 A 
ATOM     83  C   UNL A   1      44.146  24.586  26.245  1.00  0.00     0.020 A 
ATOM     84  C   UNL A   1      43.806  23.254  26.489  1.00  0.00     0.054 A 
BRANCH  84  85
ATOM     85  S   UNL A   1      44.106  21.985  25.228  1.00  0.00     0.124 S 
ATOM     86  O   UNL A   1      43.809  22.706  23.995  1.00  0.00    -0.237 OA
ATOM     87  O   UNL A   1      45.511  21.648  25.444  1.00  0.00    -0.237 OA
ATOM     88  O   UNL A   1      43.160  20.927  25.579  1.00  0.00    -0.744 OA
ENDBRANCH  84  85
ENDBRANCH  56  79
BRANCH  68  89
ATOM     89  C   UNL A   1      46.235  27.009  34.487  1.00  0.00    -0.014 A 
ATOM     90  C   UNL A   1      46.059  25.974  35.423  1.00  0.00     0.010 A 
ATOM     91  C   UNL A   1      47.530  27.498  34.236  1.00  0.00     0.010 A 
ATOM     92  C   UNL A   1      47.155  25.467  36.125  1.00  0.00     0.020 A 
ATOM     93  C   UNL A   1      48.632  26.973  34.916  1.00  0.00     0.020 A 
ATOM     94  C   UNL A   1      48.433  25.973  35.870  1.00  0.00     0.054 A 
BRANCH  94  95
ATOM     95  S   UNL A   1      49.844  25.279  36.774  1.00  0.00     0.124 S 
ATOM     96  O   UNL A   1      50.844  25.143  35.717  1.00  0.00    -0.237 OA
ATOM     97  O   UNL A   1      50.124  26.307  37.774  1.00  0.00    -0.237 OA
ATOM     98  O   UNL A   1      49.327  24.021  37.309  1.00  0.00    -0.744 OA
ENDBRANCH  94  95
ENDBRANCH  68  89
ENDBRANCH  42  43
ENDBRANCH  34  37
ENDBRANCH  32  33
ENDBRANCH  31  32
ENDBRANCH  30  31
ENDBRANCH   1  30
TORSDOF 20
ENDMDL
MODEL 3
REMARK VINA RESULT:     -11.3      6.236     12.112
REMARK SMILES CN1C(=O)C[C@@H](C(=O)NCCCCCCNC(=O)c2ccc(-c3c4nc(c(-c5ccc(S(=O)(=O)[O-])cc5)c5ccc([nH]5)c(-c5ccc(S(=O)(=O)[O-])cc5)c5nc(c(-c6ccc(S(=O)(=O)[O-])cc6)c6ccc3[nH]6)C=C5)C=C4)cc2)C12CC[NH+](CCSc1ccccc1)CC2
REMARK SMILES IDX 12 1 11 2 10 3 9 4 7 5 8 6 6 8 1 9 2 10 3 11 79 12 4 13 5 14
REMARK SMILES IDX 80 15 93 16 81 17 92 18 82 19 83 21 84 22 85 23 86 24 87 25
REMARK SMILES IDX 91 26 88 27 90 28 89 29 13 30 14 31 15 32 16 33 17 34 18 36
REMARK SMILES IDX 19 37 20 38 78 39 21 40 77 41 22 42 23 43 24 44 71 45 25 46
REMARK SMILES IDX 76 47 70 48 72 49 26 50 75 51 69 52 68 53 27 55 57 56 38 57
REMARK SMILES IDX 56 58 39 59 42 60 55 61 73 62 40 63 41 64 54 66 74 67 43 68
REMARK SMILES IDX 28 69 29 70 37 71 30 72 36 73 31 74 32 75 33 76 34 77 35 78
REMARK SMILES IDX 58 79 59 80 67 81 60 82 66 83 61 84 62 85 63 86 64 87 65 88
REMARK SMILES IDX 44 89 45 90 53 91 46 92 52 93 47 94 48 95 49 96 50 97 51 98
REMARK H PARENT 9 7 82 20 16 35 72 54 42 65
REMARK Flexibility Score: inf
ROOT
ATOM      1  C   UNL A   1      32.805  30.451  26.873  1.00  0.00     0.002 C 
ENDROOT
BRANCH   1   2
ATOM      2  C   UNL A   1      31.677  29.823  26.062  1.00  0.00     0.021 C 
BRANCH   2   3
ATOM      3  C   UNL A   1      31.743  28.306  26.054  1.00  0.00     0.116 C 
BRANCH   3   4
ATOM      4  N   UNL A   1      30.797  27.758  25.115  1.00  0.00    -0.356 N 
ATOM      5  C   UNL A   1      31.000  27.033  23.997  1.00  0.00     0.226 C 
ATOM      6  O   UNL A   1      30.020  26.807  23.280  1.00  0.00    -0.275 OA
ATOM      7  H   UNL A   1      29.852  27.942  25.323  1.00  0.00     0.163 HD
BRANCH   5   8
ATOM      8  C   UNL A   1      32.353  26.486  23.603  1.00  0.00     0.114 C 
ATOM      9  C   UNL A   1      32.793  23.153  21.858  1.00  0.00     0.147 C 
ATOM     10  N   UNL A   1      32.650  24.529  22.316  1.00  0.00    -0.339 N 
ATOM     11  C   UNL A   1      32.934  25.576  21.448  1.00  0.00     0.223 C 
ATOM     12  C   UNL A   1      32.645  24.964  23.733  1.00  0.00     0.065 C 
ATOM     13  O   UNL A   1      33.216  25.476  20.258  1.00  0.00    -0.275 OA
ATOM     14  C   UNL A   1      32.840  26.876  22.197  1.00  0.00     0.116 C 
ATOM     15  C   UNL A   1      31.712  24.098  24.627  1.00  0.00     0.091 C 
ATOM     16  C   UNL A   1      34.087  24.914  24.248  1.00  0.00     0.091 C 
ATOM     17  C   UNL A   1      32.134  23.839  26.084  1.00  0.00     0.264 C 
ATOM     18  C   UNL A   1      34.169  24.992  25.758  1.00  0.00     0.264 C 
ATOM     19  N   UNL A   1      33.564  23.831  26.344  1.00  0.00    -0.334 N 
ATOM     20  H   UNL A   1      33.646  23.902  27.359  1.00  0.00     0.348 HD
BRANCH  19  21
ATOM     21  C   UNL A   1      34.319  22.569  26.300  1.00  0.00     0.273 C 
BRANCH  21  22
ATOM     22  C   UNL A   1      33.699  21.128  26.289  1.00  0.00     0.136 C 
BRANCH  22  23
ATOM     23  S   UNL A   1      32.974  20.364  24.742  1.00  0.00    -0.120 SA
BRANCH  23  24
ATOM     24  C   UNL A   1      33.197  18.592  24.843  1.00  0.00     0.007 A 
ATOM     25  C   UNL A   1      32.585  17.772  25.800  1.00  0.00     0.015 A 
ATOM     26  C   UNL A   1      34.052  17.992  23.906  1.00  0.00     0.015 A 
ATOM     27  C   UNL A   1      32.712  16.371  25.722  1.00  0.00     0.001 A 
ATOM     28  C   UNL A   1      34.152  16.600  23.805  1.00  0.00     0.001 A 
ATOM     29  C   UNL A   1      33.460  15.787  24.697  1.00  0.00     0.000 A 
ENDBRANCH  23  24
ENDBRANCH  22  23
ENDBRANCH  21  22
ENDBRANCH  19  21
ENDBRANCH   5   8
ENDBRANCH   3   4
ENDBRANCH   2   3
ENDBRANCH   1   2
BRANCH   1  30
ATOM     30  C   UNL A   1      34.156  29.756  26.689  1.00  0.00     0.002 C 
BRANCH  30  31
ATOM     31  C   UNL A   1      34.913  29.489  27.996  1.00  0.00     0.021 C 
BRANCH  31  32
ATOM     32  C   UNL A   1      35.707  30.685  28.508  1.00  0.00     0.116 C 
BRANCH  32  33
ATOM     33  N   UNL A   1      35.731  30.710  29.957  1.00  0.00    -0.352 N 
ATOM     34  C   UNL A   1      36.648  30.151  30.800  1.00  0.00     0.251 C 
ATOM     35  H   UNL A   1      34.990  31.194  30.390  1.00  0.00     0.163 HD
ATOM     36  O   UNL A   1      36.388  30.006  31.990  1.00  0.00    -0.269 OA
BRANCH  34  37
ATOM     37  C   UNL A   1      37.950  29.734  30.256  1.00  0.00     0.039 A 
ATOM     38  C   UNL A   1      38.886  29.162  31.116  1.00  0.00     0.014 A 
ATOM     39  C   UNL A   1      38.247  29.936  28.903  1.00  0.00     0.014 A 
ATOM     40  C   UNL A   1      40.130  28.790  30.615  1.00  0.00     0.010 A 
ATOM     41  C   UNL A   1      39.460  29.500  28.391  1.00  0.00     0.010 A 
ATOM     42  C   UNL A   1      40.424  28.955  29.251  1.00  0.00    -0.014 A 
BRANCH  42  43
ATOM     43  C   UNL A   1      41.765  28.613  28.728  1.00  0.00     0.031 A 
ATOM     44  C   UNL A   1      42.834  29.669  28.668  1.00  0.00     0.074 A 
ATOM     45  C   UNL A   1      42.007  27.360  28.301  1.00  0.00     0.049 A 
ATOM     46  N   UNL A   1      44.076  29.560  28.277  1.00  0.00    -0.248 NA
ATOM     47  C   UNL A   1      42.452  31.032  29.078  1.00  0.00     0.031 C 
ATOM     48  C   UNL A   1      41.027  26.272  28.272  1.00  0.00     0.029 A 
ATOM     49  N   UNL A   1      43.155  26.789  27.820  1.00  0.00    -0.354 N 
ATOM     50  C   UNL A   1      44.619  30.835  28.382  1.00  0.00     0.074 A 
ATOM     51  C   UNL A   1      43.558  31.713  28.820  1.00  0.00     0.031 C 
ATOM     52  C   UNL A   1      41.627  25.154  27.831  1.00  0.00     0.029 A 
ATOM     53  C   UNL A   1      43.022  25.453  27.525  1.00  0.00     0.049 A 
ATOM     54  H   UNL A   1      43.995  27.288  27.696  1.00  0.00     0.167 HD
ATOM     55  C   UNL A   1      45.893  31.234  28.158  1.00  0.00     0.031 A 
ATOM     56  C   UNL A   1      43.929  24.568  27.072  1.00  0.00     0.031 A 
ATOM     57  C   UNL A   1      46.944  30.347  27.738  1.00  0.00     0.049 A 
ATOM     58  C   UNL A   1      45.344  25.028  26.857  1.00  0.00     0.074 A 
ATOM     59  C   UNL A   1      48.280  30.633  27.526  1.00  0.00     0.029 A 
ATOM     60  N   UNL A   1      46.775  28.997  27.469  1.00  0.00    -0.354 N 
ATOM     61  N   UNL A   1      45.856  26.225  27.023  1.00  0.00    -0.248 NA
ATOM     62  C   UNL A   1      46.309  24.012  26.417  1.00  0.00     0.031 C 
ATOM     63  C   UNL A   1      48.912  29.462  27.090  1.00  0.00     0.029 A 
ATOM     64  C   UNL A   1      47.979  28.437  27.082  1.00  0.00     0.049 A 
ATOM     65  H   UNL A   1      45.922  28.508  27.542  1.00  0.00     0.167 HD
ATOM     66  C   UNL A   1      47.211  26.099  26.737  1.00  0.00     0.074 A 
ATOM     67  C   UNL A   1      47.438  24.708  26.402  1.00  0.00     0.031 C 
ATOM     68  C   UNL A   1      48.180  27.048  26.755  1.00  0.00     0.031 A 
BRANCH  55  69
ATOM     69  C   UNL A   1      46.211  32.691  28.363  1.00  0.00    -0.014 A 
ATOM     70  C   UNL A   1      46.648  33.171  29.611  1.00  0.00     0.010 A 
ATOM     71  C   UNL A   1      46.097  33.590  27.288  1.00  0.00     0.010 A 
ATOM     72  C   UNL A   1      46.921  34.529  29.793  1.00  0.00     0.020 A 
ATOM     73  C   UNL A   1      46.397  34.946  27.457  1.00  0.00     0.020 A 
ATOM     74  C   UNL A   1      46.789  35.409  28.715  1.00  0.00     0.054 A 
BRANCH  74  75
ATOM     75  S   UNL A   1      47.166  37.164  28.973  1.00  0.00     0.124 S 
ATOM     76  O   UNL A   1      46.028  37.814  28.330  1.00  0.00    -0.237 OA
ATOM     77  O   UNL A   1      47.212  37.273  30.429  1.00  0.00    -0.237 OA
ATOM     78  O   UNL A   1      48.450  37.346  28.298  1.00  0.00    -0.744 OA
ENDBRANCH  74  75
ENDBRANCH  55  69
BRANCH  56  79
ATOM     79  C   UNL A   1      43.530  23.155  26.837  1.00  0.00    -0.014 A 
ATOM     80  C   UNL A   1      43.558  22.612  25.541  1.00  0.00     0.010 A 
ATOM     81  C   UNL A   1      43.147  22.337  27.914  1.00  0.00     0.010 A 
ATOM     82  C   UNL A   1      43.189  21.282  25.323  1.00  0.00     0.020 A 
ATOM     83  C   UNL A   1      42.803  20.999  27.705  1.00  0.00     0.020 A 
ATOM     84  C   UNL A   1      42.815  20.482  26.407  1.00  0.00     0.054 A 
BRANCH  84  85
ATOM     85  S   UNL A   1      42.391  18.744  26.108  1.00  0.00     0.124 S 
ATOM     86  O   UNL A   1      43.359  18.367  25.084  1.00  0.00    -0.237 OA
ATOM     87  O   UNL A   1      42.588  18.138  27.422  1.00  0.00    -0.237 OA
ATOM     88  O   UNL A   1      41.000  18.805  25.662  1.00  0.00    -0.744 OA
ENDBRANCH  84  85
ENDBRANCH  56  79
BRANCH  68  89
ATOM     89  C   UNL A   1      49.582  26.602  26.442  1.00  0.00    -0.014 A 
ATOM     90  C   UNL A   1      50.119  26.731  25.148  1.00  0.00     0.010 A 
ATOM     91  C   UNL A   1      50.385  26.080  27.472  1.00  0.00     0.010 A 
ATOM     92  C   UNL A   1      51.423  26.308  24.882  1.00  0.00     0.020 A 
ATOM     93  C   UNL A   1      51.699  25.682  27.215  1.00  0.00     0.020 A 
ATOM     94  C   UNL A   1      52.203  25.782  25.917  1.00  0.00     0.054 A 
BRANCH  94  95
ATOM     95  S   UNL A   1      53.903  25.265  25.554  1.00  0.00     0.124 S 
ATOM     96  O   UNL A   1      54.450  25.062  26.894  1.00  0.00    -0.237 OA
ATOM     97  O   UNL A   1      53.709  24.052  24.765  1.00  0.00    -0.237 OA
ATOM     98  O   UNL A   1      54.459  26.398  24.818  1.00  0.00    -0.744 OA
ENDBRANCH  94  95
ENDBRANCH  68  89
ENDBRANCH  42  43
ENDBRANCH  34  37
ENDBRANCH  32  33
ENDBRANCH  31  32
ENDBRANCH  30  31
ENDBRANCH   1  30
TORSDOF 20
ENDMDL
