MODEL 1
REMARK VINA RESULT:     -10.5      0.000      0.000
REMARK SMILES CC[N@@H+]1CCO[C@@H](Cn2cc(C(=O)NCCCCCCNC(=O)c3ccc(-c4c5nc(c(-c6ccc(S(=O)(=O)[O-])cc6)c6ccc([nH]6)c(-c6ccc(S(=O)(=O)[O-])cc6)c6nc(c(-c7ccc(S(=O)(=O)[O-])cc7)c7ccc4[nH]7)C=C6)C=C5)cc3)nn2)C1
REMARK SMILES IDX 17 1 16 2 15 3 14 4 12 5 13 6 11 8 9 9 10 10 85 11 84 12
REMARK SMILES IDX 8 13 7 14 3 15 4 16 86 17 5 19 6 20 2 21 1 22 18 23 19 24
REMARK SMILES IDX 20 25 21 26 22 27 23 29 24 30 25 31 83 32 26 33 82 34 27 35
REMARK SMILES IDX 28 36 29 37 76 38 30 39 81 40 75 41 77 42 31 43 80 44 74 45
REMARK SMILES IDX 73 46 32 48 62 49 43 50 61 51 44 52 47 53 60 54 78 55 45 56
REMARK SMILES IDX 46 57 59 59 79 60 48 61 33 62 34 63 42 64 35 65 41 66 36 67
REMARK SMILES IDX 37 68 38 69 39 70 40 71 63 72 64 73 72 74 65 75 71 76 66 77
REMARK SMILES IDX 67 78 68 79 69 80 70 81 49 82 50 83 58 84 51 85 57 86 52 87
REMARK SMILES IDX 53 88 54 89 55 90 56 91
REMARK H PARENT 14 7 3 18 21 28 77 47 47 58
REMARK Flexibility Score: inf
ROOT
ATOM      1  C   UNL A   1      34.119  30.532  27.252  1.00  0.00     0.002 C 
ENDROOT
BRANCH   1   2
ATOM      2  C   UNL A   1      34.715  29.166  26.886  1.00  0.00     0.021 C 
BRANCH   2   3
ATOM      3  C   UNL A   1      33.696  28.034  26.762  1.00  0.00     0.116 C 
BRANCH   3   4
ATOM      4  N   UNL A   1      32.689  28.324  25.760  1.00  0.00    -0.351 N 
ATOM      5  C   UNL A   1      31.596  27.614  25.324  1.00  0.00     0.273 C 
ATOM      6  O   UNL A   1      30.812  28.223  24.584  1.00  0.00    -0.267 OA
ATOM      7  H   UNL A   1      32.811  29.190  25.307  1.00  0.00     0.163 HD
BRANCH   5   8
ATOM      8  C   UNL A   1      31.331  26.246  25.756  1.00  0.00     0.170 A 
ATOM      9  N   UNL A   1      31.372  24.155  26.349  1.00  0.00    -0.249 N 
ATOM     10  C   UNL A   1      32.070  25.083  25.625  1.00  0.00     0.145 A 
ATOM     11  N   UNL A   1      30.201  24.652  26.772  1.00  0.00    -0.067 NA
ATOM     12  N   UNL A   1      30.162  25.929  26.419  1.00  0.00    -0.125 NA
BRANCH   9  13
ATOM     13  C   UNL A   1      31.866  22.905  26.898  1.00  0.00     0.184 C 
BRANCH  13  14
ATOM     14  C   UNL A   1      33.135  22.459  26.165  1.00  0.00     0.194 C 
ATOM     15  N   UNL A   1      35.528  21.749  26.403  1.00  0.00    -0.331 N 
ATOM     16  C   UNL A   1      35.269  20.787  25.320  1.00  0.00     0.291 C 
ATOM     17  C   UNL A   1      34.281  22.053  27.123  1.00  0.00     0.296 C 
ATOM     18  H   UNL A   1      36.135  21.294  27.082  1.00  0.00     0.348 HD
ATOM     19  C   UNL A   1      34.011  21.071  24.478  1.00  0.00     0.222 C 
ATOM     20  O   UNL A   1      32.854  21.351  25.288  1.00  0.00    -0.365 OA
BRANCH  15  21
ATOM     21  C   UNL A   1      36.396  22.878  26.057  1.00  0.00     0.258 C 
ATOM     22  C   UNL A   1      35.827  24.065  25.283  1.00  0.00     0.071 C 
ENDBRANCH  15  21
ENDBRANCH  13  14
ENDBRANCH   9  13
ENDBRANCH   5   8
ENDBRANCH   3   4
ENDBRANCH   2   3
ENDBRANCH   1   2
BRANCH   1  23
ATOM     23  C   UNL A   1      35.043  31.506  28.002  1.00  0.00     0.002 C 
BRANCH  23  24
ATOM     24  C   UNL A   1      34.687  32.998  27.929  1.00  0.00     0.021 C 
BRANCH  24  25
ATOM     25  C   UNL A   1      35.441  33.869  28.922  1.00  0.00     0.116 C 
BRANCH  25  26
ATOM     26  N   UNL A   1      34.795  33.936  30.234  1.00  0.00    -0.352 N 
ATOM     27  C   UNL A   1      34.977  33.089  31.310  1.00  0.00     0.251 C 
ATOM     28  H   UNL A   1      34.156  34.673  30.366  1.00  0.00     0.163 HD
ATOM     29  O   UNL A   1      34.141  33.032  32.215  1.00  0.00    -0.269 OA
BRANCH  27  30
ATOM     30  C   UNL A   1      36.187  32.253  31.354  1.00  0.00     0.039 A 
ATOM     31  C   UNL A   1      36.129  30.862  31.487  1.00  0.00     0.014 A 
ATOM     32  C   UNL A   1      37.409  32.900  31.208  1.00  0.00     0.014 A 
ATOM     33  C   UNL A   1      37.311  30.125  31.390  1.00  0.00     0.010 A 
ATOM     34  C   UNL A   1      38.531  32.169  30.927  1.00  0.00     0.010 A 
ATOM     35  C   UNL A   1      38.510  30.787  31.093  1.00  0.00    -0.014 A 
BRANCH  35  36
ATOM     36  C   UNL A   1      39.766  30.064  30.915  1.00  0.00     0.031 A 
ATOM     37  C   UNL A   1      40.576  29.820  32.145  1.00  0.00     0.074 A 
ATOM     38  C   UNL A   1      40.046  29.419  29.759  1.00  0.00     0.049 A 
ATOM     39  N   UNL A   1      41.790  30.186  32.392  1.00  0.00    -0.248 NA
ATOM     40  C   UNL A   1      39.923  29.140  33.277  1.00  0.00     0.031 C 
ATOM     41  C   UNL A   1      39.196  29.263  28.568  1.00  0.00     0.029 A 
ATOM     42  N   UNL A   1      41.106  28.623  29.467  1.00  0.00    -0.354 N 
ATOM     43  C   UNL A   1      42.123  29.654  33.637  1.00  0.00     0.074 A 
ATOM     44  C   UNL A   1      40.896  29.134  34.190  1.00  0.00     0.031 C 
ATOM     45  C   UNL A   1      39.643  28.227  27.826  1.00  0.00     0.029 A 
ATOM     46  C   UNL A   1      40.912  27.791  28.372  1.00  0.00     0.049 A 
ATOM     47  H   UNL A   1      41.942  28.635  29.986  1.00  0.00     0.167 HD
ATOM     48  C   UNL A   1      43.414  29.524  34.058  1.00  0.00     0.031 A 
ATOM     49  C   UNL A   1      41.722  26.785  27.963  1.00  0.00     0.031 A 
ATOM     50  C   UNL A   1      44.325  30.261  33.224  1.00  0.00     0.049 A 
ATOM     51  C   UNL A   1      43.050  27.028  28.575  1.00  0.00     0.074 A 
ATOM     52  C   UNL A   1      44.502  31.598  32.931  1.00  0.00     0.029 A 
ATOM     53  N   UNL A   1      44.977  29.566  32.232  1.00  0.00    -0.354 N 
ATOM     54  N   UNL A   1      43.789  28.065  28.295  1.00  0.00    -0.248 NA
ATOM     55  C   UNL A   1      43.357  26.367  29.833  1.00  0.00     0.031 C 
ATOM     56  C   UNL A   1      44.805  31.625  31.537  1.00  0.00     0.029 A 
ATOM     57  C   UNL A   1      44.864  30.305  31.081  1.00  0.00     0.049 A 
ATOM     58  H   UNL A   1      45.437  28.702  32.330  1.00  0.00     0.167 HD
ATOM     59  C   UNL A   1      44.356  28.441  29.504  1.00  0.00     0.074 A 
ATOM     60  C   UNL A   1      44.134  27.300  30.392  1.00  0.00     0.031 C 
ATOM     61  C   UNL A   1      44.705  29.739  29.756  1.00  0.00     0.031 A 
BRANCH  48  62
ATOM     62  C   UNL A   1      43.898  28.480  35.035  1.00  0.00    -0.014 A 
ATOM     63  C   UNL A   1      44.619  28.884  36.180  1.00  0.00     0.010 A 
ATOM     64  C   UNL A   1      43.893  27.101  34.742  1.00  0.00     0.010 A 
ATOM     65  C   UNL A   1      45.340  27.963  36.953  1.00  0.00     0.020 A 
ATOM     66  C   UNL A   1      44.574  26.169  35.530  1.00  0.00     0.020 A 
ATOM     67  C   UNL A   1      45.323  26.611  36.612  1.00  0.00     0.054 A 
BRANCH  67  68
ATOM     68  S   UNL A   1      46.346  25.444  37.545  1.00  0.00     0.124 S 
ATOM     69  O   UNL A   1      45.377  24.413  37.903  1.00  0.00    -0.237 OA
ATOM     70  O   UNL A   1      47.352  25.055  36.561  1.00  0.00    -0.237 OA
ATOM     71  O   UNL A   1      46.849  26.245  38.659  1.00  0.00    -0.744 OA
ENDBRANCH  67  68
ENDBRANCH  48  62
BRANCH  49  72
ATOM     72  C   UNL A   1      41.322  25.490  27.364  1.00  0.00    -0.014 A 
ATOM     73  C   UNL A   1      42.167  24.812  26.467  1.00  0.00     0.010 A 
ATOM     74  C   UNL A   1      40.221  24.782  27.893  1.00  0.00     0.010 A 
ATOM     75  C   UNL A   1      41.955  23.457  26.161  1.00  0.00     0.020 A 
ATOM     76  C   UNL A   1      40.001  23.434  27.588  1.00  0.00     0.020 A 
ATOM     77  C   UNL A   1      40.885  22.770  26.742  1.00  0.00     0.054 A 
BRANCH  77  78
ATOM     78  S   UNL A   1      40.735  20.975  26.496  1.00  0.00     0.124 S 
ATOM     79  O   UNL A   1      40.752  20.472  27.865  1.00  0.00    -0.237 OA
ATOM     80  O   UNL A   1      39.460  20.858  25.793  1.00  0.00    -0.237 OA
ATOM     81  O   UNL A   1      41.911  20.640  25.694  1.00  0.00    -0.744 OA
ENDBRANCH  77  78
ENDBRANCH  49  72
BRANCH  61  82
ATOM     82  C   UNL A   1      44.686  30.728  28.608  1.00  0.00    -0.014 A 
ATOM     83  C   UNL A   1      43.698  31.722  28.452  1.00  0.00     0.010 A 
ATOM     84  C   UNL A   1      45.807  30.767  27.761  1.00  0.00     0.010 A 
ATOM     85  C   UNL A   1      43.822  32.712  27.464  1.00  0.00     0.020 A 
ATOM     86  C   UNL A   1      45.945  31.760  26.788  1.00  0.00     0.020 A 
ATOM     87  C   UNL A   1      44.949  32.725  26.637  1.00  0.00     0.054 A 
BRANCH  87  88
ATOM     88  S   UNL A   1      45.139  34.041  25.402  1.00  0.00     0.124 S 
ATOM     89  O   UNL A   1      44.539  33.447  24.211  1.00  0.00    -0.237 OA
ATOM     90  O   UNL A   1      44.396  35.153  25.992  1.00  0.00    -0.237 OA
ATOM     91  O   UNL A   1      46.585  34.245  25.328  1.00  0.00    -0.744 OA
ENDBRANCH  87  88
ENDBRANCH  61  82
ENDBRANCH  35  36
ENDBRANCH  27  30
ENDBRANCH  25  26
ENDBRANCH  24  25
ENDBRANCH  23  24
ENDBRANCH   1  23
TORSDOF 19
ENDMDL
MODEL 2
REMARK VINA RESULT:     -10.5      3.027      8.927
REMARK SMILES CC[N@@H+]1CCO[C@@H](Cn2cc(C(=O)NCCCCCCNC(=O)c3ccc(-c4c5nc(c(-c6ccc(S(=O)(=O)[O-])cc6)c6ccc([nH]6)c(-c6ccc(S(=O)(=O)[O-])cc6)c6nc(c(-c7ccc(S(=O)(=O)[O-])cc7)c7ccc4[nH]7)C=C6)C=C5)cc3)nn2)C1
REMARK SMILES IDX 17 1 16 2 15 3 14 4 12 5 13 6 11 8 9 9 10 10 85 11 84 12
REMARK SMILES IDX 8 13 7 14 3 15 4 16 86 17 5 19 6 20 2 21 1 22 18 23 19 24
REMARK SMILES IDX 20 25 21 26 22 27 23 29 24 30 25 31 83 32 26 33 82 34 27 35
REMARK SMILES IDX 28 36 29 37 76 38 30 39 81 40 75 41 77 42 31 43 80 44 74 45
REMARK SMILES IDX 73 46 32 48 62 49 43 50 61 51 44 52 47 53 60 54 78 55 45 56
REMARK SMILES IDX 46 57 59 59 79 60 48 61 33 62 34 63 42 64 35 65 41 66 36 67
REMARK SMILES IDX 37 68 38 69 39 70 40 71 63 72 64 73 72 74 65 75 71 76 66 77
REMARK SMILES IDX 67 78 68 79 69 80 70 81 49 82 50 83 58 84 51 85 57 86 52 87
REMARK SMILES IDX 53 88 54 89 55 90 56 91
REMARK H PARENT 14 7 3 18 21 28 77 47 47 58
REMARK Flexibility Score: inf
ROOT
ATOM      1  C   UNL A   1      37.172  22.741  25.334  1.00  0.00     0.002 C 
ENDROOT
BRANCH   1   2
ATOM      2  C   UNL A   1      35.786  22.191  25.700  1.00  0.00     0.021 C 
BRANCH   2   3
ATOM      3  C   UNL A   1      34.834  22.017  24.519  1.00  0.00     0.116 C 
BRANCH   3   4
ATOM      4  N   UNL A   1      33.744  21.114  24.834  1.00  0.00    -0.351 N 
ATOM      5  C   UNL A   1      32.456  21.341  25.257  1.00  0.00     0.273 C 
ATOM      6  O   UNL A   1      31.701  20.359  25.254  1.00  0.00    -0.267 OA
ATOM      7  H   UNL A   1      33.967  20.161  24.724  1.00  0.00     0.163 HD
BRANCH   5   8
ATOM      8  C   UNL A   1      31.979  22.669  25.627  1.00  0.00     0.170 A 
ATOM      9  N   UNL A   1      31.055  24.630  25.792  1.00  0.00    -0.249 N 
ATOM     10  C   UNL A   1      31.435  23.693  24.870  1.00  0.00     0.145 A 
ATOM     11  N   UNL A   1      31.471  24.296  27.022  1.00  0.00    -0.067 NA
ATOM     12  N   UNL A   1      32.036  23.100  26.938  1.00  0.00    -0.125 NA
BRANCH   9  13
ATOM     13  C   UNL A   1      30.084  25.696  25.623  1.00  0.00     0.184 C 
BRANCH  13  14
ATOM     14  C   UNL A   1      30.766  26.972  25.120  1.00  0.00     0.194 C 
ATOM     15  N   UNL A   1      32.922  28.023  24.392  1.00  0.00    -0.331 N 
ATOM     16  C   UNL A   1      32.139  28.742  23.375  1.00  0.00     0.291 C 
ATOM     17  C   UNL A   1      32.254  26.762  24.752  1.00  0.00     0.296 C 
ATOM     18  H   UNL A   1      33.808  27.755  23.967  1.00  0.00     0.348 HD
ATOM     19  C   UNL A   1      30.620  28.788  23.629  1.00  0.00     0.222 C 
ATOM     20  O   UNL A   1      30.077  27.498  23.969  1.00  0.00    -0.365 OA
BRANCH  15  21
ATOM     21  C   UNL A   1      33.446  28.842  25.489  1.00  0.00     0.258 C 
ATOM     22  C   UNL A   1      33.740  28.201  26.843  1.00  0.00     0.071 C 
ENDBRANCH  15  21
ENDBRANCH  13  14
ENDBRANCH   9  13
ENDBRANCH   5   8
ENDBRANCH   3   4
ENDBRANCH   2   3
ENDBRANCH   1   2
BRANCH   1  23
ATOM     23  C   UNL A   1      38.382  21.888  25.751  1.00  0.00     0.002 C 
BRANCH  23  24
ATOM     24  C   UNL A   1      38.585  20.560  25.009  1.00  0.00     0.021 C 
BRANCH  24  25
ATOM     25  C   UNL A   1      38.805  19.363  25.921  1.00  0.00     0.116 C 
BRANCH  25  26
ATOM     26  N   UNL A   1      40.141  18.777  25.790  1.00  0.00    -0.352 N 
ATOM     27  C   UNL A   1      41.359  19.420  25.884  1.00  0.00     0.251 C 
ATOM     28  H   UNL A   1      40.174  17.808  25.614  1.00  0.00     0.163 HD
ATOM     29  O   UNL A   1      42.379  18.909  25.417  1.00  0.00    -0.269 OA
BRANCH  27  30
ATOM     30  C   UNL A   1      41.416  20.730  26.552  1.00  0.00     0.039 A 
ATOM     31  C   UNL A   1      41.114  20.891  27.909  1.00  0.00     0.014 A 
ATOM     32  C   UNL A   1      41.832  21.813  25.787  1.00  0.00     0.014 A 
ATOM     33  C   UNL A   1      41.316  22.138  28.501  1.00  0.00     0.010 A 
ATOM     34  C   UNL A   1      42.206  22.975  26.406  1.00  0.00     0.010 A 
ATOM     35  C   UNL A   1      41.879  23.175  27.745  1.00  0.00    -0.014 A 
BRANCH  35  36
ATOM     36  C   UNL A   1      42.174  24.481  28.326  1.00  0.00     0.031 A 
ATOM     37  C   UNL A   1      41.144  25.545  28.136  1.00  0.00     0.074 A 
ATOM     38  C   UNL A   1      43.184  24.643  29.211  1.00  0.00     0.049 A 
ATOM     39  N   UNL A   1      41.276  26.698  27.569  1.00  0.00    -0.248 NA
ATOM     40  C   UNL A   1      39.766  25.256  28.572  1.00  0.00     0.031 C 
ATOM     41  C   UNL A   1      44.078  23.620  29.779  1.00  0.00     0.029 A 
ATOM     42  N   UNL A   1      43.525  25.752  29.917  1.00  0.00    -0.354 N 
ATOM     43  C   UNL A   1      40.054  27.355  27.711  1.00  0.00     0.074 A 
ATOM     44  C   UNL A   1      39.128  26.372  28.218  1.00  0.00     0.031 C 
ATOM     45  C   UNL A   1      44.647  24.093  30.908  1.00  0.00     0.029 A 
ATOM     46  C   UNL A   1      44.325  25.502  31.024  1.00  0.00     0.049 A 
ATOM     47  H   UNL A   1      43.232  26.657  29.664  1.00  0.00     0.167 HD
ATOM     48  C   UNL A   1      39.926  28.706  27.565  1.00  0.00     0.031 A 
ATOM     49  C   UNL A   1      44.671  26.383  31.992  1.00  0.00     0.031 A 
ATOM     50  C   UNL A   1      41.094  29.291  26.963  1.00  0.00     0.049 A 
ATOM     51  C   UNL A   1      44.456  27.740  31.434  1.00  0.00     0.074 A 
ATOM     52  C   UNL A   1      41.718  29.166  25.739  1.00  0.00     0.029 A 
ATOM     53  N   UNL A   1      42.024  29.852  27.806  1.00  0.00    -0.354 N 
ATOM     54  N   UNL A   1      45.129  28.213  30.421  1.00  0.00    -0.248 NA
ATOM     55  C   UNL A   1      43.187  28.398  31.698  1.00  0.00     0.031 C 
ATOM     56  C   UNL A   1      43.112  29.183  26.039  1.00  0.00     0.029 A 
ATOM     57  C   UNL A   1      43.255  29.388  27.415  1.00  0.00     0.049 A 
ATOM     58  H   UNL A   1      41.842  30.470  28.550  1.00  0.00     0.167 HD
ATOM     59  C   UNL A   1      44.203  28.926  29.675  1.00  0.00     0.074 A 
ATOM     60  C   UNL A   1      43.052  29.089  30.562  1.00  0.00     0.031 C 
ATOM     61  C   UNL A   1      44.342  29.079  28.323  1.00  0.00     0.031 A 
BRANCH  48  62
ATOM     62  C   UNL A   1      38.876  29.549  28.247  1.00  0.00    -0.014 A 
ATOM     63  C   UNL A   1      37.605  29.691  27.649  1.00  0.00     0.010 A 
ATOM     64  C   UNL A   1      39.173  30.411  29.323  1.00  0.00     0.010 A 
ATOM     65  C   UNL A   1      36.706  30.681  28.070  1.00  0.00     0.020 A 
ATOM     66  C   UNL A   1      38.266  31.373  29.777  1.00  0.00     0.020 A 
ATOM     67  C   UNL A   1      37.051  31.526  29.124  1.00  0.00     0.054 A 
BRANCH  67  68
ATOM     68  S   UNL A   1      35.935  32.874  29.587  1.00  0.00     0.124 S 
ATOM     69  O   UNL A   1      35.087  32.234  30.589  1.00  0.00    -0.237 OA
ATOM     70  O   UNL A   1      36.859  33.886  30.091  1.00  0.00    -0.237 OA
ATOM     71  O   UNL A   1      35.270  33.216  28.331  1.00  0.00    -0.744 OA
ENDBRANCH  67  68
ENDBRANCH  48  62
BRANCH  49  72
ATOM     72  C   UNL A   1      44.849  26.113  33.438  1.00  0.00    -0.014 A 
ATOM     73  C   UNL A   1      45.455  27.058  34.284  1.00  0.00     0.010 A 
ATOM     74  C   UNL A   1      44.167  25.033  34.040  1.00  0.00     0.010 A 
ATOM     75  C   UNL A   1      45.330  26.962  35.681  1.00  0.00     0.020 A 
ATOM     76  C   UNL A   1      44.043  24.928  35.430  1.00  0.00     0.020 A 
ATOM     77  C   UNL A   1      44.604  25.908  36.244  1.00  0.00     0.054 A 
BRANCH  77  78
ATOM     78  S   UNL A   1      44.281  25.899  38.033  1.00  0.00     0.124 S 
ATOM     79  O   UNL A   1      44.477  24.495  38.376  1.00  0.00    -0.237 OA
ATOM     80  O   UNL A   1      45.292  26.823  38.541  1.00  0.00    -0.237 OA
ATOM     81  O   UNL A   1      42.903  26.379  38.135  1.00  0.00    -0.744 OA
ENDBRANCH  77  78
ENDBRANCH  49  72
BRANCH  61  82
ATOM     82  C   UNL A   1      45.649  28.662  27.679  1.00  0.00    -0.014 A 
ATOM     83  C   UNL A   1      45.920  27.347  27.248  1.00  0.00     0.010 A 
ATOM     84  C   UNL A   1      46.560  29.674  27.335  1.00  0.00     0.010 A 
ATOM     85  C   UNL A   1      47.079  27.054  26.511  1.00  0.00     0.020 A 
ATOM     86  C   UNL A   1      47.707  29.394  26.588  1.00  0.00     0.020 A 
ATOM     87  C   UNL A   1      47.967  28.084  26.185  1.00  0.00     0.054 A 
BRANCH  87  88
ATOM     88  S   UNL A   1      49.434  27.717  25.180  1.00  0.00     0.124 S 
ATOM     89  O   UNL A   1      49.796  26.375  25.627  1.00  0.00    -0.237 OA
ATOM     90  O   UNL A   1      48.925  27.807  23.813  1.00  0.00    -0.237 OA
ATOM     91  O   UNL A   1      50.381  28.768  25.549  1.00  0.00    -0.744 OA
ENDBRANCH  87  88
ENDBRANCH  61  82
ENDBRANCH  35  36
ENDBRANCH  27  30
ENDBRANCH  25  26
ENDBRANCH  24  25
ENDBRANCH  23  24
ENDBRANCH   1  23
TORSDOF 19
ENDMDL
MODEL 3
REMARK VINA RESULT:     -10.0      4.944     12.491
REMARK SMILES CC[N@@H+]1CCO[C@@H](Cn2cc(C(=O)NCCCCCCNC(=O)c3ccc(-c4c5nc(c(-c6ccc(S(=O)(=O)[O-])cc6)c6ccc([nH]6)c(-c6ccc(S(=O)(=O)[O-])cc6)c6nc(c(-c7ccc(S(=O)(=O)[O-])cc7)c7ccc4[nH]7)C=C6)C=C5)cc3)nn2)C1
REMARK SMILES IDX 17 1 16 2 15 3 14 4 12 5 13 6 11 8 9 9 10 10 85 11 84 12
REMARK SMILES IDX 8 13 7 14 3 15 4 16 86 17 5 19 6 20 2 21 1 22 18 23 19 24
REMARK SMILES IDX 20 25 21 26 22 27 23 29 24 30 25 31 83 32 26 33 82 34 27 35
REMARK SMILES IDX 28 36 29 37 76 38 30 39 81 40 75 41 77 42 31 43 80 44 74 45
REMARK SMILES IDX 73 46 32 48 62 49 43 50 61 51 44 52 47 53 60 54 78 55 45 56
REMARK SMILES IDX 46 57 59 59 79 60 48 61 33 62 34 63 42 64 35 65 41 66 36 67
REMARK SMILES IDX 37 68 38 69 39 70 40 71 63 72 64 73 72 74 65 75 71 76 66 77
REMARK SMILES IDX 67 78 68 79 69 80 70 81 49 82 50 83 58 84 51 85 57 86 52 87
REMARK SMILES IDX 53 88 54 89 55 90 56 91
REMARK H PARENT 14 7 3 18 21 28 77 47 47 58
REMARK Flexibility Score: inf
ROOT
ATOM      1  C   UNL A   1      45.612  24.434  25.656  1.00  0.00     0.002 C 
ENDROOT
BRANCH   1   2
ATOM      2  C   UNL A   1      46.876  24.397  24.786  1.00  0.00     0.021 C 
BRANCH   2   3
ATOM      3  C   UNL A   1      47.898  25.490  25.095  1.00  0.00     0.116 C 
BRANCH   3   4
ATOM      4  N   UNL A   1      47.330  26.816  24.947  1.00  0.00    -0.351 N 
ATOM      5  C   UNL A   1      47.425  27.749  23.943  1.00  0.00     0.273 C 
ATOM      6  O   UNL A   1      46.659  28.719  24.026  1.00  0.00    -0.267 OA
ATOM      7  H   UNL A   1      46.772  27.101  25.707  1.00  0.00     0.163 HD
BRANCH   5   8
ATOM      8  C   UNL A   1      48.325  27.584  22.806  1.00  0.00     0.170 A 
ATOM      9  N   UNL A   1      49.953  27.199  21.418  1.00  0.00    -0.249 N 
ATOM     10  C   UNL A   1      49.703  27.473  22.735  1.00  0.00     0.145 A 
ATOM     11  N   UNL A   1      48.835  27.289  20.684  1.00  0.00    -0.067 NA
ATOM     12  N   UNL A   1      47.832  27.522  21.518  1.00  0.00    -0.125 NA
BRANCH   9  13
ATOM     13  C   UNL A   1      51.143  26.590  20.851  1.00  0.00     0.184 C 
BRANCH  13  14
ATOM     14  C   UNL A   1      51.881  27.586  19.952  1.00  0.00     0.194 C 
ATOM     15  N   UNL A   1      52.169  28.457  17.618  1.00  0.00    -0.331 N 
ATOM     16  C   UNL A   1      52.305  29.794  18.217  1.00  0.00     0.291 C 
ATOM     17  C   UNL A   1      51.366  27.588  18.492  1.00  0.00     0.296 C 
ATOM     18  H   UNL A   1      51.632  28.557  16.758  1.00  0.00     0.348 HD
ATOM     19  C   UNL A   1      52.625  29.808  19.724  1.00  0.00     0.222 C 
ATOM     20  O   UNL A   1      51.775  28.923  20.478  1.00  0.00    -0.365 OA
BRANCH  15  21
ATOM     21  C   UNL A   1      53.392  27.888  17.046  1.00  0.00     0.258 C 
ATOM     22  C   UNL A   1      53.895  28.377  15.689  1.00  0.00     0.071 C 
ENDBRANCH  15  21
ENDBRANCH  13  14
ENDBRANCH   9  13
ENDBRANCH   5   8
ENDBRANCH   3   4
ENDBRANCH   2   3
ENDBRANCH   1   2
BRANCH   1  23
ATOM     23  C   UNL A   1      44.276  24.176  24.938  1.00  0.00     0.002 C 
BRANCH  23  24
ATOM     24  C   UNL A   1      44.097  22.803  24.275  1.00  0.00     0.021 C 
BRANCH  24  25
ATOM     25  C   UNL A   1      44.188  21.629  25.238  1.00  0.00     0.116 C 
BRANCH  25  26
ATOM     26  N   UNL A   1      42.920  20.913  25.394  1.00  0.00    -0.352 N 
ATOM     27  C   UNL A   1      41.956  21.103  26.363  1.00  0.00     0.251 C 
ATOM     28  H   UNL A   1      42.734  20.212  24.727  1.00  0.00     0.163 HD
ATOM     29  O   UNL A   1      41.119  20.229  26.600  1.00  0.00    -0.269 OA
BRANCH  27  30
ATOM     30  C   UNL A   1      41.946  22.371  27.110  1.00  0.00     0.039 A 
ATOM     31  C   UNL A   1      42.765  22.588  28.223  1.00  0.00     0.014 A 
ATOM     32  C   UNL A   1      41.116  23.380  26.634  1.00  0.00     0.014 A 
ATOM     33  C   UNL A   1      42.796  23.859  28.800  1.00  0.00     0.010 A 
ATOM     34  C   UNL A   1      41.288  24.663  27.079  1.00  0.00     0.010 A 
ATOM     35  C   UNL A   1      42.064  24.899  28.211  1.00  0.00    -0.014 A 
BRANCH  35  36
ATOM     36  C   UNL A   1      42.108  26.263  28.730  1.00  0.00     0.031 A 
ATOM     37  C   UNL A   1      43.213  27.133  28.229  1.00  0.00     0.074 A 
ATOM     38  C   UNL A   1      41.063  26.789  29.408  1.00  0.00     0.049 A 
ATOM     39  N   UNL A   1      44.131  27.736  28.910  1.00  0.00    -0.248 NA
ATOM     40  C   UNL A   1      43.357  27.294  26.772  1.00  0.00     0.031 C 
ATOM     41  C   UNL A   1      39.750  26.182  29.682  1.00  0.00     0.029 A 
ATOM     42  N   UNL A   1      40.898  28.057  29.863  1.00  0.00    -0.354 N 
ATOM     43  C   UNL A   1      44.877  28.484  27.999  1.00  0.00     0.074 A 
ATOM     44  C   UNL A   1      44.438  28.071  26.688  1.00  0.00     0.031 C 
ATOM     45  C   UNL A   1      38.861  27.149  29.996  1.00  0.00     0.029 A 
ATOM     46  C   UNL A   1      39.581  28.397  30.146  1.00  0.00     0.049 A 
ATOM     47  H   UNL A   1      41.648  28.683  29.983  1.00  0.00     0.167 HD
ATOM     48  C   UNL A   1      45.683  29.515  28.384  1.00  0.00     0.031 A 
ATOM     49  C   UNL A   1      39.107  29.630  30.447  1.00  0.00     0.031 A 
ATOM     50  C   UNL A   1      45.898  29.523  29.806  1.00  0.00     0.049 A 
ATOM     51  C   UNL A   1      40.269  30.440  30.885  1.00  0.00     0.074 A 
ATOM     52  C   UNL A   1      46.494  28.657  30.700  1.00  0.00     0.029 A 
ATOM     53  N   UNL A   1      45.109  30.360  30.559  1.00  0.00    -0.354 N 
ATOM     54  N   UNL A   1      40.963  30.177  31.957  1.00  0.00    -0.248 NA
ATOM     55  C   UNL A   1      40.943  31.265  29.895  1.00  0.00     0.031 C 
ATOM     56  C   UNL A   1      45.654  28.691  31.852  1.00  0.00     0.029 A 
ATOM     57  C   UNL A   1      44.640  29.626  31.620  1.00  0.00     0.049 A 
ATOM     58  H   UNL A   1      44.915  31.307  30.373  1.00  0.00     0.167 HD
ATOM     59  C   UNL A   1      42.281  30.434  31.605  1.00  0.00     0.074 A 
ATOM     60  C   UNL A   1      42.193  31.196  30.360  1.00  0.00     0.031 C 
ATOM     61  C   UNL A   1      43.320  29.774  32.201  1.00  0.00     0.031 A 
BRANCH  48  62
ATOM     62  C   UNL A   1      46.029  30.705  27.521  1.00  0.00    -0.014 A 
ATOM     63  C   UNL A   1      47.383  31.060  27.342  1.00  0.00     0.010 A 
ATOM     64  C   UNL A   1      45.064  31.636  27.086  1.00  0.00     0.010 A 
ATOM     65  C   UNL A   1      47.748  32.305  26.809  1.00  0.00     0.020 A 
ATOM     66  C   UNL A   1      45.417  32.862  26.515  1.00  0.00     0.020 A 
ATOM     67  C   UNL A   1      46.759  33.204  26.412  1.00  0.00     0.054 A 
BRANCH  67  68
ATOM     68  S   UNL A   1      47.233  34.853  25.833  1.00  0.00     0.124 S 
ATOM     69  O   UNL A   1      48.683  34.726  25.718  1.00  0.00    -0.237 OA
ATOM     70  O   UNL A   1      46.504  34.962  24.573  1.00  0.00    -0.237 OA
ATOM     71  O   UNL A   1      46.764  35.738  26.897  1.00  0.00    -0.744 OA
ENDBRANCH  67  68
ENDBRANCH  48  62
BRANCH  49  72
ATOM     72  C   UNL A   1      37.800  30.214  30.065  1.00  0.00    -0.014 A 
ATOM     73  C   UNL A   1      37.072  31.014  30.963  1.00  0.00     0.010 A 
ATOM     74  C   UNL A   1      37.399  30.211  28.711  1.00  0.00     0.010 A 
ATOM     75  C   UNL A   1      36.021  31.831  30.512  1.00  0.00     0.020 A 
ATOM     76  C   UNL A   1      36.349  31.017  28.256  1.00  0.00     0.020 A 
ATOM     77  C   UNL A   1      35.682  31.844  29.155  1.00  0.00     0.054 A 
BRANCH  77  78
ATOM     78  S   UNL A   1      34.457  33.044  28.551  1.00  0.00     0.124 S 
ATOM     79  O   UNL A   1      33.992  33.662  29.787  1.00  0.00    -0.237 OA
ATOM     80  O   UNL A   1      35.257  33.899  27.677  1.00  0.00    -0.237 OA
ATOM     81  O   UNL A   1      33.472  32.211  27.862  1.00  0.00    -0.744 OA
ENDBRANCH  77  78
ENDBRANCH  49  72
BRANCH  61  82
ATOM     82  C   UNL A   1      43.032  28.926  33.423  1.00  0.00    -0.014 A 
ATOM     83  C   UNL A   1      42.966  29.444  34.733  1.00  0.00     0.010 A 
ATOM     84  C   UNL A   1      42.636  27.594  33.215  1.00  0.00     0.010 A 
ATOM     85  C   UNL A   1      42.535  28.644  35.804  1.00  0.00     0.020 A 
ATOM     86  C   UNL A   1      42.189  26.797  34.273  1.00  0.00     0.020 A 
ATOM     87  C   UNL A   1      42.147  27.322  35.565  1.00  0.00     0.054 A 
BRANCH  87  88
ATOM     88  S   UNL A   1      41.530  26.308  36.938  1.00  0.00     0.124 S 
ATOM     89  O   UNL A   1      41.163  25.062  36.271  1.00  0.00    -0.237 OA
ATOM     90  O   UNL A   1      42.685  26.228  37.830  1.00  0.00    -0.237 OA
ATOM     91  O   UNL A   1      40.405  27.081  37.465  1.00  0.00    -0.744 OA
ENDBRANCH  87  88
ENDBRANCH  61  82
ENDBRANCH  35  36
ENDBRANCH  27  30
ENDBRANCH  25  26
ENDBRANCH  24  25
ENDBRANCH  23  24
ENDBRANCH   1  23
TORSDOF 19
ENDMDL
