MODEL 1
REMARK VINA RESULT:     -10.6      0.000      0.000
REMARK SMILES O=C(NCCCCCCNC(=O)[C@H]1C[C@H](O)CN1S(=O)(=O)c1ccc2c(c1)OCCO2)c1ccc(-c2c3nc(c(-c4ccc(S(=O)(=O)[O-])cc4)c4ccc([nH]4)c(-c4ccc(S(=O)(=O)[O-])cc4)c4nc(c(-c5ccc(S(=O)(=O)[O-])cc5)c5ccc2[nH]5)C=C4)C=C3)cc1
REMARK SMILES IDX 6 1 5 2 4 3 3 4 1 5 2 6 32 8 33 9 91 10 34 11 90 12 35 13
REMARK SMILES IDX 36 14 37 15 84 16 38 17 89 18 83 19 85 20 39 21 88 22 82 23
REMARK SMILES IDX 81 24 40 26 70 27 51 28 69 29 52 30 55 31 68 32 86 33 53 34
REMARK SMILES IDX 54 35 67 37 87 38 56 39 41 40 42 41 50 42 43 43 49 44 44 45
REMARK SMILES IDX 45 46 46 47 47 48 48 49 71 50 72 51 80 52 73 53 79 54 74 55
REMARK SMILES IDX 75 56 76 57 77 58 78 59 57 60 58 61 66 62 59 63 65 64 60 65
REMARK SMILES IDX 61 66 62 67 63 68 64 69 7 70 8 71 9 72 10 73 11 74 12 76
REMARK SMILES IDX 13 77 14 78 18 79 15 80 17 81 19 82 20 83 21 84 22 85 23 86
REMARK SMILES IDX 27 87 24 88 26 89 25 90 28 91 31 92 29 93 30 94 16 95
REMARK H PARENT 3 7 85 25 55 36 10 75 16 96
REMARK Flexibility Score: inf
ROOT
ATOM      1  C   UNL A   1      31.842  28.678  26.408  1.00  0.00     0.002 C 
ENDROOT
BRANCH   1   2
ATOM      2  C   UNL A   1      33.198  28.065  26.765  1.00  0.00     0.021 C 
BRANCH   2   3
ATOM      3  C   UNL A   1      34.396  28.965  26.487  1.00  0.00     0.116 C 
BRANCH   3   4
ATOM      4  N   UNL A   1      34.136  30.344  26.859  1.00  0.00    -0.352 N 
ATOM      5  O   UNL A   1      34.307  32.198  28.127  1.00  0.00    -0.269 OA
ATOM      6  C   UNL A   1      34.774  31.112  27.798  1.00  0.00     0.251 C 
ATOM      7  H   UNL A   1      33.404  30.787  26.372  1.00  0.00     0.163 HD
BRANCH   6   8
ATOM      8  C   UNL A   1      36.025  30.620  28.413  1.00  0.00     0.039 A 
ATOM      9  C   UNL A   1      37.263  31.126  28.003  1.00  0.00     0.014 A 
ATOM     10  C   UNL A   1      35.953  29.674  29.439  1.00  0.00     0.014 A 
ATOM     11  C   UNL A   1      38.434  30.632  28.569  1.00  0.00     0.010 A 
ATOM     12  C   UNL A   1      37.125  29.230  30.055  1.00  0.00     0.010 A 
ATOM     13  C   UNL A   1      38.373  29.709  29.625  1.00  0.00    -0.014 A 
BRANCH  13  14
ATOM     14  C   UNL A   1      39.610  29.378  30.369  1.00  0.00     0.031 A 
ATOM     15  C   UNL A   1      39.993  30.107  31.624  1.00  0.00     0.074 A 
ATOM     16  C   UNL A   1      40.400  28.404  29.870  1.00  0.00     0.049 A 
ATOM     17  N   UNL A   1      41.051  29.939  32.373  1.00  0.00    -0.248 NA
ATOM     18  C   UNL A   1      39.080  31.159  32.098  1.00  0.00     0.031 C 
ATOM     19  C   UNL A   1      40.130  27.649  28.641  1.00  0.00     0.029 A 
ATOM     20  N   UNL A   1      41.579  27.878  30.327  1.00  0.00    -0.354 N 
ATOM     21  C   UNL A   1      40.948  30.876  33.394  1.00  0.00     0.074 A 
ATOM     22  C   UNL A   1      39.725  31.616  33.166  1.00  0.00     0.031 C 
ATOM     23  C   UNL A   1      41.100  26.743  28.457  1.00  0.00     0.029 A 
ATOM     24  C   UNL A   1      42.090  26.892  29.515  1.00  0.00     0.049 A 
ATOM     25  H   UNL A   1      42.018  28.177  31.156  1.00  0.00     0.167 HD
ATOM     26  C   UNL A   1      41.801  31.093  34.424  1.00  0.00     0.031 A 
ATOM     27  C   UNL A   1      43.244  26.205  29.592  1.00  0.00     0.031 A 
ATOM     28  C   UNL A   1      43.011  30.341  34.641  1.00  0.00     0.049 A 
ATOM     29  C   UNL A   1      44.180  26.493  30.729  1.00  0.00     0.074 A 
ATOM     30  C   UNL A   1      43.905  30.440  35.694  1.00  0.00     0.029 A 
ATOM     31  N   UNL A   1      43.506  29.368  33.787  1.00  0.00    -0.354 N 
ATOM     32  N   UNL A   1      44.025  27.329  31.727  1.00  0.00    -0.248 NA
ATOM     33  C   UNL A   1      45.446  25.750  30.749  1.00  0.00     0.031 C 
ATOM     34  C   UNL A   1      44.971  29.569  35.445  1.00  0.00     0.029 A 
ATOM     35  C   UNL A   1      44.714  28.889  34.266  1.00  0.00     0.049 A 
ATOM     36  H   UNL A   1      43.065  29.062  32.961  1.00  0.00     0.167 HD
ATOM     37  C   UNL A   1      45.176  27.213  32.496  1.00  0.00     0.074 A 
ATOM     38  C   UNL A   1      46.001  26.201  31.865  1.00  0.00     0.031 C 
ATOM     39  C   UNL A   1      45.524  27.890  33.616  1.00  0.00     0.031 A 
BRANCH  26  40
ATOM     40  C   UNL A   1      41.484  32.199  35.395  1.00  0.00    -0.014 A 
ATOM     41  C   UNL A   1      41.903  33.519  35.157  1.00  0.00     0.010 A 
ATOM     42  C   UNL A   1      40.657  31.930  36.503  1.00  0.00     0.010 A 
ATOM     43  C   UNL A   1      41.505  34.551  36.013  1.00  0.00     0.020 A 
ATOM     44  C   UNL A   1      40.243  32.962  37.350  1.00  0.00     0.020 A 
ATOM     45  C   UNL A   1      40.673  34.267  37.102  1.00  0.00     0.054 A 
BRANCH  45  46
ATOM     46  S   UNL A   1      40.115  35.637  38.152  1.00  0.00     0.124 S 
ATOM     47  O   UNL A   1      39.878  36.693  37.170  1.00  0.00    -0.237 OA
ATOM     48  O   UNL A   1      38.917  35.089  38.784  1.00  0.00    -0.237 OA
ATOM     49  O   UNL A   1      41.242  35.866  39.053  1.00  0.00    -0.744 OA
ENDBRANCH  45  46
ENDBRANCH  26  40
BRANCH  27  50
ATOM     50  C   UNL A   1      43.600  25.226  28.530  1.00  0.00    -0.014 A 
ATOM     51  C   UNL A   1      44.196  25.648  27.331  1.00  0.00     0.010 A 
ATOM     52  C   UNL A   1      43.337  23.857  28.722  1.00  0.00     0.010 A 
ATOM     53  C   UNL A   1      44.498  24.720  26.329  1.00  0.00     0.020 A 
ATOM     54  C   UNL A   1      43.665  22.923  27.736  1.00  0.00     0.020 A 
ATOM     55  C   UNL A   1      44.226  23.365  26.537  1.00  0.00     0.054 A 
BRANCH  55  56
ATOM     56  S   UNL A   1      44.644  22.173  25.235  1.00  0.00     0.124 S 
ATOM     57  O   UNL A   1      43.481  21.291  25.250  1.00  0.00    -0.237 OA
ATOM     58  O   UNL A   1      44.777  23.024  24.055  1.00  0.00    -0.237 OA
ATOM     59  O   UNL A   1      45.890  21.576  25.707  1.00  0.00    -0.744 OA
ENDBRANCH  55  56
ENDBRANCH  27  50
BRANCH  39  60
ATOM     60  C   UNL A   1      46.854  27.554  34.229  1.00  0.00    -0.014 A 
ATOM     61  C   UNL A   1      48.009  28.278  33.884  1.00  0.00     0.010 A 
ATOM     62  C   UNL A   1      46.943  26.531  35.189  1.00  0.00     0.010 A 
ATOM     63  C   UNL A   1      49.238  27.965  34.468  1.00  0.00     0.020 A 
ATOM     64  C   UNL A   1      48.166  26.232  35.796  1.00  0.00     0.020 A 
ATOM     65  C   UNL A   1      49.308  26.944  35.421  1.00  0.00     0.054 A 
BRANCH  65  66
ATOM     66  S   UNL A   1      50.907  26.586  36.198  1.00  0.00     0.124 S 
ATOM     67  O   UNL A   1      51.261  27.879  36.774  1.00  0.00    -0.237 OA
ATOM     68  O   UNL A   1      50.570  25.540  37.160  1.00  0.00    -0.237 OA
ATOM     69  O   UNL A   1      51.743  26.150  35.082  1.00  0.00    -0.744 OA
ENDBRANCH  65  66
ENDBRANCH  39  60
ENDBRANCH  13  14
ENDBRANCH   6   8
ENDBRANCH   3   4
ENDBRANCH   2   3
ENDBRANCH   1   2
BRANCH   1  70
ATOM     70  C   UNL A   1      31.197  28.157  25.115  1.00  0.00     0.002 C 
BRANCH  70  71
ATOM     71  C   UNL A   1      31.954  28.480  23.823  1.00  0.00     0.021 C 
BRANCH  71  72
ATOM     72  C   UNL A   1      32.824  27.334  23.316  1.00  0.00     0.116 C 
BRANCH  72  73
ATOM     73  N   UNL A   1      32.045  26.153  23.007  1.00  0.00    -0.355 N 
ATOM     74  C   UNL A   1      31.753  25.042  23.731  1.00  0.00     0.238 C 
ATOM     75  H   UNL A   1      31.656  26.157  22.103  1.00  0.00     0.163 HD
ATOM     76  O   UNL A   1      31.030  24.204  23.174  1.00  0.00    -0.273 OA
BRANCH  74  77
ATOM     77  C   UNL A   1      32.276  24.766  25.141  1.00  0.00     0.165 C 
ATOM     78  C   UNL A   1      31.287  24.098  26.109  1.00  0.00     0.063 C 
ATOM     79  N   UNL A   1      33.625  24.128  25.388  1.00  0.00    -0.183 NA
ATOM     80  C   UNL A   1      32.016  22.865  26.620  1.00  0.00     0.131 C 
ATOM     81  C   UNL A   1      33.469  23.319  26.627  1.00  0.00     0.135 C 
BRANCH  79  82
ATOM     82  S   UNL A   1      34.373  23.394  24.050  1.00  0.00     0.244 S 
ATOM     83  O   UNL A   1      33.609  22.205  23.729  1.00  0.00    -0.207 OA
ATOM     84  O   UNL A   1      34.630  24.409  23.059  1.00  0.00    -0.207 OA
BRANCH  82  85
ATOM     85  C   UNL A   1      35.946  22.829  24.653  1.00  0.00     0.086 A 
ATOM     86  C   UNL A   1      36.339  21.497  24.491  1.00  0.00     0.026 A 
ATOM     87  C   UNL A   1      36.726  23.714  25.402  1.00  0.00     0.072 A 
ATOM     88  C   UNL A   1      37.544  21.064  25.057  1.00  0.00     0.052 A 
ATOM     89  C   UNL A   1      37.948  23.293  25.906  1.00  0.00     0.162 A 
ATOM     90  C   UNL A   1      38.348  21.962  25.761  1.00  0.00     0.161 A 
ATOM     91  O   UNL A   1      38.705  24.248  26.530  1.00  0.00    -0.486 OA
ATOM     92  O   UNL A   1      39.519  21.477  26.287  1.00  0.00    -0.486 OA
ATOM     93  C   UNL A   1      40.064  23.818  26.659  1.00  0.00     0.271 C 
ATOM     94  C   UNL A   1      40.107  22.404  27.213  1.00  0.00     0.271 C 
ENDBRANCH  82  85
ENDBRANCH  79  82
BRANCH  80  95
ATOM     95  O   UNL A   1      31.547  22.460  27.895  1.00  0.00    -0.392 OA
ATOM     96  H   UNL A   1      31.772  23.136  28.552  1.00  0.00     0.211 HD
ENDBRANCH  80  95
ENDBRANCH  74  77
ENDBRANCH  72  73
ENDBRANCH  71  72
ENDBRANCH  70  71
ENDBRANCH   1  70
TORSDOF 19
ENDMDL
MODEL 2
REMARK VINA RESULT:     -10.5      5.044      6.464
REMARK SMILES O=C(NCCCCCCNC(=O)[C@H]1C[C@H](O)CN1S(=O)(=O)c1ccc2c(c1)OCCO2)c1ccc(-c2c3nc(c(-c4ccc(S(=O)(=O)[O-])cc4)c4ccc([nH]4)c(-c4ccc(S(=O)(=O)[O-])cc4)c4nc(c(-c5ccc(S(=O)(=O)[O-])cc5)c5ccc2[nH]5)C=C4)C=C3)cc1
REMARK SMILES IDX 6 1 5 2 4 3 3 4 1 5 2 6 32 8 33 9 91 10 34 11 90 12 35 13
REMARK SMILES IDX 36 14 37 15 84 16 38 17 89 18 83 19 85 20 39 21 88 22 82 23
REMARK SMILES IDX 81 24 40 26 70 27 51 28 69 29 52 30 55 31 68 32 86 33 53 34
REMARK SMILES IDX 54 35 67 37 87 38 56 39 41 40 42 41 50 42 43 43 49 44 44 45
REMARK SMILES IDX 45 46 46 47 47 48 48 49 71 50 72 51 80 52 73 53 79 54 74 55
REMARK SMILES IDX 75 56 76 57 77 58 78 59 57 60 58 61 66 62 59 63 65 64 60 65
REMARK SMILES IDX 61 66 62 67 63 68 64 69 7 70 8 71 9 72 10 73 11 74 12 76
REMARK SMILES IDX 13 77 14 78 18 79 15 80 17 81 19 82 20 83 21 84 22 85 23 86
REMARK SMILES IDX 27 87 24 88 26 89 25 90 28 91 31 92 29 93 30 94 16 95
REMARK H PARENT 3 7 85 25 55 36 10 75 16 96
REMARK Flexibility Score: inf
ROOT
ATOM      1  C   UNL A   1      33.044  29.748  27.113  1.00  0.00     0.002 C 
ENDROOT
BRANCH   1   2
ATOM      2  C   UNL A   1      34.484  29.247  27.245  1.00  0.00     0.021 C 
BRANCH   2   3
ATOM      3  C   UNL A   1      35.482  30.294  27.722  1.00  0.00     0.116 C 
BRANCH   3   4
ATOM      4  N   UNL A   1      35.387  30.521  29.153  1.00  0.00    -0.352 N 
ATOM      5  O   UNL A   1      35.961  30.266  31.317  1.00  0.00    -0.269 OA
ATOM      6  C   UNL A   1      36.279  30.174  30.135  1.00  0.00     0.251 C 
ATOM      7  H   UNL A   1      34.575  30.985  29.458  1.00  0.00     0.163 HD
BRANCH   6   8
ATOM      8  C   UNL A   1      37.623  29.687  29.759  1.00  0.00     0.039 A 
ATOM      9  C   UNL A   1      38.106  29.870  28.460  1.00  0.00     0.014 A 
ATOM     10  C   UNL A   1      38.423  29.081  30.731  1.00  0.00     0.014 A 
ATOM     11  C   UNL A   1      39.360  29.380  28.112  1.00  0.00     0.010 A 
ATOM     12  C   UNL A   1      39.710  28.652  30.399  1.00  0.00     0.010 A 
ATOM     13  C   UNL A   1      40.187  28.802  29.088  1.00  0.00    -0.014 A 
BRANCH  13  14
ATOM     14  C   UNL A   1      41.600  28.505  28.756  1.00  0.00     0.031 A 
ATOM     15  C   UNL A   1      42.653  29.574  28.772  1.00  0.00     0.074 A 
ATOM     16  C   UNL A   1      41.911  27.236  28.418  1.00  0.00     0.049 A 
ATOM     17  N   UNL A   1      43.926  29.468  28.489  1.00  0.00    -0.248 NA
ATOM     18  C   UNL A   1      42.230  30.932  29.147  1.00  0.00     0.031 C 
ATOM     19  C   UNL A   1      40.955  26.125  28.347  1.00  0.00     0.029 A 
ATOM     20  N   UNL A   1      43.107  26.663  28.075  1.00  0.00    -0.354 N 
ATOM     21  C   UNL A   1      44.454  30.746  28.628  1.00  0.00     0.074 A 
ATOM     22  C   UNL A   1      43.362  31.615  29.014  1.00  0.00     0.031 C 
ATOM     23  C   UNL A   1      41.605  25.003  28.010  1.00  0.00     0.029 A 
ATOM     24  C   UNL A   1      43.007  25.323  27.779  1.00  0.00     0.049 A 
ATOM     25  H   UNL A   1      43.955  27.162  28.043  1.00  0.00     0.167 HD
ATOM     26  C   UNL A   1      45.735  31.149  28.446  1.00  0.00     0.031 A 
ATOM     27  C   UNL A   1      43.933  24.453  27.338  1.00  0.00     0.031 A 
ATOM     28  C   UNL A   1      46.811  30.269  28.069  1.00  0.00     0.049 A 
ATOM     29  C   UNL A   1      45.334  24.940  27.118  1.00  0.00     0.074 A 
ATOM     30  C   UNL A   1      48.156  30.570  27.927  1.00  0.00     0.029 A 
ATOM     31  N   UNL A   1      46.668  28.926  27.756  1.00  0.00    -0.354 N 
ATOM     32  N   UNL A   1      45.830  26.136  27.330  1.00  0.00    -0.248 NA
ATOM     33  C   UNL A   1      46.301  23.966  26.595  1.00  0.00     0.031 C 
ATOM     34  C   UNL A   1      48.814  29.423  27.472  1.00  0.00     0.029 A 
ATOM     35  C   UNL A   1      47.891  28.394  27.381  1.00  0.00     0.049 A 
ATOM     36  H   UNL A   1      45.822  28.423  27.795  1.00  0.00     0.167 HD
ATOM     37  C   UNL A   1      47.168  26.058  26.967  1.00  0.00     0.074 A 
ATOM     38  C   UNL A   1      47.411  24.689  26.555  1.00  0.00     0.031 C 
ATOM     39  C   UNL A   1      48.108  27.033  26.964  1.00  0.00     0.031 A 
BRANCH  26  40
ATOM     40  C   UNL A   1      46.059  32.608  28.628  1.00  0.00    -0.014 A 
ATOM     41  C   UNL A   1      46.743  33.065  29.767  1.00  0.00     0.010 A 
ATOM     42  C   UNL A   1      45.774  33.514  27.588  1.00  0.00     0.010 A 
ATOM     43  C   UNL A   1      47.132  34.405  29.866  1.00  0.00     0.020 A 
ATOM     44  C   UNL A   1      46.177  34.850  27.676  1.00  0.00     0.020 A 
ATOM     45  C   UNL A   1      46.850  35.288  28.818  1.00  0.00     0.054 A 
BRANCH  45  46
ATOM     46  S   UNL A   1      47.431  37.002  28.944  1.00  0.00     0.124 S 
ATOM     47  O   UNL A   1      48.427  37.063  27.876  1.00  0.00    -0.237 OA
ATOM     48  O   UNL A   1      46.212  37.772  28.709  1.00  0.00    -0.237 OA
ATOM     49  O   UNL A   1      47.967  37.089  30.301  1.00  0.00    -0.744 OA
ENDBRANCH  45  46
ENDBRANCH  26  40
BRANCH  27  50
ATOM     50  C   UNL A   1      43.546  23.051  27.021  1.00  0.00    -0.014 A 
ATOM     51  C   UNL A   1      42.813  22.281  27.938  1.00  0.00     0.010 A 
ATOM     52  C   UNL A   1      43.917  22.482  25.788  1.00  0.00     0.010 A 
ATOM     53  C   UNL A   1      42.482  20.956  27.640  1.00  0.00     0.020 A 
ATOM     54  C   UNL A   1      43.561  21.169  25.474  1.00  0.00     0.020 A 
ATOM     55  C   UNL A   1      42.863  20.408  26.411  1.00  0.00     0.054 A 
BRANCH  55  56
ATOM     56  S   UNL A   1      42.406  18.693  26.032  1.00  0.00     0.124 S 
ATOM     57  O   UNL A   1      43.312  18.376  24.934  1.00  0.00    -0.237 OA
ATOM     58  O   UNL A   1      42.675  18.006  27.293  1.00  0.00    -0.237 OA
ATOM     59  O   UNL A   1      40.993  18.789  25.673  1.00  0.00    -0.744 OA
ENDBRANCH  55  56
ENDBRANCH  27  50
BRANCH  39  60
ATOM     60  C   UNL A   1      49.485  26.649  26.501  1.00  0.00    -0.014 A 
ATOM     61  C   UNL A   1      50.403  26.058  27.387  1.00  0.00     0.010 A 
ATOM     62  C   UNL A   1      49.851  26.845  25.158  1.00  0.00     0.010 A 
ATOM     63  C   UNL A   1      51.677  25.695  26.944  1.00  0.00     0.020 A 
ATOM     64  C   UNL A   1      51.115  26.459  24.704  1.00  0.00     0.020 A 
ATOM     65  C   UNL A   1      52.024  25.898  25.604  1.00  0.00     0.054 A 
BRANCH  65  66
ATOM     66  S   UNL A   1      53.667  25.378  25.042  1.00  0.00     0.124 S 
ATOM     67  O   UNL A   1      53.627  23.937  25.276  1.00  0.00    -0.237 OA
ATOM     68  O   UNL A   1      53.673  25.787  23.640  1.00  0.00    -0.237 OA
ATOM     69  O   UNL A   1      54.579  26.124  25.906  1.00  0.00    -0.744 OA
ENDBRANCH  65  66
ENDBRANCH  39  60
ENDBRANCH  13  14
ENDBRANCH   6   8
ENDBRANCH   3   4
ENDBRANCH   2   3
ENDBRANCH   1   2
BRANCH   1  70
ATOM     70  C   UNL A   1      32.337  29.403  25.795  1.00  0.00     0.002 C 
BRANCH  70  71
ATOM     71  C   UNL A   1      33.164  28.583  24.797  1.00  0.00     0.021 C 
BRANCH  71  72
ATOM     72  C   UNL A   1      33.041  27.076  24.988  1.00  0.00     0.116 C 
BRANCH  72  73
ATOM     73  N   UNL A   1      31.799  26.706  25.636  1.00  0.00    -0.355 N 
ATOM     74  C   UNL A   1      30.879  25.747  25.357  1.00  0.00     0.238 C 
ATOM     75  H   UNL A   1      31.583  27.252  26.426  1.00  0.00     0.163 HD
ATOM     76  O   UNL A   1      29.916  25.676  26.132  1.00  0.00    -0.273 OA
BRANCH  74  77
ATOM     77  C   UNL A   1      30.952  24.802  24.157  1.00  0.00     0.165 C 
ATOM     78  C   UNL A   1      31.524  25.399  22.862  1.00  0.00     0.063 C 
ATOM     79  N   UNL A   1      31.503  23.398  24.271  1.00  0.00    -0.183 NA
ATOM     80  C   UNL A   1      32.654  24.460  22.468  1.00  0.00     0.131 C 
ATOM     81  C   UNL A   1      32.151  23.111  22.962  1.00  0.00     0.135 C 
BRANCH  79  82
ATOM     82  S   UNL A   1      32.376  23.039  25.684  1.00  0.00     0.244 S 
ATOM     83  O   UNL A   1      33.455  24.002  25.779  1.00  0.00    -0.207 OA
ATOM     84  O   UNL A   1      31.438  22.857  26.765  1.00  0.00    -0.207 OA
BRANCH  82  85
ATOM     85  C   UNL A   1      33.138  21.466  25.369  1.00  0.00     0.086 A 
ATOM     86  C   UNL A   1      34.518  21.365  25.168  1.00  0.00     0.026 A 
ATOM     87  C   UNL A   1      32.312  20.350  25.204  1.00  0.00     0.072 A 
ATOM     88  C   UNL A   1      35.073  20.124  24.833  1.00  0.00     0.052 A 
ATOM     89  C   UNL A   1      32.877  19.113  24.934  1.00  0.00     0.162 A 
ATOM     90  C   UNL A   1      34.253  19.000  24.718  1.00  0.00     0.161 A 
ATOM     91  O   UNL A   1      32.014  18.050  24.899  1.00  0.00    -0.486 OA
ATOM     92  O   UNL A   1      34.859  17.811  24.393  1.00  0.00    -0.486 OA
ATOM     93  C   UNL A   1      32.726  16.812  25.000  1.00  0.00     0.271 C 
ATOM     94  C   UNL A   1      33.896  16.809  24.031  1.00  0.00     0.271 C 
ENDBRANCH  82  85
ENDBRANCH  79  82
BRANCH  80  95
ATOM     95  O   UNL A   1      32.908  24.489  21.074  1.00  0.00    -0.392 OA
ATOM     96  H   UNL A   1      33.051  23.586  20.753  1.00  0.00     0.211 HD
ENDBRANCH  80  95
ENDBRANCH  74  77
ENDBRANCH  72  73
ENDBRANCH  71  72
ENDBRANCH  70  71
ENDBRANCH   1  70
TORSDOF 19
ENDMDL
MODEL 3
REMARK VINA RESULT:     -10.4      2.787      8.353
REMARK SMILES O=C(NCCCCCCNC(=O)[C@H]1C[C@H](O)CN1S(=O)(=O)c1ccc2c(c1)OCCO2)c1ccc(-c2c3nc(c(-c4ccc(S(=O)(=O)[O-])cc4)c4ccc([nH]4)c(-c4ccc(S(=O)(=O)[O-])cc4)c4nc(c(-c5ccc(S(=O)(=O)[O-])cc5)c5ccc2[nH]5)C=C4)C=C3)cc1
REMARK SMILES IDX 6 1 5 2 4 3 3 4 1 5 2 6 32 8 33 9 91 10 34 11 90 12 35 13
REMARK SMILES IDX 36 14 37 15 84 16 38 17 89 18 83 19 85 20 39 21 88 22 82 23
REMARK SMILES IDX 81 24 40 26 70 27 51 28 69 29 52 30 55 31 68 32 86 33 53 34
REMARK SMILES IDX 54 35 67 37 87 38 56 39 41 40 42 41 50 42 43 43 49 44 44 45
REMARK SMILES IDX 45 46 46 47 47 48 48 49 71 50 72 51 80 52 73 53 79 54 74 55
REMARK SMILES IDX 75 56 76 57 77 58 78 59 57 60 58 61 66 62 59 63 65 64 60 65
REMARK SMILES IDX 61 66 62 67 63 68 64 69 7 70 8 71 9 72 10 73 11 74 12 76
REMARK SMILES IDX 13 77 14 78 18 79 15 80 17 81 19 82 20 83 21 84 22 85 23 86
REMARK SMILES IDX 27 87 24 88 26 89 25 90 28 91 31 92 29 93 30 94 16 95
REMARK H PARENT 3 7 85 25 55 36 10 75 16 96
REMARK Flexibility Score: inf
ROOT
ATOM      1  C   UNL A   1      31.639  29.123  25.978  1.00  0.00     0.002 C 
ENDROOT
BRANCH   1   2
ATOM      2  C   UNL A   1      32.430  28.117  26.817  1.00  0.00     0.021 C 
BRANCH   2   3
ATOM      3  C   UNL A   1      33.777  28.624  27.315  1.00  0.00     0.116 C 
BRANCH   3   4
ATOM      4  N   UNL A   1      33.711  30.010  27.742  1.00  0.00    -0.352 N 
ATOM      5  O   UNL A   1      34.378  31.852  28.855  1.00  0.00    -0.269 OA
ATOM      6  C   UNL A   1      34.663  30.751  28.394  1.00  0.00     0.251 C 
ATOM      7  H   UNL A   1      32.872  30.481  27.536  1.00  0.00     0.163 HD
BRANCH   6   8
ATOM      8  C   UNL A   1      36.031  30.211  28.540  1.00  0.00     0.039 A 
ATOM      9  C   UNL A   1      36.943  30.294  27.482  1.00  0.00     0.014 A 
ATOM     10  C   UNL A   1      36.417  29.657  29.764  1.00  0.00     0.014 A 
ATOM     11  C   UNL A   1      38.217  29.755  27.623  1.00  0.00     0.010 A 
ATOM     12  C   UNL A   1      37.720  29.180  29.927  1.00  0.00     0.010 A 
ATOM     13  C   UNL A   1      38.629  29.229  28.858  1.00  0.00    -0.014 A 
BRANCH  13  14
ATOM     14  C   UNL A   1      40.055  28.881  29.057  1.00  0.00     0.031 A 
ATOM     15  C   UNL A   1      40.604  27.548  28.641  1.00  0.00     0.074 A 
ATOM     16  C   UNL A   1      40.848  29.800  29.646  1.00  0.00     0.049 A 
ATOM     17  N   UNL A   1      41.825  27.095  28.764  1.00  0.00    -0.248 NA
ATOM     18  C   UNL A   1      39.672  26.601  28.010  1.00  0.00     0.031 C 
ATOM     19  C   UNL A   1      40.406  31.119  30.112  1.00  0.00     0.029 A 
ATOM     20  N   UNL A   1      42.183  29.774  29.951  1.00  0.00    -0.354 N 
ATOM     21  C   UNL A   1      41.807  25.805  28.251  1.00  0.00     0.074 A 
ATOM     22  C   UNL A   1      40.450  25.541  27.818  1.00  0.00     0.031 C 
ATOM     23  C   UNL A   1      41.453  31.783  30.619  1.00  0.00     0.029 A 
ATOM     24  C   UNL A   1      42.625  30.920  30.572  1.00  0.00     0.049 A 
ATOM     25  H   UNL A   1      42.769  29.010  29.746  1.00  0.00     0.167 HD
ATOM     26  C   UNL A   1      42.833  24.925  28.154  1.00  0.00     0.031 A 
ATOM     27  C   UNL A   1      43.831  31.230  31.080  1.00  0.00     0.031 A 
ATOM     28  C   UNL A   1      44.179  25.206  28.583  1.00  0.00     0.049 A 
ATOM     29  C   UNL A   1      44.936  30.220  30.983  1.00  0.00     0.074 A 
ATOM     30  C   UNL A   1      45.302  24.405  28.463  1.00  0.00     0.029 A 
ATOM     31  N   UNL A   1      44.583  26.365  29.226  1.00  0.00    -0.354 N 
ATOM     32  N   UNL A   1      44.917  29.034  30.424  1.00  0.00    -0.248 NA
ATOM     33  C   UNL A   1      46.223  30.586  31.589  1.00  0.00     0.031 C 
ATOM     34  C   UNL A   1      46.372  25.055  29.087  1.00  0.00     0.029 A 
ATOM     35  C   UNL A   1      45.927  26.284  29.548  1.00  0.00     0.049 A 
ATOM     36  H   UNL A   1      44.000  27.134  29.425  1.00  0.00     0.167 HD
ATOM     37  C   UNL A   1      46.190  28.511  30.609  1.00  0.00     0.074 A 
ATOM     38  C   UNL A   1      46.962  29.523  31.302  1.00  0.00     0.031 C 
ATOM     39  C   UNL A   1      46.673  27.298  30.248  1.00  0.00     0.031 A 
BRANCH  26  40
ATOM     40  C   UNL A   1      42.554  23.560  27.583  1.00  0.00    -0.014 A 
ATOM     41  C   UNL A   1      42.825  23.265  26.236  1.00  0.00     0.010 A 
ATOM     42  C   UNL A   1      42.122  22.528  28.438  1.00  0.00     0.010 A 
ATOM     43  C   UNL A   1      42.663  21.962  25.753  1.00  0.00     0.020 A 
ATOM     44  C   UNL A   1      41.977  21.222  27.962  1.00  0.00     0.020 A 
ATOM     45  C   UNL A   1      42.244  20.947  26.620  1.00  0.00     0.054 A 
BRANCH  45  46
ATOM     46  S   UNL A   1      42.114  19.255  25.980  1.00  0.00     0.124 S 
ATOM     47  O   UNL A   1      42.936  19.323  24.775  1.00  0.00    -0.237 OA
ATOM     48  O   UNL A   1      42.667  18.456  27.072  1.00  0.00    -0.237 OA
ATOM     49  O   UNL A   1      40.682  19.080  25.748  1.00  0.00    -0.744 OA
ENDBRANCH  45  46
ENDBRANCH  26  40
BRANCH  27  50
ATOM     50  C   UNL A   1      44.034  32.529  31.776  1.00  0.00    -0.014 A 
ATOM     51  C   UNL A   1      43.855  32.639  33.164  1.00  0.00     0.010 A 
ATOM     52  C   UNL A   1      44.409  33.669  31.040  1.00  0.00     0.010 A 
ATOM     53  C   UNL A   1      44.019  33.874  33.800  1.00  0.00     0.020 A 
ATOM     54  C   UNL A   1      44.604  34.896  31.676  1.00  0.00     0.020 A 
ATOM     55  C   UNL A   1      44.389  34.994  33.051  1.00  0.00     0.054 A 
BRANCH  55  56
ATOM     56  S   UNL A   1      44.619  36.583  33.897  1.00  0.00     0.124 S 
ATOM     57  O   UNL A   1      45.516  36.216  34.987  1.00  0.00    -0.237 OA
ATOM     58  O   UNL A   1      45.202  37.419  32.851  1.00  0.00    -0.237 OA
ATOM     59  O   UNL A   1      43.264  36.954  34.297  1.00  0.00    -0.744 OA
ENDBRANCH  55  56
ENDBRANCH  27  50
BRANCH  39  60
ATOM     60  C   UNL A   1      48.105  27.004  30.598  1.00  0.00    -0.014 A 
ATOM     61  C   UNL A   1      49.148  27.370  29.730  1.00  0.00     0.010 A 
ATOM     62  C   UNL A   1      48.413  26.392  31.826  1.00  0.00     0.010 A 
ATOM     63  C   UNL A   1      50.476  27.103  30.070  1.00  0.00     0.020 A 
ATOM     64  C   UNL A   1      49.742  26.146  32.181  1.00  0.00     0.020 A 
ATOM     65  C   UNL A   1      50.764  26.492  31.295  1.00  0.00     0.054 A 
BRANCH  65  66
ATOM     66  S   UNL A   1      52.497  26.196  31.733  1.00  0.00     0.124 S 
ATOM     67  O   UNL A   1      53.169  26.363  30.448  1.00  0.00    -0.237 OA
ATOM     68  O   UNL A   1      52.762  27.238  32.721  1.00  0.00    -0.237 OA
ATOM     69  O   UNL A   1      52.491  24.833  32.261  1.00  0.00    -0.744 OA
ENDBRANCH  65  66
ENDBRANCH  39  60
ENDBRANCH  13  14
ENDBRANCH   6   8
ENDBRANCH   3   4
ENDBRANCH   2   3
ENDBRANCH   1   2
BRANCH   1  70
ATOM     70  C   UNL A   1      31.508  28.786  24.486  1.00  0.00     0.002 C 
BRANCH  70  71
ATOM     71  C   UNL A   1      32.785  28.957  23.656  1.00  0.00     0.021 C 
BRANCH  71  72
ATOM     72  C   UNL A   1      33.585  27.670  23.484  1.00  0.00     0.116 C 
BRANCH  72  73
ATOM     73  N   UNL A   1      32.752  26.561  23.069  1.00  0.00    -0.355 N 
ATOM     74  C   UNL A   1      32.330  25.447  23.723  1.00  0.00     0.238 C 
ATOM     75  H   UNL A   1      32.431  26.627  22.141  1.00  0.00     0.163 HD
ATOM     76  O   UNL A   1      31.595  24.686  23.081  1.00  0.00    -0.273 OA
BRANCH  74  77
ATOM     77  C   UNL A   1      32.727  25.082  25.154  1.00  0.00     0.165 C 
ATOM     78  C   UNL A   1      31.628  24.442  26.016  1.00  0.00     0.063 C 
ATOM     79  N   UNL A   1      34.011  24.348  25.470  1.00  0.00    -0.183 NA
ATOM     80  C   UNL A   1      32.238  23.145  26.524  1.00  0.00     0.131 C 
ATOM     81  C   UNL A   1      33.711  23.502  26.657  1.00  0.00     0.135 C 
BRANCH  79  82
ATOM     82  S   UNL A   1      34.811  23.620  24.158  1.00  0.00     0.244 S 
ATOM     83  O   UNL A   1      34.464  24.375  22.971  1.00  0.00    -0.207 OA
ATOM     84  O   UNL A   1      36.187  23.400  24.530  1.00  0.00    -0.207 OA
BRANCH  82  85
ATOM     85  C   UNL A   1      34.047  22.027  23.977  1.00  0.00     0.086 A 
ATOM     86  C   UNL A   1      32.797  21.897  23.365  1.00  0.00     0.026 A 
ATOM     87  C   UNL A   1      34.666  20.923  24.570  1.00  0.00     0.072 A 
ATOM     88  C   UNL A   1      32.183  20.640  23.319  1.00  0.00     0.052 A 
ATOM     89  C   UNL A   1      34.080  19.670  24.465  1.00  0.00     0.162 A 
ATOM     90  C   UNL A   1      32.825  19.528  23.867  1.00  0.00     0.161 A 
ATOM     91  O   UNL A   1      34.801  18.622  24.972  1.00  0.00    -0.486 OA
ATOM     92  O   UNL A   1      32.174  18.323  23.785  1.00  0.00    -0.486 OA
ATOM     93  C   UNL A   1      34.304  17.375  24.478  1.00  0.00     0.271 C 
ATOM     94  C   UNL A   1      32.792  17.330  24.618  1.00  0.00     0.271 C 
ENDBRANCH  82  85
ENDBRANCH  79  82
BRANCH  80  95
ATOM     95  O   UNL A   1      31.650  22.720  27.741  1.00  0.00    -0.392 OA
ATOM     96  H   UNL A   1      32.262  22.892  28.473  1.00  0.00     0.211 HD
ENDBRANCH  80  95
ENDBRANCH  74  77
ENDBRANCH  72  73
ENDBRANCH  71  72
ENDBRANCH  70  71
ENDBRANCH   1  70
TORSDOF 19
ENDMDL
