MODEL 1
REMARK VINA RESULT:     -12.3      0.000      0.000
REMARK SMILES O=C(NCCCCCCNC(=O)[C@H]1CC2(CCN(C(=O)C3CC3)CC2)CN1C(=O)CCn1cccn1)c1ccc(-c2c3nc(c(-c4ccc(S(=O)(=O)[O-])cc4)c4ccc([nH]4)c(-c4ccc(S(=O)(=O)[O-])cc4)c4nc(c(-c5ccc(S(=O)(=O)[O-])cc5)c5ccc2[nH]5)C=C4)C=C3)cc1
REMARK SMILES IDX 7 1 6 2 5 3 4 4 3 5 1 6 2 7 37 9 38 10 96 11 39 12 95 13
REMARK SMILES IDX 40 14 41 15 42 16 89 17 43 18 94 19 88 20 90 21 44 22 93 23
REMARK SMILES IDX 87 24 86 25 45 27 75 28 56 29 74 30 57 31 60 32 73 33 91 34
REMARK SMILES IDX 58 35 59 36 72 38 92 39 61 40 46 41 47 42 55 43 48 44 54 45
REMARK SMILES IDX 49 46 50 47 51 48 52 49 53 50 76 51 77 52 85 53 78 54 84 55
REMARK SMILES IDX 79 56 80 57 81 58 82 59 83 60 62 61 63 62 71 63 64 64 70 65
REMARK SMILES IDX 65 66 66 67 67 68 68 69 69 70 8 71 9 72 10 73 11 74 12 76
REMARK SMILES IDX 13 77 14 78 27 79 15 80 26 81 16 82 25 83 17 84 24 85 18 86
REMARK SMILES IDX 19 87 20 88 28 89 29 90 30 91 31 92 32 93 33 94 36 95 34 96
REMARK SMILES IDX 35 97 21 98 22 99 23 100
REMARK H PARENT 3 8 90 26 60 37 10 75
REMARK Flexibility Score: inf
ROOT
ATOM      1  C   UNL A   1      33.083  28.447  26.545  1.00  0.00     0.002 C 
ENDROOT
BRANCH   1   2
ATOM      2  C   UNL A   1      33.877  29.446  27.398  1.00  0.00     0.002 C 
BRANCH   2   3
ATOM      3  C   UNL A   1      33.538  30.928  27.171  1.00  0.00     0.021 C 
BRANCH   3   4
ATOM      4  C   UNL A   1      34.564  31.901  27.746  1.00  0.00     0.116 C 
BRANCH   4   5
ATOM      5  N   UNL A   1      34.466  32.044  29.171  1.00  0.00    -0.352 N 
ATOM      6  O   UNL A   1      34.921  32.092  31.322  1.00  0.00    -0.269 OA
ATOM      7  C   UNL A   1      35.332  31.823  30.192  1.00  0.00     0.251 C 
ATOM      8  H   UNL A   1      33.586  32.370  29.471  1.00  0.00     0.163 HD
BRANCH   7   9
ATOM      9  C   UNL A   1      36.660  31.189  30.019  1.00  0.00     0.039 A 
ATOM     10  C   UNL A   1      36.931  29.818  29.972  1.00  0.00     0.014 A 
ATOM     11  C   UNL A   1      37.727  32.098  29.975  1.00  0.00     0.014 A 
ATOM     12  C   UNL A   1      38.235  29.361  30.077  1.00  0.00     0.010 A 
ATOM     13  C   UNL A   1      39.028  31.650  30.027  1.00  0.00     0.010 A 
ATOM     14  C   UNL A   1      39.269  30.289  30.163  1.00  0.00    -0.014 A 
BRANCH  14  15
ATOM     15  C   UNL A   1      40.643  29.822  30.160  1.00  0.00     0.031 A 
ATOM     16  C   UNL A   1      41.219  29.792  31.534  1.00  0.00     0.074 A 
ATOM     17  C   UNL A   1      41.214  29.309  29.048  1.00  0.00     0.049 A 
ATOM     18  N   UNL A   1      42.174  30.526  32.003  1.00  0.00    -0.248 NA
ATOM     19  C   UNL A   1      40.504  29.024  32.577  1.00  0.00     0.031 C 
ATOM     20  C   UNL A   1      40.623  29.106  27.721  1.00  0.00     0.029 A 
ATOM     21  N   UNL A   1      42.443  28.755  28.894  1.00  0.00    -0.354 N 
ATOM     22  C   UNL A   1      42.357  30.110  33.319  1.00  0.00     0.074 A 
ATOM     23  C   UNL A   1      41.181  29.364  33.675  1.00  0.00     0.031 C 
ATOM     24  C   UNL A   1      41.390  28.246  27.007  1.00  0.00     0.029 A 
ATOM     25  C   UNL A   1      42.595  27.952  27.764  1.00  0.00     0.049 A 
ATOM     26  H   UNL A   1      43.175  28.909  29.533  1.00  0.00     0.167 HD
ATOM     27  C   UNL A   1      43.588  30.151  33.901  1.00  0.00     0.031 A 
ATOM     28  C   UNL A   1      43.618  27.085  27.507  1.00  0.00     0.031 A 
ATOM     29  C   UNL A   1      44.485  31.001  33.162  1.00  0.00     0.049 A 
ATOM     30  C   UNL A   1      44.746  27.501  28.383  1.00  0.00     0.074 A 
ATOM     31  C   UNL A   1      44.513  32.342  32.839  1.00  0.00     0.029 A 
ATOM     32  N   UNL A   1      45.324  30.375  32.271  1.00  0.00    -0.354 N 
ATOM     33  N   UNL A   1      45.347  28.653  28.248  1.00  0.00    -0.248 NA
ATOM     34  C   UNL A   1      44.811  26.910  29.712  1.00  0.00     0.031 C 
ATOM     35  C   UNL A   1      44.967  32.382  31.489  1.00  0.00     0.029 A 
ATOM     36  C   UNL A   1      45.292  31.081  31.096  1.00  0.00     0.049 A 
ATOM     37  H   UNL A   1      45.855  29.564  32.445  1.00  0.00     0.167 HD
ATOM     38  C   UNL A   1      45.474  29.139  29.542  1.00  0.00     0.074 A 
ATOM     39  C   UNL A   1      45.162  27.997  30.408  1.00  0.00     0.031 C 
ATOM     40  C   UNL A   1      45.508  30.482  29.797  1.00  0.00     0.031 A 
BRANCH  27  41
ATOM     41  C   UNL A   1      44.101  29.070  34.823  1.00  0.00    -0.014 A 
ATOM     42  C   UNL A   1      43.944  27.726  34.431  1.00  0.00     0.010 A 
ATOM     43  C   UNL A   1      44.447  29.306  36.172  1.00  0.00     0.010 A 
ATOM     44  C   UNL A   1      44.041  26.682  35.358  1.00  0.00     0.020 A 
ATOM     45  C   UNL A   1      44.585  28.268  37.096  1.00  0.00     0.020 A 
ATOM     46  C   UNL A   1      44.348  26.962  36.690  1.00  0.00     0.054 A 
BRANCH  46  47
ATOM     47  S   UNL A   1      44.380  25.612  37.892  1.00  0.00     0.124 S 
ATOM     48  O   UNL A   1      43.842  26.257  39.085  1.00  0.00    -0.237 OA
ATOM     49  O   UNL A   1      43.514  24.621  37.259  1.00  0.00    -0.237 OA
ATOM     50  O   UNL A   1      45.794  25.247  37.958  1.00  0.00    -0.744 OA
ENDBRANCH  46  47
ENDBRANCH  27  41
BRANCH  28  51
ATOM     51  C   UNL A   1      43.527  25.711  26.923  1.00  0.00    -0.014 A 
ATOM     52  C   UNL A   1      43.395  25.487  25.534  1.00  0.00     0.010 A 
ATOM     53  C   UNL A   1      43.866  24.599  27.718  1.00  0.00     0.010 A 
ATOM     54  C   UNL A   1      43.638  24.215  24.967  1.00  0.00     0.020 A 
ATOM     55  C   UNL A   1      44.112  23.333  27.163  1.00  0.00     0.020 A 
ATOM     56  C   UNL A   1      44.016  23.148  25.787  1.00  0.00     0.054 A 
BRANCH  56  57
ATOM     57  S   UNL A   1      44.495  21.550  25.050  1.00  0.00     0.124 S 
ATOM     58  O   UNL A   1      44.479  21.846  23.621  1.00  0.00    -0.237 OA
ATOM     59  O   UNL A   1      45.811  21.310  25.631  1.00  0.00    -0.237 OA
ATOM     60  O   UNL A   1      43.446  20.636  25.502  1.00  0.00    -0.744 OA
ENDBRANCH  56  57
ENDBRANCH  28  51
BRANCH  40  61
ATOM     61  C   UNL A   1      45.604  31.439  28.627  1.00  0.00    -0.014 A 
ATOM     62  C   UNL A   1      44.499  31.912  27.885  1.00  0.00     0.010 A 
ATOM     63  C   UNL A   1      46.864  32.005  28.378  1.00  0.00     0.010 A 
ATOM     64  C   UNL A   1      44.666  32.906  26.905  1.00  0.00     0.020 A 
ATOM     65  C   UNL A   1      47.033  33.005  27.419  1.00  0.00     0.020 A 
ATOM     66  C   UNL A   1      45.938  33.444  26.677  1.00  0.00     0.054 A 
BRANCH  66  67
ATOM     67  S   UNL A   1      46.159  34.744  25.429  1.00  0.00     0.124 S 
ATOM     68  O   UNL A   1      47.582  34.644  25.114  1.00  0.00    -0.237 OA
ATOM     69  O   UNL A   1      45.248  34.331  24.364  1.00  0.00    -0.237 OA
ATOM     70  O   UNL A   1      45.766  35.967  26.128  1.00  0.00    -0.744 OA
ENDBRANCH  66  67
ENDBRANCH  40  61
ENDBRANCH  14  15
ENDBRANCH   7   9
ENDBRANCH   4   5
ENDBRANCH   3   4
ENDBRANCH   2   3
ENDBRANCH   1   2
BRANCH   1  71
ATOM     71  C   UNL A   1      33.754  28.062  25.240  1.00  0.00     0.021 C 
BRANCH  71  72
ATOM     72  C   UNL A   1      33.373  28.987  24.110  1.00  0.00     0.116 C 
BRANCH  72  73
ATOM     73  N   UNL A   1      33.222  28.133  22.757  1.00  0.00    -0.354 N 
ATOM     74  C   UNL A   1      33.197  26.212  22.078  1.00  0.00     0.242 C 
ATOM     75  H   UNL A   1      33.100  28.747  21.997  1.00  0.00     0.163 HD
ATOM     76  O   UNL A   1      33.332  25.725  20.887  1.00  0.00    -0.273 OA
BRANCH  74  77
ATOM     77  C   UNL A   1      32.983  24.691  23.073  1.00  0.00     0.175 C 
ATOM     78  C   UNL A   1      34.311  23.922  23.311  1.00  0.00     0.044 C 
ATOM     79  N   UNL A   1      32.244  24.522  24.346  1.00  0.00    -0.330 N 
ATOM     80  C   UNL A   1      34.282  23.316  24.733  1.00  0.00    -0.006 C 
ATOM     81  C   UNL A   1      32.804  23.422  25.131  1.00  0.00     0.127 C 
ATOM     82  C   UNL A   1      35.120  24.039  25.824  1.00  0.00     0.030 C 
ATOM     83  C   UNL A   1      34.868  21.899  24.613  1.00  0.00     0.030 C 
ATOM     84  C   UNL A   1      36.628  24.029  25.590  1.00  0.00     0.120 C 
ATOM     85  C   UNL A   1      36.367  21.977  24.261  1.00  0.00     0.120 C 
ATOM     86  N   UNL A   1      37.126  22.691  25.292  1.00  0.00    -0.342 N 
ATOM     87  C   UNL A   1      38.318  22.104  25.726  1.00  0.00     0.225 C 
ATOM     88  O   UNL A   1      38.730  21.070  25.199  1.00  0.00    -0.275 OA
BRANCH  79  89
ATOM     89  C   UNL A   1      31.016  25.047  24.698  1.00  0.00     0.225 C 
ATOM     90  O   UNL A   1      30.724  25.247  25.879  1.00  0.00    -0.275 OA
BRANCH  89  91
ATOM     91  C   UNL A   1      30.028  25.437  23.615  1.00  0.00     0.124 C 
BRANCH  91  92
ATOM     92  C   UNL A   1      28.917  26.319  24.139  1.00  0.00     0.154 C 
BRANCH  92  93
ATOM     93  N   UNL A   1      28.831  27.519  23.345  1.00  0.00    -0.272 N 
ATOM     94  C   UNL A   1      27.308  28.615  23.183  1.00  0.00     0.108 A 
ATOM     95  N   UNL A   1      30.295  28.358  22.504  1.00  0.00    -0.182 NA
ATOM     96  C   UNL A   1      27.826  30.128  22.300  1.00  0.00     0.042 A 
ATOM     97  C   UNL A   1      29.728  29.914  21.872  1.00  0.00     0.135 A 
ENDBRANCH  92  93
ENDBRANCH  91  92
ENDBRANCH  89  91
ENDBRANCH  79  89
BRANCH  87  98
ATOM     98  C   UNL A   1      39.149  22.597  26.867  1.00  0.00     0.079 C 
ATOM     99  C   UNL A   1      40.597  22.376  27.187  1.00  0.00     0.014 C 
ATOM    100  C   UNL A   1      40.135  23.725  26.696  1.00  0.00     0.014 C 
ENDBRANCH  87  98
ENDBRANCH  74  77
ENDBRANCH  72  73
ENDBRANCH  71  72
ENDBRANCH   1  71
TORSDOF 21
ENDMDL
MODEL 2
REMARK VINA RESULT:     -11.8      1.738      2.935
REMARK SMILES O=C(NCCCCCCNC(=O)[C@H]1CC2(CCN(C(=O)C3CC3)CC2)CN1C(=O)CCn1cccn1)c1ccc(-c2c3nc(c(-c4ccc(S(=O)(=O)[O-])cc4)c4ccc([nH]4)c(-c4ccc(S(=O)(=O)[O-])cc4)c4nc(c(-c5ccc(S(=O)(=O)[O-])cc5)c5ccc2[nH]5)C=C4)C=C3)cc1
REMARK SMILES IDX 7 1 6 2 5 3 4 4 3 5 1 6 2 7 37 9 38 10 96 11 39 12 95 13
REMARK SMILES IDX 40 14 41 15 42 16 89 17 43 18 94 19 88 20 90 21 44 22 93 23
REMARK SMILES IDX 87 24 86 25 45 27 75 28 56 29 74 30 57 31 60 32 73 33 91 34
REMARK SMILES IDX 58 35 59 36 72 38 92 39 61 40 46 41 47 42 55 43 48 44 54 45
REMARK SMILES IDX 49 46 50 47 51 48 52 49 53 50 76 51 77 52 85 53 78 54 84 55
REMARK SMILES IDX 79 56 80 57 81 58 82 59 83 60 62 61 63 62 71 63 64 64 70 65
REMARK SMILES IDX 65 66 66 67 67 68 68 69 69 70 8 71 9 72 10 73 11 74 12 76
REMARK SMILES IDX 13 77 14 78 27 79 15 80 26 81 16 82 25 83 17 84 24 85 18 86
REMARK SMILES IDX 19 87 20 88 28 89 29 90 30 91 31 92 32 93 33 94 36 95 34 96
REMARK SMILES IDX 35 97 21 98 22 99 23 100
REMARK H PARENT 3 8 90 26 60 37 10 75
REMARK Flexibility Score: inf
ROOT
ATOM      1  C   UNL A   1      33.427  31.198  27.453  1.00  0.00     0.002 C 
ENDROOT
BRANCH   1   2
ATOM      2  C   UNL A   1      34.506  31.459  28.511  1.00  0.00     0.002 C 
BRANCH   2   3
ATOM      3  C   UNL A   1      35.265  32.789  28.369  1.00  0.00     0.021 C 
BRANCH   3   4
ATOM      4  C   UNL A   1      34.694  33.929  29.208  1.00  0.00     0.116 C 
BRANCH   4   5
ATOM      5  N   UNL A   1      34.224  33.500  30.495  1.00  0.00    -0.352 N 
ATOM      6  O   UNL A   1      34.112  32.686  32.535  1.00  0.00    -0.269 OA
ATOM      7  C   UNL A   1      34.819  32.877  31.544  1.00  0.00     0.251 C 
ATOM      8  H   UNL A   1      33.272  33.699  30.649  1.00  0.00     0.163 HD
BRANCH   7   9
ATOM      9  C   UNL A   1      36.198  32.336  31.504  1.00  0.00     0.039 A 
ATOM     10  C   UNL A   1      37.383  33.077  31.440  1.00  0.00     0.014 A 
ATOM     11  C   UNL A   1      36.264  30.937  31.455  1.00  0.00     0.014 A 
ATOM     12  C   UNL A   1      38.581  32.450  31.138  1.00  0.00     0.010 A 
ATOM     13  C   UNL A   1      37.461  30.303  31.206  1.00  0.00     0.010 A 
ATOM     14  C   UNL A   1      38.594  31.068  30.965  1.00  0.00    -0.014 A 
BRANCH  14  15
ATOM     15  C   UNL A   1      39.861  30.391  30.761  1.00  0.00     0.031 A 
ATOM     16  C   UNL A   1      40.623  30.250  32.034  1.00  0.00     0.074 A 
ATOM     17  C   UNL A   1      40.173  29.813  29.580  1.00  0.00     0.049 A 
ATOM     18  N   UNL A   1      41.740  30.817  32.350  1.00  0.00    -0.248 NA
ATOM     19  C   UNL A   1      39.958  29.588  33.178  1.00  0.00     0.031 C 
ATOM     20  C   UNL A   1      39.367  29.726  28.358  1.00  0.00     0.029 A 
ATOM     21  N   UNL A   1      41.263  29.075  29.249  1.00  0.00    -0.354 N 
ATOM     22  C   UNL A   1      42.049  30.357  33.627  1.00  0.00     0.074 A 
ATOM     23  C   UNL A   1      40.835  29.800  34.160  1.00  0.00     0.031 C 
ATOM     24  C   UNL A   1      39.875  28.767  27.545  1.00  0.00     0.029 A 
ATOM     25  C   UNL A   1      41.116  28.276  28.116  1.00  0.00     0.049 A 
ATOM     26  H   UNL A   1      42.097  29.101  29.772  1.00  0.00     0.167 HD
ATOM     27  C   UNL A   1      43.342  30.195  34.019  1.00  0.00     0.031 A 
ATOM     28  C   UNL A   1      41.941  27.263  27.717  1.00  0.00     0.031 A 
ATOM     29  C   UNL A   1      44.243  30.905  33.148  1.00  0.00     0.049 A 
ATOM     30  C   UNL A   1      43.237  27.483  28.412  1.00  0.00     0.074 A 
ATOM     31  C   UNL A   1      44.434  32.230  32.814  1.00  0.00     0.029 A 
ATOM     32  N   UNL A   1      44.832  30.169  32.146  1.00  0.00    -0.354 N 
ATOM     33  N   UNL A   1      43.985  28.528  28.179  1.00  0.00    -0.248 NA
ATOM     34  C   UNL A   1      43.405  26.868  29.721  1.00  0.00     0.031 C 
ATOM     35  C   UNL A   1      44.684  32.219  31.410  1.00  0.00     0.029 A 
ATOM     36  C   UNL A   1      44.738  30.889  30.984  1.00  0.00     0.049 A 
ATOM     37  H   UNL A   1      45.248  29.282  32.247  1.00  0.00     0.167 HD
ATOM     38  C   UNL A   1      44.378  28.968  29.436  1.00  0.00     0.074 A 
ATOM     39  C   UNL A   1      44.022  27.876  30.348  1.00  0.00     0.031 C 
ATOM     40  C   UNL A   1      44.661  30.284  29.672  1.00  0.00     0.031 A 
BRANCH  27  41
ATOM     41  C   UNL A   1      43.810  29.033  34.863  1.00  0.00    -0.014 A 
ATOM     42  C   UNL A   1      43.794  27.744  34.294  1.00  0.00     0.010 A 
ATOM     43  C   UNL A   1      43.970  29.111  36.264  1.00  0.00     0.010 A 
ATOM     44  C   UNL A   1      43.847  26.595  35.093  1.00  0.00     0.020 A 
ATOM     45  C   UNL A   1      44.062  27.971  37.066  1.00  0.00     0.020 A 
ATOM     46  C   UNL A   1      43.967  26.718  36.477  1.00  0.00     0.054 A 
BRANCH  46  47
ATOM     47  S   UNL A   1      43.942  25.227  37.500  1.00  0.00     0.124 S 
ATOM     48  O   UNL A   1      45.016  24.437  36.908  1.00  0.00    -0.237 OA
ATOM     49  O   UNL A   1      44.209  25.767  38.831  1.00  0.00    -0.237 OA
ATOM     50  O   UNL A   1      42.593  24.701  37.305  1.00  0.00    -0.744 OA
ENDBRANCH  46  47
ENDBRANCH  27  41
BRANCH  28  51
ATOM     51  C   UNL A   1      41.548  25.930  27.164  1.00  0.00    -0.014 A 
ATOM     52  C   UNL A   1      42.412  25.166  26.346  1.00  0.00     0.010 A 
ATOM     53  C   UNL A   1      40.418  25.271  27.687  1.00  0.00     0.010 A 
ATOM     54  C   UNL A   1      42.173  23.793  26.106  1.00  0.00     0.020 A 
ATOM     55  C   UNL A   1      40.175  23.908  27.454  1.00  0.00     0.020 A 
ATOM     56  C   UNL A   1      41.063  23.168  26.680  1.00  0.00     0.054 A 
BRANCH  56  57
ATOM     57  S   UNL A   1      40.839  21.365  26.514  1.00  0.00     0.124 S 
ATOM     58  O   UNL A   1      40.815  20.922  27.905  1.00  0.00    -0.237 OA
ATOM     59  O   UNL A   1      39.572  21.264  25.798  1.00  0.00    -0.237 OA
ATOM     60  O   UNL A   1      42.012  20.942  25.751  1.00  0.00    -0.744 OA
ENDBRANCH  56  57
ENDBRANCH  28  51
BRANCH  40  61
ATOM     61  C   UNL A   1      44.732  31.232  28.493  1.00  0.00    -0.014 A 
ATOM     62  C   UNL A   1      43.679  32.077  28.079  1.00  0.00     0.010 A 
ATOM     63  C   UNL A   1      45.986  31.384  27.882  1.00  0.00     0.010 A 
ATOM     64  C   UNL A   1      43.879  33.026  27.060  1.00  0.00     0.020 A 
ATOM     65  C   UNL A   1      46.196  32.336  26.884  1.00  0.00     0.020 A 
ATOM     66  C   UNL A   1      45.140  33.145  26.466  1.00  0.00     0.054 A 
BRANCH  66  67
ATOM     67  S   UNL A   1      45.413  34.384  25.167  1.00  0.00     0.124 S 
ATOM     68  O   UNL A   1      44.748  35.566  25.709  1.00  0.00    -0.237 OA
ATOM     69  O   UNL A   1      46.870  34.460  25.091  1.00  0.00    -0.237 OA
ATOM     70  O   UNL A   1      44.770  33.800  23.990  1.00  0.00    -0.744 OA
ENDBRANCH  66  67
ENDBRANCH  40  61
ENDBRANCH  14  15
ENDBRANCH   7   9
ENDBRANCH   4   5
ENDBRANCH   3   4
ENDBRANCH   2   3
ENDBRANCH   1   2
BRANCH   1  71
ATOM     71  C   UNL A   1      33.204  29.732  27.130  1.00  0.00     0.021 C 
BRANCH  71  72
ATOM     72  C   UNL A   1      31.740  29.371  27.102  1.00  0.00     0.116 C 
BRANCH  72  73
ATOM     73  N   UNL A   1      31.568  27.827  27.512  1.00  0.00    -0.354 N 
ATOM     74  C   UNL A   1      31.656  25.949  26.727  1.00  0.00     0.242 C 
ATOM     75  H   UNL A   1      31.345  27.768  28.469  1.00  0.00     0.163 HD
ATOM     76  O   UNL A   1      31.216  24.817  27.170  1.00  0.00    -0.273 OA
BRANCH  74  77
ATOM     77  C   UNL A   1      32.405  25.452  25.133  1.00  0.00     0.175 C 
ATOM     78  C   UNL A   1      33.270  24.166  25.236  1.00  0.00     0.044 C 
ATOM     79  N   UNL A   1      31.752  25.332  23.808  1.00  0.00    -0.330 N 
ATOM     80  C   UNL A   1      33.092  23.346  23.939  1.00  0.00    -0.006 C 
ATOM     81  C   UNL A   1      32.442  24.347  22.975  1.00  0.00     0.127 C 
ATOM     82  C   UNL A   1      32.172  22.096  24.017  1.00  0.00     0.030 C 
ATOM     83  C   UNL A   1      34.488  22.824  23.559  1.00  0.00     0.030 C 
ATOM     84  C   UNL A   1      32.669  20.985  24.937  1.00  0.00     0.120 C 
ATOM     85  C   UNL A   1      34.968  21.793  24.601  1.00  0.00     0.120 C 
ATOM     86  N   UNL A   1      34.063  20.643  24.675  1.00  0.00    -0.342 N 
ATOM     87  C   UNL A   1      34.647  19.373  24.675  1.00  0.00     0.225 C 
ATOM     88  O   UNL A   1      35.874  19.253  24.686  1.00  0.00    -0.275 OA
BRANCH  79  89
ATOM     89  C   UNL A   1      30.834  26.184  23.227  1.00  0.00     0.225 C 
ATOM     90  O   UNL A   1      29.656  26.193  23.588  1.00  0.00    -0.275 OA
BRANCH  89  91
ATOM     91  C   UNL A   1      31.290  27.167  22.165  1.00  0.00     0.124 C 
BRANCH  91  92
ATOM     92  C   UNL A   1      31.684  28.504  22.748  1.00  0.00     0.154 C 
BRANCH  92  93
ATOM     93  N   UNL A   1      30.541  29.381  22.777  1.00  0.00    -0.272 N 
ATOM     94  C   UNL A   1      30.029  30.464  24.231  1.00  0.00     0.108 A 
ATOM     95  N   UNL A   1      29.470  29.798  21.281  1.00  0.00    -0.182 NA
ATOM     96  C   UNL A   1      28.698  31.566  23.637  1.00  0.00     0.042 A 
ATOM     97  C   UNL A   1      28.363  31.096  21.763  1.00  0.00     0.135 A 
ENDBRANCH  92  93
ENDBRANCH  91  92
ENDBRANCH  89  91
ENDBRANCH  79  89
BRANCH  87  98
ATOM     98  C   UNL A   1      33.895  18.084  24.593  1.00  0.00     0.079 C 
ATOM     99  C   UNL A   1      32.639  17.731  23.855  1.00  0.00     0.014 C 
ATOM    100  C   UNL A   1      33.966  17.203  23.371  1.00  0.00     0.014 C 
ENDBRANCH  87  98
ENDBRANCH  74  77
ENDBRANCH  72  73
ENDBRANCH  71  72
ENDBRANCH   1  71
TORSDOF 21
ENDMDL
MODEL 3
REMARK VINA RESULT:     -10.6      2.471      3.843
REMARK SMILES O=C(NCCCCCCNC(=O)[C@H]1CC2(CCN(C(=O)C3CC3)CC2)CN1C(=O)CCn1cccn1)c1ccc(-c2c3nc(c(-c4ccc(S(=O)(=O)[O-])cc4)c4ccc([nH]4)c(-c4ccc(S(=O)(=O)[O-])cc4)c4nc(c(-c5ccc(S(=O)(=O)[O-])cc5)c5ccc2[nH]5)C=C4)C=C3)cc1
REMARK SMILES IDX 7 1 6 2 5 3 4 4 3 5 1 6 2 7 37 9 38 10 96 11 39 12 95 13
REMARK SMILES IDX 40 14 41 15 42 16 89 17 43 18 94 19 88 20 90 21 44 22 93 23
REMARK SMILES IDX 87 24 86 25 45 27 75 28 56 29 74 30 57 31 60 32 73 33 91 34
REMARK SMILES IDX 58 35 59 36 72 38 92 39 61 40 46 41 47 42 55 43 48 44 54 45
REMARK SMILES IDX 49 46 50 47 51 48 52 49 53 50 76 51 77 52 85 53 78 54 84 55
REMARK SMILES IDX 79 56 80 57 81 58 82 59 83 60 62 61 63 62 71 63 64 64 70 65
REMARK SMILES IDX 65 66 66 67 67 68 68 69 69 70 8 71 9 72 10 73 11 74 12 76
REMARK SMILES IDX 13 77 14 78 27 79 15 80 26 81 16 82 25 83 17 84 24 85 18 86
REMARK SMILES IDX 19 87 20 88 28 89 29 90 30 91 31 92 32 93 33 94 36 95 34 96
REMARK SMILES IDX 35 97 21 98 22 99 23 100
REMARK H PARENT 3 8 90 26 60 37 10 75
REMARK Flexibility Score: inf
ROOT
ATOM      1  C   UNL A   1      34.376  29.878  27.346  1.00  0.00     0.002 C 
ENDROOT
BRANCH   1   2
ATOM      2  C   UNL A   1      35.851  29.459  27.309  1.00  0.00     0.002 C 
BRANCH   2   3
ATOM      3  C   UNL A   1      36.564  29.422  28.671  1.00  0.00     0.021 C 
BRANCH   3   4
ATOM      4  C   UNL A   1      36.962  30.795  29.208  1.00  0.00     0.116 C 
BRANCH   4   5
ATOM      5  N   UNL A   1      36.422  31.067  30.510  1.00  0.00    -0.352 N 
ATOM      6  O   UNL A   1      36.184  31.346  32.678  1.00  0.00    -0.269 OA
ATOM      7  C   UNL A   1      36.932  30.993  31.765  1.00  0.00     0.251 C 
ATOM      8  H   UNL A   1      35.486  31.372  30.488  1.00  0.00     0.163 HD
BRANCH   7   9
ATOM      9  C   UNL A   1      38.263  30.419  32.078  1.00  0.00     0.039 A 
ATOM     10  C   UNL A   1      39.428  31.131  32.381  1.00  0.00     0.014 A 
ATOM     11  C   UNL A   1      38.323  29.023  31.975  1.00  0.00     0.014 A 
ATOM     12  C   UNL A   1      40.656  30.489  32.388  1.00  0.00     0.010 A 
ATOM     13  C   UNL A   1      39.535  28.370  32.033  1.00  0.00     0.010 A 
ATOM     14  C   UNL A   1      40.699  29.117  32.153  1.00  0.00    -0.014 A 
BRANCH  14  15
ATOM     15  C   UNL A   1      41.965  28.418  32.270  1.00  0.00     0.031 A 
ATOM     16  C   UNL A   1      42.260  28.043  33.683  1.00  0.00     0.074 A 
ATOM     17  C   UNL A   1      42.654  28.014  31.181  1.00  0.00     0.049 A 
ATOM     18  N   UNL A   1      43.206  28.499  34.436  1.00  0.00    -0.248 NA
ATOM     19  C   UNL A   1      41.256  27.246  34.421  1.00  0.00     0.031 C 
ATOM     20  C   UNL A   1      42.302  28.157  29.764  1.00  0.00     0.029 A 
ATOM     21  N   UNL A   1      43.796  27.283  31.112  1.00  0.00    -0.354 N 
ATOM     22  C   UNL A   1      43.074  27.832  35.651  1.00  0.00     0.074 A 
ATOM     23  C   UNL A   1      41.755  27.260  35.657  1.00  0.00     0.031 C 
ATOM     24  C   UNL A   1      43.056  27.312  29.020  1.00  0.00     0.029 A 
ATOM     25  C   UNL A   1      44.039  26.677  29.880  1.00  0.00     0.049 A 
ATOM     26  H   UNL A   1      44.409  27.187  31.877  1.00  0.00     0.167 HD
ATOM     27  C   UNL A   1      44.165  27.547  36.415  1.00  0.00     0.031 A 
ATOM     28  C   UNL A   1      44.954  25.699  29.615  1.00  0.00     0.031 A 
ATOM     29  C   UNL A   1      45.301  28.338  36.017  1.00  0.00     0.049 A 
ATOM     30  C   UNL A   1      45.945  25.744  30.724  1.00  0.00     0.074 A 
ATOM     31  C   UNL A   1      45.585  29.688  35.984  1.00  0.00     0.029 A 
ATOM     32  N   UNL A   1      46.192  27.738  35.159  1.00  0.00    -0.354 N 
ATOM     33  N   UNL A   1      46.722  26.774  30.924  1.00  0.00    -0.248 NA
ATOM     34  C   UNL A   1      45.670  24.927  31.897  1.00  0.00     0.031 C 
ATOM     35  C   UNL A   1      46.288  29.881  34.759  1.00  0.00     0.029 A 
ATOM     36  C   UNL A   1      46.487  28.633  34.163  1.00  0.00     0.049 A 
ATOM     37  H   UNL A   1      46.556  26.827  35.246  1.00  0.00     0.167 HD
ATOM     38  C   UNL A   1      46.672  26.995  32.293  1.00  0.00     0.074 A 
ATOM     39  C   UNL A   1      46.038  25.793  32.847  1.00  0.00     0.031 C 
ATOM     40  C   UNL A   1      46.854  28.243  32.820  1.00  0.00     0.031 A 
BRANCH  27  41
ATOM     41  C   UNL A   1      44.330  26.247  37.166  1.00  0.00    -0.014 A 
ATOM     42  C   UNL A   1      44.640  26.302  38.539  1.00  0.00     0.010 A 
ATOM     43  C   UNL A   1      44.495  25.000  36.523  1.00  0.00     0.010 A 
ATOM     44  C   UNL A   1      45.169  25.193  39.210  1.00  0.00     0.020 A 
ATOM     45  C   UNL A   1      44.985  23.877  37.194  1.00  0.00     0.020 A 
ATOM     46  C   UNL A   1      45.350  23.990  38.528  1.00  0.00     0.054 A 
BRANCH  46  47
ATOM     47  S   UNL A   1      46.118  22.596  39.386  1.00  0.00     0.124 S 
ATOM     48  O   UNL A   1      46.441  21.701  38.279  1.00  0.00    -0.237 OA
ATOM     49  O   UNL A   1      47.257  23.232  40.041  1.00  0.00    -0.237 OA
ATOM     50  O   UNL A   1      45.067  22.128  40.286  1.00  0.00    -0.744 OA
ENDBRANCH  46  47
ENDBRANCH  27  41
BRANCH  28  51
ATOM     51  C   UNL A   1      44.774  24.489  28.755  1.00  0.00    -0.014 A 
ATOM     52  C   UNL A   1      43.530  23.831  28.625  1.00  0.00     0.010 A 
ATOM     53  C   UNL A   1      45.774  24.150  27.822  1.00  0.00     0.010 A 
ATOM     54  C   UNL A   1      43.290  22.911  27.578  1.00  0.00     0.020 A 
ATOM     55  C   UNL A   1      45.543  23.240  26.779  1.00  0.00     0.020 A 
ATOM     56  C   UNL A   1      44.296  22.637  26.647  1.00  0.00     0.054 A 
BRANCH  56  57
ATOM     57  S   UNL A   1      43.944  21.584  25.201  1.00  0.00     0.124 S 
ATOM     58  O   UNL A   1      43.631  22.565  24.166  1.00  0.00    -0.237 OA
ATOM     59  O   UNL A   1      45.195  20.855  25.022  1.00  0.00    -0.237 OA
ATOM     60  O   UNL A   1      42.813  20.766  25.638  1.00  0.00    -0.744 OA
ENDBRANCH  56  57
ENDBRANCH  28  51
BRANCH  40  61
ATOM     61  C   UNL A   1      47.309  29.357  31.901  1.00  0.00    -0.014 A 
ATOM     62  C   UNL A   1      48.653  29.749  31.719  1.00  0.00     0.010 A 
ATOM     63  C   UNL A   1      46.332  29.920  31.064  1.00  0.00     0.010 A 
ATOM     64  C   UNL A   1      48.997  30.699  30.741  1.00  0.00     0.020 A 
ATOM     65  C   UNL A   1      46.670  30.850  30.080  1.00  0.00     0.020 A 
ATOM     66  C   UNL A   1      47.998  31.247  29.929  1.00  0.00     0.054 A 
BRANCH  66  67
ATOM     67  S   UNL A   1      48.437  32.457  28.649  1.00  0.00     0.124 S 
ATOM     68  O   UNL A   1      49.656  31.890  28.079  1.00  0.00    -0.237 OA
ATOM     69  O   UNL A   1      47.267  32.444  27.773  1.00  0.00    -0.237 OA
ATOM     70  O   UNL A   1      48.625  33.700  29.396  1.00  0.00    -0.744 OA
ENDBRANCH  66  67
ENDBRANCH  40  61
ENDBRANCH  14  15
ENDBRANCH   7   9
ENDBRANCH   4   5
ENDBRANCH   3   4
ENDBRANCH   2   3
ENDBRANCH   1   2
BRANCH   1  71
ATOM     71  C   UNL A   1      33.429  28.908  26.665  1.00  0.00     0.021 C 
BRANCH  71  72
ATOM     72  C   UNL A   1      32.062  28.903  27.303  1.00  0.00     0.116 C 
BRANCH  72  73
ATOM     73  N   UNL A   1      31.463  27.413  27.257  1.00  0.00    -0.354 N 
ATOM     74  C   UNL A   1      31.647  25.651  26.250  1.00  0.00     0.242 C 
ATOM     75  H   UNL A   1      30.771  27.319  27.951  1.00  0.00     0.163 HD
ATOM     76  O   UNL A   1      30.870  24.619  26.184  1.00  0.00    -0.273 OA
BRANCH  74  77
ATOM     77  C   UNL A   1      33.023  25.141  25.156  1.00  0.00     0.175 C 
ATOM     78  C   UNL A   1      33.469  23.670  25.376  1.00  0.00     0.044 C 
ATOM     79  N   UNL A   1      33.155  25.336  23.693  1.00  0.00    -0.330 N 
ATOM     80  C   UNL A   1      33.861  23.064  24.008  1.00  0.00    -0.006 C 
ATOM     81  C   UNL A   1      33.998  24.296  23.104  1.00  0.00     0.127 C 
ATOM     82  C   UNL A   1      32.837  22.100  23.346  1.00  0.00     0.030 C 
ATOM     83  C   UNL A   1      35.134  22.236  24.249  1.00  0.00     0.030 C 
ATOM     84  C   UNL A   1      32.577  20.809  24.115  1.00  0.00     0.120 C 
ATOM     85  C   UNL A   1      34.808  21.013  25.130  1.00  0.00     0.120 C 
ATOM     86  N   UNL A   1      33.817  20.140  24.494  1.00  0.00    -0.342 N 
ATOM     87  C   UNL A   1      34.086  18.768  24.493  1.00  0.00     0.225 C 
ATOM     88  O   UNL A   1      35.080  18.328  25.072  1.00  0.00    -0.275 OA
BRANCH  79  89
ATOM     89  C   UNL A   1      32.842  26.456  22.948  1.00  0.00     0.225 C 
ATOM     90  O   UNL A   1      33.709  27.059  22.312  1.00  0.00    -0.275 OA
BRANCH  89  91
ATOM     91  C   UNL A   1      31.402  26.923  22.862  1.00  0.00     0.124 C 
BRANCH  91  92
ATOM     92  C   UNL A   1      31.178  28.235  23.578  1.00  0.00     0.154 C 
BRANCH  92  93
ATOM     93  N   UNL A   1      29.929  28.816  23.153  1.00  0.00    -0.272 N 
ATOM     94  C   UNL A   1      29.745  30.244  21.938  1.00  0.00     0.108 A 
ATOM     95  N   UNL A   1      28.227  28.106  23.544  1.00  0.00    -0.182 NA
ATOM     96  C   UNL A   1      27.966  30.388  21.545  1.00  0.00     0.042 A 
ATOM     97  C   UNL A   1      27.037  29.022  22.601  1.00  0.00     0.135 A 
ENDBRANCH  92  93
ENDBRANCH  91  92
ENDBRANCH  89  91
ENDBRANCH  79  89
BRANCH  87  98
ATOM     98  C   UNL A   1      33.279  17.738  23.768  1.00  0.00     0.079 C 
ATOM     99  C   UNL A   1      32.796  17.697  22.350  1.00  0.00     0.014 C 
ATOM    100  C   UNL A   1      33.914  16.784  22.788  1.00  0.00     0.014 C 
ENDBRANCH  87  98
ENDBRANCH  74  77
ENDBRANCH  72  73
ENDBRANCH  71  72
ENDBRANCH   1  71
TORSDOF 21
ENDMDL
