MODEL 1
REMARK VINA RESULT:     -10.9      0.000      0.000
REMARK SMILES CC(C)(C)OC(=O)N1CCN(C(=O)c2ccc3c(c2)OCO3)[C@H](C(=O)NCCCCCCNC(=O)c2ccc(-c3c4nc(c(-c5ccc(S(=O)(=O)[O-])cc5)c5ccc([nH]5)c(-c5ccc(S(=O)(=O)[O-])cc5)c5nc(c(-c6ccc(S(=O)(=O)[O-])cc6)c6ccc3[nH]6)C=C5)C=C4)cc2)C1
REMARK SMILES IDX 29 1 28 2 27 3 26 4 24 5 25 6 23 8 8 9 9 10 96 11 10 12
REMARK SMILES IDX 11 13 6 14 7 15 5 16 2 17 1 18 3 19 4 20 12 21 13 22 14 23
REMARK SMILES IDX 15 24 19 25 16 26 18 27 17 28 20 29 22 30 21 31 30 32 31 33
REMARK SMILES IDX 32 34 33 35 34 36 35 38 36 39 37 40 95 41 38 42 94 43 39 44
REMARK SMILES IDX 40 45 41 46 88 47 42 48 93 49 87 50 89 51 43 52 92 53 86 54
REMARK SMILES IDX 85 55 44 57 74 58 55 59 73 60 56 61 59 62 72 63 90 64 57 65
REMARK SMILES IDX 58 66 71 68 91 69 60 70 45 71 46 72 54 73 47 74 53 75 48 76
REMARK SMILES IDX 49 77 50 78 51 79 52 80 75 81 76 82 84 83 77 84 83 85 78 86
REMARK SMILES IDX 79 87 80 88 81 89 82 90 61 91 62 92 70 93 63 94 69 95 64 96
REMARK SMILES IDX 65 97 66 98 67 99 68 100
REMARK H PARENT 26 7 33 37 89 56 59 67
REMARK Flexibility Score: inf
ROOT
ATOM      1  C   UNL A   1      38.539  22.111  26.211  1.00  0.00     0.002 C 
ENDROOT
BRANCH   1   2
ATOM      2  C   UNL A   1      38.236  23.600  25.999  1.00  0.00     0.021 C 
BRANCH   2   3
ATOM      3  C   UNL A   1      36.741  23.898  25.887  1.00  0.00     0.116 C 
BRANCH   3   4
ATOM      4  N   UNL A   1      36.013  22.980  26.745  1.00  0.00    -0.354 N 
ATOM      5  C   UNL A   1      34.677  22.701  26.694  1.00  0.00     0.244 C 
ATOM      6  O   UNL A   1      34.083  22.455  27.745  1.00  0.00    -0.273 OA
ATOM      7  H   UNL A   1      36.537  22.511  27.434  1.00  0.00     0.163 HD
BRANCH   5   8
ATOM      8  C   UNL A   1      34.022  22.573  25.316  1.00  0.00     0.194 C 
ATOM      9  N   UNL A   1      31.887  23.246  24.228  1.00  0.00    -0.304 N 
ATOM     10  C   UNL A   1      31.746  21.952  23.572  1.00  0.00     0.144 C 
ATOM     11  C   UNL A   1      32.635  23.232  25.483  1.00  0.00     0.158 C 
ATOM     12  C   UNL A   1      33.110  21.265  23.423  1.00  0.00     0.142 C 
ATOM     13  N   UNL A   1      33.866  21.218  24.689  1.00  0.00    -0.323 N 
BRANCH   9  14
ATOM     14  C   UNL A   1      31.248  24.358  23.733  1.00  0.00     0.410 C 
ATOM     15  O   UNL A   1      30.103  24.331  23.296  1.00  0.00    -0.224 OA
BRANCH  14  16
ATOM     16  O   UNL A   1      32.053  25.451  23.741  1.00  0.00    -0.444 OA
BRANCH  16  17
ATOM     17  C   UNL A   1      31.805  26.572  24.630  1.00  0.00     0.106 C 
ATOM     18  C   UNL A   1      31.369  27.724  23.710  1.00  0.00     0.056 C 
ATOM     19  C   UNL A   1      33.115  26.950  25.325  1.00  0.00     0.056 C 
ATOM     20  C   UNL A   1      30.674  26.326  25.638  1.00  0.00     0.056 C 
ENDBRANCH  16  17
ENDBRANCH  14  16
ENDBRANCH   9  14
BRANCH  13  21
ATOM     21  C   UNL A   1      34.747  20.137  24.816  1.00  0.00     0.254 C 
ATOM     22  O   UNL A   1      35.966  20.275  24.921  1.00  0.00    -0.269 OA
BRANCH  21  23
ATOM     23  C   UNL A   1      34.258  18.747  24.740  1.00  0.00     0.044 A 
ATOM     24  C   UNL A   1      34.626  17.918  23.660  1.00  0.00     0.018 A 
ATOM     25  C   UNL A   1      33.476  18.248  25.789  1.00  0.00     0.064 A 
ATOM     26  C   UNL A   1      34.115  16.618  23.560  1.00  0.00     0.051 A 
ATOM     27  C   UNL A   1      33.002  16.959  25.666  1.00  0.00     0.166 A 
ATOM     28  C   UNL A   1      33.297  16.173  24.576  1.00  0.00     0.165 A 
ATOM     29  O   UNL A   1      32.192  16.321  26.556  1.00  0.00    -0.454 OA
ATOM     30  O   UNL A   1      32.695  14.955  24.633  1.00  0.00    -0.454 OA
ATOM     31  C   UNL A   1      31.994  15.057  25.890  1.00  0.00     0.468 C 
ENDBRANCH  21  23
ENDBRANCH  13  21
ENDBRANCH   5   8
ENDBRANCH   3   4
ENDBRANCH   2   3
ENDBRANCH   1   2
BRANCH   1  32
ATOM     32  C   UNL A   1      40.033  21.776  26.266  1.00  0.00     0.002 C 
BRANCH  32  33
ATOM     33  C   UNL A   1      40.618  21.741  27.679  1.00  0.00     0.021 C 
BRANCH  33  34
ATOM     34  C   UNL A   1      41.529  22.918  28.004  1.00  0.00     0.116 C 
BRANCH  34  35
ATOM     35  N   UNL A   1      42.082  23.516  26.800  1.00  0.00    -0.352 N 
ATOM     36  C   UNL A   1      42.157  24.840  26.448  1.00  0.00     0.251 C 
ATOM     37  H   UNL A   1      42.454  22.883  26.144  1.00  0.00     0.163 HD
ATOM     38  O   UNL A   1      42.444  25.154  25.298  1.00  0.00    -0.269 OA
BRANCH  36  39
ATOM     39  C   UNL A   1      41.871  25.881  27.458  1.00  0.00     0.039 A 
ATOM     40  C   UNL A   1      40.684  25.805  28.187  1.00  0.00     0.014 A 
ATOM     41  C   UNL A   1      42.773  26.925  27.687  1.00  0.00     0.014 A 
ATOM     42  C   UNL A   1      40.427  26.747  29.184  1.00  0.00     0.010 A 
ATOM     43  C   UNL A   1      42.552  27.816  28.733  1.00  0.00     0.010 A 
ATOM     44  C   UNL A   1      41.375  27.738  29.492  1.00  0.00    -0.014 A 
BRANCH  44  45
ATOM     45  C   UNL A   1      41.152  28.683  30.616  1.00  0.00     0.031 A 
ATOM     46  C   UNL A   1      42.005  28.612  31.855  1.00  0.00     0.074 A 
ATOM     47  C   UNL A   1      40.146  29.578  30.537  1.00  0.00     0.049 A 
ATOM     48  N   UNL A   1      41.943  29.344  32.937  1.00  0.00    -0.248 NA
ATOM     49  C   UNL A   1      43.049  27.575  31.894  1.00  0.00     0.031 C 
ATOM     50  C   UNL A   1      39.221  29.716  29.407  1.00  0.00     0.029 A 
ATOM     51  N   UNL A   1      39.731  30.544  31.419  1.00  0.00    -0.354 N 
ATOM     52  C   UNL A   1      42.926  28.851  33.787  1.00  0.00     0.074 A 
ATOM     53  C   UNL A   1      43.540  27.727  33.116  1.00  0.00     0.031 C 
ATOM     54  C   UNL A   1      38.375  30.730  29.650  1.00  0.00     0.029 A 
ATOM     55  C   UNL A   1      38.662  31.283  30.969  1.00  0.00     0.049 A 
ATOM     56  H   UNL A   1      40.159  30.694  32.293  1.00  0.00     0.167 HD
ATOM     57  C   UNL A   1      43.296  29.305  35.009  1.00  0.00     0.031 A 
ATOM     58  C   UNL A   1      37.982  32.288  31.554  1.00  0.00     0.031 A 
ATOM     59  C   UNL A   1      42.689  30.433  35.668  1.00  0.00     0.049 A 
ATOM     60  C   UNL A   1      38.404  32.757  32.920  1.00  0.00     0.074 A 
ATOM     61  C   UNL A   1      43.039  31.007  36.877  1.00  0.00     0.029 A 
ATOM     62  N   UNL A   1      41.609  31.151  35.181  1.00  0.00    -0.354 N 
ATOM     63  N   UNL A   1      39.393  32.330  33.670  1.00  0.00    -0.248 NA
ATOM     64  C   UNL A   1      37.626  33.852  33.515  1.00  0.00     0.031 C 
ATOM     65  C   UNL A   1      42.126  32.030  37.155  1.00  0.00     0.029 A 
ATOM     66  C   UNL A   1      41.256  32.141  36.083  1.00  0.00     0.049 A 
ATOM     67  H   UNL A   1      41.159  30.983  34.322  1.00  0.00     0.167 HD
ATOM     68  C   UNL A   1      39.373  33.128  34.809  1.00  0.00     0.074 A 
ATOM     69  C   UNL A   1      38.292  34.075  34.639  1.00  0.00     0.031 C 
ATOM     70  C   UNL A   1      40.177  33.078  35.901  1.00  0.00     0.031 A 
BRANCH  57  71
ATOM     71  C   UNL A   1      44.407  28.583  35.726  1.00  0.00    -0.014 A 
ATOM     72  C   UNL A   1      45.739  29.028  35.642  1.00  0.00     0.010 A 
ATOM     73  C   UNL A   1      44.101  27.498  36.569  1.00  0.00     0.010 A 
ATOM     74  C   UNL A   1      46.746  28.389  36.371  1.00  0.00     0.020 A 
ATOM     75  C   UNL A   1      45.101  26.875  37.322  1.00  0.00     0.020 A 
ATOM     76  C   UNL A   1      46.419  27.320  37.211  1.00  0.00     0.054 A 
BRANCH  76  77
ATOM     77  S   UNL A   1      47.737  26.552  38.191  1.00  0.00     0.124 S 
ATOM     78  O   UNL A   1      47.889  27.501  39.290  1.00  0.00    -0.237 OA
ATOM     79  O   UNL A   1      47.155  25.262  38.553  1.00  0.00    -0.237 OA
ATOM     80  O   UNL A   1      48.866  26.486  37.266  1.00  0.00    -0.744 OA
ENDBRANCH  76  77
ENDBRANCH  57  71
BRANCH  58  81
ATOM     81  C   UNL A   1      36.825  32.921  30.858  1.00  0.00    -0.014 A 
ATOM     82  C   UNL A   1      37.019  33.996  29.973  1.00  0.00     0.010 A 
ATOM     83  C   UNL A   1      35.516  32.468  31.104  1.00  0.00     0.010 A 
ATOM     84  C   UNL A   1      35.925  34.632  29.379  1.00  0.00     0.020 A 
ATOM     85  C   UNL A   1      34.422  33.078  30.483  1.00  0.00     0.020 A 
ATOM     86  C   UNL A   1      34.632  34.170  29.641  1.00  0.00     0.054 A 
BRANCH  86  87
ATOM     87  S   UNL A   1      33.228  35.002  28.851  1.00  0.00     0.124 S 
ATOM     88  O   UNL A   1      32.668  33.936  28.026  1.00  0.00    -0.237 OA
ATOM     89  O   UNL A   1      32.418  35.408  29.997  1.00  0.00    -0.237 OA
ATOM     90  O   UNL A   1      33.851  36.101  28.117  1.00  0.00    -0.744 OA
ENDBRANCH  86  87
ENDBRANCH  58  81
BRANCH  70  91
ATOM     91  C   UNL A   1      39.942  34.102  36.981  1.00  0.00    -0.014 A 
ATOM     92  C   UNL A   1      40.543  35.372  36.930  1.00  0.00     0.010 A 
ATOM     93  C   UNL A   1      39.073  33.799  38.046  1.00  0.00     0.010 A 
ATOM     94  C   UNL A   1      40.314  36.304  37.946  1.00  0.00     0.020 A 
ATOM     95  C   UNL A   1      38.813  34.740  39.045  1.00  0.00     0.020 A 
ATOM     96  C   UNL A   1      39.450  35.981  38.997  1.00  0.00     0.054 A 
BRANCH  96  97
ATOM     97  S   UNL A   1      39.145  37.220  40.286  1.00  0.00     0.124 S 
ATOM     98  O   UNL A   1      40.502  37.572  40.695  1.00  0.00    -0.237 OA
ATOM     99  O   UNL A   1      38.416  38.259  39.563  1.00  0.00    -0.237 OA
ATOM    100  O   UNL A   1      38.361  36.497  41.284  1.00  0.00    -0.744 OA
ENDBRANCH  96  97
ENDBRANCH  70  91
ENDBRANCH  44  45
ENDBRANCH  36  39
ENDBRANCH  34  35
ENDBRANCH  33  34
ENDBRANCH  32  33
ENDBRANCH   1  32
TORSDOF 21
ENDMDL
MODEL 2
REMARK VINA RESULT:     -10.7      1.209      7.910
REMARK SMILES CC(C)(C)OC(=O)N1CCN(C(=O)c2ccc3c(c2)OCO3)[C@H](C(=O)NCCCCCCNC(=O)c2ccc(-c3c4nc(c(-c5ccc(S(=O)(=O)[O-])cc5)c5ccc([nH]5)c(-c5ccc(S(=O)(=O)[O-])cc5)c5nc(c(-c6ccc(S(=O)(=O)[O-])cc6)c6ccc3[nH]6)C=C5)C=C4)cc2)C1
REMARK SMILES IDX 29 1 28 2 27 3 26 4 24 5 25 6 23 8 8 9 9 10 96 11 10 12
REMARK SMILES IDX 11 13 6 14 7 15 5 16 2 17 1 18 3 19 4 20 12 21 13 22 14 23
REMARK SMILES IDX 15 24 19 25 16 26 18 27 17 28 20 29 22 30 21 31 30 32 31 33
REMARK SMILES IDX 32 34 33 35 34 36 35 38 36 39 37 40 95 41 38 42 94 43 39 44
REMARK SMILES IDX 40 45 41 46 88 47 42 48 93 49 87 50 89 51 43 52 92 53 86 54
REMARK SMILES IDX 85 55 44 57 74 58 55 59 73 60 56 61 59 62 72 63 90 64 57 65
REMARK SMILES IDX 58 66 71 68 91 69 60 70 45 71 46 72 54 73 47 74 53 75 48 76
REMARK SMILES IDX 49 77 50 78 51 79 52 80 75 81 76 82 84 83 77 84 83 85 78 86
REMARK SMILES IDX 79 87 80 88 81 89 82 90 61 91 62 92 70 93 63 94 69 95 64 96
REMARK SMILES IDX 65 97 66 98 67 99 68 100
REMARK H PARENT 26 7 33 37 89 56 59 67
REMARK Flexibility Score: inf
ROOT
ATOM      1  C   UNL A   1      38.582  21.916  26.081  1.00  0.00     0.002 C 
ENDROOT
BRANCH   1   2
ATOM      2  C   UNL A   1      37.967  23.290  25.786  1.00  0.00     0.021 C 
BRANCH   2   3
ATOM      3  C   UNL A   1      36.627  23.204  25.055  1.00  0.00     0.116 C 
BRANCH   3   4
ATOM      4  N   UNL A   1      35.624  22.694  25.972  1.00  0.00    -0.354 N 
ATOM      5  C   UNL A   1      34.309  23.060  26.031  1.00  0.00     0.244 C 
ATOM      6  O   UNL A   1      33.748  23.078  27.126  1.00  0.00    -0.273 OA
ATOM      7  H   UNL A   1      35.922  22.013  26.618  1.00  0.00     0.163 HD
BRANCH   5   8
ATOM      8  C   UNL A   1      33.569  23.294  24.710  1.00  0.00     0.194 C 
ATOM      9  N   UNL A   1      32.767  25.234  23.374  1.00  0.00    -0.304 N 
ATOM     10  C   UNL A   1      31.490  24.588  23.095  1.00  0.00     0.144 C 
ATOM     11  C   UNL A   1      33.413  24.828  24.619  1.00  0.00     0.158 C 
ATOM     12  C   UNL A   1      31.615  23.063  23.210  1.00  0.00     0.142 C 
ATOM     13  N   UNL A   1      32.241  22.636  24.475  1.00  0.00    -0.323 N 
BRANCH   9  14
ATOM     14  C   UNL A   1      33.240  26.235  22.559  1.00  0.00     0.410 C 
ATOM     15  O   UNL A   1      33.343  26.115  21.344  1.00  0.00    -0.224 OA
BRANCH  14  16
ATOM     16  O   UNL A   1      33.618  27.329  23.268  1.00  0.00    -0.444 OA
BRANCH  16  17
ATOM     17  C   UNL A   1      32.667  28.363  23.640  1.00  0.00     0.106 C 
ATOM     18  C   UNL A   1      32.352  29.106  22.331  1.00  0.00     0.056 C 
ATOM     19  C   UNL A   1      33.341  29.327  24.617  1.00  0.00     0.056 C 
ATOM     20  C   UNL A   1      31.345  27.817  24.196  1.00  0.00     0.056 C 
ENDBRANCH  16  17
ENDBRANCH  14  16
ENDBRANCH   9  14
BRANCH  13  21
ATOM     21  C   UNL A   1      31.844  21.375  24.940  1.00  0.00     0.254 C 
ATOM     22  O   UNL A   1      31.126  21.222  25.928  1.00  0.00    -0.269 OA
BRANCH  21  23
ATOM     23  C   UNL A   1      32.349  20.141  24.309  1.00  0.00     0.044 A 
ATOM     24  C   UNL A   1      32.126  19.896  22.938  1.00  0.00     0.018 A 
ATOM     25  C   UNL A   1      33.105  19.250  25.080  1.00  0.00     0.064 A 
ATOM     26  C   UNL A   1      32.556  18.698  22.355  1.00  0.00     0.051 A 
ATOM     27  C   UNL A   1      33.527  18.087  24.470  1.00  0.00     0.166 A 
ATOM     28  C   UNL A   1      33.246  17.810  23.152  1.00  0.00     0.165 A 
ATOM     29  O   UNL A   1      34.228  17.085  25.068  1.00  0.00    -0.454 OA
ATOM     30  O   UNL A   1      33.714  16.594  22.763  1.00  0.00    -0.454 OA
ATOM     31  C   UNL A   1      34.335  16.139  23.984  1.00  0.00     0.468 C 
ENDBRANCH  21  23
ENDBRANCH  13  21
ENDBRANCH   5   8
ENDBRANCH   3   4
ENDBRANCH   2   3
ENDBRANCH   1   2
BRANCH   1  32
ATOM     32  C   UNL A   1      40.101  21.937  26.275  1.00  0.00     0.002 C 
BRANCH  32  33
ATOM     33  C   UNL A   1      40.550  22.359  27.675  1.00  0.00     0.021 C 
BRANCH  33  34
ATOM     34  C   UNL A   1      41.643  23.421  27.682  1.00  0.00     0.116 C 
BRANCH  34  35
ATOM     35  N   UNL A   1      41.706  24.135  26.418  1.00  0.00    -0.352 N 
ATOM     36  C   UNL A   1      41.376  25.437  26.142  1.00  0.00     0.251 C 
ATOM     37  H   UNL A   1      42.031  23.610  25.650  1.00  0.00     0.163 HD
ATOM     38  O   UNL A   1      41.271  25.811  24.979  1.00  0.00    -0.269 OA
BRANCH  36  39
ATOM     39  C   UNL A   1      41.130  26.379  27.255  1.00  0.00     0.039 A 
ATOM     40  C   UNL A   1      40.115  26.093  28.169  1.00  0.00     0.014 A 
ATOM     41  C   UNL A   1      41.901  27.537  27.398  1.00  0.00     0.014 A 
ATOM     42  C   UNL A   1      39.909  26.941  29.258  1.00  0.00     0.010 A 
ATOM     43  C   UNL A   1      41.746  28.338  28.526  1.00  0.00     0.010 A 
ATOM     44  C   UNL A   1      40.747  28.051  29.467  1.00  0.00    -0.014 A 
BRANCH  44  45
ATOM     45  C   UNL A   1      40.596  28.902  30.675  1.00  0.00     0.031 A 
ATOM     46  C   UNL A   1      39.523  29.956  30.738  1.00  0.00     0.074 A 
ATOM     47  C   UNL A   1      41.459  28.751  31.700  1.00  0.00     0.049 A 
ATOM     48  N   UNL A   1      39.255  30.797  31.703  1.00  0.00    -0.248 NA
ATOM     49  C   UNL A   1      38.651  30.100  29.560  1.00  0.00     0.031 C 
ATOM     50  C   UNL A   1      42.569  27.794  31.740  1.00  0.00     0.029 A 
ATOM     51  N   UNL A   1      41.540  29.398  32.908  1.00  0.00    -0.354 N 
ATOM     52  C   UNL A   1      38.196  31.575  31.247  1.00  0.00     0.074 A 
ATOM     53  C   UNL A   1      37.900  31.139  29.901  1.00  0.00     0.031 C 
ATOM     54  C   UNL A   1      43.194  27.892  32.925  1.00  0.00     0.029 A 
ATOM     55  C   UNL A   1      42.564  28.948  33.709  1.00  0.00     0.049 A 
ATOM     56  H   UNL A   1      40.923  30.117  33.176  1.00  0.00     0.167 HD
ATOM     57  C   UNL A   1      37.520  32.552  31.899  1.00  0.00     0.031 A 
ATOM     58  C   UNL A   1      42.959  29.345  34.935  1.00  0.00     0.031 A 
ATOM     59  C   UNL A   1      37.811  32.975  33.244  1.00  0.00     0.049 A 
ATOM     60  C   UNL A   1      42.200  30.447  35.624  1.00  0.00     0.074 A 
ATOM     61  C   UNL A   1      37.141  33.911  34.011  1.00  0.00     0.029 A 
ATOM     62  N   UNL A   1      38.856  32.497  34.019  1.00  0.00    -0.354 N 
ATOM     63  N   UNL A   1      41.148  31.111  35.207  1.00  0.00    -0.248 NA
ATOM     64  C   UNL A   1      42.674  30.845  36.956  1.00  0.00     0.031 C 
ATOM     65  C   UNL A   1      37.821  34.050  35.225  1.00  0.00     0.029 A 
ATOM     66  C   UNL A   1      38.871  33.146  35.242  1.00  0.00     0.049 A 
ATOM     67  H   UNL A   1      39.494  31.801  33.741  1.00  0.00     0.167 HD
ATOM     68  C   UNL A   1      40.818  31.982  36.240  1.00  0.00     0.074 A 
ATOM     69  C   UNL A   1      41.765  31.743  37.307  1.00  0.00     0.031 C 
ATOM     70  C   UNL A   1      39.820  32.899  36.298  1.00  0.00     0.031 A 
BRANCH  57  71
ATOM     71  C   UNL A   1      36.398  33.244  31.169  1.00  0.00    -0.014 A 
ATOM     72  C   UNL A   1      35.106  33.316  31.720  1.00  0.00     0.010 A 
ATOM     73  C   UNL A   1      36.662  33.909  29.958  1.00  0.00     0.010 A 
ATOM     74  C   UNL A   1      34.095  34.024  31.063  1.00  0.00     0.020 A 
ATOM     75  C   UNL A   1      35.662  34.642  29.312  1.00  0.00     0.020 A 
ATOM     76  C   UNL A   1      34.382  34.687  29.866  1.00  0.00     0.054 A 
BRANCH  76  77
ATOM     77  S   UNL A   1      33.065  35.647  29.069  1.00  0.00     0.124 S 
ATOM     78  O   UNL A   1      32.408  34.634  28.247  1.00  0.00    -0.237 OA
ATOM     79  O   UNL A   1      32.289  36.129  30.209  1.00  0.00    -0.237 OA
ATOM     80  O   UNL A   1      33.786  36.679  28.328  1.00  0.00    -0.744 OA
ENDBRANCH  76  77
ENDBRANCH  57  71
BRANCH  58  81
ATOM     81  C   UNL A   1      44.134  28.705  35.593  1.00  0.00    -0.014 A 
ATOM     82  C   UNL A   1      43.978  27.539  36.362  1.00  0.00     0.010 A 
ATOM     83  C   UNL A   1      45.412  29.281  35.477  1.00  0.00     0.010 A 
ATOM     84  C   UNL A   1      45.070  26.983  37.036  1.00  0.00     0.020 A 
ATOM     85  C   UNL A   1      46.513  28.707  36.120  1.00  0.00     0.020 A 
ATOM     86  C   UNL A   1      46.331  27.574  36.912  1.00  0.00     0.054 A 
BRANCH  86  87
ATOM     87  S   UNL A   1      47.736  26.831  37.786  1.00  0.00     0.124 S 
ATOM     88  O   UNL A   1      48.685  26.608  36.700  1.00  0.00    -0.237 OA
ATOM     89  O   UNL A   1      48.100  27.875  38.741  1.00  0.00    -0.237 OA
ATOM     90  O   UNL A   1      47.169  25.624  38.381  1.00  0.00    -0.744 OA
ENDBRANCH  86  87
ENDBRANCH  58  81
BRANCH  70  91
ATOM     91  C   UNL A   1      39.678  33.688  37.573  1.00  0.00    -0.014 A 
ATOM     92  C   UNL A   1      39.104  33.122  38.726  1.00  0.00     0.010 A 
ATOM     93  C   UNL A   1      40.163  35.008  37.629  1.00  0.00     0.010 A 
ATOM     94  C   UNL A   1      38.979  33.875  39.897  1.00  0.00     0.020 A 
ATOM     95  C   UNL A   1      40.073  35.752  38.807  1.00  0.00     0.020 A 
ATOM     96  C   UNL A   1      39.465  35.186  39.929  1.00  0.00     0.054 A 
BRANCH  96  97
ATOM     97  S   UNL A   1      39.319  36.131  41.470  1.00  0.00     0.124 S 
ATOM     98  O   UNL A   1      40.242  35.420  42.350  1.00  0.00    -0.237 OA
ATOM     99  O   UNL A   1      39.740  37.470  41.065  1.00  0.00    -0.237 OA
ATOM    100  O   UNL A   1      37.906  36.008  41.819  1.00  0.00    -0.744 OA
ENDBRANCH  96  97
ENDBRANCH  70  91
ENDBRANCH  44  45
ENDBRANCH  36  39
ENDBRANCH  34  35
ENDBRANCH  33  34
ENDBRANCH  32  33
ENDBRANCH   1  32
TORSDOF 21
ENDMDL
MODEL 3
REMARK VINA RESULT:     -10.6      5.911      8.810
REMARK SMILES CC(C)(C)OC(=O)N1CCN(C(=O)c2ccc3c(c2)OCO3)[C@H](C(=O)NCCCCCCNC(=O)c2ccc(-c3c4nc(c(-c5ccc(S(=O)(=O)[O-])cc5)c5ccc([nH]5)c(-c5ccc(S(=O)(=O)[O-])cc5)c5nc(c(-c6ccc(S(=O)(=O)[O-])cc6)c6ccc3[nH]6)C=C5)C=C4)cc2)C1
REMARK SMILES IDX 29 1 28 2 27 3 26 4 24 5 25 6 23 8 8 9 9 10 96 11 10 12
REMARK SMILES IDX 11 13 6 14 7 15 5 16 2 17 1 18 3 19 4 20 12 21 13 22 14 23
REMARK SMILES IDX 15 24 19 25 16 26 18 27 17 28 20 29 22 30 21 31 30 32 31 33
REMARK SMILES IDX 32 34 33 35 34 36 35 38 36 39 37 40 95 41 38 42 94 43 39 44
REMARK SMILES IDX 40 45 41 46 88 47 42 48 93 49 87 50 89 51 43 52 92 53 86 54
REMARK SMILES IDX 85 55 44 57 74 58 55 59 73 60 56 61 59 62 72 63 90 64 57 65
REMARK SMILES IDX 58 66 71 68 91 69 60 70 45 71 46 72 54 73 47 74 53 75 48 76
REMARK SMILES IDX 49 77 50 78 51 79 52 80 75 81 76 82 84 83 77 84 83 85 78 86
REMARK SMILES IDX 79 87 80 88 81 89 82 90 61 91 62 92 70 93 63 94 69 95 64 96
REMARK SMILES IDX 65 97 66 98 67 99 68 100
REMARK H PARENT 26 7 33 37 89 56 59 67
REMARK Flexibility Score: inf
ROOT
ATOM      1  C   UNL A   1      39.640  22.114  26.720  1.00  0.00     0.002 C 
ENDROOT
BRANCH   1   2
ATOM      2  C   UNL A   1      39.107  23.523  26.429  1.00  0.00     0.021 C 
BRANCH   2   3
ATOM      3  C   UNL A   1      37.587  23.569  26.271  1.00  0.00     0.116 C 
BRANCH   3   4
ATOM      4  N   UNL A   1      37.267  23.793  24.873  1.00  0.00    -0.354 N 
ATOM      5  C   UNL A   1      36.348  23.112  24.126  1.00  0.00     0.244 C 
ATOM      6  O   UNL A   1      36.576  22.928  22.930  1.00  0.00    -0.273 OA
ATOM      7  H   UNL A   1      37.764  24.510  24.416  1.00  0.00     0.163 HD
BRANCH   5   8
ATOM      8  C   UNL A   1      35.021  22.735  24.790  1.00  0.00     0.194 C 
ATOM      9  N   UNL A   1      33.416  20.833  24.738  1.00  0.00    -0.304 N 
ATOM     10  C   UNL A   1      32.266  21.729  24.698  1.00  0.00     0.144 C 
ATOM     11  C   UNL A   1      34.648  21.372  24.167  1.00  0.00     0.158 C 
ATOM     12  C   UNL A   1      32.623  23.100  25.286  1.00  0.00     0.142 C 
ATOM     13  N   UNL A   1      33.850  23.670  24.698  1.00  0.00    -0.323 N 
BRANCH   9  14
ATOM     14  C   UNL A   1      33.282  19.539  25.182  1.00  0.00     0.410 C 
ATOM     15  O   UNL A   1      32.627  19.237  26.173  1.00  0.00    -0.224 OA
BRANCH  14  16
ATOM     16  O   UNL A   1      33.999  18.668  24.428  1.00  0.00    -0.444 OA
BRANCH  16  17
ATOM     17  C   UNL A   1      33.355  17.620  23.655  1.00  0.00     0.106 C 
ATOM     18  C   UNL A   1      32.644  16.736  24.693  1.00  0.00     0.056 C 
ATOM     19  C   UNL A   1      34.431  16.798  22.943  1.00  0.00     0.056 C 
ATOM     20  C   UNL A   1      32.291  18.138  22.676  1.00  0.00     0.056 C 
ENDBRANCH  16  17
ENDBRANCH  14  16
ENDBRANCH   9  14
BRANCH  13  21
ATOM     21  C   UNL A   1      33.905  25.070  24.675  1.00  0.00     0.254 C 
ATOM     22  O   UNL A   1      34.711  25.720  25.341  1.00  0.00    -0.269 OA
BRANCH  21  23
ATOM     23  C   UNL A   1      32.921  25.855  23.905  1.00  0.00     0.044 A 
ATOM     24  C   UNL A   1      32.648  25.535  22.559  1.00  0.00     0.018 A 
ATOM     25  C   UNL A   1      32.219  26.879  24.552  1.00  0.00     0.064 A 
ATOM     26  C   UNL A   1      31.757  26.316  21.813  1.00  0.00     0.051 A 
ATOM     27  C   UNL A   1      31.337  27.619  23.792  1.00  0.00     0.166 A 
ATOM     28  C   UNL A   1      31.125  27.357  22.458  1.00  0.00     0.165 A 
ATOM     29  O   UNL A   1      30.604  28.679  24.231  1.00  0.00    -0.454 OA
ATOM     30  O   UNL A   1      30.252  28.230  21.888  1.00  0.00    -0.454 OA
ATOM     31  C   UNL A   1      29.927  29.067  23.018  1.00  0.00     0.468 C 
ENDBRANCH  21  23
ENDBRANCH  13  21
ENDBRANCH   5   8
ENDBRANCH   3   4
ENDBRANCH   2   3
ENDBRANCH   1   2
BRANCH   1  32
ATOM     32  C   UNL A   1      41.050  22.088  27.319  1.00  0.00     0.002 C 
BRANCH  32  33
ATOM     33  C   UNL A   1      41.756  20.735  27.208  1.00  0.00     0.021 C 
BRANCH  33  34
ATOM     34  C   UNL A   1      41.594  20.061  25.851  1.00  0.00     0.116 C 
BRANCH  34  35
ATOM     35  N   UNL A   1      42.859  19.547  25.353  1.00  0.00    -0.352 N 
ATOM     36  C   UNL A   1      44.018  20.227  25.072  1.00  0.00     0.251 C 
ATOM     37  H   UNL A   1      42.890  18.576  25.195  1.00  0.00     0.163 HD
ATOM     38  O   UNL A   1      44.915  19.676  24.443  1.00  0.00    -0.269 OA
BRANCH  36  39
ATOM     39  C   UNL A   1      44.167  21.629  25.515  1.00  0.00     0.039 A 
ATOM     40  C   UNL A   1      44.730  21.886  26.765  1.00  0.00     0.014 A 
ATOM     41  C   UNL A   1      43.756  22.687  24.696  1.00  0.00     0.014 A 
ATOM     42  C   UNL A   1      44.932  23.205  27.173  1.00  0.00     0.010 A 
ATOM     43  C   UNL A   1      44.029  23.999  25.071  1.00  0.00     0.010 A 
ATOM     44  C   UNL A   1      44.617  24.273  26.314  1.00  0.00    -0.014 A 
BRANCH  44  45
ATOM     45  C   UNL A   1      44.919  25.675  26.701  1.00  0.00     0.031 A 
ATOM     46  C   UNL A   1      46.311  26.229  26.544  1.00  0.00     0.074 A 
ATOM     47  C   UNL A   1      43.944  26.437  27.236  1.00  0.00     0.049 A 
ATOM     48  N   UNL A   1      46.758  27.421  26.843  1.00  0.00    -0.248 NA
ATOM     49  C   UNL A   1      47.338  25.323  26.002  1.00  0.00     0.031 C 
ATOM     50  C   UNL A   1      42.565  26.001  27.481  1.00  0.00     0.029 A 
ATOM     51  N   UNL A   1      43.958  27.738  27.673  1.00  0.00    -0.354 N 
ATOM     52  C   UNL A   1      48.114  27.406  26.538  1.00  0.00     0.074 A 
ATOM     53  C   UNL A   1      48.429  26.073  26.075  1.00  0.00     0.031 C 
ATOM     54  C   UNL A   1      41.860  27.026  27.987  1.00  0.00     0.029 A 
ATOM     55  C   UNL A   1      42.743  28.175  28.149  1.00  0.00     0.049 A 
ATOM     56  H   UNL A   1      44.762  28.306  27.647  1.00  0.00     0.167 HD
ATOM     57  C   UNL A   1      49.013  28.417  26.619  1.00  0.00     0.031 A 
ATOM     58  C   UNL A   1      42.380  29.365  28.667  1.00  0.00     0.031 A 
ATOM     59  C   UNL A   1      48.692  29.747  27.069  1.00  0.00     0.049 A 
ATOM     60  C   UNL A   1      43.406  30.463  28.762  1.00  0.00     0.074 A 
ATOM     61  C   UNL A   1      49.518  30.855  27.124  1.00  0.00     0.029 A 
ATOM     62  N   UNL A   1      47.454  30.148  27.545  1.00  0.00    -0.354 N 
ATOM     63  N   UNL A   1      44.664  30.451  28.388  1.00  0.00    -0.248 NA
ATOM     64  C   UNL A   1      42.961  31.738  29.339  1.00  0.00     0.031 C 
ATOM     65  C   UNL A   1      48.800  31.908  27.698  1.00  0.00     0.029 A 
ATOM     66  C   UNL A   1      47.504  31.477  27.930  1.00  0.00     0.049 A 
ATOM     67  H   UNL A   1      46.656  29.573  27.601  1.00  0.00     0.167 HD
ATOM     68  C   UNL A   1      45.148  31.728  28.656  1.00  0.00     0.074 A 
ATOM     69  C   UNL A   1      44.043  32.489  29.199  1.00  0.00     0.031 C 
ATOM     70  C   UNL A   1      46.396  32.224  28.470  1.00  0.00     0.031 A 
BRANCH  57  71
ATOM     71  C   UNL A   1      50.437  28.133  26.219  1.00  0.00    -0.014 A 
ATOM     72  C   UNL A   1      51.389  27.709  27.164  1.00  0.00     0.010 A 
ATOM     73  C   UNL A   1      50.807  28.206  24.863  1.00  0.00     0.010 A 
ATOM     74  C   UNL A   1      52.687  27.381  26.763  1.00  0.00     0.020 A 
ATOM     75  C   UNL A   1      52.096  27.851  24.454  1.00  0.00     0.020 A 
ATOM     76  C   UNL A   1      53.030  27.449  25.409  1.00  0.00     0.054 A 
BRANCH  76  77
ATOM     77  S   UNL A   1      54.704  26.958  24.913  1.00  0.00     0.124 S 
ATOM     78  O   UNL A   1      55.330  28.250  24.643  1.00  0.00    -0.237 OA
ATOM     79  O   UNL A   1      55.195  26.259  26.097  1.00  0.00    -0.237 OA
ATOM     80  O   UNL A   1      54.487  26.116  23.739  1.00  0.00    -0.744 OA
ENDBRANCH  76  77
ENDBRANCH  57  71
BRANCH  58  81
ATOM     81  C   UNL A   1      40.985  29.587  29.143  1.00  0.00    -0.014 A 
ATOM     82  C   UNL A   1      39.923  29.691  28.228  1.00  0.00     0.010 A 
ATOM     83  C   UNL A   1      40.718  29.726  30.517  1.00  0.00     0.010 A 
ATOM     84  C   UNL A   1      38.627  29.971  28.674  1.00  0.00     0.020 A 
ATOM     85  C   UNL A   1      39.418  29.969  30.969  1.00  0.00     0.020 A 
ATOM     86  C   UNL A   1      38.385  30.111  30.044  1.00  0.00     0.054 A 
BRANCH  86  87
ATOM     87  S   UNL A   1      36.695  30.462  30.603  1.00  0.00     0.124 S 
ATOM     88  O   UNL A   1      36.370  29.258  31.361  1.00  0.00    -0.237 OA
ATOM     89  O   UNL A   1      36.871  31.680  31.391  1.00  0.00    -0.237 OA
ATOM     90  O   UNL A   1      35.953  30.638  29.357  1.00  0.00    -0.744 OA
ENDBRANCH  86  87
ENDBRANCH  58  81
BRANCH  70  91
ATOM     91  C   UNL A   1      46.626  33.671  28.822  1.00  0.00    -0.014 A 
ATOM     92  C   UNL A   1      46.980  34.060  30.127  1.00  0.00     0.010 A 
ATOM     93  C   UNL A   1      46.525  34.653  27.820  1.00  0.00     0.010 A 
ATOM     94  C   UNL A   1      47.185  35.409  30.431  1.00  0.00     0.020 A 
ATOM     95  C   UNL A   1      46.763  35.998  28.111  1.00  0.00     0.020 A 
ATOM     96  C   UNL A   1      47.074  36.369  29.420  1.00  0.00     0.054 A 
BRANCH  96  97
ATOM     97  S   UNL A   1      47.376  38.108  29.835  1.00  0.00     0.124 S 
ATOM     98  O   UNL A   1      48.524  38.427  28.990  1.00  0.00    -0.237 OA
ATOM     99  O   UNL A   1      46.119  38.749  29.457  1.00  0.00    -0.237 OA
ATOM    100  O   UNL A   1      47.648  38.081  31.270  1.00  0.00    -0.744 OA
ENDBRANCH  96  97
ENDBRANCH  70  91
ENDBRANCH  44  45
ENDBRANCH  36  39
ENDBRANCH  34  35
ENDBRANCH  33  34
ENDBRANCH  32  33
ENDBRANCH   1  32
TORSDOF 21
ENDMDL
