MODEL 1
REMARK VINA RESULT:     -11.3      0.000      0.000
REMARK SMILES Cc1nccn1CCC[NH+]1CCC2(CC1)[C@@H](C(=O)NCCCCCCNC(=O)c1ccc(-c3c4nc(c(-c5ccc(S(=O)(=O)[O-])cc5)c5ccc([nH]5)c(-c5ccc(S(=O)(=O)[O-])cc5)c5nc(c(-c6ccc(S(=O)(=O)[O-])cc6)c6ccc3[nH]6)C=C5)C=C4)cc1)CC(=O)N2C
REMARK SMILES IDX 22 1 21 2 20 3 19 4 17 5 18 6 16 8 10 9 11 10 15 11 12 13
REMARK SMILES IDX 14 14 13 15 92 16 89 17 90 18 93 19 91 20 9 21 8 22 7 23
REMARK SMILES IDX 6 24 1 25 2 26 3 27 4 28 5 29 23 30 24 31 25 32 26 33 27 34
REMARK SMILES IDX 28 36 29 37 30 38 88 39 31 40 87 41 32 42 33 43 34 44 81 45
REMARK SMILES IDX 35 46 86 47 80 48 82 49 36 50 85 51 79 52 78 53 37 55 67 56
REMARK SMILES IDX 48 57 66 58 49 59 52 60 65 61 83 62 50 63 51 64 64 66 84 67
REMARK SMILES IDX 53 68 38 69 39 70 47 71 40 72 46 73 41 74 42 75 43 76 44 77
REMARK SMILES IDX 45 78 68 79 69 80 77 81 70 82 76 83 71 84 72 85 73 86 74 87
REMARK SMILES IDX 75 88 54 89 55 90 63 91 56 92 62 93 57 94 58 95 59 96 60 97
REMARK SMILES IDX 61 98
REMARK H PARENT 19 7 10 12 26 35 82 54 52 65
REMARK Flexibility Score: inf
ROOT
ATOM      1  C   UNL A   1      39.837  22.379  27.027  1.00  0.00     0.002 C 
ENDROOT
BRANCH   1   2
ATOM      2  C   UNL A   1      39.165  23.669  26.526  1.00  0.00     0.021 C 
BRANCH   2   3
ATOM      3  C   UNL A   1      37.837  23.526  25.797  1.00  0.00     0.116 C 
BRANCH   3   4
ATOM      4  N   UNL A   1      36.601  23.617  26.524  1.00  0.00    -0.356 N 
ATOM      5  C   UNL A   1      35.460  22.888  26.367  1.00  0.00     0.226 C 
ATOM      6  O   UNL A   1      34.668  22.932  27.320  1.00  0.00    -0.275 OA
ATOM      7  H   UNL A   1      36.574  24.299  27.233  1.00  0.00     0.163 HD
BRANCH   5   8
ATOM      8  C   UNL A   1      35.010  22.124  25.095  1.00  0.00     0.114 C 
ATOM      9  N   UNL A   1      31.103  23.516  23.616  1.00  0.00    -0.335 N 
ATOM     10  C   UNL A   1      31.935  22.715  22.698  1.00  0.00     0.264 C 
ATOM     11  C   UNL A   1      31.095  22.852  24.907  1.00  0.00     0.264 C 
ATOM     12  H   UNL A   1      30.145  23.556  23.268  1.00  0.00     0.348 HD
ATOM     13  C   UNL A   1      33.384  22.491  23.161  1.00  0.00     0.091 C 
ATOM     14  C   UNL A   1      32.469  22.551  25.480  1.00  0.00     0.091 C 
ATOM     15  C   UNL A   1      33.529  21.902  24.599  1.00  0.00     0.065 C 
ATOM     16  N   UNL A   1      33.437  20.430  24.573  1.00  0.00    -0.339 N 
ATOM     17  C   UNL A   1      35.716  20.765  25.036  1.00  0.00     0.116 C 
ATOM     18  C   UNL A   1      34.647  19.774  24.723  1.00  0.00     0.223 C 
ATOM     19  C   UNL A   1      32.217  19.646  24.596  1.00  0.00     0.147 C 
ATOM     20  O   UNL A   1      34.831  18.570  24.640  1.00  0.00    -0.275 OA
BRANCH   9  21
ATOM     21  C   UNL A   1      31.470  24.939  23.655  1.00  0.00     0.264 C 
BRANCH  21  22
ATOM     22  C   UNL A   1      32.283  25.444  22.439  1.00  0.00     0.083 C 
BRANCH  22  23
ATOM     23  C   UNL A   1      32.576  26.939  22.251  1.00  0.00     0.129 C 
BRANCH  23  24
ATOM     24  N   UNL A   1      32.255  27.812  23.367  1.00  0.00    -0.335 N 
ATOM     25  C   UNL A   1      29.902  28.432  22.634  1.00  0.00     0.087 C 
ATOM     26  C   UNL A   1      31.065  28.490  23.557  1.00  0.00     0.105 A 
ATOM     27  N   UNL A   1      31.086  29.162  24.693  1.00  0.00    -0.242 NA
ATOM     28  C   UNL A   1      32.289  28.883  25.272  1.00  0.00     0.131 A 
ATOM     29  C   UNL A   1      33.015  28.025  24.484  1.00  0.00     0.107 A 
ENDBRANCH  23  24
ENDBRANCH  22  23
ENDBRANCH  21  22
ENDBRANCH   9  21
ENDBRANCH   5   8
ENDBRANCH   3   4
ENDBRANCH   2   3
ENDBRANCH   1   2
BRANCH   1  30
ATOM     30  C   UNL A   1      39.967  21.161  26.094  1.00  0.00     0.002 C 
BRANCH  30  31
ATOM     31  C   UNL A   1      40.794  19.939  26.525  1.00  0.00     0.021 C 
BRANCH  31  32
ATOM     32  C   UNL A   1      42.204  20.192  27.019  1.00  0.00     0.116 C 
BRANCH  32  33
ATOM     33  N   UNL A   1      43.253  19.808  26.066  1.00  0.00    -0.352 N 
ATOM     34  C   UNL A   1      43.973  20.632  25.211  1.00  0.00     0.251 C 
ATOM     35  H   UNL A   1      43.473  18.849  26.027  1.00  0.00     0.163 HD
ATOM     36  O   UNL A   1      44.547  20.183  24.221  1.00  0.00    -0.269 OA
BRANCH  34  37
ATOM     37  C   UNL A   1      44.020  22.073  25.512  1.00  0.00     0.039 A 
ATOM     38  C   UNL A   1      43.060  22.981  25.051  1.00  0.00     0.014 A 
ATOM     39  C   UNL A   1      45.009  22.478  26.394  1.00  0.00     0.014 A 
ATOM     40  C   UNL A   1      43.036  24.266  25.598  1.00  0.00     0.010 A 
ATOM     41  C   UNL A   1      44.823  23.631  27.100  1.00  0.00     0.010 A 
ATOM     42  C   UNL A   1      43.900  24.572  26.659  1.00  0.00    -0.014 A 
BRANCH  42  43
ATOM     43  C   UNL A   1      43.815  25.820  27.412  1.00  0.00     0.031 A 
ATOM     44  C   UNL A   1      44.823  26.855  27.051  1.00  0.00     0.074 A 
ATOM     45  C   UNL A   1      42.730  26.116  28.167  1.00  0.00     0.049 A 
ATOM     46  N   UNL A   1      45.756  27.340  27.801  1.00  0.00    -0.248 NA
ATOM     47  C   UNL A   1      44.886  27.320  25.654  1.00  0.00     0.031 C 
ATOM     48  C   UNL A   1      41.518  25.303  28.365  1.00  0.00     0.029 A 
ATOM     49  N   UNL A   1      42.398  27.280  28.785  1.00  0.00    -0.354 N 
ATOM     50  C   UNL A   1      46.379  28.333  27.050  1.00  0.00     0.074 A 
ATOM     51  C   UNL A   1      45.943  28.136  25.689  1.00  0.00     0.031 C 
ATOM     52  C   UNL A   1      40.507  26.090  28.789  1.00  0.00     0.029 A 
ATOM     53  C   UNL A   1      41.043  27.404  29.083  1.00  0.00     0.049 A 
ATOM     54  H   UNL A   1      43.059  27.977  29.002  1.00  0.00     0.167 HD
ATOM     55  C   UNL A   1      47.000  29.393  27.641  1.00  0.00     0.031 A 
ATOM     56  C   UNL A   1      40.394  28.514  29.514  1.00  0.00     0.031 A 
ATOM     57  C   UNL A   1      47.154  29.190  29.059  1.00  0.00     0.049 A 
ATOM     58  C   UNL A   1      41.425  29.418  30.077  1.00  0.00     0.074 A 
ATOM     59  C   UNL A   1      47.779  28.241  29.842  1.00  0.00     0.029 A 
ATOM     60  N   UNL A   1      46.247  29.826  29.878  1.00  0.00    -0.354 N 
ATOM     61  N   UNL A   1      42.114  29.130  31.145  1.00  0.00    -0.248 NA
ATOM     62  C   UNL A   1      42.021  30.415  29.202  1.00  0.00     0.031 C 
ATOM     63  C   UNL A   1      46.890  28.029  30.937  1.00  0.00     0.029 A 
ATOM     64  C   UNL A   1      45.819  28.916  30.810  1.00  0.00     0.049 A 
ATOM     65  H   UNL A   1      45.959  30.765  29.807  1.00  0.00     0.167 HD
ATOM     66  C   UNL A   1      43.405  29.545  30.852  1.00  0.00     0.074 A 
ATOM     67  C   UNL A   1      43.263  30.433  29.699  1.00  0.00     0.031 C 
ATOM     68  C   UNL A   1      44.489  28.902  31.384  1.00  0.00     0.031 A 
BRANCH  55  69
ATOM     69  C   UNL A   1      47.099  30.771  27.031  1.00  0.00    -0.014 A 
ATOM     70  C   UNL A   1      48.350  31.424  27.024  1.00  0.00     0.010 A 
ATOM     71  C   UNL A   1      45.969  31.556  26.719  1.00  0.00     0.010 A 
ATOM     72  C   UNL A   1      48.451  32.803  26.799  1.00  0.00     0.020 A 
ATOM     73  C   UNL A   1      46.064  32.922  26.448  1.00  0.00     0.020 A 
ATOM     74  C   UNL A   1      47.302  33.545  26.528  1.00  0.00     0.054 A 
BRANCH  74  75
ATOM     75  S   UNL A   1      47.424  35.342  26.355  1.00  0.00     0.124 S 
ATOM     76  O   UNL A   1      46.055  35.701  25.997  1.00  0.00    -0.237 OA
ATOM     77  O   UNL A   1      47.864  35.752  27.685  1.00  0.00    -0.237 OA
ATOM     78  O   UNL A   1      48.415  35.516  25.295  1.00  0.00    -0.744 OA
ENDBRANCH  74  75
ENDBRANCH  55  69
BRANCH  56  79
ATOM     79  C   UNL A   1      38.996  28.935  29.247  1.00  0.00    -0.014 A 
ATOM     80  C   UNL A   1      38.116  29.241  30.302  1.00  0.00     0.010 A 
ATOM     81  C   UNL A   1      38.602  29.304  27.943  1.00  0.00     0.010 A 
ATOM     82  C   UNL A   1      36.929  29.956  30.072  1.00  0.00     0.020 A 
ATOM     83  C   UNL A   1      37.416  30.009  27.705  1.00  0.00     0.020 A 
ATOM     84  C   UNL A   1      36.599  30.359  28.776  1.00  0.00     0.054 A 
BRANCH  84  85
ATOM     85  S   UNL A   1      35.175  31.460  28.516  1.00  0.00     0.124 S 
ATOM     86  O   UNL A   1      34.148  30.536  28.047  1.00  0.00    -0.237 OA
ATOM     87  O   UNL A   1      34.964  32.023  29.846  1.00  0.00    -0.237 OA
ATOM     88  O   UNL A   1      35.659  32.411  27.515  1.00  0.00    -0.744 OA
ENDBRANCH  84  85
ENDBRANCH  56  79
BRANCH  68  89
ATOM     89  C   UNL A   1      44.259  27.914  32.508  1.00  0.00    -0.014 A 
ATOM     90  C   UNL A   1      43.954  28.288  33.833  1.00  0.00     0.010 A 
ATOM     91  C   UNL A   1      44.192  26.552  32.168  1.00  0.00     0.010 A 
ATOM     92  C   UNL A   1      43.621  27.321  34.794  1.00  0.00     0.020 A 
ATOM     93  C   UNL A   1      43.841  25.586  33.114  1.00  0.00     0.020 A 
ATOM     94  C   UNL A   1      43.568  25.973  34.427  1.00  0.00     0.054 A 
BRANCH  94  95
ATOM     95  S   UNL A   1      43.098  24.728  35.660  1.00  0.00     0.124 S 
ATOM     96  O   UNL A   1      44.393  24.244  36.132  1.00  0.00    -0.237 OA
ATOM     97  O   UNL A   1      42.324  25.501  36.627  1.00  0.00    -0.237 OA
ATOM     98  O   UNL A   1      42.319  23.755  34.893  1.00  0.00    -0.744 OA
ENDBRANCH  94  95
ENDBRANCH  68  89
ENDBRANCH  42  43
ENDBRANCH  34  37
ENDBRANCH  32  33
ENDBRANCH  31  32
ENDBRANCH  30  31
ENDBRANCH   1  30
TORSDOF 20
ENDMDL
MODEL 2
REMARK VINA RESULT:     -11.3      3.964      9.609
REMARK SMILES Cc1nccn1CCC[NH+]1CCC2(CC1)[C@@H](C(=O)NCCCCCCNC(=O)c1ccc(-c3c4nc(c(-c5ccc(S(=O)(=O)[O-])cc5)c5ccc([nH]5)c(-c5ccc(S(=O)(=O)[O-])cc5)c5nc(c(-c6ccc(S(=O)(=O)[O-])cc6)c6ccc3[nH]6)C=C5)C=C4)cc1)CC(=O)N2C
REMARK SMILES IDX 22 1 21 2 20 3 19 4 17 5 18 6 16 8 10 9 11 10 15 11 12 13
REMARK SMILES IDX 14 14 13 15 92 16 89 17 90 18 93 19 91 20 9 21 8 22 7 23
REMARK SMILES IDX 6 24 1 25 2 26 3 27 4 28 5 29 23 30 24 31 25 32 26 33 27 34
REMARK SMILES IDX 28 36 29 37 30 38 88 39 31 40 87 41 32 42 33 43 34 44 81 45
REMARK SMILES IDX 35 46 86 47 80 48 82 49 36 50 85 51 79 52 78 53 37 55 67 56
REMARK SMILES IDX 48 57 66 58 49 59 52 60 65 61 83 62 50 63 51 64 64 66 84 67
REMARK SMILES IDX 53 68 38 69 39 70 47 71 40 72 46 73 41 74 42 75 43 76 44 77
REMARK SMILES IDX 45 78 68 79 69 80 77 81 70 82 76 83 71 84 72 85 73 86 74 87
REMARK SMILES IDX 75 88 54 89 55 90 63 91 56 92 62 93 57 94 58 95 59 96 60 97
REMARK SMILES IDX 61 98
REMARK H PARENT 19 7 10 12 26 35 82 54 52 65
REMARK Flexibility Score: inf
ROOT
ATOM      1  C   UNL A   1      32.833  29.682  27.134  1.00  0.00     0.002 C 
ENDROOT
BRANCH   1   2
ATOM      2  C   UNL A   1      32.643  28.159  27.228  1.00  0.00     0.021 C 
BRANCH   2   3
ATOM      3  C   UNL A   1      31.672  27.515  26.250  1.00  0.00     0.116 C 
BRANCH   3   4
ATOM      4  N   UNL A   1      30.744  26.516  26.705  1.00  0.00    -0.356 N 
ATOM      5  C   UNL A   1      30.426  25.320  26.133  1.00  0.00     0.226 C 
ATOM      6  O   UNL A   1      29.857  24.511  26.881  1.00  0.00    -0.275 OA
ATOM      7  H   UNL A   1      30.274  26.723  27.544  1.00  0.00     0.163 HD
BRANCH   5   8
ATOM      8  C   UNL A   1      30.590  24.928  24.643  1.00  0.00     0.114 C 
ATOM      9  N   UNL A   1      33.777  21.946  24.051  1.00  0.00    -0.335 N 
ATOM     10  C   UNL A   1      32.816  22.147  22.950  1.00  0.00     0.264 C 
ATOM     11  C   UNL A   1      34.206  23.254  24.513  1.00  0.00     0.264 C 
ATOM     12  H   UNL A   1      34.594  21.441  23.709  1.00  0.00     0.348 HD
ATOM     13  C   UNL A   1      31.580  22.987  23.309  1.00  0.00     0.091 C 
ATOM     14  C   UNL A   1      33.080  24.202  24.889  1.00  0.00     0.091 C 
ATOM     15  C   UNL A   1      31.895  24.377  23.948  1.00  0.00     0.065 C 
ATOM     16  N   UNL A   1      32.132  25.391  22.903  1.00  0.00    -0.339 N 
ATOM     17  C   UNL A   1      30.043  26.050  23.753  1.00  0.00     0.116 C 
ATOM     18  C   UNL A   1      31.085  26.276  22.711  1.00  0.00     0.223 C 
ATOM     19  C   UNL A   1      33.388  25.647  22.224  1.00  0.00     0.147 C 
ATOM     20  O   UNL A   1      31.014  27.134  21.845  1.00  0.00    -0.275 OA
BRANCH   9  21
ATOM     21  C   UNL A   1      33.286  21.049  25.106  1.00  0.00     0.264 C 
BRANCH  21  22
ATOM     22  C   UNL A   1      32.943  19.613  24.644  1.00  0.00     0.083 C 
BRANCH  22  23
ATOM     23  C   UNL A   1      34.012  18.511  24.630  1.00  0.00     0.129 C 
BRANCH  23  24
ATOM     24  N   UNL A   1      33.565  17.164  24.941  1.00  0.00    -0.335 N 
ATOM     25  C   UNL A   1      35.853  16.156  25.397  1.00  0.00     0.087 C 
ATOM     26  C   UNL A   1      34.373  16.096  25.286  1.00  0.00     0.105 A 
ATOM     27  N   UNL A   1      33.647  15.026  25.547  1.00  0.00    -0.242 NA
ATOM     28  C   UNL A   1      32.346  15.413  25.413  1.00  0.00     0.131 A 
ATOM     29  C   UNL A   1      32.271  16.740  25.069  1.00  0.00     0.107 A 
ENDBRANCH  23  24
ENDBRANCH  22  23
ENDBRANCH  21  22
ENDBRANCH   9  21
ENDBRANCH   5   8
ENDBRANCH   3   4
ENDBRANCH   2   3
ENDBRANCH   1   2
BRANCH   1  30
ATOM     30  C   UNL A   1      31.814  30.544  26.367  1.00  0.00     0.002 C 
BRANCH  30  31
ATOM     31  C   UNL A   1      31.324  31.875  26.958  1.00  0.00     0.021 C 
BRANCH  31  32
ATOM     32  C   UNL A   1      32.087  33.128  26.577  1.00  0.00     0.116 C 
BRANCH  32  33
ATOM     33  N   UNL A   1      32.087  34.170  27.612  1.00  0.00    -0.352 N 
ATOM     34  C   UNL A   1      32.915  34.271  28.721  1.00  0.00     0.251 C 
ATOM     35  H   UNL A   1      31.417  34.884  27.507  1.00  0.00     0.163 HD
ATOM     36  O   UNL A   1      32.603  34.953  29.695  1.00  0.00    -0.269 OA
BRANCH  34  37
ATOM     37  C   UNL A   1      34.183  33.521  28.711  1.00  0.00     0.039 A 
ATOM     38  C   UNL A   1      35.198  33.749  27.775  1.00  0.00     0.014 A 
ATOM     39  C   UNL A   1      34.381  32.647  29.768  1.00  0.00     0.014 A 
ATOM     40  C   UNL A   1      36.456  33.186  28.000  1.00  0.00     0.010 A 
ATOM     41  C   UNL A   1      35.659  32.315  30.112  1.00  0.00     0.010 A 
ATOM     42  C   UNL A   1      36.692  32.500  29.200  1.00  0.00    -0.014 A 
BRANCH  42  43
ATOM     43  C   UNL A   1      38.020  32.044  29.601  1.00  0.00     0.031 A 
ATOM     44  C   UNL A   1      38.302  30.602  29.357  1.00  0.00     0.074 A 
ATOM     45  C   UNL A   1      39.008  32.922  29.899  1.00  0.00     0.049 A 
ATOM     46  N   UNL A   1      38.543  29.687  30.236  1.00  0.00    -0.248 NA
ATOM     47  C   UNL A   1      38.179  30.083  27.983  1.00  0.00     0.031 C 
ATOM     48  C   UNL A   1      38.944  34.393  29.881  1.00  0.00     0.029 A 
ATOM     49  N   UNL A   1      40.330  32.694  30.116  1.00  0.00    -0.354 N 
ATOM     50  C   UNL A   1      38.828  28.528  29.520  1.00  0.00     0.074 A 
ATOM     51  C   UNL A   1      38.394  28.778  28.168  1.00  0.00     0.031 C 
ATOM     52  C   UNL A   1      40.191  34.901  29.790  1.00  0.00     0.029 A 
ATOM     53  C   UNL A   1      41.139  33.815  29.944  1.00  0.00     0.049 A 
ATOM     54  H   UNL A   1      40.685  31.813  30.372  1.00  0.00     0.167 HD
ATOM     55  C   UNL A   1      39.630  27.551  30.032  1.00  0.00     0.031 A 
ATOM     56  C   UNL A   1      42.494  33.853  29.902  1.00  0.00     0.031 A 
ATOM     57  C   UNL A   1      39.880  27.755  31.436  1.00  0.00     0.049 A 
ATOM     58  C   UNL A   1      42.974  32.608  30.548  1.00  0.00     0.074 A 
ATOM     59  C   UNL A   1      39.085  27.849  32.560  1.00  0.00     0.029 A 
ATOM     60  N   UNL A   1      41.091  28.317  31.775  1.00  0.00    -0.354 N 
ATOM     61  N   UNL A   1      42.794  32.351  31.814  1.00  0.00    -0.248 NA
ATOM     62  C   UNL A   1      43.232  31.449  29.709  1.00  0.00     0.031 C 
ATOM     63  C   UNL A   1      39.681  28.881  33.343  1.00  0.00     0.029 A 
ATOM     64  C   UNL A   1      40.849  29.299  32.701  1.00  0.00     0.049 A 
ATOM     65  H   UNL A   1      41.971  28.059  31.417  1.00  0.00     0.167 HD
ATOM     66  C   UNL A   1      42.461  31.005  31.854  1.00  0.00     0.074 A 
ATOM     67  C   UNL A   1      42.863  30.477  30.551  1.00  0.00     0.031 C 
ATOM     68  C   UNL A   1      41.628  30.514  32.822  1.00  0.00     0.031 A 
BRANCH  55  69
ATOM     69  C   UNL A   1      40.517  26.654  29.200  1.00  0.00    -0.014 A 
ATOM     70  C   UNL A   1      41.870  27.012  29.023  1.00  0.00     0.010 A 
ATOM     71  C   UNL A   1      40.012  25.636  28.366  1.00  0.00     0.010 A 
ATOM     72  C   UNL A   1      42.649  26.438  28.010  1.00  0.00     0.020 A 
ATOM     73  C   UNL A   1      40.794  25.024  27.383  1.00  0.00     0.020 A 
ATOM     74  C   UNL A   1      42.098  25.457  27.186  1.00  0.00     0.054 A 
BRANCH  74  75
ATOM     75  S   UNL A   1      43.069  24.805  25.806  1.00  0.00     0.124 S 
ATOM     76  O   UNL A   1      42.661  23.403  25.789  1.00  0.00    -0.237 OA
ATOM     77  O   UNL A   1      42.603  25.618  24.688  1.00  0.00    -0.237 OA
ATOM     78  O   UNL A   1      44.451  25.050  26.217  1.00  0.00    -0.744 OA
ENDBRANCH  74  75
ENDBRANCH  55  69
BRANCH  56  79
ATOM     79  C   UNL A   1      43.374  34.764  29.129  1.00  0.00    -0.014 A 
ATOM     80  C   UNL A   1      43.989  35.871  29.743  1.00  0.00     0.010 A 
ATOM     81  C   UNL A   1      43.834  34.391  27.849  1.00  0.00     0.010 A 
ATOM     82  C   UNL A   1      45.072  36.529  29.135  1.00  0.00     0.020 A 
ATOM     83  C   UNL A   1      44.906  35.047  27.232  1.00  0.00     0.020 A 
ATOM     84  C   UNL A   1      45.541  36.095  27.893  1.00  0.00     0.054 A 
BRANCH  84  85
ATOM     85  S   UNL A   1      47.067  36.812  27.212  1.00  0.00     0.124 S 
ATOM     86  O   UNL A   1      46.562  37.646  26.126  1.00  0.00    -0.237 OA
ATOM     87  O   UNL A   1      47.619  37.528  28.358  1.00  0.00    -0.237 OA
ATOM     88  O   UNL A   1      47.834  35.640  26.790  1.00  0.00    -0.744 OA
ENDBRANCH  84  85
ENDBRANCH  56  79
BRANCH  68  89
ATOM     89  C   UNL A   1      41.298  31.401  34.004  1.00  0.00    -0.014 A 
ATOM     90  C   UNL A   1      40.206  32.293  34.039  1.00  0.00     0.010 A 
ATOM     91  C   UNL A   1      42.032  31.202  35.186  1.00  0.00     0.010 A 
ATOM     92  C   UNL A   1      39.880  32.986  35.214  1.00  0.00     0.020 A 
ATOM     93  C   UNL A   1      41.701  31.873  36.366  1.00  0.00     0.020 A 
ATOM     94  C   UNL A   1      40.633  32.771  36.372  1.00  0.00     0.054 A 
BRANCH  94  95
ATOM     95  S   UNL A   1      40.186  33.637  37.903  1.00  0.00     0.124 S 
ATOM     96  O   UNL A   1      38.873  34.191  37.583  1.00  0.00    -0.237 OA
ATOM     97  O   UNL A   1      40.191  32.566  38.897  1.00  0.00    -0.237 OA
ATOM     98  O   UNL A   1      41.250  34.627  38.066  1.00  0.00    -0.744 OA
ENDBRANCH  94  95
ENDBRANCH  68  89
ENDBRANCH  42  43
ENDBRANCH  34  37
ENDBRANCH  32  33
ENDBRANCH  31  32
ENDBRANCH  30  31
ENDBRANCH   1  30
TORSDOF 20
ENDMDL
MODEL 3
REMARK VINA RESULT:     -11.1      2.933      9.583
REMARK SMILES Cc1nccn1CCC[NH+]1CCC2(CC1)[C@@H](C(=O)NCCCCCCNC(=O)c1ccc(-c3c4nc(c(-c5ccc(S(=O)(=O)[O-])cc5)c5ccc([nH]5)c(-c5ccc(S(=O)(=O)[O-])cc5)c5nc(c(-c6ccc(S(=O)(=O)[O-])cc6)c6ccc3[nH]6)C=C5)C=C4)cc1)CC(=O)N2C
REMARK SMILES IDX 22 1 21 2 20 3 19 4 17 5 18 6 16 8 10 9 11 10 15 11 12 13
REMARK SMILES IDX 14 14 13 15 92 16 89 17 90 18 93 19 91 20 9 21 8 22 7 23
REMARK SMILES IDX 6 24 1 25 2 26 3 27 4 28 5 29 23 30 24 31 25 32 26 33 27 34
REMARK SMILES IDX 28 36 29 37 30 38 88 39 31 40 87 41 32 42 33 43 34 44 81 45
REMARK SMILES IDX 35 46 86 47 80 48 82 49 36 50 85 51 79 52 78 53 37 55 67 56
REMARK SMILES IDX 48 57 66 58 49 59 52 60 65 61 83 62 50 63 51 64 64 66 84 67
REMARK SMILES IDX 53 68 38 69 39 70 47 71 40 72 46 73 41 74 42 75 43 76 44 77
REMARK SMILES IDX 45 78 68 79 69 80 77 81 70 82 76 83 71 84 72 85 73 86 74 87
REMARK SMILES IDX 75 88 54 89 55 90 63 91 56 92 62 93 57 94 58 95 59 96 60 97
REMARK SMILES IDX 61 98
REMARK H PARENT 19 7 10 12 26 35 82 54 52 65
REMARK Flexibility Score: inf
ROOT
ATOM      1  C   UNL A   1      35.288  31.017  28.279  1.00  0.00     0.002 C 
ENDROOT
BRANCH   1   2
ATOM      2  C   UNL A   1      35.533  29.711  27.504  1.00  0.00     0.021 C 
BRANCH   2   3
ATOM      3  C   UNL A   1      34.321  29.024  26.894  1.00  0.00     0.116 C 
BRANCH   3   4
ATOM      4  N   UNL A   1      33.097  28.922  27.640  1.00  0.00    -0.356 N 
ATOM      5  C   UNL A   1      31.977  28.200  27.353  1.00  0.00     0.226 C 
ATOM      6  O   UNL A   1      31.202  28.024  28.305  1.00  0.00    -0.275 OA
ATOM      7  H   UNL A   1      33.062  29.445  28.473  1.00  0.00     0.163 HD
BRANCH   5   8
ATOM      8  C   UNL A   1      31.526  27.695  25.959  1.00  0.00     0.114 C 
ATOM      9  N   UNL A   1      32.572  23.468  25.305  1.00  0.00    -0.335 N 
ATOM     10  C   UNL A   1      31.577  24.073  24.399  1.00  0.00     0.264 C 
ATOM     11  C   UNL A   1      33.688  24.389  25.422  1.00  0.00     0.264 C 
ATOM     12  H   UNL A   1      32.916  22.594  24.906  1.00  0.00     0.348 HD
ATOM     13  C   UNL A   1      31.053  25.451  24.836  1.00  0.00     0.091 C 
ATOM     14  C   UNL A   1      33.312  25.802  25.833  1.00  0.00     0.091 C 
ATOM     15  C   UNL A   1      32.160  26.511  25.132  1.00  0.00     0.065 C 
ATOM     16  N   UNL A   1      32.572  27.195  23.891  1.00  0.00    -0.339 N 
ATOM     17  C   UNL A   1      31.380  28.886  25.005  1.00  0.00     0.116 C 
ATOM     18  C   UNL A   1      32.081  28.482  23.752  1.00  0.00     0.223 C 
ATOM     19  C   UNL A   1      33.562  26.725  22.940  1.00  0.00     0.147 C 
ATOM     20  O   UNL A   1      32.209  29.201  22.775  1.00  0.00    -0.275 OA
BRANCH   9  21
ATOM     21  C   UNL A   1      32.007  23.015  26.583  1.00  0.00     0.264 C 
BRANCH  21  22
ATOM     22  C   UNL A   1      33.011  22.333  27.544  1.00  0.00     0.083 C 
BRANCH  22  23
ATOM     23  C   UNL A   1      34.192  21.517  27.002  1.00  0.00     0.129 C 
BRANCH  23  24
ATOM     24  N   UNL A   1      33.887  20.521  25.988  1.00  0.00    -0.335 N 
ATOM     25  C   UNL A   1      36.196  20.408  24.934  1.00  0.00     0.087 C 
ATOM     26  C   UNL A   1      34.769  20.013  25.053  1.00  0.00     0.105 A 
ATOM     27  N   UNL A   1      34.183  19.095  24.308  1.00  0.00    -0.242 NA
ATOM     28  C   UNL A   1      32.914  18.972  24.792  1.00  0.00     0.131 A 
ATOM     29  C   UNL A   1      32.719  19.823  25.852  1.00  0.00     0.107 A 
ENDBRANCH  23  24
ENDBRANCH  22  23
ENDBRANCH  21  22
ENDBRANCH   9  21
ENDBRANCH   5   8
ENDBRANCH   3   4
ENDBRANCH   2   3
ENDBRANCH   1   2
BRANCH   1  30
ATOM     30  C   UNL A   1      34.128  31.947  27.881  1.00  0.00     0.002 C 
BRANCH  30  31
ATOM     31  C   UNL A   1      34.335  33.469  27.835  1.00  0.00     0.021 C 
BRANCH  31  32
ATOM     32  C   UNL A   1      35.258  34.078  28.871  1.00  0.00     0.116 C 
BRANCH  32  33
ATOM     33  N   UNL A   1      34.580  34.520  30.096  1.00  0.00    -0.352 N 
ATOM     34  C   UNL A   1      34.658  33.961  31.364  1.00  0.00     0.251 C 
ATOM     35  H   UNL A   1      33.997  35.309  30.007  1.00  0.00     0.163 HD
ATOM     36  O   UNL A   1      33.794  34.171  32.212  1.00  0.00    -0.269 OA
BRANCH  34  37
ATOM     37  C   UNL A   1      35.806  33.089  31.669  1.00  0.00     0.039 A 
ATOM     38  C   UNL A   1      35.733  31.692  31.637  1.00  0.00     0.014 A 
ATOM     39  C   UNL A   1      37.018  33.728  31.871  1.00  0.00     0.014 A 
ATOM     40  C   UNL A   1      36.920  30.958  31.678  1.00  0.00     0.010 A 
ATOM     41  C   UNL A   1      38.171  33.029  31.655  1.00  0.00     0.010 A 
ATOM     42  C   UNL A   1      38.145  31.639  31.645  1.00  0.00    -0.014 A 
BRANCH  42  43
ATOM     43  C   UNL A   1      39.427  30.954  31.495  1.00  0.00     0.031 A 
ATOM     44  C   UNL A   1      40.160  30.685  32.763  1.00  0.00     0.074 A 
ATOM     45  C   UNL A   1      39.776  30.358  30.330  1.00  0.00     0.049 A 
ATOM     46  N   UNL A   1      41.306  31.158  33.125  1.00  0.00    -0.248 NA
ATOM     47  C   UNL A   1      39.488  29.897  33.812  1.00  0.00     0.031 C 
ATOM     48  C   UNL A   1      38.997  30.288  29.082  1.00  0.00     0.029 A 
ATOM     49  N   UNL A   1      40.826  29.539  30.060  1.00  0.00    -0.354 N 
ATOM     50  C   UNL A   1      41.608  30.552  34.342  1.00  0.00     0.074 A 
ATOM     51  C   UNL A   1      40.380  29.954  34.804  1.00  0.00     0.031 C 
ATOM     52  C   UNL A   1      39.446  29.267  28.323  1.00  0.00     0.029 A 
ATOM     53  C   UNL A   1      40.655  28.744  28.929  1.00  0.00     0.049 A 
ATOM     54  H   UNL A   1      41.637  29.509  30.617  1.00  0.00     0.167 HD
ATOM     55  C   UNL A   1      42.896  30.368  34.748  1.00  0.00     0.031 A 
ATOM     56  C   UNL A   1      41.432  27.708  28.526  1.00  0.00     0.031 A 
ATOM     57  C   UNL A   1      43.820  31.104  33.924  1.00  0.00     0.049 A 
ATOM     58  C   UNL A   1      42.742  27.872  29.201  1.00  0.00     0.074 A 
ATOM     59  C   UNL A   1      43.990  32.437  33.608  1.00  0.00     0.029 A 
ATOM     60  N   UNL A   1      44.487  30.392  32.951  1.00  0.00    -0.354 N 
ATOM     61  N   UNL A   1      43.547  28.867  28.956  1.00  0.00    -0.248 NA
ATOM     62  C   UNL A   1      42.950  27.203  30.476  1.00  0.00     0.031 C 
ATOM     63  C   UNL A   1      44.327  32.443  32.222  1.00  0.00     0.029 A 
ATOM     64  C   UNL A   1      44.430  31.119  31.791  1.00  0.00     0.049 A 
ATOM     65  H   UNL A   1      44.926  29.519  33.070  1.00  0.00     0.167 HD
ATOM     66  C   UNL A   1      44.036  29.238  30.200  1.00  0.00     0.074 A 
ATOM     67  C   UNL A   1      43.731  28.107  31.077  1.00  0.00     0.031 C 
ATOM     68  C   UNL A   1      44.375  30.536  30.466  1.00  0.00     0.031 A 
BRANCH  55  69
ATOM     69  C   UNL A   1      43.361  29.219  35.613  1.00  0.00    -0.014 A 
ATOM     70  C   UNL A   1      44.141  29.501  36.754  1.00  0.00     0.010 A 
ATOM     71  C   UNL A   1      43.298  27.873  35.200  1.00  0.00     0.010 A 
ATOM     72  C   UNL A   1      44.883  28.499  37.394  1.00  0.00     0.020 A 
ATOM     73  C   UNL A   1      43.996  26.859  35.859  1.00  0.00     0.020 A 
ATOM     74  C   UNL A   1      44.816  27.186  36.930  1.00  0.00     0.054 A 
BRANCH  74  75
ATOM     75  S   UNL A   1      45.865  25.920  37.686  1.00  0.00     0.124 S 
ATOM     76  O   UNL A   1      45.499  24.732  36.921  1.00  0.00    -0.237 OA
ATOM     77  O   UNL A   1      47.206  26.446  37.445  1.00  0.00    -0.237 OA
ATOM     78  O   UNL A   1      45.443  25.920  39.086  1.00  0.00    -0.744 OA
ENDBRANCH  74  75
ENDBRANCH  55  69
BRANCH  56  79
ATOM     79  C   UNL A   1      41.034  26.475  27.803  1.00  0.00    -0.014 A 
ATOM     80  C   UNL A   1      41.949  25.790  26.980  1.00  0.00     0.010 A 
ATOM     81  C   UNL A   1      39.834  25.811  28.135  1.00  0.00     0.010 A 
ATOM     82  C   UNL A   1      41.708  24.467  26.573  1.00  0.00     0.020 A 
ATOM     83  C   UNL A   1      39.582  24.497  27.725  1.00  0.00     0.020 A 
ATOM     84  C   UNL A   1      40.536  23.819  26.971  1.00  0.00     0.054 A 
BRANCH  84  85
ATOM     85  S   UNL A   1      40.328  22.047  26.617  1.00  0.00     0.124 S 
ATOM     86  O   UNL A   1      38.969  21.992  26.089  1.00  0.00    -0.237 OA
ATOM     87  O   UNL A   1      41.395  21.790  25.655  1.00  0.00    -0.237 OA
ATOM     88  O   UNL A   1      40.513  21.416  27.924  1.00  0.00    -0.744 OA
ENDBRANCH  84  85
ENDBRANCH  56  79
BRANCH  68  89
ATOM     89  C   UNL A   1      44.472  31.505  29.307  1.00  0.00    -0.014 A 
ATOM     90  C   UNL A   1      43.449  32.409  28.950  1.00  0.00     0.010 A 
ATOM     91  C   UNL A   1      45.712  31.613  28.655  1.00  0.00     0.010 A 
ATOM     92  C   UNL A   1      43.656  33.371  27.950  1.00  0.00     0.020 A 
ATOM     93  C   UNL A   1      45.933  32.582  27.673  1.00  0.00     0.020 A 
ATOM     94  C   UNL A   1      44.899  33.450  27.316  1.00  0.00     0.054 A 
BRANCH  94  95
ATOM     95  S   UNL A   1      45.180  34.721  26.052  1.00  0.00     0.124 S 
ATOM     96  O   UNL A   1      43.968  34.635  25.242  1.00  0.00    -0.237 OA
ATOM     97  O   UNL A   1      45.325  35.941  26.841  1.00  0.00    -0.237 OA
ATOM     98  O   UNL A   1      46.403  34.280  25.381  1.00  0.00    -0.744 OA
ENDBRANCH  94  95
ENDBRANCH  68  89
ENDBRANCH  42  43
ENDBRANCH  34  37
ENDBRANCH  32  33
ENDBRANCH  31  32
ENDBRANCH  30  31
ENDBRANCH   1  30
TORSDOF 20
ENDMDL
