MODEL 1
REMARK VINA RESULT:      -9.2      0.000      0.000
REMARK SMILES CCN(CC(C)C)C(=O)N[C@](C)(CC)C(=O)NCCCCCCNC(=O)c1ccc(-c2c3nc(c(-c4ccc(S(=O)(=O)[O-])cc4)c4ccc([nH]4)c(-c4ccc(S(=O)(=O)[O-])cc4)c4nc(c(-c5ccc(S(=O)(=O)[O-])cc5)c5ccc2[nH]5)C=C4)C=C3)cc1
REMARK SMILES IDX 20 1 19 2 18 3 17 4 15 5 16 6 11 8 12 9 10 10 8 11 9 12 3 14
REMARK SMILES IDX 2 15 1 16 4 17 5 18 6 19 7 20 13 21 14 22 21 23 22 24 23 25
REMARK SMILES IDX 24 26 25 27 26 29 27 30 28 31 86 32 29 33 85 34 30 35 31 36
REMARK SMILES IDX 32 37 79 38 33 39 84 40 78 41 80 42 34 43 83 44 77 45 76 46
REMARK SMILES IDX 35 48 65 49 46 50 64 51 47 52 50 53 63 54 81 55 48 56 49 57
REMARK SMILES IDX 62 59 82 60 51 61 36 62 37 63 45 64 38 65 44 66 39 67 40 68
REMARK SMILES IDX 41 69 42 70 43 71 66 72 67 73 75 74 68 75 74 76 69 77 70 78
REMARK SMILES IDX 71 79 72 80 73 81 52 82 53 83 61 84 54 85 60 86 55 87 56 88
REMARK SMILES IDX 57 89 58 90 59 91
REMARK H PARENT 17 7 10 13 24 28 80 47 50 58
REMARK Flexibility Score: inf
ROOT
ATOM      1  C   UNL A   1      30.776  28.480  24.722  1.00  0.00     0.002 C 
ENDROOT
BRANCH   1   2
ATOM      2  C   UNL A   1      30.505  27.602  23.492  1.00  0.00     0.021 C 
BRANCH   2   3
ATOM      3  C   UNL A   1      29.723  26.325  23.811  1.00  0.00     0.116 C 
BRANCH   3   4
ATOM      4  N   UNL A   1      29.974  25.935  25.182  1.00  0.00    -0.354 N 
ATOM      5  C   UNL A   1      30.499  24.780  25.689  1.00  0.00     0.245 C 
ATOM      6  O   UNL A   1      30.067  24.443  26.797  1.00  0.00    -0.272 OA
ATOM      7  H   UNL A   1      29.727  26.608  25.856  1.00  0.00     0.163 HD
BRANCH   5   8
ATOM      8  C   UNL A   1      31.656  23.992  24.977  1.00  0.00     0.117 C 
ATOM      9  C   UNL A   1      31.044  23.281  23.781  1.00  0.00     0.045 C 
BRANCH   8  10
ATOM     10  N   UNL A   1      32.142  23.116  26.085  1.00  0.00    -0.324 N 
ATOM     11  C   UNL A   1      32.960  22.123  26.427  1.00  0.00     0.318 C 
ATOM     12  O   UNL A   1      33.126  22.037  27.652  1.00  0.00    -0.249 OA
ATOM     13  H   UNL A   1      31.655  23.382  26.898  1.00  0.00     0.166 HD
BRANCH  11  14
ATOM     14  N   UNL A   1      33.596  21.261  25.585  1.00  0.00    -0.325 N 
BRANCH  14  15
ATOM     15  C   UNL A   1      33.016  19.909  25.530  1.00  0.00     0.118 C 
ATOM     16  C   UNL A   1      32.993  19.345  24.109  1.00  0.00     0.027 C 
ENDBRANCH  14  15
BRANCH  14  17
ATOM     17  C   UNL A   1      34.611  21.554  24.566  1.00  0.00     0.124 C 
BRANCH  17  18
ATOM     18  C   UNL A   1      36.050  21.920  25.015  1.00  0.00     0.002 C 
ATOM     19  C   UNL A   1      37.153  20.912  24.713  1.00  0.00     0.009 C 
ATOM     20  C   UNL A   1      36.448  23.298  24.454  1.00  0.00     0.009 C 
ENDBRANCH  17  18
ENDBRANCH  14  17
ENDBRANCH  11  14
ENDBRANCH   8  10
BRANCH   8  21
ATOM     21  C   UNL A   1      32.829  24.855  24.442  1.00  0.00     0.035 C 
ATOM     22  C   UNL A   1      33.112  24.698  22.947  1.00  0.00     0.007 C 
ENDBRANCH   8  21
ENDBRANCH   5   8
ENDBRANCH   3   4
ENDBRANCH   2   3
ENDBRANCH   1   2
BRANCH   1  23
ATOM     23  C   UNL A   1      32.256  28.691  25.049  1.00  0.00     0.002 C 
BRANCH  23  24
ATOM     24  C   UNL A   1      32.848  27.677  26.029  1.00  0.00     0.021 C 
BRANCH  24  25
ATOM     25  C   UNL A   1      33.945  28.230  26.933  1.00  0.00     0.116 C 
BRANCH  25  26
ATOM     26  N   UNL A   1      33.677  29.595  27.347  1.00  0.00    -0.352 N 
ATOM     27  C   UNL A   1      34.482  30.453  28.046  1.00  0.00     0.251 C 
ATOM     28  H   UNL A   1      32.795  29.952  27.091  1.00  0.00     0.163 HD
ATOM     29  O   UNL A   1      34.017  31.512  28.477  1.00  0.00    -0.269 OA
BRANCH  27  30
ATOM     30  C   UNL A   1      35.896  30.108  28.302  1.00  0.00     0.039 A 
ATOM     31  C   UNL A   1      36.261  29.676  29.579  1.00  0.00     0.014 A 
ATOM     32  C   UNL A   1      36.866  30.229  27.300  1.00  0.00     0.014 A 
ATOM     33  C   UNL A   1      37.589  29.339  29.843  1.00  0.00     0.010 A 
ATOM     34  C   UNL A   1      38.177  29.824  27.546  1.00  0.00     0.010 A 
ATOM     35  C   UNL A   1      38.556  29.393  28.825  1.00  0.00    -0.014 A 
BRANCH  35  36
ATOM     36  C   UNL A   1      39.964  29.018  29.108  1.00  0.00     0.031 A 
ATOM     37  C   UNL A   1      40.878  29.969  29.835  1.00  0.00     0.074 A 
ATOM     38  C   UNL A   1      40.425  27.819  28.702  1.00  0.00     0.049 A 
ATOM     39  N   UNL A   1      42.105  29.779  30.246  1.00  0.00    -0.248 NA
ATOM     40  C   UNL A   1      40.354  31.316  30.117  1.00  0.00     0.031 C 
ATOM     41  C   UNL A   1      39.654  26.830  27.943  1.00  0.00     0.029 A 
ATOM     42  N   UNL A   1      41.644  27.218  28.888  1.00  0.00    -0.354 N 
ATOM     43  C   UNL A   1      42.505  30.980  30.820  1.00  0.00     0.074 A 
ATOM     44  C   UNL A   1      41.408  31.909  30.659  1.00  0.00     0.031 C 
ATOM     45  C   UNL A   1      40.402  25.728  27.774  1.00  0.00     0.029 A 
ATOM     46  C   UNL A   1      41.708  25.938  28.390  1.00  0.00     0.049 A 
ATOM     47  H   UNL A   1      42.401  27.661  29.334  1.00  0.00     0.167 HD
ATOM     48  C   UNL A   1      43.669  31.279  31.444  1.00  0.00     0.031 A 
ATOM     49  C   UNL A   1      42.697  25.025  28.446  1.00  0.00     0.031 A 
ATOM     50  C   UNL A   1      44.752  30.348  31.614  1.00  0.00     0.049 A 
ATOM     51  C   UNL A   1      43.969  25.367  29.169  1.00  0.00     0.074 A 
ATOM     52  C   UNL A   1      45.946  30.528  32.293  1.00  0.00     0.029 A 
ATOM     53  N   UNL A   1      44.776  29.061  31.098  1.00  0.00    -0.354 N 
ATOM     54  N   UNL A   1      44.294  26.478  29.785  1.00  0.00    -0.248 NA
ATOM     55  C   UNL A   1      45.001  24.322  29.223  1.00  0.00     0.031 C 
ATOM     56  C   UNL A   1      46.711  29.365  32.147  1.00  0.00     0.029 A 
ATOM     57  C   UNL A   1      45.972  28.442  31.424  1.00  0.00     0.049 A 
ATOM     58  H   UNL A   1      44.051  28.648  30.577  1.00  0.00     0.167 HD
ATOM     59  C   UNL A   1      45.554  26.256  30.329  1.00  0.00     0.074 A 
ATOM     60  C   UNL A   1      45.927  24.900  29.976  1.00  0.00     0.031 C 
ATOM     61  C   UNL A   1      46.329  27.094  31.061  1.00  0.00     0.031 A 
BRANCH  48  62
ATOM     62  C   UNL A   1      43.833  32.680  31.975  1.00  0.00    -0.014 A 
ATOM     63  C   UNL A   1      43.449  33.012  33.288  1.00  0.00     0.010 A 
ATOM     64  C   UNL A   1      44.395  33.675  31.155  1.00  0.00     0.010 A 
ATOM     65  C   UNL A   1      43.575  34.325  33.752  1.00  0.00     0.020 A 
ATOM     66  C   UNL A   1      44.549  34.983  31.626  1.00  0.00     0.020 A 
ATOM     67  C   UNL A   1      44.117  35.304  32.915  1.00  0.00     0.054 A 
BRANCH  67  68
ATOM     68  S   UNL A   1      44.269  37.000  33.540  1.00  0.00     0.124 S 
ATOM     69  O   UNL A   1      43.180  37.061  34.510  1.00  0.00    -0.237 OA
ATOM     70  O   UNL A   1      45.616  37.015  34.106  1.00  0.00    -0.237 OA
ATOM     71  O   UNL A   1      44.088  37.826  32.349  1.00  0.00    -0.744 OA
ENDBRANCH  67  68
ENDBRANCH  48  62
BRANCH  49  72
ATOM     72  C   UNL A   1      42.491  23.676  27.853  1.00  0.00    -0.014 A 
ATOM     73  C   UNL A   1      42.974  23.387  26.564  1.00  0.00     0.010 A 
ATOM     74  C   UNL A   1      41.839  22.666  28.582  1.00  0.00     0.010 A 
ATOM     75  C   UNL A   1      42.797  22.116  26.010  1.00  0.00     0.020 A 
ATOM     76  C   UNL A   1      41.682  21.387  28.041  1.00  0.00     0.020 A 
ATOM     77  C   UNL A   1      42.155  21.122  26.754  1.00  0.00     0.054 A 
BRANCH  77  78
ATOM     78  S   UNL A   1      41.995  19.461  26.040  1.00  0.00     0.124 S 
ATOM     79  O   UNL A   1      42.847  19.555  24.860  1.00  0.00    -0.237 OA
ATOM     80  O   UNL A   1      42.491  18.606  27.115  1.00  0.00    -0.237 OA
ATOM     81  O   UNL A   1      40.563  19.343  25.773  1.00  0.00    -0.744 OA
ENDBRANCH  77  78
ENDBRANCH  49  72
BRANCH  61  82
ATOM     82  C   UNL A   1      47.643  26.556  31.561  1.00  0.00    -0.014 A 
ATOM     83  C   UNL A   1      47.740  25.887  32.793  1.00  0.00     0.010 A 
ATOM     84  C   UNL A   1      48.794  26.697  30.764  1.00  0.00     0.010 A 
ATOM     85  C   UNL A   1      48.974  25.404  33.239  1.00  0.00     0.020 A 
ATOM     86  C   UNL A   1      50.023  26.192  31.194  1.00  0.00     0.020 A 
ATOM     87  C   UNL A   1      50.108  25.565  32.438  1.00  0.00     0.054 A 
BRANCH  87  88
ATOM     88  S   UNL A   1      51.695  24.909  33.025  1.00  0.00     0.124 S 
ATOM     89  O   UNL A   1      51.338  23.544  33.398  1.00  0.00    -0.237 OA
ATOM     90  O   UNL A   1      52.551  25.036  31.848  1.00  0.00    -0.237 OA
ATOM     91  O   UNL A   1      52.042  25.791  34.137  1.00  0.00    -0.744 OA
ENDBRANCH  87  88
ENDBRANCH  61  82
ENDBRANCH  35  36
ENDBRANCH  27  30
ENDBRANCH  25  26
ENDBRANCH  24  25
ENDBRANCH  23  24
ENDBRANCH   1  23
TORSDOF 22
ENDMDL
MODEL 2
REMARK VINA RESULT:      -8.9      3.511      9.448
REMARK SMILES CCN(CC(C)C)C(=O)N[C@](C)(CC)C(=O)NCCCCCCNC(=O)c1ccc(-c2c3nc(c(-c4ccc(S(=O)(=O)[O-])cc4)c4ccc([nH]4)c(-c4ccc(S(=O)(=O)[O-])cc4)c4nc(c(-c5ccc(S(=O)(=O)[O-])cc5)c5ccc2[nH]5)C=C4)C=C3)cc1
REMARK SMILES IDX 20 1 19 2 18 3 17 4 15 5 16 6 11 8 12 9 10 10 8 11 9 12 3 14
REMARK SMILES IDX 2 15 1 16 4 17 5 18 6 19 7 20 13 21 14 22 21 23 22 24 23 25
REMARK SMILES IDX 24 26 25 27 26 29 27 30 28 31 86 32 29 33 85 34 30 35 31 36
REMARK SMILES IDX 32 37 79 38 33 39 84 40 78 41 80 42 34 43 83 44 77 45 76 46
REMARK SMILES IDX 35 48 65 49 46 50 64 51 47 52 50 53 63 54 81 55 48 56 49 57
REMARK SMILES IDX 62 59 82 60 51 61 36 62 37 63 45 64 38 65 44 66 39 67 40 68
REMARK SMILES IDX 41 69 42 70 43 71 66 72 67 73 75 74 68 75 74 76 69 77 70 78
REMARK SMILES IDX 71 79 72 80 73 81 52 82 53 83 61 84 54 85 60 86 55 87 56 88
REMARK SMILES IDX 57 89 58 90 59 91
REMARK H PARENT 17 7 10 13 24 28 80 47 50 58
REMARK Flexibility Score: inf
ROOT
ATOM      1  C   UNL A   1      36.185  20.688  25.007  1.00  0.00     0.002 C 
ENDROOT
BRANCH   1   2
ATOM      2  C   UNL A   1      34.768  21.031  25.491  1.00  0.00     0.021 C 
BRANCH   2   3
ATOM      3  C   UNL A   1      33.741  21.131  24.361  1.00  0.00     0.116 C 
BRANCH   3   4
ATOM      4  N   UNL A   1      32.439  21.432  24.917  1.00  0.00    -0.354 N 
ATOM      5  C   UNL A   1      31.992  22.549  25.563  1.00  0.00     0.245 C 
ATOM      6  O   UNL A   1      31.131  22.352  26.429  1.00  0.00    -0.272 OA
ATOM      7  H   UNL A   1      31.769  20.718  24.813  1.00  0.00     0.163 HD
BRANCH   5   8
ATOM      8  C   UNL A   1      32.445  23.998  25.161  1.00  0.00     0.117 C 
ATOM      9  C   UNL A   1      33.644  24.349  26.028  1.00  0.00     0.045 C 
BRANCH   8  10
ATOM     10  N   UNL A   1      31.198  24.779  25.418  1.00  0.00    -0.324 N 
ATOM     11  C   UNL A   1      30.493  25.865  25.106  1.00  0.00     0.318 C 
ATOM     12  O   UNL A   1      29.313  25.796  25.477  1.00  0.00    -0.249 OA
ATOM     13  H   UNL A   1      30.685  24.290  26.101  1.00  0.00     0.166 HD
BRANCH  11  14
ATOM     14  N   UNL A   1      30.941  26.966  24.440  1.00  0.00    -0.325 N 
BRANCH  14  15
ATOM     15  C   UNL A   1      30.286  27.216  23.145  1.00  0.00     0.118 C 
ATOM     16  C   UNL A   1      29.416  28.472  23.168  1.00  0.00     0.027 C 
ENDBRANCH  14  15
BRANCH  14  17
ATOM     17  C   UNL A   1      31.801  28.051  24.931  1.00  0.00     0.124 C 
BRANCH  17  18
ATOM     18  C   UNL A   1      32.506  27.894  26.303  1.00  0.00     0.002 C 
ATOM     19  C   UNL A   1      33.977  28.287  26.381  1.00  0.00     0.009 C 
ATOM     20  C   UNL A   1      31.718  28.643  27.395  1.00  0.00     0.009 C 
ENDBRANCH  17  18
ENDBRANCH  14  17
ENDBRANCH  11  14
ENDBRANCH   8  10
BRANCH   8  21
ATOM     21  C   UNL A   1      32.881  24.183  23.684  1.00  0.00     0.035 C 
ATOM     22  C   UNL A   1      34.346  24.579  23.492  1.00  0.00     0.007 C 
ENDBRANCH   8  21
ENDBRANCH   5   8
ENDBRANCH   3   4
ENDBRANCH   2   3
ENDBRANCH   1   2
BRANCH   1  23
ATOM     23  C   UNL A   1      37.277  21.652  25.474  1.00  0.00     0.002 C 
BRANCH  23  24
ATOM     24  C   UNL A   1      38.707  21.148  25.275  1.00  0.00     0.021 C 
BRANCH  24  25
ATOM     25  C   UNL A   1      39.333  20.503  26.508  1.00  0.00     0.116 C 
BRANCH  25  26
ATOM     26  N   UNL A   1      40.394  19.576  26.161  1.00  0.00    -0.352 N 
ATOM     27  C   UNL A   1      41.730  19.824  25.999  1.00  0.00     0.251 C 
ATOM     28  H   UNL A   1      40.115  18.642  26.023  1.00  0.00     0.163 HD
ATOM     29  O   UNL A   1      42.459  18.952  25.517  1.00  0.00    -0.269 OA
BRANCH  27  30
ATOM     30  C   UNL A   1      42.298  21.134  26.382  1.00  0.00     0.039 A 
ATOM     31  C   UNL A   1      42.531  22.081  25.383  1.00  0.00     0.014 A 
ATOM     32  C   UNL A   1      42.623  21.424  27.712  1.00  0.00     0.014 A 
ATOM     33  C   UNL A   1      43.060  23.328  25.721  1.00  0.00     0.010 A 
ATOM     34  C   UNL A   1      43.084  22.693  28.056  1.00  0.00     0.010 A 
ATOM     35  C   UNL A   1      43.326  23.652  27.062  1.00  0.00    -0.014 A 
BRANCH  35  36
ATOM     36  C   UNL A   1      43.875  24.985  27.417  1.00  0.00     0.031 A 
ATOM     37  C   UNL A   1      45.329  25.300  27.183  1.00  0.00     0.074 A 
ATOM     38  C   UNL A   1      43.063  25.913  27.958  1.00  0.00     0.049 A 
ATOM     39  N   UNL A   1      45.962  26.433  27.348  1.00  0.00    -0.248 NA
ATOM     40  C   UNL A   1      46.188  24.195  26.729  1.00  0.00     0.031 C 
ATOM     41  C   UNL A   1      41.647  25.713  28.282  1.00  0.00     0.029 A 
ATOM     42  N   UNL A   1      43.303  27.217  28.313  1.00  0.00    -0.354 N 
ATOM     43  C   UNL A   1      47.291  26.176  27.032  1.00  0.00     0.074 A 
ATOM     44  C   UNL A   1      47.383  24.768  26.716  1.00  0.00     0.031 C 
ATOM     45  C   UNL A   1      41.134  26.866  28.738  1.00  0.00     0.029 A 
ATOM     46  C   UNL A   1      42.185  27.879  28.761  1.00  0.00     0.049 A 
ATOM     47  H   UNL A   1      44.190  27.637  28.253  1.00  0.00     0.167 HD
ATOM     48  C   UNL A   1      48.336  27.036  26.988  1.00  0.00     0.031 A 
ATOM     49  C   UNL A   1      42.016  29.166  29.125  1.00  0.00     0.031 A 
ATOM     50  C   UNL A   1      48.237  28.439  27.290  1.00  0.00     0.049 A 
ATOM     51  C   UNL A   1      43.183  30.110  29.039  1.00  0.00     0.074 A 
ATOM     52  C   UNL A   1      49.220  29.411  27.206  1.00  0.00     0.029 A 
ATOM     53  N   UNL A   1      47.087  29.072  27.737  1.00  0.00    -0.354 N 
ATOM     54  N   UNL A   1      44.412  29.868  28.651  1.00  0.00    -0.248 NA
ATOM     55  C   UNL A   1      42.932  31.506  29.421  1.00  0.00     0.031 C 
ATOM     56  C   UNL A   1      48.675  30.622  27.648  1.00  0.00     0.029 A 
ATOM     57  C   UNL A   1      47.340  30.415  27.955  1.00  0.00     0.049 A 
ATOM     58  H   UNL A   1      46.219  28.630  27.878  1.00  0.00     0.167 HD
ATOM     59  C   UNL A   1      45.074  31.088  28.710  1.00  0.00     0.074 A 
ATOM     60  C   UNL A   1      44.105  32.068  29.162  1.00  0.00     0.031 C 
ATOM     61  C   UNL A   1      46.365  31.375  28.409  1.00  0.00     0.031 A 
BRANCH  48  62
ATOM     62  C   UNL A   1      49.683  26.473  26.612  1.00  0.00    -0.014 A 
ATOM     63  C   UNL A   1      50.563  25.970  27.588  1.00  0.00     0.010 A 
ATOM     64  C   UNL A   1      50.067  26.430  25.259  1.00  0.00     0.010 A 
ATOM     65  C   UNL A   1      51.823  25.485  27.224  1.00  0.00     0.020 A 
ATOM     66  C   UNL A   1      51.315  25.919  24.889  1.00  0.00     0.020 A 
ATOM     67  C   UNL A   1      52.193  25.470  25.877  1.00  0.00     0.054 A 
BRANCH  67  68
ATOM     68  S   UNL A   1      53.833  24.836  25.430  1.00  0.00     0.124 S 
ATOM     69  O   UNL A   1      54.577  25.027  26.672  1.00  0.00    -0.237 OA
ATOM     70  O   UNL A   1      53.555  23.446  25.071  1.00  0.00    -0.237 OA
ATOM     71  O   UNL A   1      54.245  25.692  24.320  1.00  0.00    -0.744 OA
ENDBRANCH  67  68
ENDBRANCH  48  62
BRANCH  49  72
ATOM     72  C   UNL A   1      40.670  29.646  29.539  1.00  0.00    -0.014 A 
ATOM     73  C   UNL A   1      39.705  29.969  28.570  1.00  0.00     0.010 A 
ATOM     74  C   UNL A   1      40.337  29.755  30.900  1.00  0.00     0.010 A 
ATOM     75  C   UNL A   1      38.433  30.404  28.954  1.00  0.00     0.020 A 
ATOM     76  C   UNL A   1      39.058  30.166  31.289  1.00  0.00     0.020 A 
ATOM     77  C   UNL A   1      38.117  30.497  30.312  1.00  0.00     0.054 A 
BRANCH  77  78
ATOM     78  S   UNL A   1      36.439  31.002  30.787  1.00  0.00     0.124 S 
ATOM     79  O   UNL A   1      36.132  30.062  31.860  1.00  0.00    -0.237 OA
ATOM     80  O   UNL A   1      36.632  32.391  31.197  1.00  0.00    -0.237 OA
ATOM     81  O   UNL A   1      35.671  30.825  29.557  1.00  0.00    -0.744 OA
ENDBRANCH  77  78
ENDBRANCH  49  72
BRANCH  61  82
ATOM     82  C   UNL A   1      46.796  32.813  28.524  1.00  0.00    -0.014 A 
ATOM     83  C   UNL A   1      47.353  33.318  29.712  1.00  0.00     0.010 A 
ATOM     84  C   UNL A   1      46.670  33.663  27.410  1.00  0.00     0.010 A 
ATOM     85  C   UNL A   1      47.737  34.659  29.797  1.00  0.00     0.020 A 
ATOM     86  C   UNL A   1      47.078  34.996  27.482  1.00  0.00     0.020 A 
ATOM     87  C   UNL A   1      47.593  35.491  28.682  1.00  0.00     0.054 A 
BRANCH  87  88
ATOM     88  S   UNL A   1      48.121  37.222  28.806  1.00  0.00     0.124 S 
ATOM     89  O   UNL A   1      48.859  37.403  27.560  1.00  0.00    -0.237 OA
ATOM     90  O   UNL A   1      46.851  37.940  28.894  1.00  0.00    -0.237 OA
ATOM     91  O   UNL A   1      48.930  37.249  30.023  1.00  0.00    -0.744 OA
ENDBRANCH  87  88
ENDBRANCH  61  82
ENDBRANCH  35  36
ENDBRANCH  27  30
ENDBRANCH  25  26
ENDBRANCH  24  25
ENDBRANCH  23  24
ENDBRANCH   1  23
TORSDOF 22
ENDMDL
MODEL 3
REMARK VINA RESULT:      -8.9      2.455      3.030
REMARK SMILES CCN(CC(C)C)C(=O)N[C@](C)(CC)C(=O)NCCCCCCNC(=O)c1ccc(-c2c3nc(c(-c4ccc(S(=O)(=O)[O-])cc4)c4ccc([nH]4)c(-c4ccc(S(=O)(=O)[O-])cc4)c4nc(c(-c5ccc(S(=O)(=O)[O-])cc5)c5ccc2[nH]5)C=C4)C=C3)cc1
REMARK SMILES IDX 20 1 19 2 18 3 17 4 15 5 16 6 11 8 12 9 10 10 8 11 9 12 3 14
REMARK SMILES IDX 2 15 1 16 4 17 5 18 6 19 7 20 13 21 14 22 21 23 22 24 23 25
REMARK SMILES IDX 24 26 25 27 26 29 27 30 28 31 86 32 29 33 85 34 30 35 31 36
REMARK SMILES IDX 32 37 79 38 33 39 84 40 78 41 80 42 34 43 83 44 77 45 76 46
REMARK SMILES IDX 35 48 65 49 46 50 64 51 47 52 50 53 63 54 81 55 48 56 49 57
REMARK SMILES IDX 62 59 82 60 51 61 36 62 37 63 45 64 38 65 44 66 39 67 40 68
REMARK SMILES IDX 41 69 42 70 43 71 66 72 67 73 75 74 68 75 74 76 69 77 70 78
REMARK SMILES IDX 71 79 72 80 73 81 52 82 53 83 61 84 54 85 60 86 55 87 56 88
REMARK SMILES IDX 57 89 58 90 59 91
REMARK H PARENT 17 7 10 13 24 28 80 47 50 58
REMARK Flexibility Score: inf
ROOT
ATOM      1  C   UNL A   1      30.807  28.756  24.729  1.00  0.00     0.002 C 
ENDROOT
BRANCH   1   2
ATOM      2  C   UNL A   1      30.549  27.959  23.442  1.00  0.00     0.021 C 
BRANCH   2   3
ATOM      3  C   UNL A   1      30.014  26.547  23.691  1.00  0.00     0.116 C 
BRANCH   3   4
ATOM      4  N   UNL A   1      30.200  26.199  25.084  1.00  0.00    -0.354 N 
ATOM      5  C   UNL A   1      30.725  25.073  25.649  1.00  0.00     0.245 C 
ATOM      6  O   UNL A   1      30.242  24.753  26.741  1.00  0.00    -0.272 OA
ATOM      7  H   UNL A   1      29.900  26.883  25.725  1.00  0.00     0.163 HD
BRANCH   5   8
ATOM      8  C   UNL A   1      31.939  24.297  25.021  1.00  0.00     0.117 C 
ATOM      9  C   UNL A   1      31.423  23.587  23.780  1.00  0.00     0.045 C 
BRANCH   8  10
ATOM     10  N   UNL A   1      32.348  23.419  26.159  1.00  0.00    -0.324 N 
ATOM     11  C   UNL A   1      32.970  22.298  26.517  1.00  0.00     0.318 C 
ATOM     12  O   UNL A   1      33.249  22.268  27.724  1.00  0.00    -0.249 OA
ATOM     13  H   UNL A   1      32.020  23.844  26.984  1.00  0.00     0.166 HD
BRANCH  11  14
ATOM     14  N   UNL A   1      33.314  21.259  25.705  1.00  0.00    -0.325 N 
BRANCH  14  15
ATOM     15  C   UNL A   1      32.197  20.670  24.948  1.00  0.00     0.118 C 
ATOM     16  C   UNL A   1      32.678  19.742  23.833  1.00  0.00     0.027 C 
ENDBRANCH  14  15
BRANCH  14  17
ATOM     17  C   UNL A   1      34.653  20.807  25.308  1.00  0.00     0.124 C 
BRANCH  17  18
ATOM     18  C   UNL A   1      35.723  21.861  24.921  1.00  0.00     0.002 C 
ATOM     19  C   UNL A   1      37.159  21.374  24.765  1.00  0.00     0.009 C 
ATOM     20  C   UNL A   1      35.295  22.609  23.644  1.00  0.00     0.009 C 
ENDBRANCH  17  18
ENDBRANCH  14  17
ENDBRANCH  11  14
ENDBRANCH   8  10
BRANCH   8  21
ATOM     21  C   UNL A   1      33.141  25.171  24.579  1.00  0.00     0.035 C 
ATOM     22  C   UNL A   1      33.256  25.389  23.070  1.00  0.00     0.007 C 
ENDBRANCH   8  21
ENDBRANCH   5   8
ENDBRANCH   3   4
ENDBRANCH   2   3
ENDBRANCH   1   2
BRANCH   1  23
ATOM     23  C   UNL A   1      32.217  29.337  24.856  1.00  0.00     0.002 C 
BRANCH  23  24
ATOM     24  C   UNL A   1      33.251  28.387  25.463  1.00  0.00     0.021 C 
BRANCH  24  25
ATOM     25  C   UNL A   1      34.358  29.074  26.256  1.00  0.00     0.116 C 
BRANCH  25  26
ATOM     26  N   UNL A   1      33.967  30.396  26.710  1.00  0.00    -0.352 N 
ATOM     27  C   UNL A   1      34.501  31.149  27.721  1.00  0.00     0.251 C 
ATOM     28  H   UNL A   1      33.215  30.807  26.226  1.00  0.00     0.163 HD
ATOM     29  O   UNL A   1      33.920  32.171  28.094  1.00  0.00    -0.269 OA
BRANCH  27  30
ATOM     30  C   UNL A   1      35.757  30.732  28.378  1.00  0.00     0.039 A 
ATOM     31  C   UNL A   1      36.925  31.448  28.108  1.00  0.00     0.014 A 
ATOM     32  C   UNL A   1      35.796  29.628  29.237  1.00  0.00     0.014 A 
ATOM     33  C   UNL A   1      38.123  31.078  28.721  1.00  0.00     0.010 A 
ATOM     34  C   UNL A   1      36.977  29.304  29.903  1.00  0.00     0.010 A 
ATOM     35  C   UNL A   1      38.157  30.012  29.637  1.00  0.00    -0.014 A 
BRANCH  35  36
ATOM     36  C   UNL A   1      39.431  29.633  30.298  1.00  0.00     0.031 A 
ATOM     37  C   UNL A   1      39.856  30.301  31.579  1.00  0.00     0.074 A 
ATOM     38  C   UNL A   1      40.212  28.689  29.739  1.00  0.00     0.049 A 
ATOM     39  N   UNL A   1      40.887  30.038  32.341  1.00  0.00    -0.248 NA
ATOM     40  C   UNL A   1      39.032  31.424  32.054  1.00  0.00     0.031 C 
ATOM     41  C   UNL A   1      39.936  28.005  28.472  1.00  0.00     0.029 A 
ATOM     42  N   UNL A   1      41.386  28.125  30.172  1.00  0.00    -0.354 N 
ATOM     43  C   UNL A   1      40.843  30.968  33.374  1.00  0.00     0.074 A 
ATOM     44  C   UNL A   1      39.714  31.834  33.113  1.00  0.00     0.031 C 
ATOM     45  C   UNL A   1      40.885  27.079  28.259  1.00  0.00     0.029 A 
ATOM     46  C   UNL A   1      41.845  27.118  29.357  1.00  0.00     0.049 A 
ATOM     47  H   UNL A   1      41.854  28.414  30.988  1.00  0.00     0.167 HD
ATOM     48  C   UNL A   1      41.654  31.079  34.453  1.00  0.00     0.031 A 
ATOM     49  C   UNL A   1      42.908  26.300  29.490  1.00  0.00     0.031 A 
ATOM     50  C   UNL A   1      42.767  30.207  34.716  1.00  0.00     0.049 A 
ATOM     51  C   UNL A   1      43.776  26.421  30.710  1.00  0.00     0.074 A 
ATOM     52  C   UNL A   1      43.608  30.190  35.816  1.00  0.00     0.029 A 
ATOM     53  N   UNL A   1      43.198  29.198  33.867  1.00  0.00    -0.354 N 
ATOM     54  N   UNL A   1      43.666  27.248  31.722  1.00  0.00    -0.248 NA
ATOM     55  C   UNL A   1      44.902  25.482  30.816  1.00  0.00     0.031 C 
ATOM     56  C   UNL A   1      44.577  29.200  35.609  1.00  0.00     0.029 A 
ATOM     57  C   UNL A   1      44.306  28.566  34.407  1.00  0.00     0.049 A 
ATOM     58  H   UNL A   1      42.779  28.965  33.008  1.00  0.00     0.167 HD
ATOM     59  C   UNL A   1      44.688  26.908  32.602  1.00  0.00     0.074 A 
ATOM     60  C   UNL A   1      45.399  25.794  32.005  1.00  0.00     0.031 C 
ATOM     61  C   UNL A   1      45.004  27.462  33.798  1.00  0.00     0.031 A 
BRANCH  48  62
ATOM     62  C   UNL A   1      41.370  32.198  35.422  1.00  0.00    -0.014 A 
ATOM     63  C   UNL A   1      40.489  32.020  36.505  1.00  0.00     0.010 A 
ATOM     64  C   UNL A   1      42.009  33.441  35.259  1.00  0.00     0.010 A 
ATOM     65  C   UNL A   1      40.210  33.080  37.373  1.00  0.00     0.020 A 
ATOM     66  C   UNL A   1      41.754  34.494  36.143  1.00  0.00     0.020 A 
ATOM     67  C   UNL A   1      40.839  34.313  37.181  1.00  0.00     0.054 A 
BRANCH  67  68
ATOM     68  S   UNL A   1      40.460  35.672  38.321  1.00  0.00     0.124 S 
ATOM     69  O   UNL A   1      41.770  35.948  38.905  1.00  0.00    -0.237 OA
ATOM     70  O   UNL A   1      39.941  36.706  37.427  1.00  0.00    -0.237 OA
ATOM     71  O   UNL A   1      39.479  35.094  39.236  1.00  0.00    -0.744 OA
ENDBRANCH  67  68
ENDBRANCH  48  62
BRANCH  49  72
ATOM     72  C   UNL A   1      43.163  25.250  28.468  1.00  0.00    -0.014 A 
ATOM     73  C   UNL A   1      42.506  24.009  28.548  1.00  0.00     0.010 A 
ATOM     74  C   UNL A   1      44.040  25.492  27.396  1.00  0.00     0.010 A 
ATOM     75  C   UNL A   1      42.730  23.025  27.580  1.00  0.00     0.020 A 
ATOM     76  C   UNL A   1      44.248  24.520  26.413  1.00  0.00     0.020 A 
ATOM     77  C   UNL A   1      43.598  23.289  26.516  1.00  0.00     0.054 A 
BRANCH  77  78
ATOM     78  S   UNL A   1      43.823  22.021  25.237  1.00  0.00     0.124 S 
ATOM     79  O   UNL A   1      43.483  22.752  24.022  1.00  0.00    -0.237 OA
ATOM     80  O   UNL A   1      45.232  21.665  25.390  1.00  0.00    -0.237 OA
ATOM     81  O   UNL A   1      42.880  20.974  25.626  1.00  0.00    -0.744 OA
ENDBRANCH  77  78
ENDBRANCH  49  72
BRANCH  61  82
ATOM     82  C   UNL A   1      46.148  26.848  34.560  1.00  0.00    -0.014 A 
ATOM     83  C   UNL A   1      45.944  25.785  35.457  1.00  0.00     0.010 A 
ATOM     84  C   UNL A   1      47.454  27.325  34.347  1.00  0.00     0.010 A 
ATOM     85  C   UNL A   1      47.022  25.238  36.159  1.00  0.00     0.020 A 
ATOM     86  C   UNL A   1      48.537  26.762  35.026  1.00  0.00     0.020 A 
ATOM     87  C   UNL A   1      48.311  25.734  35.942  1.00  0.00     0.054 A 
BRANCH  87  88
ATOM     88  S   UNL A   1      49.698  24.993  36.846  1.00  0.00     0.124 S 
ATOM     89  O   UNL A   1      49.387  23.569  36.763  1.00  0.00    -0.237 OA
ATOM     90  O   UNL A   1      50.858  25.429  36.071  1.00  0.00    -0.237 OA
ATOM     91  O   UNL A   1      49.594  25.579  38.180  1.00  0.00    -0.744 OA
ENDBRANCH  87  88
ENDBRANCH  61  82
ENDBRANCH  35  36
ENDBRANCH  27  30
ENDBRANCH  25  26
ENDBRANCH  24  25
ENDBRANCH  23  24
ENDBRANCH   1  23
TORSDOF 22
ENDMDL
