MODEL 1
REMARK VINA RESULT:     -12.3      0.000      0.000
REMARK SMILES Cc1ccc(C)c(N2C(=O)C[C@@H](SCC(=O)NCCCCCCNC(=O)c3ccc(-c4c5nc(c(-c6ccc(S(=O)(=O)[O-])cc6)c6ccc([nH]6)c(-c6ccc(S(=O)(=O)[O-])cc6)c6nc(c(-c7ccc(S(=O)(=O)[O-])cc7)c7ccc4[nH]7)C=C6)C=C5)cc3)C2=O)c1
REMARK SMILES IDX 20 1 19 2 18 3 17 4 15 5 16 6 14 8 13 9 12 10 8 11 9 12
REMARK SMILES IDX 87 13 10 14 11 15 88 16 7 17 1 18 2 19 3 20 89 21 4 22 5 23
REMARK SMILES IDX 6 24 21 25 22 26 23 27 24 28 25 29 26 31 27 32 28 33 86 34
REMARK SMILES IDX 29 35 85 36 30 37 31 38 32 39 79 40 33 41 84 42 78 43 80 44
REMARK SMILES IDX 34 45 83 46 77 47 76 48 35 50 65 51 46 52 64 53 47 54 50 55
REMARK SMILES IDX 63 56 81 57 48 58 49 59 62 61 82 62 51 63 36 64 37 65 45 66
REMARK SMILES IDX 38 67 44 68 39 69 40 70 41 71 42 72 43 73 66 74 67 75 75 76
REMARK SMILES IDX 68 77 74 78 69 79 70 80 71 81 72 82 73 83 52 84 53 85 61 86
REMARK SMILES IDX 54 87 60 88 55 89 56 90 57 91 58 92 59 93
REMARK H PARENT 17 7 24 30 80 49 50 60
REMARK Flexibility Score: inf
ROOT
ATOM      1  C   UNL A   1      34.866  20.868  25.107  1.00  0.00     0.002 C 
ENDROOT
BRANCH   1   2
ATOM      2  C   UNL A   1      33.682  20.928  26.085  1.00  0.00     0.021 C 
BRANCH   2   3
ATOM      3  C   UNL A   1      33.492  22.293  26.749  1.00  0.00     0.116 C 
BRANCH   3   4
ATOM      4  N   UNL A   1      32.143  22.429  27.268  1.00  0.00    -0.355 N 
ATOM      5  C   UNL A   1      31.065  23.073  26.746  1.00  0.00     0.230 C 
ATOM      6  O   UNL A   1      30.059  23.188  27.452  1.00  0.00    -0.274 OA
ATOM      7  H   UNL A   1      31.983  21.987  28.133  1.00  0.00     0.163 HD
BRANCH   5   8
ATOM      8  C   UNL A   1      31.078  23.592  25.326  1.00  0.00     0.170 C 
BRANCH   8   9
ATOM      9  S   UNL A   1      32.313  24.849  24.980  1.00  0.00    -0.138 SA
BRANCH   9  10
ATOM     10  C   UNL A   1      31.278  26.363  24.943  1.00  0.00     0.146 C 
ATOM     11  N   UNL A   1      32.486  28.267  25.526  1.00  0.00    -0.249 N 
ATOM     12  C   UNL A   1      32.196  28.427  24.196  1.00  0.00     0.235 C 
ATOM     13  C   UNL A   1      31.798  27.209  26.060  1.00  0.00     0.247 C 
ATOM     14  O   UNL A   1      32.410  29.366  23.442  1.00  0.00    -0.274 OA
ATOM     15  C   UNL A   1      31.435  27.225  23.718  1.00  0.00     0.125 C 
ATOM     16  O   UNL A   1      31.528  26.910  27.218  1.00  0.00    -0.273 OA
BRANCH  11  17
ATOM     17  C   UNL A   1      33.224  29.207  26.283  1.00  0.00     0.055 A 
ATOM     18  C   UNL A   1      37.341  29.614  28.039  1.00  0.00     0.044 C 
ATOM     19  C   UNL A   1      35.965  30.011  27.576  1.00  0.00    -0.049 A 
ATOM     20  C   UNL A   1      35.312  31.658  27.953  1.00  0.00     0.004 A 
ATOM     21  C   UNL A   1      34.933  28.817  26.682  1.00  0.00     0.030 A 
ATOM     22  C   UNL A   1      33.612  32.088  27.510  1.00  0.00     0.006 A 
ATOM     23  C   UNL A   1      32.533  30.848  26.774  1.00  0.00    -0.027 A 
ATOM     24  C   UNL A   1      31.082  31.215  26.584  1.00  0.00     0.046 C 
ENDBRANCH  11  17
ENDBRANCH   9  10
ENDBRANCH   8   9
ENDBRANCH   5   8
ENDBRANCH   3   4
ENDBRANCH   2   3
ENDBRANCH   1   2
BRANCH   1  25
ATOM     25  C   UNL A   1      35.416  22.226  24.630  1.00  0.00     0.002 C 
BRANCH  25  26
ATOM     26  C   UNL A   1      36.940  22.342  24.462  1.00  0.00     0.021 C 
BRANCH  26  27
ATOM     27  C   UNL A   1      37.589  23.158  25.557  1.00  0.00     0.116 C 
BRANCH  27  28
ATOM     28  N   UNL A   1      38.384  22.367  26.513  1.00  0.00    -0.352 N 
ATOM     29  C   UNL A   1      39.637  22.623  27.063  1.00  0.00     0.251 C 
ATOM     30  H   UNL A   1      37.964  21.526  26.808  1.00  0.00     0.163 HD
ATOM     31  O   UNL A   1      40.289  21.722  27.578  1.00  0.00    -0.269 OA
BRANCH  29  32
ATOM     32  C   UNL A   1      40.132  24.017  27.102  1.00  0.00     0.039 A 
ATOM     33  C   UNL A   1      41.484  24.380  27.100  1.00  0.00     0.014 A 
ATOM     34  C   UNL A   1      39.270  24.936  27.660  1.00  0.00     0.014 A 
ATOM     35  C   UNL A   1      41.824  25.556  27.800  1.00  0.00     0.010 A 
ATOM     36  C   UNL A   1      39.605  26.230  27.589  1.00  0.00     0.010 A 
ATOM     37  C   UNL A   1      40.775  26.356  28.269  1.00  0.00    -0.014 A 
BRANCH  37  38
ATOM     38  C   UNL A   1      40.833  27.559  29.069  1.00  0.00     0.031 A 
ATOM     39  C   UNL A   1      41.858  28.459  28.492  1.00  0.00     0.074 A 
ATOM     40  C   UNL A   1      39.928  27.937  30.007  1.00  0.00     0.049 A 
ATOM     41  N   UNL A   1      43.099  28.441  28.840  1.00  0.00    -0.248 NA
ATOM     42  C   UNL A   1      41.618  29.139  27.197  1.00  0.00     0.031 C 
ATOM     43  C   UNL A   1      38.689  27.307  30.484  1.00  0.00     0.029 A 
ATOM     44  N   UNL A   1      39.954  29.077  30.753  1.00  0.00    -0.354 N 
ATOM     45  C   UNL A   1      43.713  29.357  28.009  1.00  0.00     0.074 A 
ATOM     46  C   UNL A   1      42.865  29.477  26.856  1.00  0.00     0.031 C 
ATOM     47  C   UNL A   1      38.005  28.175  31.282  1.00  0.00     0.029 A 
ATOM     48  C   UNL A   1      38.806  29.374  31.491  1.00  0.00     0.049 A 
ATOM     49  H   UNL A   1      40.746  29.662  30.773  1.00  0.00     0.167 HD
ATOM     50  C   UNL A   1      44.654  30.204  28.505  1.00  0.00     0.031 A 
ATOM     51  C   UNL A   1      38.556  30.546  32.163  1.00  0.00     0.031 A 
ATOM     52  C   UNL A   1      45.012  29.831  29.855  1.00  0.00     0.049 A 
ATOM     53  C   UNL A   1      39.836  31.252  32.344  1.00  0.00     0.074 A 
ATOM     54  C   UNL A   1      45.533  28.693  30.443  1.00  0.00     0.029 A 
ATOM     55  N   UNL A   1      44.362  30.514  30.858  1.00  0.00    -0.354 N 
ATOM     56  N   UNL A   1      40.720  30.830  33.191  1.00  0.00    -0.248 NA
ATOM     57  C   UNL A   1      40.331  32.042  31.222  1.00  0.00     0.031 C 
ATOM     58  C   UNL A   1      44.774  28.508  31.637  1.00  0.00     0.029 A 
ATOM     59  C   UNL A   1      43.924  29.599  31.784  1.00  0.00     0.049 A 
ATOM     60  H   UNL A   1      44.232  31.489  30.902  1.00  0.00     0.167 HD
ATOM     61  C   UNL A   1      41.880  30.822  32.451  1.00  0.00     0.074 A 
ATOM     62  C   UNL A   1      41.612  31.659  31.270  1.00  0.00     0.031 C 
ATOM     63  C   UNL A   1      42.804  29.842  32.649  1.00  0.00     0.031 A 
BRANCH  50  64
ATOM     64  C   UNL A   1      44.887  31.590  27.976  1.00  0.00    -0.014 A 
ATOM     65  C   UNL A   1      46.176  31.900  27.505  1.00  0.00     0.010 A 
ATOM     66  C   UNL A   1      43.985  32.663  28.142  1.00  0.00     0.010 A 
ATOM     67  C   UNL A   1      46.556  33.220  27.255  1.00  0.00     0.020 A 
ATOM     68  C   UNL A   1      44.343  33.982  27.860  1.00  0.00     0.020 A 
ATOM     69  C   UNL A   1      45.636  34.253  27.436  1.00  0.00     0.054 A 
BRANCH  69  70
ATOM     70  S   UNL A   1      46.164  35.955  27.138  1.00  0.00     0.124 S 
ATOM     71  O   UNL A   1      47.465  35.988  27.798  1.00  0.00    -0.237 OA
ATOM     72  O   UNL A   1      46.188  36.014  25.679  1.00  0.00    -0.237 OA
ATOM     73  O   UNL A   1      45.118  36.754  27.774  1.00  0.00    -0.744 OA
ENDBRANCH  69  70
ENDBRANCH  50  64
BRANCH  51  74
ATOM     74  C   UNL A   1      37.346  31.394  32.104  1.00  0.00    -0.014 A 
ATOM     75  C   UNL A   1      36.605  31.812  33.211  1.00  0.00     0.010 A 
ATOM     76  C   UNL A   1      37.255  32.209  31.017  1.00  0.00     0.010 A 
ATOM     77  C   UNL A   1      35.732  32.975  33.180  1.00  0.00     0.020 A 
ATOM     78  C   UNL A   1      36.442  33.365  31.012  1.00  0.00     0.020 A 
ATOM     79  C   UNL A   1      35.387  33.902  31.994  1.00  0.00     0.054 A 
BRANCH  79  80
ATOM     80  S   UNL A   1      33.564  35.657  31.644  1.00  0.00     0.124 S 
ATOM     81  O   UNL A   1      32.231  35.276  32.209  1.00  0.00    -0.237 OA
ATOM     82  O   UNL A   1      33.901  36.994  32.230  1.00  0.00    -0.237 OA
ATOM     83  O   UNL A   1      33.268  35.917  30.193  1.00  0.00    -0.744 OA
ENDBRANCH  79  80
ENDBRANCH  51  74
BRANCH  63  84
ATOM     84  C   UNL A   1      42.529  28.855  33.764  1.00  0.00    -0.014 A 
ATOM     85  C   UNL A   1      41.806  27.646  33.617  1.00  0.00     0.010 A 
ATOM     86  C   UNL A   1      43.107  29.134  35.005  1.00  0.00     0.010 A 
ATOM     87  C   UNL A   1      41.646  26.761  34.696  1.00  0.00     0.020 A 
ATOM     88  C   UNL A   1      42.966  28.253  36.076  1.00  0.00     0.020 A 
ATOM     89  C   UNL A   1      42.227  27.078  35.925  1.00  0.00     0.054 A 
BRANCH  89  90
ATOM     90  S   UNL A   1      42.055  25.935  37.323  1.00  0.00     0.124 S 
ATOM     91  O   UNL A   1      42.443  24.654  36.738  1.00  0.00    -0.237 OA
ATOM     92  O   UNL A   1      42.986  26.484  38.307  1.00  0.00    -0.237 OA
ATOM     93  O   UNL A   1      40.644  26.046  37.688  1.00  0.00    -0.744 OA
ENDBRANCH  89  90
ENDBRANCH  63  84
ENDBRANCH  37  38
ENDBRANCH  29  32
ENDBRANCH  27  28
ENDBRANCH  26  27
ENDBRANCH  25  26
ENDBRANCH   1  25
TORSDOF 19
ENDMDL
MODEL 2
REMARK VINA RESULT:     -11.9      2.469      9.857
REMARK SMILES Cc1ccc(C)c(N2C(=O)C[C@@H](SCC(=O)NCCCCCCNC(=O)c3ccc(-c4c5nc(c(-c6ccc(S(=O)(=O)[O-])cc6)c6ccc([nH]6)c(-c6ccc(S(=O)(=O)[O-])cc6)c6nc(c(-c7ccc(S(=O)(=O)[O-])cc7)c7ccc4[nH]7)C=C6)C=C5)cc3)C2=O)c1
REMARK SMILES IDX 20 1 19 2 18 3 17 4 15 5 16 6 14 8 13 9 12 10 8 11 9 12
REMARK SMILES IDX 87 13 10 14 11 15 88 16 7 17 1 18 2 19 3 20 89 21 4 22 5 23
REMARK SMILES IDX 6 24 21 25 22 26 23 27 24 28 25 29 26 31 27 32 28 33 86 34
REMARK SMILES IDX 29 35 85 36 30 37 31 38 32 39 79 40 33 41 84 42 78 43 80 44
REMARK SMILES IDX 34 45 83 46 77 47 76 48 35 50 65 51 46 52 64 53 47 54 50 55
REMARK SMILES IDX 63 56 81 57 48 58 49 59 62 61 82 62 51 63 36 64 37 65 45 66
REMARK SMILES IDX 38 67 44 68 39 69 40 70 41 71 42 72 43 73 66 74 67 75 75 76
REMARK SMILES IDX 68 77 74 78 69 79 70 80 71 81 72 82 73 83 52 84 53 85 61 86
REMARK SMILES IDX 54 87 60 88 55 89 56 90 57 91 58 92 59 93
REMARK H PARENT 17 7 24 30 80 49 50 60
REMARK Flexibility Score: inf
ROOT
ATOM      1  C   UNL A   1      34.096  31.629  27.630  1.00  0.00     0.002 C 
ENDROOT
BRANCH   1   2
ATOM      2  C   UNL A   1      34.949  30.351  27.635  1.00  0.00     0.021 C 
BRANCH   2   3
ATOM      3  C   UNL A   1      34.325  29.183  26.867  1.00  0.00     0.116 C 
BRANCH   3   4
ATOM      4  N   UNL A   1      33.199  28.630  27.599  1.00  0.00    -0.355 N 
ATOM      5  C   UNL A   1      31.950  28.308  27.170  1.00  0.00     0.230 C 
ATOM      6  O   UNL A   1      31.107  28.001  28.017  1.00  0.00    -0.274 OA
ATOM      7  H   UNL A   1      33.367  28.463  28.555  1.00  0.00     0.163 HD
BRANCH   5   8
ATOM      8  C   UNL A   1      31.614  28.279  25.697  1.00  0.00     0.170 C 
BRANCH   8   9
ATOM      9  S   UNL A   1      32.443  27.002  24.745  1.00  0.00    -0.138 SA
BRANCH   9  10
ATOM     10  C   UNL A   1      31.209  25.647  24.816  1.00  0.00     0.146 C 
ATOM     11  N   UNL A   1      32.179  23.603  25.369  1.00  0.00    -0.249 N 
ATOM     12  C   UNL A   1      31.403  23.929  26.451  1.00  0.00     0.235 C 
ATOM     13  C   UNL A   1      31.935  24.442  24.312  1.00  0.00     0.247 C 
ATOM     14  O   UNL A   1      31.155  23.302  27.471  1.00  0.00    -0.274 OA
ATOM     15  C   UNL A   1      30.753  25.258  26.197  1.00  0.00     0.125 C 
ATOM     16  O   UNL A   1      32.162  24.332  23.112  1.00  0.00    -0.273 OA
BRANCH  11  17
ATOM     17  C   UNL A   1      32.956  22.424  25.293  1.00  0.00     0.055 A 
ATOM     18  C   UNL A   1      32.369  18.075  24.324  1.00  0.00     0.044 C 
ATOM     19  C   UNL A   1      33.087  19.370  24.591  1.00  0.00    -0.049 A 
ATOM     20  C   UNL A   1      34.889  19.401  24.763  1.00  0.00     0.004 A 
ATOM     21  C   UNL A   1      32.138  20.903  24.793  1.00  0.00     0.030 A 
ATOM     22  C   UNL A   1      35.737  20.934  25.211  1.00  0.00     0.006 A 
ATOM     23  C   UNL A   1      34.781  22.416  25.578  1.00  0.00    -0.027 A 
ATOM     24  C   UNL A   1      35.531  23.613  26.108  1.00  0.00     0.046 C 
ENDBRANCH  11  17
ENDBRANCH   9  10
ENDBRANCH   8   9
ENDBRANCH   5   8
ENDBRANCH   3   4
ENDBRANCH   2   3
ENDBRANCH   1   2
BRANCH   1  25
ATOM     25  C   UNL A   1      34.799  32.912  28.113  1.00  0.00     0.002 C 
BRANCH  25  26
ATOM     26  C   UNL A   1      34.219  33.600  29.359  1.00  0.00     0.021 C 
BRANCH  26  27
ATOM     27  C   UNL A   1      35.268  34.329  30.168  1.00  0.00     0.116 C 
BRANCH  27  28
ATOM     28  N   UNL A   1      35.400  33.856  31.558  1.00  0.00    -0.352 N 
ATOM     29  C   UNL A   1      35.752  32.601  32.045  1.00  0.00     0.251 C 
ATOM     30  H   UNL A   1      35.209  34.532  32.247  1.00  0.00     0.163 HD
ATOM     31  O   UNL A   1      35.499  32.287  33.203  1.00  0.00    -0.269 OA
BRANCH  29  32
ATOM     32  C   UNL A   1      36.519  31.682  31.175  1.00  0.00     0.039 A 
ATOM     33  C   UNL A   1      36.179  30.344  30.938  1.00  0.00     0.014 A 
ATOM     34  C   UNL A   1      37.850  31.996  31.010  1.00  0.00     0.014 A 
ATOM     35  C   UNL A   1      37.247  29.451  30.714  1.00  0.00     0.010 A 
ATOM     36  C   UNL A   1      38.554  31.286  30.121  1.00  0.00     0.010 A 
ATOM     37  C   UNL A   1      38.526  29.998  30.558  1.00  0.00    -0.014 A 
BRANCH  37  38
ATOM     38  C   UNL A   1      39.794  29.322  30.393  1.00  0.00     0.031 A 
ATOM     39  C   UNL A   1      40.353  29.039  31.735  1.00  0.00     0.074 A 
ATOM     40  C   UNL A   1      40.267  28.784  29.241  1.00  0.00     0.049 A 
ATOM     41  N   UNL A   1      41.128  29.851  32.370  1.00  0.00    -0.248 NA
ATOM     42  C   UNL A   1      39.736  28.011  32.604  1.00  0.00     0.031 C 
ATOM     43  C   UNL A   1      39.698  28.709  27.888  1.00  0.00     0.029 A 
ATOM     44  N   UNL A   1      41.447  28.125  29.072  1.00  0.00    -0.354 N 
ATOM     45  C   UNL A   1      41.341  29.251  33.596  1.00  0.00     0.074 A 
ATOM     46  C   UNL A   1      40.237  28.354  33.795  1.00  0.00     0.031 C 
ATOM     47  C   UNL A   1      40.449  27.875  27.114  1.00  0.00     0.029 A 
ATOM     48  C   UNL A   1      41.628  27.455  27.860  1.00  0.00     0.049 A 
ATOM     49  H   UNL A   1      42.140  28.122  29.771  1.00  0.00     0.167 HD
ATOM     50  C   UNL A   1      42.580  29.264  34.155  1.00  0.00     0.031 A 
ATOM     51  C   UNL A   1      42.655  26.595  27.556  1.00  0.00     0.031 A 
ATOM     52  C   UNL A   1      43.462  30.137  33.414  1.00  0.00     0.049 A 
ATOM     53  C   UNL A   1      43.742  26.819  28.523  1.00  0.00     0.074 A 
ATOM     54  C   UNL A   1      43.450  31.480  33.084  1.00  0.00     0.029 A 
ATOM     55  N   UNL A   1      44.266  29.523  32.479  1.00  0.00    -0.354 N 
ATOM     56  N   UNL A   1      44.477  27.884  28.470  1.00  0.00    -0.248 NA
ATOM     57  C   UNL A   1      43.629  26.168  29.823  1.00  0.00     0.031 C 
ATOM     58  C   UNL A   1      43.843  31.533  31.714  1.00  0.00     0.029 A 
ATOM     59  C   UNL A   1      44.197  30.248  31.314  1.00  0.00     0.049 A 
ATOM     60  H   UNL A   1      44.796  28.706  32.621  1.00  0.00     0.167 HD
ATOM     61  C   UNL A   1      44.465  28.335  29.770  1.00  0.00     0.074 A 
ATOM     62  C   UNL A   1      44.004  27.200  30.587  1.00  0.00     0.031 C 
ATOM     63  C   UNL A   1      44.448  29.673  30.023  1.00  0.00     0.031 A 
BRANCH  50  64
ATOM     64  C   UNL A   1      43.105  28.170  35.040  1.00  0.00    -0.014 A 
ATOM     65  C   UNL A   1      43.632  28.540  36.290  1.00  0.00     0.010 A 
ATOM     66  C   UNL A   1      43.327  26.844  34.612  1.00  0.00     0.010 A 
ATOM     67  C   UNL A   1      44.381  27.642  37.053  1.00  0.00     0.020 A 
ATOM     68  C   UNL A   1      44.043  25.927  35.384  1.00  0.00     0.020 A 
ATOM     69  C   UNL A   1      44.582  26.341  36.592  1.00  0.00     0.054 A 
BRANCH  69  70
ATOM     70  S   UNL A   1      45.584  25.209  37.583  1.00  0.00     0.124 S 
ATOM     71  O   UNL A   1      45.258  25.626  38.942  1.00  0.00    -0.237 OA
ATOM     72  O   UNL A   1      45.064  23.907  37.174  1.00  0.00    -0.237 OA
ATOM     73  O   UNL A   1      46.951  25.494  37.150  1.00  0.00    -0.744 OA
ENDBRANCH  69  70
ENDBRANCH  50  64
BRANCH  51  74
ATOM     74  C   UNL A   1      42.569  25.238  26.974  1.00  0.00    -0.014 A 
ATOM     75  C   UNL A   1      43.626  24.556  26.370  1.00  0.00     0.010 A 
ATOM     76  C   UNL A   1      41.600  24.436  27.498  1.00  0.00     0.010 A 
ATOM     77  C   UNL A   1      43.651  23.108  26.228  1.00  0.00     0.020 A 
ATOM     78  C   UNL A   1      41.656  23.029  27.399  1.00  0.00     0.020 A 
ATOM     79  C   UNL A   1      42.569  22.074  26.612  1.00  0.00     0.054 A 
BRANCH  79  80
ATOM     80  S   UNL A   1      42.247  19.609  26.022  1.00  0.00     0.124 S 
ATOM     81  O   UNL A   1      40.833  19.234  25.705  1.00  0.00    -0.237 OA
ATOM     82  O   UNL A   1      43.071  19.161  24.854  1.00  0.00    -0.237 OA
ATOM     83  O   UNL A   1      42.611  18.682  27.149  1.00  0.00    -0.744 OA
ENDBRANCH  79  80
ENDBRANCH  51  74
BRANCH  63  84
ATOM     84  C   UNL A   1      44.540  30.598  28.829  1.00  0.00    -0.014 A 
ATOM     85  C   UNL A   1      43.635  30.611  27.740  1.00  0.00     0.010 A 
ATOM     86  C   UNL A   1      45.554  31.559  28.857  1.00  0.00     0.010 A 
ATOM     87  C   UNL A   1      43.765  31.544  26.698  1.00  0.00     0.020 A 
ATOM     88  C   UNL A   1      45.681  32.499  27.835  1.00  0.00     0.020 A 
ATOM     89  C   UNL A   1      44.797  32.482  26.754  1.00  0.00     0.054 A 
BRANCH  89  90
ATOM     90  S   UNL A   1      44.967  33.714  25.432  1.00  0.00     0.124 S 
ATOM     91  O   UNL A   1      44.334  33.050  24.296  1.00  0.00    -0.237 OA
ATOM     92  O   UNL A   1      44.246  34.866  25.968  1.00  0.00    -0.237 OA
ATOM     93  O   UNL A   1      46.413  33.897  25.315  1.00  0.00    -0.744 OA
ENDBRANCH  89  90
ENDBRANCH  63  84
ENDBRANCH  37  38
ENDBRANCH  29  32
ENDBRANCH  27  28
ENDBRANCH  26  27
ENDBRANCH  25  26
ENDBRANCH   1  25
TORSDOF 19
ENDMDL
MODEL 3
REMARK VINA RESULT:     -11.8      1.451      2.486
REMARK SMILES Cc1ccc(C)c(N2C(=O)C[C@@H](SCC(=O)NCCCCCCNC(=O)c3ccc(-c4c5nc(c(-c6ccc(S(=O)(=O)[O-])cc6)c6ccc([nH]6)c(-c6ccc(S(=O)(=O)[O-])cc6)c6nc(c(-c7ccc(S(=O)(=O)[O-])cc7)c7ccc4[nH]7)C=C6)C=C5)cc3)C2=O)c1
REMARK SMILES IDX 20 1 19 2 18 3 17 4 15 5 16 6 14 8 13 9 12 10 8 11 9 12
REMARK SMILES IDX 87 13 10 14 11 15 88 16 7 17 1 18 2 19 3 20 89 21 4 22 5 23
REMARK SMILES IDX 6 24 21 25 22 26 23 27 24 28 25 29 26 31 27 32 28 33 86 34
REMARK SMILES IDX 29 35 85 36 30 37 31 38 32 39 79 40 33 41 84 42 78 43 80 44
REMARK SMILES IDX 34 45 83 46 77 47 76 48 35 50 65 51 46 52 64 53 47 54 50 55
REMARK SMILES IDX 63 56 81 57 48 58 49 59 62 61 82 62 51 63 36 64 37 65 45 66
REMARK SMILES IDX 38 67 44 68 39 69 40 70 41 71 42 72 43 73 66 74 67 75 75 76
REMARK SMILES IDX 68 77 74 78 69 79 70 80 71 81 72 82 73 83 52 84 53 85 61 86
REMARK SMILES IDX 54 87 60 88 55 89 56 90 57 91 58 92 59 93
REMARK H PARENT 17 7 24 30 80 49 50 60
REMARK Flexibility Score: inf
ROOT
ATOM      1  C   UNL A   1      34.696  21.333  25.169  1.00  0.00     0.002 C 
ENDROOT
BRANCH   1   2
ATOM      2  C   UNL A   1      33.665  20.561  24.331  1.00  0.00     0.021 C 
BRANCH   2   3
ATOM      3  C   UNL A   1      32.493  21.415  23.844  1.00  0.00     0.116 C 
BRANCH   3   4
ATOM      4  N   UNL A   1      32.854  22.146  22.642  1.00  0.00    -0.355 N 
ATOM      5  C   UNL A   1      32.901  23.485  22.412  1.00  0.00     0.230 C 
ATOM      6  O   UNL A   1      33.083  23.869  21.254  1.00  0.00    -0.274 OA
ATOM      7  H   UNL A   1      33.105  21.584  21.873  1.00  0.00     0.163 HD
BRANCH   5   8
ATOM      8  C   UNL A   1      32.780  24.477  23.547  1.00  0.00     0.170 C 
BRANCH   8   9
ATOM      9  S   UNL A   1      34.285  25.370  23.948  1.00  0.00    -0.138 SA
BRANCH   9  10
ATOM     10  C   UNL A   1      33.816  26.162  25.534  1.00  0.00     0.146 C 
ATOM     11  N   UNL A   1      32.068  27.678  25.275  1.00  0.00    -0.249 N 
ATOM     12  C   UNL A   1      31.535  26.649  26.005  1.00  0.00     0.235 C 
ATOM     13  C   UNL A   1      33.429  27.557  25.165  1.00  0.00     0.247 C 
ATOM     14  O   UNL A   1      30.430  26.522  26.516  1.00  0.00    -0.274 OA
ATOM     15  C   UNL A   1      32.589  25.598  26.201  1.00  0.00     0.125 C 
ATOM     16  O   UNL A   1      34.302  28.370  24.881  1.00  0.00    -0.273 OA
BRANCH  11  17
ATOM     17  C   UNL A   1      31.332  28.822  24.885  1.00  0.00     0.055 A 
ATOM     18  C   UNL A   1      28.196  29.924  21.861  1.00  0.00     0.044 C 
ATOM     19  C   UNL A   1      29.087  30.043  23.067  1.00  0.00    -0.049 A 
ATOM     20  C   UNL A   1      29.167  31.594  23.998  1.00  0.00     0.004 A 
ATOM     21  C   UNL A   1      30.127  28.642  23.562  1.00  0.00     0.030 A 
ATOM     22  C   UNL A   1      30.333  31.777  25.368  1.00  0.00     0.006 A 
ATOM     23  C   UNL A   1      31.485  30.446  25.753  1.00  0.00    -0.027 A 
ATOM     24  C   UNL A   1      32.542  30.721  26.792  1.00  0.00     0.046 C 
ENDBRANCH  11  17
ENDBRANCH   9  10
ENDBRANCH   8   9
ENDBRANCH   5   8
ENDBRANCH   3   4
ENDBRANCH   2   3
ENDBRANCH   1   2
BRANCH   1  25
ATOM     25  C   UNL A   1      35.811  22.046  24.379  1.00  0.00     0.002 C 
BRANCH  25  26
ATOM     26  C   UNL A   1      37.255  21.593  24.644  1.00  0.00     0.021 C 
BRANCH  26  27
ATOM     27  C   UNL A   1      38.033  22.580  25.485  1.00  0.00     0.116 C 
BRANCH  27  28
ATOM     28  N   UNL A   1      38.847  21.961  26.547  1.00  0.00    -0.352 N 
ATOM     29  C   UNL A   1      40.022  22.406  27.147  1.00  0.00     0.251 C 
ATOM     30  H   UNL A   1      38.508  21.101  26.884  1.00  0.00     0.163 HD
ATOM     31  O   UNL A   1      40.737  21.629  27.771  1.00  0.00    -0.269 OA
BRANCH  29  32
ATOM     32  C   UNL A   1      40.350  23.848  27.102  1.00  0.00     0.039 A 
ATOM     33  C   UNL A   1      41.633  24.363  26.883  1.00  0.00     0.014 A 
ATOM     34  C   UNL A   1      39.486  24.674  27.787  1.00  0.00     0.014 A 
ATOM     35  C   UNL A   1      41.940  25.587  27.516  1.00  0.00     0.010 A 
ATOM     36  C   UNL A   1      39.651  25.995  27.659  1.00  0.00     0.010 A 
ATOM     37  C   UNL A   1      40.892  26.271  28.143  1.00  0.00    -0.014 A 
BRANCH  37  38
ATOM     38  C   UNL A   1      40.933  27.490  28.919  1.00  0.00     0.031 A 
ATOM     39  C   UNL A   1      41.982  28.370  28.355  1.00  0.00     0.074 A 
ATOM     40  C   UNL A   1      40.003  27.893  29.822  1.00  0.00     0.049 A 
ATOM     41  N   UNL A   1      43.212  28.352  28.741  1.00  0.00    -0.248 NA
ATOM     42  C   UNL A   1      41.787  29.024  27.040  1.00  0.00     0.031 C 
ATOM     43  C   UNL A   1      38.746  27.281  30.272  1.00  0.00     0.029 A 
ATOM     44  N   UNL A   1      40.015  29.048  30.544  1.00  0.00    -0.354 N 
ATOM     45  C   UNL A   1      43.858  29.246  27.911  1.00  0.00     0.074 A 
ATOM     46  C   UNL A   1      43.046  29.348  26.731  1.00  0.00     0.031 C 
ATOM     47  C   UNL A   1      38.043  28.170  31.031  1.00  0.00     0.029 A 
ATOM     48  C   UNL A   1      38.847  29.368  31.240  1.00  0.00     0.049 A 
ATOM     49  H   UNL A   1      40.809  29.628  30.576  1.00  0.00     0.167 HD
ATOM     50  C   UNL A   1      44.789  30.097  28.419  1.00  0.00     0.031 A 
ATOM     51  C   UNL A   1      38.585  30.555  31.880  1.00  0.00     0.031 A 
ATOM     52  C   UNL A   1      45.103  29.750  29.786  1.00  0.00     0.049 A 
ATOM     53  C   UNL A   1      39.864  31.256  32.085  1.00  0.00     0.074 A 
ATOM     54  C   UNL A   1      45.598  28.621  30.414  1.00  0.00     0.029 A 
ATOM     55  N   UNL A   1      44.427  30.458  30.754  1.00  0.00    -0.354 N 
ATOM     56  N   UNL A   1      40.718  30.846  32.967  1.00  0.00    -0.248 NA
ATOM     57  C   UNL A   1      40.398  32.020  30.963  1.00  0.00     0.031 C 
ATOM     58  C   UNL A   1      44.801  28.466  31.587  1.00  0.00     0.029 A 
ATOM     59  C   UNL A   1      43.955  29.566  31.686  1.00  0.00     0.049 A 
ATOM     60  H   UNL A   1      44.303  31.435  30.774  1.00  0.00     0.167 HD
ATOM     61  C   UNL A   1      41.900  30.816  32.263  1.00  0.00     0.074 A 
ATOM     62  C   UNL A   1      41.674  31.630  31.058  1.00  0.00     0.031 C 
ATOM     63  C   UNL A   1      42.811  29.834  32.511  1.00  0.00     0.031 A 
BRANCH  50  64
ATOM     64  C   UNL A   1      45.048  31.471  27.869  1.00  0.00    -0.014 A 
ATOM     65  C   UNL A   1      46.197  31.649  27.077  1.00  0.00     0.010 A 
ATOM     66  C   UNL A   1      44.363  32.632  28.285  1.00  0.00     0.010 A 
ATOM     67  C   UNL A   1      46.661  32.926  26.756  1.00  0.00     0.020 A 
ATOM     68  C   UNL A   1      44.798  33.912  27.939  1.00  0.00     0.020 A 
ATOM     69  C   UNL A   1      45.958  34.050  27.191  1.00  0.00     0.054 A 
BRANCH  69  70
ATOM     70  S   UNL A   1      46.600  35.691  26.791  1.00  0.00     0.124 S 
ATOM     71  O   UNL A   1      45.893  36.535  27.749  1.00  0.00    -0.237 OA
ATOM     72  O   UNL A   1      48.032  35.522  27.025  1.00  0.00    -0.237 OA
ATOM     73  O   UNL A   1      46.218  35.875  25.391  1.00  0.00    -0.744 OA
ENDBRANCH  69  70
ENDBRANCH  50  64
BRANCH  51  74
ATOM     74  C   UNL A   1      37.383  31.410  31.766  1.00  0.00    -0.014 A 
ATOM     75  C   UNL A   1      37.125  32.538  32.546  1.00  0.00     0.010 A 
ATOM     76  C   UNL A   1      36.779  31.411  30.545  1.00  0.00     0.010 A 
ATOM     77  C   UNL A   1      36.211  33.590  32.130  1.00  0.00     0.020 A 
ATOM     78  C   UNL A   1      35.931  32.461  30.129  1.00  0.00     0.020 A 
ATOM     79  C   UNL A   1      35.325  33.668  30.866  1.00  0.00     0.054 A 
BRANCH  79  80
ATOM     80  S   UNL A   1      33.363  35.170  30.219  1.00  0.00     0.124 S 
ATOM     81  O   UNL A   1      32.550  34.656  29.072  1.00  0.00    -0.237 OA
ATOM     82  O   UNL A   1      32.400  35.411  31.341  1.00  0.00    -0.237 OA
ATOM     83  O   UNL A   1      33.794  36.535  29.759  1.00  0.00    -0.744 OA
ENDBRANCH  79  80
ENDBRANCH  51  74
BRANCH  63  84
ATOM     84  C   UNL A   1      42.495  28.872  33.636  1.00  0.00    -0.014 A 
ATOM     85  C   UNL A   1      41.663  27.732  33.520  1.00  0.00     0.010 A 
ATOM     86  C   UNL A   1      43.144  29.097  34.853  1.00  0.00     0.010 A 
ATOM     87  C   UNL A   1      41.468  26.862  34.606  1.00  0.00     0.020 A 
ATOM     88  C   UNL A   1      42.968  28.229  35.930  1.00  0.00     0.020 A 
ATOM     89  C   UNL A   1      42.124  27.123  35.809  1.00  0.00     0.054 A 
BRANCH  89  90
ATOM     90  S   UNL A   1      41.908  25.996  37.215  1.00  0.00     0.124 S 
ATOM     91  O   UNL A   1      42.883  26.499  38.179  1.00  0.00    -0.237 OA
ATOM     92  O   UNL A   1      40.507  26.195  37.577  1.00  0.00    -0.237 OA
ATOM     93  O   UNL A   1      42.214  24.681  36.653  1.00  0.00    -0.744 OA
ENDBRANCH  89  90
ENDBRANCH  63  84
ENDBRANCH  37  38
ENDBRANCH  29  32
ENDBRANCH  27  28
ENDBRANCH  26  27
ENDBRANCH  25  26
ENDBRANCH   1  25
TORSDOF 19
ENDMDL
