MODEL 1
REMARK VINA RESULT:     -11.4      0.000      0.000
REMARK SMILES COc1cccc([C@@H]2C[N@@H+](Cc3nccn3C)C[C@H]2C(=O)NCCCCCCNC(=O)c2ccc(-c3c4nc(c(-c5ccc(S(=O)(=O)[O-])cc5)c5ccc([nH]5)c(-c5ccc(S(=O)(=O)[O-])cc5)c5nc(c(-c6ccc(S(=O)(=O)[O-])cc6)c6ccc3[nH]6)C=C5)C=C4)cc2)c1
REMARK SMILES IDX 26 1 25 2 24 3 23 4 22 5 20 6 21 7 19 9 8 10 9 11 10 12
REMARK SMILES IDX 18 13 7 15 3 16 4 17 92 18 5 19 6 20 2 21 1 22 11 23 12 24
REMARK SMILES IDX 13 25 16 26 14 27 15 28 17 29 27 30 28 31 29 32 30 33 31 35
REMARK SMILES IDX 32 36 33 37 91 38 34 39 90 40 35 41 36 42 37 43 84 44 38 45
REMARK SMILES IDX 89 46 83 47 85 48 39 49 88 50 82 51 81 52 40 54 70 55 51 56
REMARK SMILES IDX 69 57 52 58 55 59 68 60 86 61 53 62 54 63 67 65 87 66 56 67
REMARK SMILES IDX 41 68 42 69 50 70 43 71 49 72 44 73 45 74 46 75 47 76 48 77
REMARK SMILES IDX 71 78 72 79 80 80 73 81 79 82 74 83 75 84 76 85 77 86 78 87
REMARK SMILES IDX 57 88 58 89 66 90 59 91 65 92 60 93 61 94 62 95 63 96 64 97
REMARK H PARENT 22 8 10 14 29 34 85 53 55 64
REMARK Flexibility Score: inf
ROOT
ATOM      1  C   UNL A   1      39.178  22.096  26.280  1.00  0.00     0.002 C 
ENDROOT
BRANCH   1   2
ATOM      2  C   UNL A   1      38.506  21.045  25.392  1.00  0.00     0.002 C 
BRANCH   2   3
ATOM      3  C   UNL A   1      37.013  21.159  25.017  1.00  0.00     0.021 C 
BRANCH   3   4
ATOM      4  C   UNL A   1      36.567  22.299  24.080  1.00  0.00     0.116 C 
BRANCH   4   5
ATOM      5  N   UNL A   1      35.838  23.348  24.809  1.00  0.00    -0.356 N 
ATOM      6  C   UNL A   1      34.530  23.541  25.126  1.00  0.00     0.229 C 
ATOM      7  O   UNL A   1      34.329  23.671  26.346  1.00  0.00    -0.275 OA
ATOM      8  H   UNL A   1      36.424  24.067  25.138  1.00  0.00     0.163 HD
BRANCH   6   9
ATOM      9  C   UNL A   1      33.331  23.754  24.189  1.00  0.00     0.146 C 
ATOM     10  C   UNL A   1      32.054  22.952  24.440  1.00  0.00     0.092 C 
ATOM     11  C   UNL A   1      31.040  23.652  23.509  1.00  0.00     0.271 C 
ATOM     12  N   UNL A   1      31.449  25.064  23.417  1.00  0.00    -0.327 N 
ATOM     13  C   UNL A   1      32.856  25.158  23.844  1.00  0.00     0.277 C 
ATOM     14  H   UNL A   1      31.410  25.395  22.453  1.00  0.00     0.348 HD
BRANCH  10  15
ATOM     15  C   UNL A   1      32.167  21.475  24.105  1.00  0.00    -0.035 A 
ATOM     16  C   UNL A   1      32.571  19.165  24.801  1.00  0.00     0.119 A 
ATOM     17  C   UNL A   1      32.478  18.756  23.473  1.00  0.00     0.046 A 
ATOM     18  C   UNL A   1      32.429  20.517  25.107  1.00  0.00     0.050 A 
ATOM     19  C   UNL A   1      32.209  19.687  22.467  1.00  0.00     0.004 A 
ATOM     20  C   UNL A   1      32.053  21.039  22.781  1.00  0.00     0.004 A 
BRANCH  16  21
ATOM     21  O   UNL A   1      32.843  18.182  25.714  1.00  0.00    -0.497 OA
ATOM     22  C   UNL A   1      32.856  16.856  25.192  1.00  0.00     0.278 C 
ENDBRANCH  16  21
ENDBRANCH  10  15
BRANCH  12  23
ATOM     23  C   UNL A   1      30.498  25.979  24.072  1.00  0.00     0.339 C 
BRANCH  23  24
ATOM     24  C   UNL A   1      30.558  27.377  23.540  1.00  0.00     0.164 A 
ATOM     25  N   UNL A   1      30.082  27.758  22.365  1.00  0.00    -0.236 NA
ATOM     26  N   UNL A   1      30.969  28.467  24.264  1.00  0.00    -0.333 N 
ATOM     27  C   UNL A   1      30.009  29.117  22.413  1.00  0.00     0.131 A 
ATOM     28  C   UNL A   1      30.488  29.569  23.615  1.00  0.00     0.107 A 
ATOM     29  C   UNL A   1      31.738  28.460  25.484  1.00  0.00     0.151 C 
ENDBRANCH  23  24
ENDBRANCH  12  23
ENDBRANCH   6   9
ENDBRANCH   4   5
ENDBRANCH   3   4
ENDBRANCH   2   3
ENDBRANCH   1   2
BRANCH   1  30
ATOM     30  C   UNL A   1      40.468  21.739  27.021  1.00  0.00     0.021 C 
BRANCH  30  31
ATOM     31  C   UNL A   1      41.464  22.862  27.318  1.00  0.00     0.116 C 
BRANCH  31  32
ATOM     32  N   UNL A   1      41.632  23.772  26.201  1.00  0.00    -0.352 N 
ATOM     33  C   UNL A   1      41.470  25.130  26.094  1.00  0.00     0.251 C 
ATOM     34  H   UNL A   1      41.912  23.333  25.366  1.00  0.00     0.163 HD
ATOM     35  O   UNL A   1      41.522  25.634  24.972  1.00  0.00    -0.269 OA
BRANCH  33  36
ATOM     36  C   UNL A   1      41.222  26.001  27.268  1.00  0.00     0.039 A 
ATOM     37  C   UNL A   1      42.143  27.022  27.533  1.00  0.00     0.014 A 
ATOM     38  C   UNL A   1      40.168  25.785  28.161  1.00  0.00     0.014 A 
ATOM     39  C   UNL A   1      41.987  27.845  28.652  1.00  0.00     0.010 A 
ATOM     40  C   UNL A   1      39.980  26.643  29.251  1.00  0.00     0.010 A 
ATOM     41  C   UNL A   1      40.890  27.679  29.511  1.00  0.00    -0.014 A 
BRANCH  41  42
ATOM     42  C   UNL A   1      40.693  28.602  30.662  1.00  0.00     0.031 A 
ATOM     43  C   UNL A   1      41.544  28.492  31.900  1.00  0.00     0.074 A 
ATOM     44  C   UNL A   1      39.727  29.540  30.594  1.00  0.00     0.049 A 
ATOM     45  N   UNL A   1      41.537  29.243  32.973  1.00  0.00    -0.248 NA
ATOM     46  C   UNL A   1      42.516  27.389  31.946  1.00  0.00     0.031 C 
ATOM     47  C   UNL A   1      38.806  29.722  29.469  1.00  0.00     0.029 A 
ATOM     48  N   UNL A   1      39.362  30.521  31.481  1.00  0.00    -0.354 N 
ATOM     49  C   UNL A   1      42.495  28.703  33.823  1.00  0.00     0.074 A 
ATOM     50  C   UNL A   1      43.032  27.534  33.159  1.00  0.00     0.031 C 
ATOM     51  C   UNL A   1      38.006  30.771  29.721  1.00  0.00     0.029 A 
ATOM     52  C   UNL A   1      38.337  31.319  31.032  1.00  0.00     0.049 A 
ATOM     53  H   UNL A   1      39.794  30.642  32.359  1.00  0.00     0.167 HD
ATOM     54  C   UNL A   1      42.903  29.147  35.038  1.00  0.00     0.031 A 
ATOM     55  C   UNL A   1      37.733  32.380  31.604  1.00  0.00     0.031 A 
ATOM     56  C   UNL A   1      42.368  30.311  35.696  1.00  0.00     0.049 A 
ATOM     57  C   UNL A   1      38.207  32.858  32.946  1.00  0.00     0.074 A 
ATOM     58  C   UNL A   1      42.752  30.873  36.902  1.00  0.00     0.029 A 
ATOM     59  N   UNL A   1      41.330  31.089  35.207  1.00  0.00    -0.354 N 
ATOM     60  N   UNL A   1      39.167  32.375  33.700  1.00  0.00    -0.248 NA
ATOM     61  C   UNL A   1      37.529  34.033  33.508  1.00  0.00     0.031 C 
ATOM     62  C   UNL A   1      41.915  31.963  37.164  1.00  0.00     0.029 A 
ATOM     63  C   UNL A   1      41.044  32.112  36.097  1.00  0.00     0.049 A 
ATOM     64  H   UNL A   1      40.864  30.938  34.354  1.00  0.00     0.167 HD
ATOM     65  C   UNL A   1      39.218  33.199  34.819  1.00  0.00     0.074 A 
ATOM     66  C   UNL A   1      38.209  34.222  34.631  1.00  0.00     0.031 C 
ATOM     67  C   UNL A   1      40.025  33.113  35.905  1.00  0.00     0.031 A 
BRANCH  54  68
ATOM     68  C   UNL A   1      43.985  28.363  35.739  1.00  0.00    -0.014 A 
ATOM     69  C   UNL A   1      45.344  28.683  35.559  1.00  0.00     0.010 A 
ATOM     70  C   UNL A   1      43.640  27.322  36.618  1.00  0.00     0.010 A 
ATOM     71  C   UNL A   1      46.337  27.946  36.210  1.00  0.00     0.020 A 
ATOM     72  C   UNL A   1      44.630  26.599  37.292  1.00  0.00     0.020 A 
ATOM     73  C   UNL A   1      45.974  26.904  37.069  1.00  0.00     0.054 A 
BRANCH  73  74
ATOM     74  S   UNL A   1      47.280  25.971  37.915  1.00  0.00     0.124 S 
ATOM     75  O   UNL A   1      47.416  26.718  39.168  1.00  0.00    -0.237 OA
ATOM     76  O   UNL A   1      46.683  24.639  38.049  1.00  0.00    -0.237 OA
ATOM     77  O   UNL A   1      48.413  26.056  37.012  1.00  0.00    -0.744 OA
ENDBRANCH  73  74
ENDBRANCH  54  68
BRANCH  55  78
ATOM     78  C   UNL A   1      36.627  33.075  30.889  1.00  0.00    -0.014 A 
ATOM     79  C   UNL A   1      35.300  32.952  31.336  1.00  0.00     0.010 A 
ATOM     80  C   UNL A   1      36.902  33.887  29.773  1.00  0.00     0.010 A 
ATOM     81  C   UNL A   1      34.265  33.618  30.672  1.00  0.00     0.020 A 
ATOM     82  C   UNL A   1      35.874  34.573  29.122  1.00  0.00     0.020 A 
ATOM     83  C   UNL A   1      34.559  34.427  29.571  1.00  0.00     0.054 A 
BRANCH  83  84
ATOM     84  S   UNL A   1      33.211  35.337  28.765  1.00  0.00     0.124 S 
ATOM     85  O   UNL A   1      32.548  34.286  28.002  1.00  0.00    -0.237 OA
ATOM     86  O   UNL A   1      32.461  35.865  29.902  1.00  0.00    -0.237 OA
ATOM     87  O   UNL A   1      33.909  36.346  27.970  1.00  0.00    -0.744 OA
ENDBRANCH  83  84
ENDBRANCH  55  78
BRANCH  67  88
ATOM     88  C   UNL A   1      39.854  34.165  36.969  1.00  0.00    -0.014 A 
ATOM     89  C   UNL A   1      40.430  35.440  36.825  1.00  0.00     0.010 A 
ATOM     90  C   UNL A   1      39.088  33.882  38.113  1.00  0.00     0.010 A 
ATOM     91  C   UNL A   1      40.276  36.401  37.829  1.00  0.00     0.020 A 
ATOM     92  C   UNL A   1      38.910  34.849  39.106  1.00  0.00     0.020 A 
ATOM     93  C   UNL A   1      39.521  36.097  38.965  1.00  0.00     0.054 A 
BRANCH  93  94
ATOM     94  S   UNL A   1      39.317  37.366  40.246  1.00  0.00     0.124 S 
ATOM     95  O   UNL A   1      40.689  37.830  40.433  1.00  0.00    -0.237 OA
ATOM     96  O   UNL A   1      38.412  38.322  39.612  1.00  0.00    -0.237 OA
ATOM     97  O   UNL A   1      38.747  36.631  41.373  1.00  0.00    -0.744 OA
ENDBRANCH  93  94
ENDBRANCH  67  88
ENDBRANCH  41  42
ENDBRANCH  33  36
ENDBRANCH  31  32
ENDBRANCH  30  31
ENDBRANCH   1  30
TORSDOF 20
ENDMDL
MODEL 2
REMARK VINA RESULT:     -11.3      2.236      9.166
REMARK SMILES COc1cccc([C@@H]2C[N@@H+](Cc3nccn3C)C[C@H]2C(=O)NCCCCCCNC(=O)c2ccc(-c3c4nc(c(-c5ccc(S(=O)(=O)[O-])cc5)c5ccc([nH]5)c(-c5ccc(S(=O)(=O)[O-])cc5)c5nc(c(-c6ccc(S(=O)(=O)[O-])cc6)c6ccc3[nH]6)C=C5)C=C4)cc2)c1
REMARK SMILES IDX 26 1 25 2 24 3 23 4 22 5 20 6 21 7 19 9 8 10 9 11 10 12
REMARK SMILES IDX 18 13 7 15 3 16 4 17 92 18 5 19 6 20 2 21 1 22 11 23 12 24
REMARK SMILES IDX 13 25 16 26 14 27 15 28 17 29 27 30 28 31 29 32 30 33 31 35
REMARK SMILES IDX 32 36 33 37 91 38 34 39 90 40 35 41 36 42 37 43 84 44 38 45
REMARK SMILES IDX 89 46 83 47 85 48 39 49 88 50 82 51 81 52 40 54 70 55 51 56
REMARK SMILES IDX 69 57 52 58 55 59 68 60 86 61 53 62 54 63 67 65 87 66 56 67
REMARK SMILES IDX 41 68 42 69 50 70 43 71 49 72 44 73 45 74 46 75 47 76 48 77
REMARK SMILES IDX 71 78 72 79 80 80 73 81 79 82 74 83 75 84 76 85 77 86 78 87
REMARK SMILES IDX 57 88 58 89 66 90 59 91 65 92 60 93 61 94 62 95 63 96 64 97
REMARK H PARENT 22 8 10 14 29 34 85 53 55 64
REMARK Flexibility Score: inf
ROOT
ATOM      1  C   UNL A   1      31.672  30.699  25.980  1.00  0.00     0.002 C 
ENDROOT
BRANCH   1   2
ATOM      2  C   UNL A   1      31.613  29.460  26.877  1.00  0.00     0.002 C 
BRANCH   2   3
ATOM      3  C   UNL A   1      32.874  28.611  27.144  1.00  0.00     0.021 C 
BRANCH   3   4
ATOM      4  C   UNL A   1      32.982  27.216  26.495  1.00  0.00     0.116 C 
BRANCH   4   5
ATOM      5  N   UNL A   1      31.766  26.419  26.713  1.00  0.00    -0.356 N 
ATOM      6  C   UNL A   1      31.362  25.185  26.310  1.00  0.00     0.229 C 
ATOM      7  O   UNL A   1      31.063  24.429  27.250  1.00  0.00    -0.275 OA
ATOM      8  H   UNL A   1      31.099  26.878  27.272  1.00  0.00     0.163 HD
BRANCH   6   9
ATOM      9  C   UNL A   1      31.101  24.673  24.884  1.00  0.00     0.146 C 
ATOM     10  C   UNL A   1      31.811  25.360  23.719  1.00  0.00     0.092 C 
ATOM     11  C   UNL A   1      31.528  24.394  22.548  1.00  0.00     0.271 C 
ATOM     12  N   UNL A   1      31.422  23.044  23.126  1.00  0.00    -0.327 N 
ATOM     13  C   UNL A   1      31.172  23.185  24.570  1.00  0.00     0.277 C 
ATOM     14  H   UNL A   1      30.626  22.540  22.736  1.00  0.00     0.348 HD
BRANCH  10  15
ATOM     15  C   UNL A   1      31.296  26.755  23.407  1.00  0.00    -0.035 A 
ATOM     16  C   UNL A   1      29.436  28.301  23.049  1.00  0.00     0.119 A 
ATOM     17  C   UNL A   1      30.342  29.308  22.730  1.00  0.00     0.046 A 
ATOM     18  C   UNL A   1      29.914  27.032  23.372  1.00  0.00     0.050 A 
ATOM     19  C   UNL A   1      31.716  29.057  22.769  1.00  0.00     0.004 A 
ATOM     20  C   UNL A   1      32.191  27.788  23.106  1.00  0.00     0.004 A 
BRANCH  16  21
ATOM     21  O   UNL A   1      28.112  28.641  22.977  1.00  0.00    -0.497 OA
ATOM     22  C   UNL A   1      27.842  30.039  22.999  1.00  0.00     0.278 C 
ENDBRANCH  16  21
ENDBRANCH  10  15
BRANCH  12  23
ATOM     23  C   UNL A   1      32.537  22.163  22.732  1.00  0.00     0.339 C 
BRANCH  23  24
ATOM     24  C   UNL A   1      33.524  21.929  23.832  1.00  0.00     0.164 A 
ATOM     25  N   UNL A   1      34.432  22.806  24.230  1.00  0.00    -0.236 NA
ATOM     26  N   UNL A   1      33.510  20.844  24.671  1.00  0.00    -0.333 N 
ATOM     27  C   UNL A   1      34.870  22.369  25.442  1.00  0.00     0.131 A 
ATOM     28  C   UNL A   1      34.253  21.188  25.765  1.00  0.00     0.107 A 
ATOM     29  C   UNL A   1      32.830  19.590  24.458  1.00  0.00     0.151 C 
ENDBRANCH  23  24
ENDBRANCH  12  23
ENDBRANCH   6   9
ENDBRANCH   4   5
ENDBRANCH   3   4
ENDBRANCH   2   3
ENDBRANCH   1   2
BRANCH   1  30
ATOM     30  C   UNL A   1      31.680  32.089  26.619  1.00  0.00     0.021 C 
BRANCH  30  31
ATOM     31  C   UNL A   1      32.928  32.521  27.391  1.00  0.00     0.116 C 
BRANCH  31  32
ATOM     32  N   UNL A   1      32.848  33.891  27.862  1.00  0.00    -0.352 N 
ATOM     33  C   UNL A   1      33.508  34.554  28.866  1.00  0.00     0.251 C 
ATOM     34  H   UNL A   1      32.201  34.447  27.373  1.00  0.00     0.163 HD
ATOM     35  O   UNL A   1      33.128  35.686  29.164  1.00  0.00    -0.269 OA
BRANCH  33  36
ATOM     36  C   UNL A   1      34.643  33.954  29.609  1.00  0.00     0.039 A 
ATOM     37  C   UNL A   1      35.941  34.239  29.165  1.00  0.00     0.014 A 
ATOM     38  C   UNL A   1      34.465  33.053  30.664  1.00  0.00     0.014 A 
ATOM     39  C   UNL A   1      37.048  33.665  29.798  1.00  0.00     0.010 A 
ATOM     40  C   UNL A   1      35.575  32.521  31.332  1.00  0.00     0.010 A 
ATOM     41  C   UNL A   1      36.878  32.818  30.903  1.00  0.00    -0.014 A 
BRANCH  41  42
ATOM     42  C   UNL A   1      38.063  32.264  31.612  1.00  0.00     0.031 A 
ATOM     43  C   UNL A   1      38.498  32.814  32.945  1.00  0.00     0.074 A 
ATOM     44  C   UNL A   1      38.762  31.262  31.040  1.00  0.00     0.049 A 
ATOM     45  N   UNL A   1      39.476  32.418  33.720  1.00  0.00    -0.248 NA
ATOM     46  C   UNL A   1      37.748  33.966  33.468  1.00  0.00     0.031 C 
ATOM     47  C   UNL A   1      38.470  30.670  29.732  1.00  0.00     0.029 A 
ATOM     48  N   UNL A   1      39.852  30.559  31.486  1.00  0.00    -0.354 N 
ATOM     49  C   UNL A   1      39.466  33.272  34.816  1.00  0.00     0.074 A 
ATOM     50  C   UNL A   1      38.412  34.236  34.585  1.00  0.00     0.031 C 
ATOM     51  C   UNL A   1      39.339  29.674  29.497  1.00  0.00     0.029 A 
ATOM     52  C   UNL A   1      40.263  29.571  30.621  1.00  0.00     0.049 A 
ATOM     53  H   UNL A   1      40.300  30.743  32.344  1.00  0.00     0.167 HD
ATOM     54  C   UNL A   1      40.250  33.248  35.923  1.00  0.00     0.031 A 
ATOM     55  C   UNL A   1      41.266  28.677  30.721  1.00  0.00     0.031 A 
ATOM     56  C   UNL A   1      41.299  32.287  36.151  1.00  0.00     0.049 A 
ATOM     57  C   UNL A   1      42.117  28.664  31.960  1.00  0.00     0.074 A 
ATOM     58  C   UNL A   1      42.112  32.146  37.263  1.00  0.00     0.029 A 
ATOM     59  N   UNL A   1      41.683  31.305  35.250  1.00  0.00    -0.354 N 
ATOM     60  N   UNL A   1      42.041  29.436  33.019  1.00  0.00    -0.248 NA
ATOM     61  C   UNL A   1      43.178  27.651  32.024  1.00  0.00     0.031 C 
ATOM     62  C   UNL A   1      43.018  31.109  37.014  1.00  0.00     0.029 A 
ATOM     63  C   UNL A   1      42.736  30.570  35.769  1.00  0.00     0.049 A 
ATOM     64  H   UNL A   1      41.269  31.153  34.371  1.00  0.00     0.167 HD
ATOM     65  C   UNL A   1      43.034  28.989  33.883  1.00  0.00     0.074 A 
ATOM     66  C   UNL A   1      43.681  27.867  33.232  1.00  0.00     0.031 C 
ATOM     67  C   UNL A   1      43.381  29.467  35.103  1.00  0.00     0.031 A 
BRANCH  54  68
ATOM     68  C   UNL A   1      40.004  34.301  36.974  1.00  0.00    -0.014 A 
ATOM     69  C   UNL A   1      40.625  35.562  36.895  1.00  0.00     0.010 A 
ATOM     70  C   UNL A   1      39.113  34.044  38.031  1.00  0.00     0.010 A 
ATOM     71  C   UNL A   1      40.394  36.528  37.878  1.00  0.00     0.020 A 
ATOM     72  C   UNL A   1      38.858  35.018  39.003  1.00  0.00     0.020 A 
ATOM     73  C   UNL A   1      39.516  36.248  38.929  1.00  0.00     0.054 A 
BRANCH  73  74
ATOM     74  S   UNL A   1      39.218  37.523  40.186  1.00  0.00     0.124 S 
ATOM     75  O   UNL A   1      38.835  36.715  41.346  1.00  0.00    -0.237 OA
ATOM     76  O   UNL A   1      40.525  38.178  40.291  1.00  0.00    -0.237 OA
ATOM     77  O   UNL A   1      38.160  38.337  39.616  1.00  0.00    -0.744 OA
ENDBRANCH  73  74
ENDBRANCH  54  68
BRANCH  55  78
ATOM     78  C   UNL A   1      41.500  27.701  29.621  1.00  0.00    -0.014 A 
ATOM     79  C   UNL A   1      40.615  26.627  29.421  1.00  0.00     0.010 A 
ATOM     80  C   UNL A   1      42.595  27.859  28.752  1.00  0.00     0.010 A 
ATOM     81  C   UNL A   1      40.828  25.720  28.378  1.00  0.00     0.020 A 
ATOM     82  C   UNL A   1      42.797  26.969  27.694  1.00  0.00     0.020 A 
ATOM     83  C   UNL A   1      41.916  25.899  27.519  1.00  0.00     0.054 A 
BRANCH  83  84
ATOM     84  S   UNL A   1      42.136  24.751  26.131  1.00  0.00     0.124 S 
ATOM     85  O   UNL A   1      41.700  25.557  24.996  1.00  0.00    -0.237 OA
ATOM     86  O   UNL A   1      43.567  24.457  26.186  1.00  0.00    -0.237 OA
ATOM     87  O   UNL A   1      41.266  23.629  26.475  1.00  0.00    -0.744 OA
ENDBRANCH  83  84
ENDBRANCH  55  78
BRANCH  67  88
ATOM     88  C   UNL A   1      44.507  28.767  35.818  1.00  0.00    -0.014 A 
ATOM     89  C   UNL A   1      45.842  29.168  35.634  1.00  0.00     0.010 A 
ATOM     90  C   UNL A   1      44.221  27.712  36.702  1.00  0.00     0.010 A 
ATOM     91  C   UNL A   1      46.877  28.497  36.292  1.00  0.00     0.020 A 
ATOM     92  C   UNL A   1      45.252  27.056  37.382  1.00  0.00     0.020 A 
ATOM     93  C   UNL A   1      46.575  27.442  37.157  1.00  0.00     0.054 A 
BRANCH  93  94
ATOM     94  S   UNL A   1      47.933  26.599  38.016  1.00  0.00     0.124 S 
ATOM     95  O   UNL A   1      48.741  27.724  38.482  1.00  0.00    -0.237 OA
ATOM     96  O   UNL A   1      47.238  25.850  39.061  1.00  0.00    -0.237 OA
ATOM     97  O   UNL A   1      48.546  25.780  36.973  1.00  0.00    -0.744 OA
ENDBRANCH  93  94
ENDBRANCH  67  88
ENDBRANCH  41  42
ENDBRANCH  33  36
ENDBRANCH  31  32
ENDBRANCH  30  31
ENDBRANCH   1  30
TORSDOF 20
ENDMDL
MODEL 3
REMARK VINA RESULT:     -11.0      2.761      9.548
REMARK SMILES COc1cccc([C@@H]2C[N@@H+](Cc3nccn3C)C[C@H]2C(=O)NCCCCCCNC(=O)c2ccc(-c3c4nc(c(-c5ccc(S(=O)(=O)[O-])cc5)c5ccc([nH]5)c(-c5ccc(S(=O)(=O)[O-])cc5)c5nc(c(-c6ccc(S(=O)(=O)[O-])cc6)c6ccc3[nH]6)C=C5)C=C4)cc2)c1
REMARK SMILES IDX 26 1 25 2 24 3 23 4 22 5 20 6 21 7 19 9 8 10 9 11 10 12
REMARK SMILES IDX 18 13 7 15 3 16 4 17 92 18 5 19 6 20 2 21 1 22 11 23 12 24
REMARK SMILES IDX 13 25 16 26 14 27 15 28 17 29 27 30 28 31 29 32 30 33 31 35
REMARK SMILES IDX 32 36 33 37 91 38 34 39 90 40 35 41 36 42 37 43 84 44 38 45
REMARK SMILES IDX 89 46 83 47 85 48 39 49 88 50 82 51 81 52 40 54 70 55 51 56
REMARK SMILES IDX 69 57 52 58 55 59 68 60 86 61 53 62 54 63 67 65 87 66 56 67
REMARK SMILES IDX 41 68 42 69 50 70 43 71 49 72 44 73 45 74 46 75 47 76 48 77
REMARK SMILES IDX 71 78 72 79 80 80 73 81 79 82 74 83 75 84 76 85 77 86 78 87
REMARK SMILES IDX 57 88 58 89 66 90 59 91 65 92 60 93 61 94 62 95 63 96 64 97
REMARK H PARENT 22 8 10 14 29 34 85 53 55 64
REMARK Flexibility Score: inf
ROOT
ATOM      1  C   UNL A   1      31.700  27.990  26.634  1.00  0.00     0.002 C 
ENDROOT
BRANCH   1   2
ATOM      2  C   UNL A   1      30.991  27.551  25.350  1.00  0.00     0.002 C 
BRANCH   2   3
ATOM      3  C   UNL A   1      30.176  26.242  25.299  1.00  0.00     0.021 C 
BRANCH   3   4
ATOM      4  C   UNL A   1      30.269  25.357  24.039  1.00  0.00     0.116 C 
BRANCH   4   5
ATOM      5  N   UNL A   1      30.253  23.926  24.379  1.00  0.00    -0.356 N 
ATOM      6  C   UNL A   1      31.140  23.088  24.978  1.00  0.00     0.229 C 
ATOM      7  O   UNL A   1      30.681  22.512  25.979  1.00  0.00    -0.275 OA
ATOM      8  H   UNL A   1      29.419  23.476  24.114  1.00  0.00     0.163 HD
BRANCH   6   9
ATOM      9  C   UNL A   1      32.543  22.672  24.509  1.00  0.00     0.146 C 
ATOM     10  C   UNL A   1      33.632  23.741  24.416  1.00  0.00     0.092 C 
ATOM     11  C   UNL A   1      34.906  22.894  24.210  1.00  0.00     0.271 C 
ATOM     12  N   UNL A   1      34.682  21.612  24.900  1.00  0.00    -0.327 N 
ATOM     13  C   UNL A   1      33.233  21.455  25.110  1.00  0.00     0.277 C 
ATOM     14  H   UNL A   1      34.984  20.827  24.323  1.00  0.00     0.348 HD
BRANCH  10  15
ATOM     15  C   UNL A   1      33.445  24.727  23.276  1.00  0.00    -0.035 A 
ATOM     16  C   UNL A   1      33.487  27.018  22.421  1.00  0.00     0.119 A 
ATOM     17  C   UNL A   1      33.003  26.564  21.199  1.00  0.00     0.046 A 
ATOM     18  C   UNL A   1      33.693  26.104  23.454  1.00  0.00     0.050 A 
ATOM     19  C   UNL A   1      32.761  25.203  20.999  1.00  0.00     0.004 A 
ATOM     20  C   UNL A   1      32.981  24.288  22.031  1.00  0.00     0.004 A 
BRANCH  16  21
ATOM     21  O   UNL A   1      33.687  28.368  22.524  1.00  0.00    -0.497 OA
ATOM     22  C   UNL A   1      32.501  29.151  22.624  1.00  0.00     0.278 C 
ENDBRANCH  16  21
ENDBRANCH  10  15
BRANCH  12  23
ATOM     23  C   UNL A   1      35.543  21.442  26.084  1.00  0.00     0.339 C 
BRANCH  23  24
ATOM     24  C   UNL A   1      36.931  21.964  25.887  1.00  0.00     0.164 A 
ATOM     25  N   UNL A   1      37.333  23.182  26.213  1.00  0.00    -0.236 NA
ATOM     26  N   UNL A   1      38.001  21.200  25.495  1.00  0.00    -0.333 N 
ATOM     27  C   UNL A   1      38.693  23.142  26.213  1.00  0.00     0.131 A 
ATOM     28  C   UNL A   1      39.125  21.895  25.840  1.00  0.00     0.107 A 
ATOM     29  C   UNL A   1      37.957  19.905  24.861  1.00  0.00     0.151 C 
ENDBRANCH  23  24
ENDBRANCH  12  23
ENDBRANCH   6   9
ENDBRANCH   4   5
ENDBRANCH   3   4
ENDBRANCH   2   3
ENDBRANCH   1   2
BRANCH   1  30
ATOM     30  C   UNL A   1      33.225  27.893  26.722  1.00  0.00     0.021 C 
BRANCH  30  31
ATOM     31  C   UNL A   1      34.057  28.980  26.039  1.00  0.00     0.116 C 
BRANCH  31  32
ATOM     32  N   UNL A   1      33.768  30.308  26.545  1.00  0.00    -0.352 N 
ATOM     33  C   UNL A   1      34.336  31.048  27.551  1.00  0.00     0.251 C 
ATOM     34  H   UNL A   1      33.027  30.761  26.083  1.00  0.00     0.163 HD
ATOM     35  O   UNL A   1      33.784  32.096  27.884  1.00  0.00    -0.269 OA
BRANCH  33  36
ATOM     36  C   UNL A   1      35.572  30.625  28.255  1.00  0.00     0.039 A 
ATOM     37  C   UNL A   1      36.786  31.187  27.842  1.00  0.00     0.014 A 
ATOM     38  C   UNL A   1      35.579  29.632  29.239  1.00  0.00     0.014 A 
ATOM     39  C   UNL A   1      37.988  30.793  28.438  1.00  0.00     0.010 A 
ATOM     40  C   UNL A   1      36.776  29.277  29.874  1.00  0.00     0.010 A 
ATOM     41  C   UNL A   1      37.993  29.850  29.476  1.00  0.00    -0.014 A 
BRANCH  41  42
ATOM     42  C   UNL A   1      39.269  29.484  30.151  1.00  0.00     0.031 A 
ATOM     43  C   UNL A   1      39.715  30.190  31.404  1.00  0.00     0.074 A 
ATOM     44  C   UNL A   1      40.038  28.513  29.618  1.00  0.00     0.049 A 
ATOM     45  N   UNL A   1      40.772  29.965  32.144  1.00  0.00    -0.248 NA
ATOM     46  C   UNL A   1      38.875  31.300  31.880  1.00  0.00     0.031 C 
ATOM     47  C   UNL A   1      39.740  27.783  28.383  1.00  0.00     0.029 A 
ATOM     48  N   UNL A   1      41.221  27.967  30.048  1.00  0.00    -0.354 N 
ATOM     49  C   UNL A   1      40.730  30.906  33.166  1.00  0.00     0.074 A 
ATOM     50  C   UNL A   1      39.566  31.733  32.926  1.00  0.00     0.031 C 
ATOM     51  C   UNL A   1      40.697  26.864  28.174  1.00  0.00     0.029 A 
ATOM     52  C   UNL A   1      41.688  26.956  29.242  1.00  0.00     0.049 A 
ATOM     53  H   UNL A   1      41.693  28.271  30.858  1.00  0.00     0.167 HD
ATOM     54  C   UNL A   1      41.572  31.059  34.219  1.00  0.00     0.031 A 
ATOM     55  C   UNL A   1      42.785  26.181  29.349  1.00  0.00     0.031 A 
ATOM     56  C   UNL A   1      42.729  30.234  34.456  1.00  0.00     0.049 A 
ATOM     57  C   UNL A   1      43.700  26.364  30.527  1.00  0.00     0.074 A 
ATOM     58  C   UNL A   1      43.612  30.275  35.522  1.00  0.00     0.029 A 
ATOM     59  N   UNL A   1      43.166  29.223  33.614  1.00  0.00    -0.354 N 
ATOM     60  N   UNL A   1      43.599  27.213  31.523  1.00  0.00    -0.248 NA
ATOM     61  C   UNL A   1      44.865  25.474  30.605  1.00  0.00     0.031 C 
ATOM     62  C   UNL A   1      44.610  29.319  35.300  1.00  0.00     0.029 A 
ATOM     63  C   UNL A   1      44.320  28.648  34.123  1.00  0.00     0.049 A 
ATOM     64  H   UNL A   1      42.723  28.953  32.779  1.00  0.00     0.167 HD
ATOM     65  C   UNL A   1      44.681  26.947  32.355  1.00  0.00     0.074 A 
ATOM     66  C   UNL A   1      45.408  25.845  31.757  1.00  0.00     0.031 C 
ATOM     67  C   UNL A   1      45.042  27.563  33.508  1.00  0.00     0.031 A 
BRANCH  54  68
ATOM     68  C   UNL A   1      41.272  32.169  35.195  1.00  0.00    -0.014 A 
ATOM     69  C   UNL A   1      40.418  31.957  36.294  1.00  0.00     0.010 A 
ATOM     70  C   UNL A   1      41.882  33.426  35.038  1.00  0.00     0.010 A 
ATOM     71  C   UNL A   1      40.145  32.994  37.189  1.00  0.00     0.020 A 
ATOM     72  C   UNL A   1      41.631  34.460  35.946  1.00  0.00     0.020 A 
ATOM     73  C   UNL A   1      40.748  34.242  37.007  1.00  0.00     0.054 A 
BRANCH  73  74
ATOM     74  S   UNL A   1      40.390  35.570  38.190  1.00  0.00     0.124 S 
ATOM     75  O   UNL A   1      41.659  35.674  38.914  1.00  0.00    -0.237 OA
ATOM     76  O   UNL A   1      40.082  36.703  37.313  1.00  0.00    -0.237 OA
ATOM     77  O   UNL A   1      39.271  35.061  38.961  1.00  0.00    -0.744 OA
ENDBRANCH  73  74
ENDBRANCH  54  68
BRANCH  55  78
ATOM     78  C   UNL A   1      43.061  25.143  28.319  1.00  0.00    -0.014 A 
ATOM     79  C   UNL A   1      43.757  25.472  27.142  1.00  0.00     0.010 A 
ATOM     80  C   UNL A   1      42.652  23.812  28.523  1.00  0.00     0.010 A 
ATOM     81  C   UNL A   1      44.028  24.492  26.182  1.00  0.00     0.020 A 
ATOM     82  C   UNL A   1      42.943  22.825  27.578  1.00  0.00     0.020 A 
ATOM     83  C   UNL A   1      43.622  23.173  26.408  1.00  0.00     0.054 A 
BRANCH  83  84
ATOM     84  S   UNL A   1      44.043  21.903  25.182  1.00  0.00     0.124 S 
ATOM     85  O   UNL A   1      42.976  20.928  25.376  1.00  0.00    -0.237 OA
ATOM     86  O   UNL A   1      44.001  22.648  23.926  1.00  0.00    -0.237 OA
ATOM     87  O   UNL A   1      45.376  21.464  25.590  1.00  0.00    -0.744 OA
ENDBRANCH  83  84
ENDBRANCH  55  78
BRANCH  67  88
ATOM     88  C   UNL A   1      46.274  27.046  34.203  1.00  0.00    -0.014 A 
ATOM     89  C   UNL A   1      47.541  27.590  33.928  1.00  0.00     0.010 A 
ATOM     90  C   UNL A   1      46.157  26.024  35.160  1.00  0.00     0.010 A 
ATOM     91  C   UNL A   1      48.677  27.089  34.570  1.00  0.00     0.020 A 
ATOM     92  C   UNL A   1      47.288  25.538  35.823  1.00  0.00     0.020 A 
ATOM     93  C   UNL A   1      48.544  26.062  35.509  1.00  0.00     0.054 A 
BRANCH  93  94
ATOM     94  S   UNL A   1      50.029  25.441  36.345  1.00  0.00     0.124 S 
ATOM     95  O   UNL A   1      49.802  25.867  37.723  1.00  0.00    -0.237 OA
ATOM     96  O   UNL A   1      49.953  24.001  36.111  1.00  0.00    -0.237 OA
ATOM     97  O   UNL A   1      51.124  26.121  35.655  1.00  0.00    -0.744 OA
ENDBRANCH  93  94
ENDBRANCH  67  88
ENDBRANCH  41  42
ENDBRANCH  33  36
ENDBRANCH  31  32
ENDBRANCH  30  31
ENDBRANCH   1  30
TORSDOF 20
ENDMDL
