MODEL 1
REMARK VINA RESULT:     -10.2      0.000      0.000
REMARK SMILES Cc1c(CC(=O)N[C@H](CO)C(=O)NCCCCCCNC(=O)c2ccc(-c3c4nc(c(-c5ccc(S(=O)(=O)[O-])cc5)c5ccc([nH]5)c(-c5ccc(S(=O)(=O)[O-])cc5)c5nc(c(-c6ccc(S(=O)(=O)[O-])cc6)c6ccc3[nH]6)C=C5)C=C4)cc2)cc(-c2ccc(S(C)(=O)=O)cc2)n1-c1cccc(F)c1
REMARK SMILES IDX 15 1 14 2 13 3 11 4 12 5 8 7 7 8 5 9 6 10 4 12 3 13 1 14
REMARK SMILES IDX 2 15 95 16 83 17 84 18 96 19 97 20 102 21 98 22 100 23 99 24
REMARK SMILES IDX 101 25 85 26 86 27 94 28 87 29 93 30 88 31 89 32 90 33 91 34
REMARK SMILES IDX 92 35 9 36 10 37 16 39 17 40 18 41 19 42 20 43 21 44 22 46
REMARK SMILES IDX 23 47 24 48 82 49 25 50 81 51 26 52 27 53 28 54 75 55 29 56
REMARK SMILES IDX 80 57 74 58 76 59 30 60 79 61 73 62 72 63 31 65 61 66 42 67
REMARK SMILES IDX 60 68 43 69 46 70 59 71 77 72 44 73 45 74 58 76 78 77 47 78
REMARK SMILES IDX 32 79 33 80 41 81 34 82 40 83 35 84 36 85 37 86 38 87 39 88
REMARK SMILES IDX 62 89 63 90 71 91 64 92 70 93 65 94 66 95 67 96 68 97 69 98
REMARK SMILES IDX 48 99 49 100 57 101 50 102 56 103 51 104 52 105 53 106
REMARK SMILES IDX 54 107 55 108
REMARK H PARENT 13 6 7 11 10 38 20 45 76 64 46 75
REMARK Flexibility Score: inf
ROOT
ATOM      1  C   UNL A   1      50.314  33.850  28.245  1.00  0.00     0.021 C 
ENDROOT
BRANCH   1   2
ATOM      2  C   UNL A   1      49.970  31.821  29.234  1.00  0.00     0.116 C 
BRANCH   2   3
ATOM      3  N   UNL A   1      48.536  31.250  29.920  1.00  0.00    -0.354 N 
ATOM      4  C   UNL A   1      48.006  30.000  29.967  1.00  0.00     0.244 C 
ATOM      5  O   UNL A   1      46.994  29.784  30.631  1.00  0.00    -0.273 OA
ATOM      6  H   UNL A   1      47.990  31.941  30.361  1.00  0.00     0.163 HD
BRANCH   4   7
ATOM      7  C   UNL A   1      48.784  28.927  29.278  1.00  0.00     0.197 C 
BRANCH   7   8
ATOM      8  N   UNL A   1      48.604  29.015  27.801  1.00  0.00    -0.342 N 
ATOM      9  C   UNL A   1      47.578  29.179  26.903  1.00  0.00     0.225 C 
ATOM     10  O   UNL A   1      47.958  29.185  25.720  1.00  0.00    -0.275 OA
ATOM     11  H   UNL A   1      49.468  28.933  27.336  1.00  0.00     0.164 HD
BRANCH   9  12
ATOM     12  C   UNL A   1      46.048  29.404  27.181  1.00  0.00     0.137 C 
BRANCH  12  13
ATOM     13  C   UNL A   1      45.299  28.115  27.525  1.00  0.00    -0.017 A 
ATOM     14  C   UNL A   1      42.568  29.141  28.009  1.00  0.00     0.065 C 
ATOM     15  C   UNL A   1      43.500  28.088  27.503  1.00  0.00     0.024 A 
ATOM     16  N   UNL A   1      42.979  26.391  27.029  1.00  0.00    -0.313 N 
ATOM     17  C   UNL A   1      45.919  26.277  27.110  1.00  0.00     0.033 A 
ATOM     18  C   UNL A   1      44.459  25.297  26.725  1.00  0.00     0.053 A 
BRANCH  16  19
ATOM     19  C   UNL A   1      41.684  25.858  27.231  1.00  0.00     0.049 A 
ATOM     20  C   UNL A   1      41.080  25.237  26.132  1.00  0.00     0.027 A 
ATOM     21  C   UNL A   1      41.019  25.967  28.441  1.00  0.00     0.065 A 
ATOM     22  C   UNL A   1      39.730  24.966  26.144  1.00  0.00     0.005 A 
ATOM     23  C   UNL A   1      39.674  25.623  28.462  1.00  0.00     0.125 A 
ATOM     24  C   UNL A   1      39.013  25.222  27.304  1.00  0.00     0.039 A 
ATOM     25  F   UNL A   1      38.990  25.695  29.609  1.00  0.00    -0.207 F 
ENDBRANCH  16  19
BRANCH  18  26
ATOM     26  C   UNL A   1      44.334  23.924  26.246  1.00  0.00    -0.001 A 
ATOM     27  C   UNL A   1      43.836  22.884  27.052  1.00  0.00     0.011 A 
ATOM     28  C   UNL A   1      44.846  23.640  24.985  1.00  0.00     0.011 A 
ATOM     29  C   UNL A   1      43.938  21.556  26.632  1.00  0.00     0.021 A 
ATOM     30  C   UNL A   1      44.933  22.323  24.551  1.00  0.00     0.021 A 
ATOM     31  C   UNL A   1      44.498  21.287  25.381  1.00  0.00     0.067 A 
BRANCH  31  32
ATOM     32  S   UNL A   1      44.560  19.616  24.783  1.00  0.00     0.175 S 
ATOM     33  C   UNL A   1      43.130  18.824  25.467  1.00  0.00     0.163 C 
ATOM     34  O   UNL A   1      44.410  19.694  23.342  1.00  0.00    -0.224 OA
ATOM     35  O   UNL A   1      45.737  18.998  25.368  1.00  0.00    -0.224 OA
ENDBRANCH  31  32
ENDBRANCH  18  26
ENDBRANCH  12  13
ENDBRANCH   9  12
ENDBRANCH   7   8
BRANCH   7  36
ATOM     36  C   UNL A   1      48.546  27.567  29.994  1.00  0.00     0.191 C 
BRANCH  36  37
ATOM     37  O   UNL A   1      48.947  26.486  29.144  1.00  0.00    -0.394 OA
ATOM     38  H   UNL A   1      49.915  26.414  29.147  1.00  0.00     0.210 HD
ENDBRANCH  36  37
ENDBRANCH   7  36
ENDBRANCH   4   7
ENDBRANCH   2   3
ENDBRANCH   1   2
BRANCH   1  39
ATOM     39  C   UNL A   1      49.731  34.650  26.874  1.00  0.00     0.002 C 
BRANCH  39  40
ATOM     40  C   UNL A   1      48.266  34.325  26.528  1.00  0.00     0.002 C 
BRANCH  40  41
ATOM     41  C   UNL A   1      47.199  35.453  26.443  1.00  0.00     0.021 C 
BRANCH  41  42
ATOM     42  C   UNL A   1      45.680  35.153  26.653  1.00  0.00     0.116 C 
BRANCH  42  43
ATOM     43  N   UNL A   1      45.164  33.946  26.045  1.00  0.00    -0.352 N 
ATOM     44  C   UNL A   1      44.505  32.852  26.627  1.00  0.00     0.251 C 
ATOM     45  H   UNL A   1      45.295  33.882  25.072  1.00  0.00     0.163 HD
ATOM     46  O   UNL A   1      44.296  31.901  25.871  1.00  0.00    -0.269 OA
BRANCH  44  47
ATOM     47  C   UNL A   1      44.132  32.744  28.127  1.00  0.00     0.039 A 
ATOM     48  C   UNL A   1      42.969  33.316  28.608  1.00  0.00     0.014 A 
ATOM     49  C   UNL A   1      44.989  32.384  29.184  1.00  0.00     0.014 A 
ATOM     50  C   UNL A   1      42.582  33.262  30.039  1.00  0.00     0.010 A 
ATOM     51  C   UNL A   1      44.623  32.444  30.676  1.00  0.00     0.010 A 
ATOM     52  C   UNL A   1      43.334  32.760  31.199  1.00  0.00    -0.014 A 
BRANCH  52  53
ATOM     53  C   UNL A   1      42.756  33.155  32.865  1.00  0.00     0.031 A 
ATOM     54  C   UNL A   1      42.738  31.740  33.306  1.00  0.00     0.074 A 
ATOM     55  C   UNL A   1      42.086  34.024  33.862  1.00  0.00     0.049 A 
ATOM     56  N   UNL A   1      41.936  31.037  32.567  1.00  0.00    -0.248 NA
ATOM     57  C   UNL A   1      43.766  30.954  33.976  1.00  0.00     0.031 C 
ATOM     58  C   UNL A   1      41.366  35.326  33.692  1.00  0.00     0.029 A 
ATOM     59  N   UNL A   1      41.807  33.923  35.370  1.00  0.00    -0.354 N 
ATOM     60  C   UNL A   1      42.170  29.710  32.779  1.00  0.00     0.074 A 
ATOM     61  C   UNL A   1      43.406  29.718  33.573  1.00  0.00     0.031 C 
ATOM     62  C   UNL A   1      40.951  35.935  34.866  1.00  0.00     0.029 A 
ATOM     63  C   UNL A   1      41.271  35.178  36.102  1.00  0.00     0.049 A 
ATOM     64  H   UNL A   1      41.964  33.083  35.858  1.00  0.00     0.167 HD
ATOM     65  C   UNL A   1      40.983  29.068  32.980  1.00  0.00     0.031 A 
ATOM     66  C   UNL A   1      40.793  35.425  37.467  1.00  0.00     0.031 A 
ATOM     67  C   UNL A   1      40.563  29.313  34.346  1.00  0.00     0.049 A 
ATOM     68  C   UNL A   1      40.094  34.201  37.840  1.00  0.00     0.074 A 
ATOM     69  C   UNL A   1      41.307  29.295  35.517  1.00  0.00     0.029 A 
ATOM     70  N   UNL A   1      39.504  30.175  34.563  1.00  0.00    -0.354 N 
ATOM     71  N   UNL A   1      38.920  33.851  37.430  1.00  0.00    -0.248 NA
ATOM     72  C   UNL A   1      40.809  33.263  38.677  1.00  0.00     0.031 C 
ATOM     73  C   UNL A   1      41.029  30.542  36.098  1.00  0.00     0.029 A 
ATOM     74  C   UNL A   1      39.746  30.897  35.714  1.00  0.00     0.049 A 
ATOM     75  H   UNL A   1      38.708  30.260  33.991  1.00  0.00     0.167 HD
ATOM     76  C   UNL A   1      39.102  32.501  37.341  1.00  0.00     0.074 A 
ATOM     77  C   UNL A   1      40.148  32.172  38.308  1.00  0.00     0.031 C 
ATOM     78  C   UNL A   1      38.835  31.917  36.143  1.00  0.00     0.031 A 
BRANCH  65  79
ATOM     79  C   UNL A   1      40.089  29.226  31.746  1.00  0.00    -0.014 A 
ATOM     80  C   UNL A   1      40.237  30.374  30.959  1.00  0.00     0.010 A 
ATOM     81  C   UNL A   1      38.981  28.376  31.461  1.00  0.00     0.010 A 
ATOM     82  C   UNL A   1      39.318  30.665  29.939  1.00  0.00     0.020 A 
ATOM     83  C   UNL A   1      38.038  28.683  30.475  1.00  0.00     0.020 A 
ATOM     84  C   UNL A   1      38.224  29.823  29.705  1.00  0.00     0.054 A 
BRANCH  84  85
ATOM     85  S   UNL A   1      37.067  30.236  28.371  1.00  0.00     0.124 S 
ATOM     86  O   UNL A   1      37.759  29.743  27.182  1.00  0.00    -0.237 OA
ATOM     87  O   UNL A   1      35.879  29.479  28.757  1.00  0.00    -0.237 OA
ATOM     88  O   UNL A   1      36.945  31.689  28.442  1.00  0.00    -0.744 OA
ENDBRANCH  84  85
ENDBRANCH  65  79
BRANCH  66  89
ATOM     89  C   UNL A   1      40.566  36.409  38.834  1.00  0.00    -0.014 A 
ATOM     90  C   UNL A   1      41.671  37.150  39.470  1.00  0.00     0.010 A 
ATOM     91  C   UNL A   1      39.330  37.004  39.159  1.00  0.00     0.010 A 
ATOM     92  C   UNL A   1      41.553  38.381  40.238  1.00  0.00     0.020 A 
ATOM     93  C   UNL A   1      39.201  38.229  39.948  1.00  0.00     0.020 A 
ATOM     94  C   UNL A   1      40.302  38.939  40.447  1.00  0.00     0.054 A 
BRANCH  94  95
ATOM     95  S   UNL A   1      40.111  40.628  41.214  1.00  0.00     0.124 S 
ATOM     96  O   UNL A   1      39.239  40.390  42.360  1.00  0.00    -0.237 OA
ATOM     97  O   UNL A   1      41.483  41.006  41.545  1.00  0.00    -0.237 OA
ATOM     98  O   UNL A   1      39.510  41.422  40.141  1.00  0.00    -0.744 OA
ENDBRANCH  94  95
ENDBRANCH  66  89
BRANCH  78  99
ATOM     99  C   UNL A   1      37.663  32.437  35.345  1.00  0.00    -0.014 A 
ATOM    100  C   UNL A   1      37.314  32.033  34.036  1.00  0.00     0.010 A 
ATOM    101  C   UNL A   1      36.915  33.472  35.926  1.00  0.00     0.010 A 
ATOM    102  C   UNL A   1      36.310  32.695  33.312  1.00  0.00     0.020 A 
ATOM    103  C   UNL A   1      35.888  34.110  35.230  1.00  0.00     0.020 A 
ATOM    104  C   UNL A   1      35.617  33.746  33.912  1.00  0.00     0.054 A 
BRANCH 104 105
ATOM    105  S   UNL A   1      34.405  34.683  32.940  1.00  0.00     0.124 S 
ATOM    106  O   UNL A   1      33.182  33.910  33.145  1.00  0.00    -0.237 OA
ATOM    107  O   UNL A   1      34.427  35.996  33.576  1.00  0.00    -0.237 OA
ATOM    108  O   UNL A   1      34.939  34.633  31.581  1.00  0.00    -0.744 OA
ENDBRANCH 104 105
ENDBRANCH  78  99
ENDBRANCH  52  53
ENDBRANCH  44  47
ENDBRANCH  42  43
ENDBRANCH  41  42
ENDBRANCH  40  41
ENDBRANCH  39  40
ENDBRANCH   1  39
TORSDOF 24
ENDMDL
MODEL 2
REMARK VINA RESULT:     -10.0     10.033     16.074
REMARK SMILES Cc1c(CC(=O)N[C@H](CO)C(=O)NCCCCCCNC(=O)c2ccc(-c3c4nc(c(-c5ccc(S(=O)(=O)[O-])cc5)c5ccc([nH]5)c(-c5ccc(S(=O)(=O)[O-])cc5)c5nc(c(-c6ccc(S(=O)(=O)[O-])cc6)c6ccc3[nH]6)C=C5)C=C4)cc2)cc(-c2ccc(S(C)(=O)=O)cc2)n1-c1cccc(F)c1
REMARK SMILES IDX 15 1 14 2 13 3 11 4 12 5 8 7 7 8 5 9 6 10 4 12 3 13 1 14
REMARK SMILES IDX 2 15 95 16 83 17 84 18 96 19 97 20 102 21 98 22 100 23 99 24
REMARK SMILES IDX 101 25 85 26 86 27 94 28 87 29 93 30 88 31 89 32 90 33 91 34
REMARK SMILES IDX 92 35 9 36 10 37 16 39 17 40 18 41 19 42 20 43 21 44 22 46
REMARK SMILES IDX 23 47 24 48 82 49 25 50 81 51 26 52 27 53 28 54 75 55 29 56
REMARK SMILES IDX 80 57 74 58 76 59 30 60 79 61 73 62 72 63 31 65 61 66 42 67
REMARK SMILES IDX 60 68 43 69 46 70 59 71 77 72 44 73 45 74 58 76 78 77 47 78
REMARK SMILES IDX 32 79 33 80 41 81 34 82 40 83 35 84 36 85 37 86 38 87 39 88
REMARK SMILES IDX 62 89 63 90 71 91 64 92 70 93 65 94 66 95 67 96 68 97 69 98
REMARK SMILES IDX 48 99 49 100 57 101 50 102 56 103 51 104 52 105 53 106
REMARK SMILES IDX 54 107 55 108
REMARK H PARENT 13 6 7 11 10 38 20 45 76 64 46 75
REMARK Flexibility Score: inf
ROOT
ATOM      1  C   UNL A   1      51.384  21.158  33.243  1.00  0.00     0.021 C 
ENDROOT
BRANCH   1   2
ATOM      2  C   UNL A   1      50.002  20.292  34.841  1.00  0.00     0.116 C 
BRANCH   2   3
ATOM      3  N   UNL A   1      48.403  19.787  34.643  1.00  0.00    -0.354 N 
ATOM      4  C   UNL A   1      47.268  20.137  35.302  1.00  0.00     0.244 C 
ATOM      5  O   UNL A   1      46.176  19.731  34.909  1.00  0.00    -0.273 OA
ATOM      6  H   UNL A   1      48.269  19.124  33.926  1.00  0.00     0.163 HD
BRANCH   4   7
ATOM      7  C   UNL A   1      47.430  21.113  36.421  1.00  0.00     0.197 C 
BRANCH   7   8
ATOM      8  N   UNL A   1      46.797  20.592  37.666  1.00  0.00    -0.342 N 
ATOM      9  C   UNL A   1      47.136  19.789  38.727  1.00  0.00     0.225 C 
ATOM     10  O   UNL A   1      46.215  19.648  39.550  1.00  0.00    -0.275 OA
ATOM     11  H   UNL A   1      45.872  20.917  37.753  1.00  0.00     0.164 HD
BRANCH   9  12
ATOM     12  C   UNL A   1      48.510  19.096  39.043  1.00  0.00     0.137 C 
BRANCH  12  13
ATOM     13  C   UNL A   1      48.488  18.267  40.329  1.00  0.00    -0.017 A 
ATOM     14  C   UNL A   1      50.037  19.995  42.163  1.00  0.00     0.065 C 
ATOM     15  C   UNL A   1      48.925  19.031  41.899  1.00  0.00     0.024 A 
ATOM     16  N   UNL A   1      47.962  18.184  43.213  1.00  0.00    -0.313 N 
ATOM     17  C   UNL A   1      47.222  16.792  40.727  1.00  0.00     0.033 A 
ATOM     18  C   UNL A   1      46.869  16.855  42.491  1.00  0.00     0.053 A 
BRANCH  16  19
ATOM     19  C   UNL A   1      48.262  18.236  44.595  1.00  0.00     0.049 A 
ATOM     20  C   UNL A   1      47.733  19.314  45.314  1.00  0.00     0.027 A 
ATOM     21  C   UNL A   1      49.066  17.294  45.214  1.00  0.00     0.065 A 
ATOM     22  C   UNL A   1      48.211  19.611  46.570  1.00  0.00     0.005 A 
ATOM     23  C   UNL A   1      49.486  17.568  46.509  1.00  0.00     0.125 A 
ATOM     24  C   UNL A   1      49.143  18.759  47.143  1.00  0.00     0.039 A 
ATOM     25  F   UNL A   1      50.251  16.682  47.157  1.00  0.00    -0.207 F 
ENDBRANCH  16  19
BRANCH  18  26
ATOM     26  C   UNL A   1      45.928  16.088  43.301  1.00  0.00    -0.001 A 
ATOM     27  C   UNL A   1      46.311  14.943  44.025  1.00  0.00     0.011 A 
ATOM     28  C   UNL A   1      44.589  16.453  43.239  1.00  0.00     0.011 A 
ATOM     29  C   UNL A   1      45.344  14.120  44.604  1.00  0.00     0.021 A 
ATOM     30  C   UNL A   1      43.621  15.648  43.829  1.00  0.00     0.021 A 
ATOM     31  C   UNL A   1      43.999  14.479  44.492  1.00  0.00     0.067 A 
BRANCH  31  32
ATOM     32  S   UNL A   1      42.754  13.498  45.293  1.00  0.00     0.175 S 
ATOM     33  C   UNL A   1      43.647  12.279  46.219  1.00  0.00     0.163 C 
ATOM     34  O   UNL A   1      42.071  14.384  46.217  1.00  0.00    -0.224 OA
ATOM     35  O   UNL A   1      42.014  12.812  44.248  1.00  0.00    -0.224 OA
ENDBRANCH  31  32
ENDBRANCH  18  26
ENDBRANCH  12  13
ENDBRANCH   9  12
ENDBRANCH   7   8
BRANCH   7  36
ATOM     36  C   UNL A   1      47.071  22.543  35.925  1.00  0.00     0.191 C 
BRANCH  36  37
ATOM     37  O   UNL A   1      46.494  22.479  34.616  1.00  0.00    -0.394 OA
ATOM     38  H   UNL A   1      46.040  21.629  34.502  1.00  0.00     0.210 HD
ENDBRANCH  36  37
ENDBRANCH   7  36
ENDBRANCH   4   7
ENDBRANCH   2   3
ENDBRANCH   1   2
BRANCH   1  39
ATOM     39  C   UNL A   1      53.041  21.110  32.912  1.00  0.00     0.002 C 
BRANCH  39  40
ATOM     40  C   UNL A   1      53.871  20.331  33.950  1.00  0.00     0.002 C 
BRANCH  40  41
ATOM     41  C   UNL A   1      54.035  20.864  35.401  1.00  0.00     0.021 C 
BRANCH  41  42
ATOM     42  C   UNL A   1      53.673  22.339  35.771  1.00  0.00     0.116 C 
BRANCH  42  43
ATOM     43  N   UNL A   1      52.593  22.527  36.716  1.00  0.00    -0.352 N 
ATOM     44  C   UNL A   1      51.479  23.377  36.656  1.00  0.00     0.251 C 
ATOM     45  H   UNL A   1      52.649  21.971  37.526  1.00  0.00     0.163 HD
ATOM     46  O   UNL A   1      50.791  23.415  37.678  1.00  0.00    -0.269 OA
BRANCH  44  47
ATOM     47  C   UNL A   1      51.140  24.304  35.461  1.00  0.00     0.039 A 
ATOM     48  C   UNL A   1      50.218  23.916  34.507  1.00  0.00     0.014 A 
ATOM     49  C   UNL A   1      51.884  25.414  35.019  1.00  0.00     0.014 A 
ATOM     50  C   UNL A   1      49.880  24.756  33.333  1.00  0.00     0.010 A 
ATOM     51  C   UNL A   1      51.602  26.209  33.735  1.00  0.00     0.010 A 
ATOM     52  C   UNL A   1      50.485  26.014  32.869  1.00  0.00    -0.014 A 
BRANCH  52  53
ATOM     53  C   UNL A   1      50.106  26.617  31.209  1.00  0.00     0.031 A 
ATOM     54  C   UNL A   1      49.363  27.804  31.696  1.00  0.00     0.074 A 
ATOM     55  C   UNL A   1      49.916  26.444  29.748  1.00  0.00     0.049 A 
ATOM     56  N   UNL A   1      48.352  27.446  32.427  1.00  0.00    -0.248 NA
ATOM     57  C   UNL A   1      49.829  29.160  31.956  1.00  0.00     0.031 C 
ATOM     58  C   UNL A   1      49.951  25.209  28.902  1.00  0.00     0.029 A 
ATOM     59  N   UNL A   1      49.555  27.383  28.586  1.00  0.00    -0.354 N 
ATOM     60  C   UNL A   1      47.881  28.528  33.112  1.00  0.00     0.074 A 
ATOM     61  C   UNL A   1      48.919  29.541  32.875  1.00  0.00     0.031 C 
ATOM     62  C   UNL A   1      49.843  25.420  27.536  1.00  0.00     0.029 A 
ATOM     63  C   UNL A   1      49.686  26.842  27.141  1.00  0.00     0.049 A 
ATOM     64  H   UNL A   1      49.249  28.302  28.756  1.00  0.00     0.167 HD
ATOM     65  C   UNL A   1      46.525  28.591  32.981  1.00  0.00     0.031 A 
ATOM     66  C   UNL A   1      49.334  27.385  25.823  1.00  0.00     0.031 A 
ATOM     67  C   UNL A   1      46.222  29.158  31.682  1.00  0.00     0.049 A 
ATOM     68  C   UNL A   1      48.100  28.129  26.049  1.00  0.00     0.074 A 
ATOM     69  C   UNL A   1      46.803  30.236  31.030  1.00  0.00     0.029 A 
ATOM     70  N   UNL A   1      45.727  28.321  30.699  1.00  0.00    -0.354 N 
ATOM     71  N   UNL A   1      46.929  27.610  26.213  1.00  0.00    -0.248 NA
ATOM     72  C   UNL A   1      48.212  29.565  26.178  1.00  0.00     0.031 C 
ATOM     73  C   UNL A   1      47.159  29.706  29.779  1.00  0.00     0.029 A 
ATOM     74  C   UNL A   1      46.244  28.710  29.481  1.00  0.00     0.049 A 
ATOM     75  H   UNL A   1      45.107  27.572  30.844  1.00  0.00     0.167 HD
ATOM     76  C   UNL A   1      46.415  28.489  27.123  1.00  0.00     0.074 A 
ATOM     77  C   UNL A   1      47.112  29.754  26.897  1.00  0.00     0.031 C 
ATOM     78  C   UNL A   1      45.947  27.971  28.289  1.00  0.00     0.031 A 
BRANCH  65  79
ATOM     79  C   UNL A   1      45.886  27.321  33.554  1.00  0.00    -0.014 A 
ATOM     80  C   UNL A   1      45.008  26.595  32.743  1.00  0.00     0.010 A 
ATOM     81  C   UNL A   1      45.975  26.943  34.925  1.00  0.00     0.010 A 
ATOM     82  C   UNL A   1      44.246  25.543  33.276  1.00  0.00     0.020 A 
ATOM     83  C   UNL A   1      45.188  25.925  35.472  1.00  0.00     0.020 A 
ATOM     84  C   UNL A   1      44.337  25.216  34.635  1.00  0.00     0.054 A 
BRANCH  84  85
ATOM     85  S   UNL A   1      43.339  23.846  35.278  1.00  0.00     0.124 S 
ATOM     86  O   UNL A   1      43.429  22.854  34.207  1.00  0.00    -0.237 OA
ATOM     87  O   UNL A   1      44.052  23.502  36.504  1.00  0.00    -0.237 OA
ATOM     88  O   UNL A   1      42.010  24.425  35.456  1.00  0.00    -0.744 OA
ENDBRANCH  84  85
ENDBRANCH  65  79
BRANCH  66  89
ATOM     89  C   UNL A   1      49.566  27.558  24.148  1.00  0.00    -0.014 A 
ATOM     90  C   UNL A   1      50.903  27.717  23.546  1.00  0.00     0.010 A 
ATOM     91  C   UNL A   1      48.655  27.073  23.189  1.00  0.00     0.010 A 
ATOM     92  C   UNL A   1      51.290  27.339  22.195  1.00  0.00     0.020 A 
ATOM     93  C   UNL A   1      49.030  26.710  21.823  1.00  0.00     0.020 A 
ATOM     94  C   UNL A   1      50.343  26.799  21.339  1.00  0.00     0.054 A 
BRANCH  94  95
ATOM     95  S   UNL A   1      50.828  26.081  19.688  1.00  0.00     0.124 S 
ATOM     96  O   UNL A   1      50.598  27.178  18.753  1.00  0.00    -0.237 OA
ATOM     97  O   UNL A   1      52.229  25.711  19.879  1.00  0.00    -0.237 OA
ATOM     98  O   UNL A   1      49.921  24.943  19.533  1.00  0.00    -0.744 OA
ENDBRANCH  94  95
ENDBRANCH  66  89
BRANCH  78  99
ATOM     99  C   UNL A   1      45.229  26.643  28.239  1.00  0.00    -0.014 A 
ATOM    100  C   UNL A   1      45.818  25.379  28.469  1.00  0.00     0.010 A 
ATOM    101  C   UNL A   1      43.884  26.670  27.841  1.00  0.00     0.010 A 
ATOM    102  C   UNL A   1      45.109  24.190  28.232  1.00  0.00     0.020 A 
ATOM    103  C   UNL A   1      43.158  25.495  27.642  1.00  0.00     0.020 A 
ATOM    104  C   UNL A   1      43.785  24.260  27.799  1.00  0.00     0.054 A 
BRANCH 104 105
ATOM    105  S   UNL A   1      42.905  22.732  27.375  1.00  0.00     0.124 S 
ATOM    106  O   UNL A   1      42.712  22.114  28.685  1.00  0.00    -0.237 OA
ATOM    107  O   UNL A   1      41.691  23.226  26.733  1.00  0.00    -0.237 OA
ATOM    108  O   UNL A   1      43.838  22.028  26.497  1.00  0.00    -0.744 OA
ENDBRANCH 104 105
ENDBRANCH  78  99
ENDBRANCH  52  53
ENDBRANCH  44  47
ENDBRANCH  42  43
ENDBRANCH  41  42
ENDBRANCH  40  41
ENDBRANCH  39  40
ENDBRANCH   1  39
TORSDOF 24
ENDMDL
MODEL 3
REMARK VINA RESULT:      -9.9      5.245     12.328
REMARK SMILES Cc1c(CC(=O)N[C@H](CO)C(=O)NCCCCCCNC(=O)c2ccc(-c3c4nc(c(-c5ccc(S(=O)(=O)[O-])cc5)c5ccc([nH]5)c(-c5ccc(S(=O)(=O)[O-])cc5)c5nc(c(-c6ccc(S(=O)(=O)[O-])cc6)c6ccc3[nH]6)C=C5)C=C4)cc2)cc(-c2ccc(S(C)(=O)=O)cc2)n1-c1cccc(F)c1
REMARK SMILES IDX 15 1 14 2 13 3 11 4 12 5 8 7 7 8 5 9 6 10 4 12 3 13 1 14
REMARK SMILES IDX 2 15 95 16 83 17 84 18 96 19 97 20 102 21 98 22 100 23 99 24
REMARK SMILES IDX 101 25 85 26 86 27 94 28 87 29 93 30 88 31 89 32 90 33 91 34
REMARK SMILES IDX 92 35 9 36 10 37 16 39 17 40 18 41 19 42 20 43 21 44 22 46
REMARK SMILES IDX 23 47 24 48 82 49 25 50 81 51 26 52 27 53 28 54 75 55 29 56
REMARK SMILES IDX 80 57 74 58 76 59 30 60 79 61 73 62 72 63 31 65 61 66 42 67
REMARK SMILES IDX 60 68 43 69 46 70 59 71 77 72 44 73 45 74 58 76 78 77 47 78
REMARK SMILES IDX 32 79 33 80 41 81 34 82 40 83 35 84 36 85 37 86 38 87 39 88
REMARK SMILES IDX 62 89 63 90 71 91 64 92 70 93 65 94 66 95 67 96 68 97 69 98
REMARK SMILES IDX 48 99 49 100 57 101 50 102 56 103 51 104 52 105 53 106
REMARK SMILES IDX 54 107 55 108
REMARK H PARENT 13 6 7 11 10 38 20 45 76 64 46 75
REMARK Flexibility Score: inf
ROOT
ATOM      1  C   UNL A   1      50.526  27.501  36.137  1.00  0.00     0.021 C 
ENDROOT
BRANCH   1   2
ATOM      2  C   UNL A   1      51.941  27.388  34.350  1.00  0.00     0.116 C 
BRANCH   2   3
ATOM      3  N   UNL A   1      51.548  26.971  32.761  1.00  0.00    -0.354 N 
ATOM      4  C   UNL A   1      52.256  26.304  31.813  1.00  0.00     0.244 C 
ATOM      5  O   UNL A   1      51.725  26.000  30.747  1.00  0.00    -0.273 OA
ATOM      6  H   UNL A   1      50.653  27.261  32.472  1.00  0.00     0.163 HD
BRANCH   4   7
ATOM      7  C   UNL A   1      53.635  25.877  32.197  1.00  0.00     0.197 C 
BRANCH   7   8
ATOM      8  N   UNL A   1      53.615  25.145  33.495  1.00  0.00    -0.342 N 
ATOM      9  C   UNL A   1      53.272  23.900  33.962  1.00  0.00     0.225 C 
ATOM     10  O   UNL A   1      53.443  23.771  35.187  1.00  0.00    -0.275 OA
ATOM     11  H   UNL A   1      53.941  25.717  34.228  1.00  0.00     0.164 HD
BRANCH   9  12
ATOM     12  C   UNL A   1      52.760  22.649  33.160  1.00  0.00     0.137 C 
BRANCH  12  13
ATOM     13  C   UNL A   1      51.253  22.420  33.295  1.00  0.00    -0.017 A 
ATOM     14  C   UNL A   1      51.176  19.648  34.323  1.00  0.00     0.065 C 
ATOM     15  C   UNL A   1      50.638  21.042  34.275  1.00  0.00     0.024 A 
ATOM     16  N   UNL A   1      49.023  21.547  34.988  1.00  0.00    -0.313 N 
ATOM     17  C   UNL A   1      49.872  23.843  33.352  1.00  0.00     0.033 A 
ATOM     18  C   UNL A   1      48.581  23.287  34.477  1.00  0.00     0.053 A 
BRANCH  16  19
ATOM     19  C   UNL A   1      48.060  20.657  35.519  1.00  0.00     0.049 A 
ATOM     20  C   UNL A   1      47.089  20.176  34.633  1.00  0.00     0.027 A 
ATOM     21  C   UNL A   1      48.044  20.297  36.856  1.00  0.00     0.065 A 
ATOM     22  C   UNL A   1      45.955  19.562  35.113  1.00  0.00     0.005 A 
ATOM     23  C   UNL A   1      46.926  19.613  37.317  1.00  0.00     0.125 A 
ATOM     24  C   UNL A   1      45.851  19.336  36.478  1.00  0.00     0.039 A 
ATOM     25  F   UNL A   1      46.869  19.227  38.597  1.00  0.00    -0.207 F 
ENDBRANCH  16  19
BRANCH  18  26
ATOM     26  C   UNL A   1      47.394  23.974  34.976  1.00  0.00    -0.001 A 
ATOM     27  C   UNL A   1      46.969  23.874  36.314  1.00  0.00     0.011 A 
ATOM     28  C   UNL A   1      46.608  24.644  34.047  1.00  0.00     0.011 A 
ATOM     29  C   UNL A   1      45.718  24.364  36.694  1.00  0.00     0.021 A 
ATOM     30  C   UNL A   1      45.369  25.151  34.421  1.00  0.00     0.021 A 
ATOM     31  C   UNL A   1      44.921  24.994  35.735  1.00  0.00     0.067 A 
BRANCH  31  32
ATOM     32  S   UNL A   1      43.364  25.704  36.208  1.00  0.00     0.175 S 
ATOM     33  C   UNL A   1      43.411  27.371  35.606  1.00  0.00     0.163 C 
ATOM     34  O   UNL A   1      42.346  24.970  35.481  1.00  0.00    -0.224 OA
ATOM     35  O   UNL A   1      43.342  25.753  37.659  1.00  0.00    -0.224 OA
ENDBRANCH  31  32
ENDBRANCH  18  26
ENDBRANCH  12  13
ENDBRANCH   9  12
ENDBRANCH   7   8
BRANCH   7  36
ATOM     36  C   UNL A   1      54.622  27.064  32.008  1.00  0.00     0.191 C 
BRANCH  36  37
ATOM     37  O   UNL A   1      53.977  28.134  31.307  1.00  0.00    -0.394 OA
ATOM     38  H   UNL A   1      53.062  28.219  31.617  1.00  0.00     0.210 HD
ENDBRANCH  36  37
ENDBRANCH   7  36
ENDBRANCH   4   7
ENDBRANCH   2   3
ENDBRANCH   1   2
BRANCH   1  39
ATOM     39  C   UNL A   1      49.467  26.440  36.920  1.00  0.00     0.002 C 
BRANCH  39  40
ATOM     40  C   UNL A   1      48.216  27.117  37.512  1.00  0.00     0.002 C 
BRANCH  40  41
ATOM     41  C   UNL A   1      48.344  28.174  38.645  1.00  0.00     0.021 C 
BRANCH  41  42
ATOM     42  C   UNL A   1      47.448  29.454  38.667  1.00  0.00     0.116 C 
BRANCH  42  43
ATOM     43  N   UNL A   1      47.991  30.641  38.043  1.00  0.00    -0.352 N 
ATOM     44  C   UNL A   1      48.081  30.987  36.686  1.00  0.00     0.251 C 
ATOM     45  H   UNL A   1      48.354  31.310  38.667  1.00  0.00     0.163 HD
ATOM     46  O   UNL A   1      48.716  32.016  36.446  1.00  0.00    -0.269 OA
BRANCH  44  47
ATOM     47  C   UNL A   1      47.529  30.130  35.519  1.00  0.00     0.039 A 
ATOM     48  C   UNL A   1      48.389  29.477  34.655  1.00  0.00     0.014 A 
ATOM     49  C   UNL A   1      46.221  30.154  35.002  1.00  0.00     0.014 A 
ATOM     50  C   UNL A   1      47.910  28.666  33.510  1.00  0.00     0.010 A 
ATOM     51  C   UNL A   1      45.757  29.406  33.742  1.00  0.00     0.010 A 
ATOM     52  C   UNL A   1      46.548  28.493  32.983  1.00  0.00    -0.014 A 
BRANCH  52  53
ATOM     53  C   UNL A   1      46.319  27.735  31.359  1.00  0.00     0.031 A 
ATOM     54  C   UNL A   1      46.839  28.911  30.621  1.00  0.00     0.074 A 
ATOM     55  C   UNL A   1      45.693  26.766  30.426  1.00  0.00     0.049 A 
ATOM     56  N   UNL A   1      46.126  29.966  30.874  1.00  0.00    -0.248 NA
ATOM     57  C   UNL A   1      48.190  29.207  30.162  1.00  0.00     0.031 C 
ATOM     58  C   UNL A   1      44.597  25.771  30.648  1.00  0.00     0.029 A 
ATOM     59  N   UNL A   1      45.849  26.451  28.930  1.00  0.00    -0.354 N 
ATOM     60  C   UNL A   1      46.794  31.077  30.449  1.00  0.00     0.074 A 
ATOM     61  C   UNL A   1      48.129  30.554  30.128  1.00  0.00     0.031 C 
ATOM     62  C   UNL A   1      44.329  24.932  29.577  1.00  0.00     0.029 A 
ATOM     63  C   UNL A   1      45.163  25.178  28.375  1.00  0.00     0.049 A 
ATOM     64  H   UNL A   1      46.369  27.043  28.341  1.00  0.00     0.167 HD
ATOM     65  C   UNL A   1      45.947  31.866  29.728  1.00  0.00     0.031 A 
ATOM     66  C   UNL A   1      44.995  24.629  27.024  1.00  0.00     0.031 A 
ATOM     67  C   UNL A   1      45.832  31.305  28.396  1.00  0.00     0.049 A 
ATOM     68  C   UNL A   1      44.814  25.798  26.171  1.00  0.00     0.074 A 
ATOM     69  C   UNL A   1      46.817  30.796  27.562  1.00  0.00     0.029 A 
ATOM     70  N   UNL A   1      44.654  30.670  28.049  1.00  0.00    -0.354 N 
ATOM     71  N   UNL A   1      43.736  26.504  26.082  1.00  0.00    -0.248 NA
ATOM     72  C   UNL A   1      45.965  26.250  25.422  1.00  0.00     0.031 C 
ATOM     73  C   UNL A   1      46.333  29.522  27.227  1.00  0.00     0.029 A 
ATOM     74  C   UNL A   1      44.950  29.592  27.241  1.00  0.00     0.049 A 
ATOM     75  H   UNL A   1      43.752  30.942  28.332  1.00  0.00     0.167 HD
ATOM     76  C   UNL A   1      44.287  27.741  25.910  1.00  0.00     0.074 A 
ATOM     77  C   UNL A   1      45.592  27.518  25.291  1.00  0.00     0.031 C 
ATOM     78  C   UNL A   1      43.914  28.712  26.786  1.00  0.00     0.031 A 
BRANCH  65  79
ATOM     79  C   UNL A   1      44.765  32.297  30.602  1.00  0.00    -0.014 A 
ATOM     80  C   UNL A   1      43.512  31.725  30.356  1.00  0.00     0.010 A 
ATOM     81  C   UNL A   1      44.818  33.388  31.517  1.00  0.00     0.010 A 
ATOM     82  C   UNL A   1      42.362  32.224  30.988  1.00  0.00     0.020 A 
ATOM     83  C   UNL A   1      43.670  33.918  32.116  1.00  0.00     0.020 A 
ATOM     84  C   UNL A   1      42.445  33.316  31.860  1.00  0.00     0.054 A 
BRANCH  84  85
ATOM     85  S   UNL A   1      40.934  33.921  32.658  1.00  0.00     0.124 S 
ATOM     86  O   UNL A   1      40.665  32.889  33.658  1.00  0.00    -0.237 OA
ATOM     87  O   UNL A   1      41.370  35.207  33.194  1.00  0.00    -0.237 OA
ATOM     88  O   UNL A   1      39.958  33.983  31.574  1.00  0.00    -0.744 OA
ENDBRANCH  84  85
ENDBRANCH  65  79
BRANCH  66  89
ATOM     89  C   UNL A   1      44.835  23.343  25.925  1.00  0.00    -0.014 A 
ATOM     90  C   UNL A   1      45.996  22.711  25.271  1.00  0.00     0.010 A 
ATOM     91  C   UNL A   1      43.736  22.461  25.924  1.00  0.00     0.010 A 
ATOM     92  C   UNL A   1      46.069  21.342  24.781  1.00  0.00     0.020 A 
ATOM     93  C   UNL A   1      43.793  21.091  25.415  1.00  0.00     0.020 A 
ATOM     94  C   UNL A   1      44.960  20.518  24.888  1.00  0.00     0.054 A 
BRANCH  94  95
ATOM     95  S   UNL A   1      45.065  18.697  24.498  1.00  0.00     0.124 S 
ATOM     96  O   UNL A   1      43.889  18.135  25.156  1.00  0.00    -0.237 OA
ATOM     97  O   UNL A   1      45.034  18.663  23.037  1.00  0.00    -0.237 OA
ATOM     98  O   UNL A   1      46.345  18.297  25.083  1.00  0.00    -0.744 OA
ENDBRANCH  94  95
ENDBRANCH  66  89
BRANCH  78  99
ATOM     99  C   UNL A   1      42.478  28.734  27.253  1.00  0.00    -0.014 A 
ATOM    100  C   UNL A   1      41.352  28.996  26.440  1.00  0.00     0.010 A 
ATOM    101  C   UNL A   1      42.261  28.568  28.629  1.00  0.00     0.010 A 
ATOM    102  C   UNL A   1      40.074  29.164  26.996  1.00  0.00     0.020 A 
ATOM    103  C   UNL A   1      40.989  28.693  29.187  1.00  0.00     0.020 A 
ATOM    104  C   UNL A   1      39.907  29.030  28.374  1.00  0.00     0.054 A 
BRANCH 104 105
ATOM    105  S   UNL A   1      38.284  29.365  29.111  1.00  0.00     0.124 S 
ATOM    106  O   UNL A   1      38.425  28.786  30.446  1.00  0.00    -0.237 OA
ATOM    107  O   UNL A   1      38.205  30.822  29.069  1.00  0.00    -0.237 OA
ATOM    108  O   UNL A   1      37.354  28.660  28.233  1.00  0.00    -0.744 OA
ENDBRANCH 104 105
ENDBRANCH  78  99
ENDBRANCH  52  53
ENDBRANCH  44  47
ENDBRANCH  42  43
ENDBRANCH  41  42
ENDBRANCH  40  41
ENDBRANCH  39  40
ENDBRANCH   1  39
TORSDOF 24
ENDMDL
