MODEL 1
REMARK VINA RESULT:     -10.6      0.000      0.000
REMARK SMILES CC(C)Cc1cc2c(cc1Cl)C=C(C(=O)NCCCCCCNC(=O)c1ccc(-c3c4nc(c(-c5ccc(S(=O)(=O)[O-])cc5)c5ccc([nH]5)c(-c5ccc(S(=O)(=O)[O-])cc5)c5nc(c(-c6ccc(S(=O)(=O)[O-])cc6)c6ccc3[nH]6)C=C5)C=C4)cc1)[C@@H](C(F)(F)F)O2
REMARK SMILES IDX 20 1 19 2 18 3 17 4 16 5 14 6 15 7 13 9 5 10 6 11 10 12 7 13
REMARK SMILES IDX 9 14 11 15 8 16 91 17 12 18 86 19 4 20 2 21 1 22 3 23 87 24
REMARK SMILES IDX 88 25 89 26 90 27 21 28 22 29 23 30 24 31 25 33 26 34 27 35
REMARK SMILES IDX 85 36 28 37 84 38 29 39 30 40 31 41 78 42 32 43 83 44 77 45
REMARK SMILES IDX 79 46 33 47 82 48 76 49 75 50 34 52 64 53 45 54 63 55 46 56
REMARK SMILES IDX 49 57 62 58 80 59 47 60 48 61 61 63 81 64 50 65 35 66 36 67
REMARK SMILES IDX 44 68 37 69 43 70 38 71 39 72 40 73 41 74 42 75 65 76 66 77
REMARK SMILES IDX 74 78 67 79 73 80 68 81 69 82 70 83 71 84 72 85 51 86 52 87
REMARK SMILES IDX 60 88 53 89 59 90 54 91 55 92 56 93 57 94 58 95
REMARK H PARENT 16 8 23 32 79 51 49 62
REMARK Flexibility Score: inf
ROOT
ATOM      1  C   UNL A   1      34.832  32.534  28.388  1.00  0.00     0.002 C 
ENDROOT
BRANCH   1   2
ATOM      2  C   UNL A   1      34.382  31.075  28.238  1.00  0.00     0.002 C 
BRANCH   2   3
ATOM      3  C   UNL A   1      33.806  30.699  26.869  1.00  0.00     0.021 C 
BRANCH   3   4
ATOM      4  C   UNL A   1      32.280  30.664  26.827  1.00  0.00     0.116 C 
BRANCH   4   5
ATOM      5  N   UNL A   1      31.785  30.290  25.514  1.00  0.00    -0.352 N 
ATOM      6  C   UNL A   1      31.598  29.149  24.811  1.00  0.00     0.251 C 
ATOM      7  O   UNL A   1      31.119  29.301  23.682  1.00  0.00    -0.270 OA
ATOM      8  H   UNL A   1      31.511  31.080  24.995  1.00  0.00     0.163 HD
BRANCH   6   9
ATOM      9  C   UNL A   1      31.917  27.771  25.293  1.00  0.00     0.067 C 
ATOM     10  C   UNL A   1      34.210  23.382  26.261  1.00  0.00    -0.025 A 
ATOM     11  C   UNL A   1      32.987  23.959  26.634  1.00  0.00     0.052 A 
ATOM     12  C   UNL A   1      35.135  24.176  25.564  1.00  0.00     0.045 A 
ATOM     13  C   UNL A   1      32.672  25.260  26.255  1.00  0.00     0.128 A 
ATOM     14  C   UNL A   1      34.823  25.497  25.215  1.00  0.00     0.032 A 
ATOM     15  Cl  UNL A   1      36.680  23.575  25.076  1.00  0.00    -0.084 Cl
ATOM     16  C   UNL A   1      33.578  26.037  25.543  1.00  0.00     0.019 A 
ATOM     17  O   UNL A   1      31.447  25.720  26.637  1.00  0.00    -0.475 OA
ATOM     18  C   UNL A   1      33.204  27.394  25.162  1.00  0.00     0.025 C 
ATOM     19  C   UNL A   1      30.901  26.806  25.840  1.00  0.00     0.314 C 
BRANCH  10  20
ATOM     20  C   UNL A   1      34.418  21.915  26.574  1.00  0.00     0.040 C 
BRANCH  20  21
ATOM     21  C   UNL A   1      34.201  21.009  25.341  1.00  0.00    -0.013 C 
ATOM     22  C   UNL A   1      35.480  20.272  24.933  1.00  0.00     0.008 C 
ATOM     23  C   UNL A   1      33.084  20.002  25.619  1.00  0.00     0.008 C 
ENDBRANCH  20  21
ENDBRANCH  10  20
BRANCH  19  24
ATOM     24  C   UNL A   1      29.983  26.224  24.749  1.00  0.00     0.429 C 
ATOM     25  F   UNL A   1      29.275  25.174  25.232  1.00  0.00    -0.167 F 
ATOM     26  F   UNL A   1      29.076  27.123  24.300  1.00  0.00    -0.167 F 
ATOM     27  F   UNL A   1      30.672  25.790  23.670  1.00  0.00    -0.167 F 
ENDBRANCH  19  24
ENDBRANCH   6   9
ENDBRANCH   4   5
ENDBRANCH   3   4
ENDBRANCH   2   3
ENDBRANCH   1   2
BRANCH   1  28
ATOM     28  C   UNL A   1      33.761  33.592  28.107  1.00  0.00     0.021 C 
BRANCH  28  29
ATOM     29  C   UNL A   1      34.044  34.968  28.697  1.00  0.00     0.116 C 
BRANCH  29  30
ATOM     30  N   UNL A   1      33.068  35.355  29.701  1.00  0.00    -0.352 N 
ATOM     31  C   UNL A   1      33.070  35.112  31.053  1.00  0.00     0.251 C 
ATOM     32  H   UNL A   1      32.295  35.864  29.364  1.00  0.00     0.163 HD
ATOM     33  O   UNL A   1      32.079  35.379  31.727  1.00  0.00    -0.269 OA
BRANCH  31  34
ATOM     34  C   UNL A   1      34.258  34.499  31.687  1.00  0.00     0.039 A 
ATOM     35  C   UNL A   1      35.371  35.275  32.016  1.00  0.00     0.014 A 
ATOM     36  C   UNL A   1      34.260  33.125  31.941  1.00  0.00     0.014 A 
ATOM     37  C   UNL A   1      36.537  34.658  32.456  1.00  0.00     0.010 A 
ATOM     38  C   UNL A   1      35.408  32.517  32.458  1.00  0.00     0.010 A 
ATOM     39  C   UNL A   1      36.570  33.271  32.680  1.00  0.00    -0.014 A 
BRANCH  39  40
ATOM     40  C   UNL A   1      37.827  32.635  33.153  1.00  0.00     0.031 A 
ATOM     41  C   UNL A   1      38.653  31.782  32.229  1.00  0.00     0.074 A 
ATOM     42  C   UNL A   1      38.252  32.876  34.410  1.00  0.00     0.049 A 
ATOM     43  N   UNL A   1      39.787  31.176  32.469  1.00  0.00    -0.248 NA
ATOM     44  C   UNL A   1      38.147  31.581  30.861  1.00  0.00     0.031 C 
ATOM     45  C   UNL A   1      37.545  33.704  35.390  1.00  0.00     0.029 A 
ATOM     46  N   UNL A   1      39.387  32.476  35.070  1.00  0.00    -0.354 N 
ATOM     47  C   UNL A   1      40.124  30.514  31.295  1.00  0.00     0.074 A 
ATOM     48  C   UNL A   1      39.061  30.767  30.348  1.00  0.00     0.031 C 
ATOM     49  C   UNL A   1      38.289  33.801  36.501  1.00  0.00     0.029 A 
ATOM     50  C   UNL A   1      39.492  32.990  36.342  1.00  0.00     0.049 A 
ATOM     51  H   UNL A   1      40.060  31.879  34.672  1.00  0.00     0.167 HD
ATOM     52  C   UNL A   1      41.227  29.775  31.028  1.00  0.00     0.031 A 
ATOM     53  C   UNL A   1      40.442  32.824  37.284  1.00  0.00     0.031 A 
ATOM     54  C   UNL A   1      42.290  29.541  31.971  1.00  0.00     0.049 A 
ATOM     55  C   UNL A   1      41.634  31.963  36.979  1.00  0.00     0.074 A 
ATOM     56  C   UNL A   1      43.454  28.817  31.782  1.00  0.00     0.029 A 
ATOM     57  N   UNL A   1      42.325  30.024  33.270  1.00  0.00    -0.354 N 
ATOM     58  N   UNL A   1      41.933  31.347  35.859  1.00  0.00    -0.248 NA
ATOM     59  C   UNL A   1      42.613  31.768  38.056  1.00  0.00     0.031 C 
ATOM     60  C   UNL A   1      44.165  28.814  32.984  1.00  0.00     0.029 A 
ATOM     61  C   UNL A   1      43.478  29.592  33.902  1.00  0.00     0.049 A 
ATOM     62  H   UNL A   1      41.633  30.591  33.681  1.00  0.00     0.167 HD
ATOM     63  C   UNL A   1      43.137  30.696  36.096  1.00  0.00     0.074 A 
ATOM     64  C   UNL A   1      43.523  31.010  37.457  1.00  0.00     0.031 C 
ATOM     65  C   UNL A   1      43.851  29.905  35.259  1.00  0.00     0.031 A 
BRANCH  52  66
ATOM     66  C   UNL A   1      41.363  29.157  29.660  1.00  0.00    -0.014 A 
ATOM     67  C   UNL A   1      41.029  27.803  29.470  1.00  0.00     0.010 A 
ATOM     68  C   UNL A   1      41.941  29.875  28.598  1.00  0.00     0.010 A 
ATOM     69  C   UNL A   1      41.299  27.168  28.255  1.00  0.00     0.020 A 
ATOM     70  C   UNL A   1      42.189  29.249  27.371  1.00  0.00     0.020 A 
ATOM     71  C   UNL A   1      41.888  27.894  27.216  1.00  0.00     0.054 A 
BRANCH  71  72
ATOM     72  S   UNL A   1      42.258  27.048  25.654  1.00  0.00     0.124 S 
ATOM     73  O   UNL A   1      41.069  26.224  25.461  1.00  0.00    -0.237 OA
ATOM     74  O   UNL A   1      42.416  28.159  24.718  1.00  0.00    -0.237 OA
ATOM     75  O   UNL A   1      43.487  26.314  25.948  1.00  0.00    -0.744 OA
ENDBRANCH  71  72
ENDBRANCH  52  66
BRANCH  53  76
ATOM     76  C   UNL A   1      40.289  33.514  38.593  1.00  0.00    -0.014 A 
ATOM     77  C   UNL A   1      39.463  32.967  39.593  1.00  0.00     0.010 A 
ATOM     78  C   UNL A   1      40.884  34.769  38.811  1.00  0.00     0.010 A 
ATOM     79  C   UNL A   1      39.182  33.687  40.756  1.00  0.00     0.020 A 
ATOM     80  C   UNL A   1      40.629  35.480  39.987  1.00  0.00     0.020 A 
ATOM     81  C   UNL A   1      39.753  34.948  40.936  1.00  0.00     0.054 A 
BRANCH  81  82
ATOM     82  S   UNL A   1      39.325  35.896  42.423  1.00  0.00     0.124 S 
ATOM     83  O   UNL A   1      37.936  35.500  42.638  1.00  0.00    -0.237 OA
ATOM     84  O   UNL A   1      40.280  35.397  43.409  1.00  0.00    -0.237 OA
ATOM     85  O   UNL A   1      39.525  37.283  42.013  1.00  0.00    -0.744 OA
ENDBRANCH  81  82
ENDBRANCH  53  76
BRANCH  65  86
ATOM     86  C   UNL A   1      45.132  29.302  35.772  1.00  0.00    -0.014 A 
ATOM     87  C   UNL A   1      45.098  28.073  36.457  1.00  0.00     0.010 A 
ATOM     88  C   UNL A   1      46.341  30.014  35.698  1.00  0.00     0.010 A 
ATOM     89  C   UNL A   1      46.241  27.587  37.095  1.00  0.00     0.020 A 
ATOM     90  C   UNL A   1      47.494  29.518  36.313  1.00  0.00     0.020 A 
ATOM     91  C   UNL A   1      47.429  28.320  37.031  1.00  0.00     0.054 A 
BRANCH  91  92
ATOM     92  S   UNL A   1      48.893  27.695  37.901  1.00  0.00     0.124 S 
ATOM     93  O   UNL A   1      49.888  27.650  36.834  1.00  0.00    -0.237 OA
ATOM     94  O   UNL A   1      49.116  28.711  38.928  1.00  0.00    -0.237 OA
ATOM     95  O   UNL A   1      48.459  26.395  38.407  1.00  0.00    -0.744 OA
ENDBRANCH  91  92
ENDBRANCH  65  86
ENDBRANCH  39  40
ENDBRANCH  31  34
ENDBRANCH  29  30
ENDBRANCH  28  29
ENDBRANCH   1  28
TORSDOF 19
ENDMDL
MODEL 2
REMARK VINA RESULT:     -10.4      1.962      2.593
REMARK SMILES CC(C)Cc1cc2c(cc1Cl)C=C(C(=O)NCCCCCCNC(=O)c1ccc(-c3c4nc(c(-c5ccc(S(=O)(=O)[O-])cc5)c5ccc([nH]5)c(-c5ccc(S(=O)(=O)[O-])cc5)c5nc(c(-c6ccc(S(=O)(=O)[O-])cc6)c6ccc3[nH]6)C=C5)C=C4)cc1)[C@@H](C(F)(F)F)O2
REMARK SMILES IDX 20 1 19 2 18 3 17 4 16 5 14 6 15 7 13 9 5 10 6 11 10 12 7 13
REMARK SMILES IDX 9 14 11 15 8 16 91 17 12 18 86 19 4 20 2 21 1 22 3 23 87 24
REMARK SMILES IDX 88 25 89 26 90 27 21 28 22 29 23 30 24 31 25 33 26 34 27 35
REMARK SMILES IDX 85 36 28 37 84 38 29 39 30 40 31 41 78 42 32 43 83 44 77 45
REMARK SMILES IDX 79 46 33 47 82 48 76 49 75 50 34 52 64 53 45 54 63 55 46 56
REMARK SMILES IDX 49 57 62 58 80 59 47 60 48 61 61 63 81 64 50 65 35 66 36 67
REMARK SMILES IDX 44 68 37 69 43 70 38 71 39 72 40 73 41 74 42 75 65 76 66 77
REMARK SMILES IDX 74 78 67 79 73 80 68 81 69 82 70 83 71 84 72 85 51 86 52 87
REMARK SMILES IDX 60 88 53 89 59 90 54 91 55 92 56 93 57 94 58 95
REMARK H PARENT 16 8 23 32 79 51 49 62
REMARK Flexibility Score: inf
ROOT
ATOM      1  C   UNL A   1      34.610  30.607  27.343  1.00  0.00     0.002 C 
ENDROOT
BRANCH   1   2
ATOM      2  C   UNL A   1      33.379  29.725  27.097  1.00  0.00     0.002 C 
BRANCH   2   3
ATOM      3  C   UNL A   1      32.878  29.679  25.650  1.00  0.00     0.021 C 
BRANCH   3   4
ATOM      4  C   UNL A   1      31.393  29.998  25.497  1.00  0.00     0.116 C 
BRANCH   4   5
ATOM      5  N   UNL A   1      30.985  30.015  24.103  1.00  0.00    -0.352 N 
ATOM      6  C   UNL A   1      30.801  29.114  23.111  1.00  0.00     0.251 C 
ATOM      7  O   UNL A   1      30.420  29.589  22.035  1.00  0.00    -0.270 OA
ATOM      8  H   UNL A   1      30.791  30.930  23.797  1.00  0.00     0.163 HD
BRANCH   6   9
ATOM      9  C   UNL A   1      31.015  27.640  23.227  1.00  0.00     0.067 C 
ATOM     10  C   UNL A   1      31.160  22.877  24.885  1.00  0.00    -0.025 A 
ATOM     11  C   UNL A   1      31.481  23.510  23.675  1.00  0.00     0.052 A 
ATOM     12  C   UNL A   1      30.527  23.634  25.885  1.00  0.00     0.045 A 
ATOM     13  C   UNL A   1      31.245  24.870  23.502  1.00  0.00     0.128 A 
ATOM     14  C   UNL A   1      30.263  24.997  25.690  1.00  0.00     0.032 A 
ATOM     15  Cl  UNL A   1      30.066  22.950  27.403  1.00  0.00    -0.084 Cl
ATOM     16  C   UNL A   1      30.641  25.624  24.502  1.00  0.00     0.019 A 
ATOM     17  O   UNL A   1      31.621  25.401  22.305  1.00  0.00    -0.475 OA
ATOM     18  C   UNL A   1      30.419  27.048  24.280  1.00  0.00     0.025 C 
ATOM     19  C   UNL A   1      31.878  26.832  22.297  1.00  0.00     0.314 C 
BRANCH  10  20
ATOM     20  C   UNL A   1      31.586  21.434  25.056  1.00  0.00     0.040 C 
BRANCH  20  21
ATOM     21  C   UNL A   1      32.744  21.041  24.112  1.00  0.00    -0.013 C 
ATOM     22  C   UNL A   1      34.116  21.280  24.749  1.00  0.00     0.008 C 
ATOM     23  C   UNL A   1      32.610  19.576  23.697  1.00  0.00     0.008 C 
ENDBRANCH  20  21
ENDBRANCH  10  20
BRANCH  19  24
ATOM     24  C   UNL A   1      33.383  27.079  22.512  1.00  0.00     0.429 C 
ATOM     25  F   UNL A   1      33.770  28.225  21.902  1.00  0.00    -0.167 F 
ATOM     26  F   UNL A   1      33.703  27.214  23.821  1.00  0.00    -0.167 F 
ATOM     27  F   UNL A   1      34.148  26.077  22.022  1.00  0.00    -0.167 F 
ENDBRANCH  19  24
ENDBRANCH   6   9
ENDBRANCH   4   5
ENDBRANCH   3   4
ENDBRANCH   2   3
ENDBRANCH   1   2
BRANCH   1  28
ATOM     28  C   UNL A   1      34.324  32.086  27.614  1.00  0.00     0.021 C 
BRANCH  28  29
ATOM     29  C   UNL A   1      32.853  32.481  27.544  1.00  0.00     0.116 C 
BRANCH  29  30
ATOM     30  N   UNL A   1      32.651  33.908  27.735  1.00  0.00    -0.352 N 
ATOM     31  C   UNL A   1      33.240  34.754  28.644  1.00  0.00     0.251 C 
ATOM     32  H   UNL A   1      32.001  34.327  27.127  1.00  0.00     0.163 HD
ATOM     33  O   UNL A   1      32.830  35.905  28.766  1.00  0.00    -0.269 OA
BRANCH  31  34
ATOM     34  C   UNL A   1      34.347  34.263  29.495  1.00  0.00     0.039 A 
ATOM     35  C   UNL A   1      35.676  34.509  29.147  1.00  0.00     0.014 A 
ATOM     36  C   UNL A   1      34.045  33.536  30.649  1.00  0.00     0.014 A 
ATOM     37  C   UNL A   1      36.700  33.901  29.866  1.00  0.00     0.010 A 
ATOM     38  C   UNL A   1      35.080  32.990  31.415  1.00  0.00     0.010 A 
ATOM     39  C   UNL A   1      36.414  33.133  31.007  1.00  0.00    -0.014 A 
BRANCH  39  40
ATOM     40  C   UNL A   1      37.526  32.496  31.759  1.00  0.00     0.031 A 
ATOM     41  C   UNL A   1      38.328  31.379  31.148  1.00  0.00     0.074 A 
ATOM     42  C   UNL A   1      37.847  32.968  32.980  1.00  0.00     0.049 A 
ATOM     43  N   UNL A   1      39.347  30.731  31.653  1.00  0.00    -0.248 NA
ATOM     44  C   UNL A   1      37.943  30.928  29.800  1.00  0.00     0.031 C 
ATOM     45  C   UNL A   1      37.154  34.061  33.665  1.00  0.00     0.029 A 
ATOM     46  N   UNL A   1      38.850  32.614  33.849  1.00  0.00    -0.354 N 
ATOM     47  C   UNL A   1      39.716  29.793  30.696  1.00  0.00     0.074 A 
ATOM     48  C   UNL A   1      38.795  29.933  29.590  1.00  0.00     0.031 C 
ATOM     49  C   UNL A   1      37.788  34.329  34.817  1.00  0.00     0.029 A 
ATOM     50  C   UNL A   1      38.889  33.386  34.986  1.00  0.00     0.049 A 
ATOM     51  H   UNL A   1      39.480  31.879  33.673  1.00  0.00     0.167 HD
ATOM     52  C   UNL A   1      40.738  28.906  30.733  1.00  0.00     0.031 A 
ATOM     53  C   UNL A   1      39.709  33.340  36.055  1.00  0.00     0.031 A 
ATOM     54  C   UNL A   1      41.661  28.783  31.832  1.00  0.00     0.049 A 
ATOM     55  C   UNL A   1      40.808  32.318  36.092  1.00  0.00     0.074 A 
ATOM     56  C   UNL A   1      42.738  27.921  31.950  1.00  0.00     0.029 A 
ATOM     57  N   UNL A   1      41.624  29.539  32.994  1.00  0.00    -0.354 N 
ATOM     58  N   UNL A   1      41.139  31.440  35.175  1.00  0.00    -0.248 NA
ATOM     59  C   UNL A   1      41.639  32.272  37.302  1.00  0.00     0.031 C 
ATOM     60  C   UNL A   1      43.317  28.116  33.205  1.00  0.00     0.029 A 
ATOM     61  C   UNL A   1      42.643  29.145  33.844  1.00  0.00     0.049 A 
ATOM     62  H   UNL A   1      40.970  30.249  33.185  1.00  0.00     0.167 HD
ATOM     63  C   UNL A   1      42.221  30.741  35.695  1.00  0.00     0.074 A 
ATOM     64  C   UNL A   1      42.503  31.311  36.996  1.00  0.00     0.031 C 
ATOM     65  C   UNL A   1      42.912  29.716  35.141  1.00  0.00     0.031 A 
BRANCH  52  66
ATOM     66  C   UNL A   1      40.934  27.987  29.555  1.00  0.00    -0.014 A 
ATOM     67  C   UNL A   1      40.112  26.853  29.410  1.00  0.00     0.010 A 
ATOM     68  C   UNL A   1      42.009  28.170  28.668  1.00  0.00     0.010 A 
ATOM     69  C   UNL A   1      40.379  25.904  28.420  1.00  0.00     0.020 A 
ATOM     70  C   UNL A   1      42.264  27.235  27.659  1.00  0.00     0.020 A 
ATOM     71  C   UNL A   1      41.461  26.095  27.557  1.00  0.00     0.054 A 
BRANCH  71  72
ATOM     72  S   UNL A   1      41.811  24.840  26.296  1.00  0.00     0.124 S 
ATOM     73  O   UNL A   1      43.096  24.308  26.738  1.00  0.00    -0.237 OA
ATOM     74  O   UNL A   1      40.673  23.932  26.423  1.00  0.00    -0.237 OA
ATOM     75  O   UNL A   1      41.846  25.608  25.053  1.00  0.00    -0.744 OA
ENDBRANCH  71  72
ENDBRANCH  52  66
BRANCH  53  76
ATOM     76  C   UNL A   1      39.511  34.318  37.159  1.00  0.00    -0.014 A 
ATOM     77  C   UNL A   1      40.208  35.543  37.157  1.00  0.00     0.010 A 
ATOM     78  C   UNL A   1      38.708  33.992  38.265  1.00  0.00     0.010 A 
ATOM     79  C   UNL A   1      40.157  36.390  38.266  1.00  0.00     0.020 A 
ATOM     80  C   UNL A   1      38.631  34.852  39.364  1.00  0.00     0.020 A 
ATOM     81  C   UNL A   1      39.382  36.030  39.370  1.00  0.00     0.054 A 
BRANCH  81  82
ATOM     82  S   UNL A   1      39.381  37.113  40.826  1.00  0.00     0.124 S 
ATOM     83  O   UNL A   1      38.471  38.176  40.405  1.00  0.00    -0.237 OA
ATOM     84  O   UNL A   1      38.878  36.236  41.879  1.00  0.00    -0.237 OA
ATOM     85  O   UNL A   1      40.781  37.504  40.961  1.00  0.00    -0.744 OA
ENDBRANCH  81  82
ENDBRANCH  53  76
BRANCH  65  86
ATOM     86  C   UNL A   1      44.048  29.116  35.928  1.00  0.00    -0.014 A 
ATOM     87  C   UNL A   1      45.356  29.598  35.742  1.00  0.00     0.010 A 
ATOM     88  C   UNL A   1      43.840  27.989  36.741  1.00  0.00     0.010 A 
ATOM     89  C   UNL A   1      46.442  28.940  36.322  1.00  0.00     0.020 A 
ATOM     90  C   UNL A   1      44.922  27.343  37.345  1.00  0.00     0.020 A 
ATOM     91  C   UNL A   1      46.219  27.807  37.109  1.00  0.00     0.054 A 
BRANCH  91  92
ATOM     92  S   UNL A   1      47.645  26.939  37.820  1.00  0.00     0.124 S 
ATOM     93  O   UNL A   1      47.611  27.383  39.210  1.00  0.00    -0.237 OA
ATOM     94  O   UNL A   1      47.310  25.534  37.599  1.00  0.00    -0.237 OA
ATOM     95  O   UNL A   1      48.772  27.434  37.033  1.00  0.00    -0.744 OA
ENDBRANCH  91  92
ENDBRANCH  65  86
ENDBRANCH  39  40
ENDBRANCH  31  34
ENDBRANCH  29  30
ENDBRANCH  28  29
ENDBRANCH   1  28
TORSDOF 19
ENDMDL
MODEL 3
REMARK VINA RESULT:     -10.4      5.497     10.843
REMARK SMILES CC(C)Cc1cc2c(cc1Cl)C=C(C(=O)NCCCCCCNC(=O)c1ccc(-c3c4nc(c(-c5ccc(S(=O)(=O)[O-])cc5)c5ccc([nH]5)c(-c5ccc(S(=O)(=O)[O-])cc5)c5nc(c(-c6ccc(S(=O)(=O)[O-])cc6)c6ccc3[nH]6)C=C5)C=C4)cc1)[C@@H](C(F)(F)F)O2
REMARK SMILES IDX 20 1 19 2 18 3 17 4 16 5 14 6 15 7 13 9 5 10 6 11 10 12 7 13
REMARK SMILES IDX 9 14 11 15 8 16 91 17 12 18 86 19 4 20 2 21 1 22 3 23 87 24
REMARK SMILES IDX 88 25 89 26 90 27 21 28 22 29 23 30 24 31 25 33 26 34 27 35
REMARK SMILES IDX 85 36 28 37 84 38 29 39 30 40 31 41 78 42 32 43 83 44 77 45
REMARK SMILES IDX 79 46 33 47 82 48 76 49 75 50 34 52 64 53 45 54 63 55 46 56
REMARK SMILES IDX 49 57 62 58 80 59 47 60 48 61 61 63 81 64 50 65 35 66 36 67
REMARK SMILES IDX 44 68 37 69 43 70 38 71 39 72 40 73 41 74 42 75 65 76 66 77
REMARK SMILES IDX 74 78 67 79 73 80 68 81 69 82 70 83 71 84 72 85 51 86 52 87
REMARK SMILES IDX 60 88 53 89 59 90 54 91 55 92 56 93 57 94 58 95
REMARK H PARENT 16 8 23 32 79 51 49 62
REMARK Flexibility Score: inf
ROOT
ATOM      1  C   UNL A   1      46.013  23.264  25.420  1.00  0.00     0.002 C 
ENDROOT
BRANCH   1   2
ATOM      2  C   UNL A   1      45.394  24.086  26.559  1.00  0.00     0.002 C 
BRANCH   2   3
ATOM      3  C   UNL A   1      44.003  23.635  27.018  1.00  0.00     0.021 C 
BRANCH   3   4
ATOM      4  C   UNL A   1      43.162  24.750  27.634  1.00  0.00     0.116 C 
BRANCH   4   5
ATOM      5  N   UNL A   1      41.779  24.687  27.197  1.00  0.00    -0.352 N 
ATOM      6  C   UNL A   1      40.670  25.455  27.297  1.00  0.00     0.251 C 
ATOM      7  O   UNL A   1      39.664  25.000  26.740  1.00  0.00    -0.270 OA
ATOM      8  H   UNL A   1      41.599  23.862  26.692  1.00  0.00     0.163 HD
BRANCH   6   9
ATOM      9  C   UNL A   1      40.585  26.768  28.005  1.00  0.00     0.067 C 
ATOM     10  C   UNL A   1      39.023  30.715  30.733  1.00  0.00    -0.025 A 
ATOM     11  C   UNL A   1      40.224  30.369  30.097  1.00  0.00     0.052 A 
ATOM     12  C   UNL A   1      37.999  29.754  30.789  1.00  0.00     0.045 A 
ATOM     13  C   UNL A   1      40.367  29.134  29.474  1.00  0.00     0.128 A 
ATOM     14  C   UNL A   1      38.164  28.499  30.188  1.00  0.00     0.032 A 
ATOM     15  Cl  UNL A   1      36.488  30.064  31.568  1.00  0.00    -0.084 Cl
ATOM     16  C   UNL A   1      39.345  28.193  29.509  1.00  0.00     0.019 A 
ATOM     17  O   UNL A   1      41.560  28.904  28.855  1.00  0.00    -0.475 OA
ATOM     18  C   UNL A   1      39.535  26.912  28.837  1.00  0.00     0.025 C 
ATOM     19  C   UNL A   1      41.543  27.909  27.795  1.00  0.00     0.314 C 
BRANCH  10  20
ATOM     20  C   UNL A   1      38.885  32.130  31.252  1.00  0.00     0.040 C 
BRANCH  20  21
ATOM     21  C   UNL A   1      38.737  33.168  30.116  1.00  0.00    -0.013 C 
ATOM     22  C   UNL A   1      37.565  32.844  29.186  1.00  0.00     0.008 C 
ATOM     23  C   UNL A   1      38.566  34.569  30.703  1.00  0.00     0.008 C 
ENDBRANCH  20  21
ENDBRANCH  10  20
BRANCH  19  24
ATOM     24  C   UNL A   1      41.344  28.615  26.440  1.00  0.00     0.429 C 
ATOM     25  F   UNL A   1      40.067  29.050  26.313  1.00  0.00    -0.167 F 
ATOM     26  F   UNL A   1      42.136  29.703  26.302  1.00  0.00    -0.167 F 
ATOM     27  F   UNL A   1      41.605  27.803  25.391  1.00  0.00    -0.167 F 
ENDBRANCH  19  24
ENDBRANCH   6   9
ENDBRANCH   4   5
ENDBRANCH   3   4
ENDBRANCH   2   3
ENDBRANCH   1   2
BRANCH   1  28
ATOM     28  C   UNL A   1      46.637  24.072  24.280  1.00  0.00     0.021 C 
BRANCH  28  29
ATOM     29  C   UNL A   1      47.879  24.869  24.661  1.00  0.00     0.116 C 
BRANCH  29  30
ATOM     30  N   UNL A   1      48.034  26.073  23.861  1.00  0.00    -0.352 N 
ATOM     31  C   UNL A   1      47.558  27.340  24.099  1.00  0.00     0.251 C 
ATOM     32  H   UNL A   1      48.553  25.965  23.032  1.00  0.00     0.163 HD
ATOM     33  O   UNL A   1      47.653  28.204  23.231  1.00  0.00    -0.269 OA
BRANCH  31  34
ATOM     34  C   UNL A   1      46.906  27.650  25.390  1.00  0.00     0.039 A 
ATOM     35  C   UNL A   1      45.538  27.432  25.568  1.00  0.00     0.014 A 
ATOM     36  C   UNL A   1      47.675  28.178  26.430  1.00  0.00     0.014 A 
ATOM     37  C   UNL A   1      44.914  27.881  26.727  1.00  0.00     0.010 A 
ATOM     38  C   UNL A   1      47.056  28.557  27.625  1.00  0.00     0.010 A 
ATOM     39  C   UNL A   1      45.665  28.451  27.768  1.00  0.00    -0.014 A 
BRANCH  39  40
ATOM     40  C   UNL A   1      44.975  28.921  28.997  1.00  0.00     0.031 A 
ATOM     41  C   UNL A   1      44.867  28.033  30.207  1.00  0.00     0.074 A 
ATOM     42  C   UNL A   1      44.491  30.179  29.039  1.00  0.00     0.049 A 
ATOM     43  N   UNL A   1      44.323  28.293  31.369  1.00  0.00    -0.248 NA
ATOM     44  C   UNL A   1      45.439  26.680  30.106  1.00  0.00     0.031 C 
ATOM     45  C   UNL A   1      44.557  31.139  27.934  1.00  0.00     0.029 A 
ATOM     46  N   UNL A   1      43.879  30.877  30.049  1.00  0.00    -0.354 N 
ATOM     47  C   UNL A   1      44.476  27.140  32.129  1.00  0.00     0.074 A 
ATOM     48  C   UNL A   1      45.137  26.166  31.291  1.00  0.00     0.031 C 
ATOM     49  C   UNL A   1      44.064  32.316  28.346  1.00  0.00     0.029 A 
ATOM     50  C   UNL A   1      43.585  32.179  29.718  1.00  0.00     0.049 A 
ATOM     51  H   UNL A   1      43.670  30.483  30.926  1.00  0.00     0.167 HD
ATOM     52  C   UNL A   1      44.110  26.922  33.414  1.00  0.00     0.031 A 
ATOM     53  C   UNL A   1      42.989  33.157  30.429  1.00  0.00     0.031 A 
ATOM     54  C   UNL A   1      43.465  27.904  34.249  1.00  0.00     0.049 A 
ATOM     55  C   UNL A   1      42.551  32.876  31.838  1.00  0.00     0.074 A 
ATOM     56  C   UNL A   1      43.072  27.775  35.570  1.00  0.00     0.029 A 
ATOM     57  N   UNL A   1      43.126  29.188  33.853  1.00  0.00    -0.354 N 
ATOM     58  N   UNL A   1      42.707  31.778  32.538  1.00  0.00    -0.248 NA
ATOM     59  C   UNL A   1      41.857  33.955  32.551  1.00  0.00     0.031 C 
ATOM     60  C   UNL A   1      42.443  28.961  35.954  1.00  0.00     0.029 A 
ATOM     61  C   UNL A   1      42.504  29.854  34.895  1.00  0.00     0.049 A 
ATOM     62  H   UNL A   1      43.301  29.570  32.962  1.00  0.00     0.167 HD
ATOM     63  C   UNL A   1      42.134  32.036  33.777  1.00  0.00     0.074 A 
ATOM     64  C   UNL A   1      41.649  33.400  33.739  1.00  0.00     0.031 C 
ATOM     65  C   UNL A   1      42.019  31.211  34.846  1.00  0.00     0.031 A 
BRANCH  52  66
ATOM     66  C   UNL A   1      44.391  25.572  34.022  1.00  0.00    -0.014 A 
ATOM     67  C   UNL A   1      45.561  25.379  34.781  1.00  0.00     0.010 A 
ATOM     68  C   UNL A   1      43.571  24.467  33.736  1.00  0.00     0.010 A 
ATOM     69  C   UNL A   1      45.923  24.101  35.217  1.00  0.00     0.020 A 
ATOM     70  C   UNL A   1      43.917  23.190  34.192  1.00  0.00     0.020 A 
ATOM     71  C   UNL A   1      45.103  23.012  34.909  1.00  0.00     0.054 A 
BRANCH  71  72
ATOM     72  S   UNL A   1      45.601  21.356  35.458  1.00  0.00     0.124 S 
ATOM     73  O   UNL A   1      46.893  21.189  34.800  1.00  0.00    -0.237 OA
ATOM     74  O   UNL A   1      45.645  21.500  36.911  1.00  0.00    -0.237 OA
ATOM     75  O   UNL A   1      44.529  20.497  34.959  1.00  0.00    -0.744 OA
ENDBRANCH  71  72
ENDBRANCH  52  66
BRANCH  53  76
ATOM     76  C   UNL A   1      42.798  34.493  29.801  1.00  0.00    -0.014 A 
ATOM     77  C   UNL A   1      41.682  34.739  28.979  1.00  0.00     0.010 A 
ATOM     78  C   UNL A   1      43.779  35.491  29.938  1.00  0.00     0.010 A 
ATOM     79  C   UNL A   1      41.582  35.928  28.254  1.00  0.00     0.020 A 
ATOM     80  C   UNL A   1      43.666  36.696  29.238  1.00  0.00     0.020 A 
ATOM     81  C   UNL A   1      42.585  36.892  28.376  1.00  0.00     0.054 A 
BRANCH  81  82
ATOM     82  S   UNL A   1      42.469  38.403  27.378  1.00  0.00     0.124 S 
ATOM     83  O   UNL A   1      41.982  39.370  28.358  1.00  0.00    -0.237 OA
ATOM     84  O   UNL A   1      43.845  38.600  26.931  1.00  0.00    -0.237 OA
ATOM     85  O   UNL A   1      41.521  38.045  26.327  1.00  0.00    -0.744 OA
ENDBRANCH  81  82
ENDBRANCH  53  76
BRANCH  65  86
ATOM     86  C   UNL A   1      41.334  31.736  36.079  1.00  0.00    -0.014 A 
ATOM     87  C   UNL A   1      39.929  31.751  36.144  1.00  0.00     0.010 A 
ATOM     88  C   UNL A   1      42.076  32.340  37.109  1.00  0.00     0.010 A 
ATOM     89  C   UNL A   1      39.276  32.397  37.196  1.00  0.00     0.020 A 
ATOM     90  C   UNL A   1      41.426  32.964  38.177  1.00  0.00     0.020 A 
ATOM     91  C   UNL A   1      40.030  33.012  38.199  1.00  0.00     0.054 A 
BRANCH  91  92
ATOM     92  S   UNL A   1      39.165  33.883  39.536  1.00  0.00     0.124 S 
ATOM     93  O   UNL A   1      39.424  35.281  39.208  1.00  0.00    -0.237 OA
ATOM     94  O   UNL A   1      37.782  33.440  39.366  1.00  0.00    -0.237 OA
ATOM     95  O   UNL A   1      39.823  33.391  40.744  1.00  0.00    -0.744 OA
ENDBRANCH  91  92
ENDBRANCH  65  86
ENDBRANCH  39  40
ENDBRANCH  31  34
ENDBRANCH  29  30
ENDBRANCH  28  29
ENDBRANCH   1  28
TORSDOF 19
ENDMDL
