MODEL 1
REMARK VINA RESULT:      -9.2      0.000      0.000
REMARK SMILES C[C@@H](CCCO)Nc1ccc(C(=O)NCCCCCCNC(=O)c2ccc(-c3c4nc(c(-c5ccc(S(=O)(=O)[O-])cc5)c5ccc([nH]5)c(-c5ccc(S(=O)(=O)[O-])cc5)c5nc(c(-c6ccc(S(=O)(=O)[O-])cc6)c6ccc3[nH]6)C=C5)C=C4)cc2)o1
REMARK SMILES IDX 16 1 15 2 14 3 12 4 13 5 11 7 8 8 9 9 84 10 10 11 7 12 2 14
REMARK SMILES IDX 1 15 3 16 4 17 5 18 6 19 17 21 18 22 19 23 20 24 21 25 22 26
REMARK SMILES IDX 23 28 24 29 25 30 83 31 26 32 82 33 27 34 28 35 29 36 76 37
REMARK SMILES IDX 30 38 81 39 75 40 77 41 31 42 80 43 74 44 73 45 32 47 62 48
REMARK SMILES IDX 43 49 61 50 44 51 47 52 60 53 78 54 45 55 46 56 59 58 79 59
REMARK SMILES IDX 48 60 33 61 34 62 42 63 35 64 41 65 36 66 37 67 38 68 39 69
REMARK SMILES IDX 40 70 63 71 64 72 72 73 65 74 71 75 66 76 67 77 68 78 69 79
REMARK SMILES IDX 70 80 49 81 50 82 58 83 51 84 57 85 52 86 53 87 54 88 55 89
REMARK SMILES IDX 56 90
REMARK H PARENT 14 6 7 13 6 20 21 27 77 46 47 57
REMARK Flexibility Score: inf
ROOT
ATOM      1  C   UNL A   1      34.291  25.074  25.252  1.00  0.00     0.021 C 
ENDROOT
BRANCH   1   2
ATOM      2  C   UNL A   1      34.175  23.617  24.810  1.00  0.00     0.116 C 
BRANCH   2   3
ATOM      3  N   UNL A   1      34.188  23.529  23.367  1.00  0.00    -0.349 N 
ATOM      4  C   UNL A   1      33.256  23.876  22.422  1.00  0.00     0.287 C 
ATOM      5  O   UNL A   1      33.589  23.661  21.252  1.00  0.00    -0.266 OA
ATOM      6  H   UNL A   1      35.016  23.149  22.995  1.00  0.00     0.163 HD
BRANCH   4   7
ATOM      7  C   UNL A   1      31.993  24.496  22.778  1.00  0.00     0.194 A 
ATOM      8  C   UNL A   1      30.682  26.271  22.886  1.00  0.00     0.194 A 
ATOM      9  C   UNL A   1      30.023  25.276  23.561  1.00  0.00     0.070 A 
ATOM     10  O   UNL A   1      31.844  25.804  22.381  1.00  0.00    -0.436 OA
ATOM     11  C   UNL A   1      30.838  24.120  23.444  1.00  0.00     0.058 A 
BRANCH   8  12
ATOM     12  N   UNL A   1      30.442  27.565  22.640  1.00  0.00    -0.354 N 
ATOM     13  H   UNL A   1      30.758  27.955  21.794  1.00  0.00     0.163 HD
BRANCH  12  14
ATOM     14  C   UNL A   1      29.731  28.413  23.580  1.00  0.00     0.079 C 
ATOM     15  C   UNL A   1      30.672  29.525  24.046  1.00  0.00     0.031 C 
BRANCH  14  16
ATOM     16  C   UNL A   1      28.415  28.945  22.994  1.00  0.00     0.027 C 
BRANCH  16  17
ATOM     17  C   UNL A   1      28.508  29.887  21.785  1.00  0.00     0.030 C 
BRANCH  17  18
ATOM     18  C   UNL A   1      28.299  31.369  22.074  1.00  0.00     0.156 C 
BRANCH  18  19
ATOM     19  O   UNL A   1      29.536  32.065  22.096  1.00  0.00    -0.396 OA
ATOM     20  H   UNL A   1      29.770  32.278  23.012  1.00  0.00     0.210 HD
ENDBRANCH  18  19
ENDBRANCH  17  18
ENDBRANCH  16  17
ENDBRANCH  14  16
ENDBRANCH  12  14
ENDBRANCH   8  12
ENDBRANCH   4   7
ENDBRANCH   2   3
ENDBRANCH   1   2
BRANCH   1  21
ATOM     21  C   UNL A   1      33.092  25.540  26.088  1.00  0.00     0.002 C 
BRANCH  21  22
ATOM     22  C   UNL A   1      32.739  27.026  25.930  1.00  0.00     0.002 C 
BRANCH  22  23
ATOM     23  C   UNL A   1      33.433  27.958  26.927  1.00  0.00     0.021 C 
BRANCH  23  24
ATOM     24  C   UNL A   1      34.383  28.955  26.279  1.00  0.00     0.116 C 
BRANCH  24  25
ATOM     25  N   UNL A   1      33.986  30.327  26.559  1.00  0.00    -0.352 N 
ATOM     26  C   UNL A   1      34.420  31.160  27.561  1.00  0.00     0.251 C 
ATOM     27  H   UNL A   1      33.317  30.710  25.946  1.00  0.00     0.163 HD
ATOM     28  O   UNL A   1      33.817  32.195  27.812  1.00  0.00    -0.269 OA
BRANCH  26  29
ATOM     29  C   UNL A   1      35.617  30.780  28.339  1.00  0.00     0.039 A 
ATOM     30  C   UNL A   1      35.499  29.836  29.361  1.00  0.00     0.014 A 
ATOM     31  C   UNL A   1      36.857  31.352  28.043  1.00  0.00     0.014 A 
ATOM     32  C   UNL A   1      36.640  29.423  30.052  1.00  0.00     0.010 A 
ATOM     33  C   UNL A   1      38.001  30.882  28.676  1.00  0.00     0.010 A 
ATOM     34  C   UNL A   1      37.904  29.921  29.693  1.00  0.00    -0.014 A 
BRANCH  34  35
ATOM     35  C   UNL A   1      39.143  29.476  30.378  1.00  0.00     0.031 A 
ATOM     36  C   UNL A   1      39.613  30.202  31.609  1.00  0.00     0.074 A 
ATOM     37  C   UNL A   1      39.883  28.480  29.851  1.00  0.00     0.049 A 
ATOM     38  N   UNL A   1      40.723  30.051  32.283  1.00  0.00    -0.248 NA
ATOM     39  C   UNL A   1      38.731  31.258  32.136  1.00  0.00     0.031 C 
ATOM     40  C   UNL A   1      39.546  27.716  28.648  1.00  0.00     0.029 A 
ATOM     41  N   UNL A   1      41.084  27.950  30.255  1.00  0.00    -0.354 N 
ATOM     42  C   UNL A   1      40.684  31.004  33.294  1.00  0.00     0.074 A 
ATOM     43  C   UNL A   1      39.466  31.762  33.116  1.00  0.00     0.031 C 
ATOM     44  C   UNL A   1      40.506  26.803  28.424  1.00  0.00     0.029 A 
ATOM     45  C   UNL A   1      41.550  26.949  29.433  1.00  0.00     0.049 A 
ATOM     46  H   UNL A   1      41.565  28.255  31.057  1.00  0.00     0.167 HD
ATOM     47  C   UNL A   1      41.572  31.216  34.293  1.00  0.00     0.031 A 
ATOM     48  C   UNL A   1      42.696  26.242  29.477  1.00  0.00     0.031 A 
ATOM     49  C   UNL A   1      42.776  30.450  34.472  1.00  0.00     0.049 A 
ATOM     50  C   UNL A   1      43.683  26.516  30.581  1.00  0.00     0.074 A 
ATOM     51  C   UNL A   1      43.717  30.553  35.480  1.00  0.00     0.029 A 
ATOM     52  N   UNL A   1      43.204  29.438  33.625  1.00  0.00    -0.354 N 
ATOM     53  N   UNL A   1      43.603  27.386  31.560  1.00  0.00    -0.248 NA
ATOM     54  C   UNL A   1      44.909  25.705  30.594  1.00  0.00     0.031 C 
ATOM     55  C   UNL A   1      44.745  29.646  35.211  1.00  0.00     0.029 A 
ATOM     56  C   UNL A   1      44.408  28.925  34.075  1.00  0.00     0.049 A 
ATOM     57  H   UNL A   1      42.723  29.131  32.824  1.00  0.00     0.167 HD
ATOM     58  C   UNL A   1      44.748  27.200  32.327  1.00  0.00     0.074 A 
ATOM     59  C   UNL A   1      45.501  26.133  31.701  1.00  0.00     0.031 C 
ATOM     60  C   UNL A   1      45.137  27.851  33.450  1.00  0.00     0.031 A 
BRANCH  47  61
ATOM     61  C   UNL A   1      41.278  32.327  35.267  1.00  0.00    -0.014 A 
ATOM     62  C   UNL A   1      41.728  33.640  35.033  1.00  0.00     0.010 A 
ATOM     63  C   UNL A   1      40.502  32.065  36.411  1.00  0.00     0.010 A 
ATOM     64  C   UNL A   1      41.441  34.660  35.944  1.00  0.00     0.020 A 
ATOM     65  C   UNL A   1      40.185  33.090  37.308  1.00  0.00     0.020 A 
ATOM     66  C   UNL A   1      40.671  34.378  37.076  1.00  0.00     0.054 A 
BRANCH  66  67
ATOM     67  S   UNL A   1      40.292  35.729  38.225  1.00  0.00     0.124 S 
ATOM     68  O   UNL A   1      39.919  36.805  37.311  1.00  0.00    -0.237 OA
ATOM     69  O   UNL A   1      39.200  35.174  39.020  1.00  0.00    -0.237 OA
ATOM     70  O   UNL A   1      41.545  35.933  38.948  1.00  0.00    -0.744 OA
ENDBRANCH  66  67
ENDBRANCH  47  61
BRANCH  48  71
ATOM     71  C   UNL A   1      42.972  25.202  28.446  1.00  0.00    -0.014 A 
ATOM     72  C   UNL A   1      42.681  23.850  28.698  1.00  0.00     0.010 A 
ATOM     73  C   UNL A   1      43.528  25.561  27.203  1.00  0.00     0.010 A 
ATOM     74  C   UNL A   1      42.961  22.874  27.737  1.00  0.00     0.020 A 
ATOM     75  C   UNL A   1      43.779  24.591  26.228  1.00  0.00     0.020 A 
ATOM     76  C   UNL A   1      43.507  23.251  26.507  1.00  0.00     0.054 A 
BRANCH  76  77
ATOM     77  S   UNL A   1      43.825  21.971  25.262  1.00  0.00     0.124 S 
ATOM     78  O   UNL A   1      45.148  21.492  25.649  1.00  0.00    -0.237 OA
ATOM     79  O   UNL A   1      42.724  21.038  25.482  1.00  0.00    -0.237 OA
ATOM     80  O   UNL A   1      43.770  22.702  23.998  1.00  0.00    -0.744 OA
ENDBRANCH  76  77
ENDBRANCH  48  71
BRANCH  60  81
ATOM     81  C   UNL A   1      46.405  27.396  34.123  1.00  0.00    -0.014 A 
ATOM     82  C   UNL A   1      46.404  26.353  35.065  1.00  0.00     0.010 A 
ATOM     83  C   UNL A   1      47.631  27.968  33.733  1.00  0.00     0.010 A 
ATOM     84  C   UNL A   1      47.607  25.900  35.615  1.00  0.00     0.020 A 
ATOM     85  C   UNL A   1      48.836  27.497  34.258  1.00  0.00     0.020 A 
ATOM     86  C   UNL A   1      48.817  26.470  35.202  1.00  0.00     0.054 A 
BRANCH  86  87
ATOM     87  S   UNL A   1      50.366  25.812  35.876  1.00  0.00     0.124 S 
ATOM     88  O   UNL A   1      50.122  24.372  35.850  1.00  0.00    -0.237 OA
ATOM     89  O   UNL A   1      51.360  26.298  34.922  1.00  0.00    -0.237 OA
ATOM     90  O   UNL A   1      50.446  26.405  37.208  1.00  0.00    -0.744 OA
ENDBRANCH  86  87
ENDBRANCH  60  81
ENDBRANCH  34  35
ENDBRANCH  26  29
ENDBRANCH  24  25
ENDBRANCH  23  24
ENDBRANCH  22  23
ENDBRANCH  21  22
ENDBRANCH   1  21
TORSDOF 22
ENDMDL
MODEL 2
REMARK VINA RESULT:      -8.8      1.555      3.543
REMARK SMILES C[C@@H](CCCO)Nc1ccc(C(=O)NCCCCCCNC(=O)c2ccc(-c3c4nc(c(-c5ccc(S(=O)(=O)[O-])cc5)c5ccc([nH]5)c(-c5ccc(S(=O)(=O)[O-])cc5)c5nc(c(-c6ccc(S(=O)(=O)[O-])cc6)c6ccc3[nH]6)C=C5)C=C4)cc2)o1
REMARK SMILES IDX 16 1 15 2 14 3 12 4 13 5 11 7 8 8 9 9 84 10 10 11 7 12 2 14
REMARK SMILES IDX 1 15 3 16 4 17 5 18 6 19 17 21 18 22 19 23 20 24 21 25 22 26
REMARK SMILES IDX 23 28 24 29 25 30 83 31 26 32 82 33 27 34 28 35 29 36 76 37
REMARK SMILES IDX 30 38 81 39 75 40 77 41 31 42 80 43 74 44 73 45 32 47 62 48
REMARK SMILES IDX 43 49 61 50 44 51 47 52 60 53 78 54 45 55 46 56 59 58 79 59
REMARK SMILES IDX 48 60 33 61 34 62 42 63 35 64 41 65 36 66 37 67 38 68 39 69
REMARK SMILES IDX 40 70 63 71 64 72 72 73 65 74 71 75 66 76 67 77 68 78 69 79
REMARK SMILES IDX 70 80 49 81 50 82 58 83 51 84 57 85 52 86 53 87 54 88 55 89
REMARK SMILES IDX 56 90
REMARK H PARENT 14 6 7 13 6 20 21 27 77 46 47 57
REMARK Flexibility Score: inf
ROOT
ATOM      1  C   UNL A   1      32.706  28.774  23.768  1.00  0.00     0.021 C 
ENDROOT
BRANCH   1   2
ATOM      2  C   UNL A   1      33.683  27.617  23.569  1.00  0.00     0.116 C 
BRANCH   2   3
ATOM      3  N   UNL A   1      33.539  27.063  22.242  1.00  0.00    -0.349 N 
ATOM      4  C   UNL A   1      33.013  25.875  21.799  1.00  0.00     0.287 C 
ATOM      5  O   UNL A   1      33.048  25.710  20.576  1.00  0.00    -0.266 OA
ATOM      6  H   UNL A   1      33.880  27.644  21.524  1.00  0.00     0.163 HD
BRANCH   4   7
ATOM      7  C   UNL A   1      32.417  24.912  22.706  1.00  0.00     0.194 A 
ATOM      8  C   UNL A   1      32.607  23.233  24.128  1.00  0.00     0.194 A 
ATOM      9  C   UNL A   1      31.262  23.405  23.929  1.00  0.00     0.070 A 
ATOM     10  O   UNL A   1      33.306  24.154  23.430  1.00  0.00    -0.436 OA
ATOM     11  C   UNL A   1      31.136  24.520  23.060  1.00  0.00     0.058 A 
BRANCH   8  12
ATOM     12  N   UNL A   1      33.356  22.369  24.826  1.00  0.00    -0.354 N 
ATOM     13  H   UNL A   1      33.737  22.658  25.686  1.00  0.00     0.163 HD
BRANCH  12  14
ATOM     14  C   UNL A   1      33.625  21.022  24.357  1.00  0.00     0.079 C 
ATOM     15  C   UNL A   1      34.992  20.583  24.882  1.00  0.00     0.031 C 
BRANCH  14  16
ATOM     16  C   UNL A   1      32.497  20.047  24.729  1.00  0.00     0.027 C 
BRANCH  16  17
ATOM     17  C   UNL A   1      32.880  18.796  25.532  1.00  0.00     0.030 C 
BRANCH  17  18
ATOM     18  C   UNL A   1      32.422  17.463  24.951  1.00  0.00     0.156 C 
BRANCH  18  19
ATOM     19  O   UNL A   1      32.050  17.600  23.588  1.00  0.00    -0.396 OA
ATOM     20  H   UNL A   1      32.603  18.278  23.169  1.00  0.00     0.210 HD
ENDBRANCH  18  19
ENDBRANCH  17  18
ENDBRANCH  16  17
ENDBRANCH  14  16
ENDBRANCH  12  14
ENDBRANCH   8  12
ENDBRANCH   4   7
ENDBRANCH   2   3
ENDBRANCH   1   2
BRANCH   1  21
ATOM     21  C   UNL A   1      31.580  28.440  24.754  1.00  0.00     0.002 C 
BRANCH  21  22
ATOM     22  C   UNL A   1      31.784  28.990  26.173  1.00  0.00     0.002 C 
BRANCH  22  23
ATOM     23  C   UNL A   1      32.867  28.277  26.985  1.00  0.00     0.021 C 
BRANCH  23  24
ATOM     24  C   UNL A   1      34.218  28.979  26.962  1.00  0.00     0.116 C 
BRANCH  24  25
ATOM     25  N   UNL A   1      34.065  30.426  26.983  1.00  0.00    -0.352 N 
ATOM     26  C   UNL A   1      34.711  31.348  27.771  1.00  0.00     0.251 C 
ATOM     27  H   UNL A   1      33.411  30.795  26.346  1.00  0.00     0.163 HD
ATOM     28  O   UNL A   1      34.302  32.499  27.842  1.00  0.00    -0.269 OA
BRANCH  26  29
ATOM     29  C   UNL A   1      35.900  30.924  28.539  1.00  0.00     0.039 A 
ATOM     30  C   UNL A   1      35.797  29.846  29.420  1.00  0.00     0.014 A 
ATOM     31  C   UNL A   1      37.118  31.590  28.371  1.00  0.00     0.014 A 
ATOM     32  C   UNL A   1      36.936  29.399  30.095  1.00  0.00     0.010 A 
ATOM     33  C   UNL A   1      38.263  31.093  28.982  1.00  0.00     0.010 A 
ATOM     34  C   UNL A   1      38.182  30.000  29.858  1.00  0.00    -0.014 A 
BRANCH  34  35
ATOM     35  C   UNL A   1      39.420  29.527  30.527  1.00  0.00     0.031 A 
ATOM     36  C   UNL A   1      39.915  30.234  31.759  1.00  0.00     0.074 A 
ATOM     37  C   UNL A   1      40.136  28.522  29.984  1.00  0.00     0.049 A 
ATOM     38  N   UNL A   1      41.028  30.056  32.421  1.00  0.00    -0.248 NA
ATOM     39  C   UNL A   1      39.057  31.301  32.303  1.00  0.00     0.031 C 
ATOM     40  C   UNL A   1      39.773  27.774  28.778  1.00  0.00     0.029 A 
ATOM     41  N   UNL A   1      41.330  27.966  30.372  1.00  0.00    -0.354 N 
ATOM     42  C   UNL A   1      41.016  31.001  33.441  1.00  0.00     0.074 A 
ATOM     43  C   UNL A   1      39.810  31.783  33.280  1.00  0.00     0.031 C 
ATOM     44  C   UNL A   1      40.714  26.846  28.537  1.00  0.00     0.029 A 
ATOM     45  C   UNL A   1      41.770  26.964  29.537  1.00  0.00     0.049 A 
ATOM     46  H   UNL A   1      41.825  28.256  31.172  1.00  0.00     0.167 HD
ATOM     47  C   UNL A   1      41.917  31.189  34.433  1.00  0.00     0.031 A 
ATOM     48  C   UNL A   1      42.903  26.236  29.564  1.00  0.00     0.031 A 
ATOM     49  C   UNL A   1      43.109  30.398  34.593  1.00  0.00     0.049 A 
ATOM     50  C   UNL A   1      43.905  26.482  30.661  1.00  0.00     0.074 A 
ATOM     51  C   UNL A   1      44.062  30.476  35.593  1.00  0.00     0.029 A 
ATOM     52  N   UNL A   1      43.510  29.387  33.734  1.00  0.00    -0.354 N 
ATOM     53  N   UNL A   1      43.851  27.345  31.648  1.00  0.00    -0.248 NA
ATOM     54  C   UNL A   1      45.117  25.649  30.655  1.00  0.00     0.031 C 
ATOM     55  C   UNL A   1      45.070  29.552  35.306  1.00  0.00     0.029 A 
ATOM     56  C   UNL A   1      44.708  28.847  34.167  1.00  0.00     0.049 A 
ATOM     57  H   UNL A   1      43.016  29.095  32.935  1.00  0.00     0.167 HD
ATOM     58  C   UNL A   1      45.000  27.131  32.402  1.00  0.00     0.074 A 
ATOM     59  C   UNL A   1      45.727  26.056  31.760  1.00  0.00     0.031 C 
ATOM     60  C   UNL A   1      45.412  27.765  33.527  1.00  0.00     0.031 A 
BRANCH  47  61
ATOM     61  C   UNL A   1      41.654  32.297  35.419  1.00  0.00    -0.014 A 
ATOM     62  C   UNL A   1      42.093  33.610  35.174  1.00  0.00     0.010 A 
ATOM     63  C   UNL A   1      40.915  32.030  36.586  1.00  0.00     0.010 A 
ATOM     64  C   UNL A   1      41.835  34.627  36.096  1.00  0.00     0.020 A 
ATOM     65  C   UNL A   1      40.626  33.052  37.496  1.00  0.00     0.020 A 
ATOM     66  C   UNL A   1      41.102  34.341  37.252  1.00  0.00     0.054 A 
BRANCH  66  67
ATOM     67  S   UNL A   1      40.759  35.688  38.416  1.00  0.00     0.124 S 
ATOM     68  O   UNL A   1      42.055  35.863  39.065  1.00  0.00    -0.237 OA
ATOM     69  O   UNL A   1      40.348  36.776  37.533  1.00  0.00    -0.237 OA
ATOM     70  O   UNL A   1      39.703  35.150  39.270  1.00  0.00    -0.744 OA
ENDBRANCH  66  67
ENDBRANCH  47  61
BRANCH  48  71
ATOM     71  C   UNL A   1      43.151  25.200  28.522  1.00  0.00    -0.014 A 
ATOM     72  C   UNL A   1      43.833  25.526  27.337  1.00  0.00     0.010 A 
ATOM     73  C   UNL A   1      42.705  23.878  28.712  1.00  0.00     0.010 A 
ATOM     74  C   UNL A   1      44.045  24.557  26.352  1.00  0.00     0.020 A 
ATOM     75  C   UNL A   1      42.944  22.899  27.742  1.00  0.00     0.020 A 
ATOM     76  C   UNL A   1      43.601  23.249  26.561  1.00  0.00     0.054 A 
BRANCH  76  77
ATOM     77  S   UNL A   1      43.922  22.001  25.285  1.00  0.00     0.124 S 
ATOM     78  O   UNL A   1      45.294  21.603  25.587  1.00  0.00    -0.237 OA
ATOM     79  O   UNL A   1      42.897  20.998  25.561  1.00  0.00    -0.237 OA
ATOM     80  O   UNL A   1      43.744  22.736  24.035  1.00  0.00    -0.744 OA
ENDBRANCH  76  77
ENDBRANCH  48  71
BRANCH  60  81
ATOM     81  C   UNL A   1      46.678  27.281  34.184  1.00  0.00    -0.014 A 
ATOM     82  C   UNL A   1      46.665  26.236  35.123  1.00  0.00     0.010 A 
ATOM     83  C   UNL A   1      47.911  27.828  33.781  1.00  0.00     0.010 A 
ATOM     84  C   UNL A   1      47.865  25.755  35.657  1.00  0.00     0.020 A 
ATOM     85  C   UNL A   1      49.111  27.330  34.290  1.00  0.00     0.020 A 
ATOM     86  C   UNL A   1      49.081  26.301  35.232  1.00  0.00     0.054 A 
BRANCH  86  87
ATOM     87  S   UNL A   1      50.624  25.607  35.885  1.00  0.00     0.124 S 
ATOM     88  O   UNL A   1      50.310  24.183  35.959  1.00  0.00    -0.237 OA
ATOM     89  O   UNL A   1      51.599  25.985  34.866  1.00  0.00    -0.237 OA
ATOM     90  O   UNL A   1      50.787  26.275  37.174  1.00  0.00    -0.744 OA
ENDBRANCH  86  87
ENDBRANCH  60  81
ENDBRANCH  34  35
ENDBRANCH  26  29
ENDBRANCH  24  25
ENDBRANCH  23  24
ENDBRANCH  22  23
ENDBRANCH  21  22
ENDBRANCH   1  21
TORSDOF 22
ENDMDL
MODEL 3
REMARK VINA RESULT:      -8.6      2.498      3.614
REMARK SMILES C[C@@H](CCCO)Nc1ccc(C(=O)NCCCCCCNC(=O)c2ccc(-c3c4nc(c(-c5ccc(S(=O)(=O)[O-])cc5)c5ccc([nH]5)c(-c5ccc(S(=O)(=O)[O-])cc5)c5nc(c(-c6ccc(S(=O)(=O)[O-])cc6)c6ccc3[nH]6)C=C5)C=C4)cc2)o1
REMARK SMILES IDX 16 1 15 2 14 3 12 4 13 5 11 7 8 8 9 9 84 10 10 11 7 12 2 14
REMARK SMILES IDX 1 15 3 16 4 17 5 18 6 19 17 21 18 22 19 23 20 24 21 25 22 26
REMARK SMILES IDX 23 28 24 29 25 30 83 31 26 32 82 33 27 34 28 35 29 36 76 37
REMARK SMILES IDX 30 38 81 39 75 40 77 41 31 42 80 43 74 44 73 45 32 47 62 48
REMARK SMILES IDX 43 49 61 50 44 51 47 52 60 53 78 54 45 55 46 56 59 58 79 59
REMARK SMILES IDX 48 60 33 61 34 62 42 63 35 64 41 65 36 66 37 67 38 68 39 69
REMARK SMILES IDX 40 70 63 71 64 72 72 73 65 74 71 75 66 76 67 77 68 78 69 79
REMARK SMILES IDX 70 80 49 81 50 82 58 83 51 84 57 85 52 86 53 87 54 88 55 89
REMARK SMILES IDX 56 90
REMARK H PARENT 14 6 7 13 6 20 21 27 77 46 47 57
REMARK Flexibility Score: inf
ROOT
ATOM      1  C   UNL A   1      32.500  28.190  27.154  1.00  0.00     0.021 C 
ENDROOT
BRANCH   1   2
ATOM      2  C   UNL A   1      32.132  27.111  26.138  1.00  0.00     0.116 C 
BRANCH   2   3
ATOM      3  N   UNL A   1      31.566  25.963  26.809  1.00  0.00    -0.349 N 
ATOM      4  C   UNL A   1      31.570  24.627  26.497  1.00  0.00     0.287 C 
ATOM      5  O   UNL A   1      30.979  23.898  27.300  1.00  0.00    -0.266 OA
ATOM      6  H   UNL A   1      31.091  26.179  27.643  1.00  0.00     0.163 HD
BRANCH   4   7
ATOM      7  C   UNL A   1      32.263  24.111  25.330  1.00  0.00     0.194 A 
ATOM      8  C   UNL A   1      32.541  24.016  23.141  1.00  0.00     0.194 A 
ATOM      9  C   UNL A   1      33.367  23.056  23.666  1.00  0.00     0.070 A 
ATOM     10  O   UNL A   1      31.904  24.679  24.131  1.00  0.00    -0.436 OA
ATOM     11  C   UNL A   1      33.232  23.155  25.076  1.00  0.00     0.058 A 
BRANCH   8  12
ATOM     12  N   UNL A   1      32.224  24.416  21.903  1.00  0.00    -0.354 N 
ATOM     13  H   UNL A   1      31.501  23.952  21.423  1.00  0.00     0.163 HD
BRANCH  12  14
ATOM     14  C   UNL A   1      32.913  25.510  21.243  1.00  0.00     0.079 C 
ATOM     15  C   UNL A   1      32.451  25.574  19.787  1.00  0.00     0.031 C 
BRANCH  14  16
ATOM     16  C   UNL A   1      32.732  26.839  21.991  1.00  0.00     0.027 C 
BRANCH  16  17
ATOM     17  C   UNL A   1      31.297  27.340  22.203  1.00  0.00     0.030 C 
BRANCH  17  18
ATOM     18  C   UNL A   1      31.157  28.771  22.712  1.00  0.00     0.156 C 
BRANCH  18  19
ATOM     19  O   UNL A   1      31.174  29.699  21.638  1.00  0.00    -0.396 OA
ATOM     20  H   UNL A   1      32.068  30.065  21.542  1.00  0.00     0.210 HD
ENDBRANCH  18  19
ENDBRANCH  17  18
ENDBRANCH  16  17
ENDBRANCH  14  16
ENDBRANCH  12  14
ENDBRANCH   8  12
ENDBRANCH   4   7
ENDBRANCH   2   3
ENDBRANCH   1   2
BRANCH   1  21
ATOM     21  C   UNL A   1      32.542  29.596  26.543  1.00  0.00     0.002 C 
BRANCH  21  22
ATOM     22  C   UNL A   1      31.643  30.626  27.240  1.00  0.00     0.002 C 
BRANCH  22  23
ATOM     23  C   UNL A   1      31.897  32.079  26.832  1.00  0.00     0.021 C 
BRANCH  23  24
ATOM     24  C   UNL A   1      33.168  32.672  27.426  1.00  0.00     0.116 C 
BRANCH  24  25
ATOM     25  N   UNL A   1      33.001  34.083  27.740  1.00  0.00    -0.352 N 
ATOM     26  C   UNL A   1      33.531  34.800  28.785  1.00  0.00     0.251 C 
ATOM     27  H   UNL A   1      32.430  34.592  27.120  1.00  0.00     0.163 HD
ATOM     28  O   UNL A   1      33.104  35.916  29.051  1.00  0.00    -0.269 OA
BRANCH  26  29
ATOM     29  C   UNL A   1      34.614  34.198  29.589  1.00  0.00     0.039 A 
ATOM     30  C   UNL A   1      34.293  33.472  30.737  1.00  0.00     0.014 A 
ATOM     31  C   UNL A   1      35.946  34.345  29.192  1.00  0.00     0.014 A 
ATOM     32  C   UNL A   1      35.310  32.843  31.460  1.00  0.00     0.010 A 
ATOM     33  C   UNL A   1      36.945  33.653  29.866  1.00  0.00     0.010 A 
ATOM     34  C   UNL A   1      36.640  32.905  31.012  1.00  0.00    -0.014 A 
BRANCH  34  35
ATOM     35  C   UNL A   1      37.740  32.217  31.732  1.00  0.00     0.031 A 
ATOM     36  C   UNL A   1      38.201  32.745  33.064  1.00  0.00     0.074 A 
ATOM     37  C   UNL A   1      38.374  31.176  31.157  1.00  0.00     0.049 A 
ATOM     38  N   UNL A   1      39.216  32.366  33.795  1.00  0.00    -0.248 NA
ATOM     39  C   UNL A   1      37.435  33.865  33.636  1.00  0.00     0.031 C 
ATOM     40  C   UNL A   1      38.037  30.588  29.858  1.00  0.00     0.029 A 
ATOM     41  N   UNL A   1      39.449  30.436  31.586  1.00  0.00    -0.354 N 
ATOM     42  C   UNL A   1      39.225  33.214  34.897  1.00  0.00     0.074 A 
ATOM     43  C   UNL A   1      38.146  34.159  34.713  1.00  0.00     0.031 C 
ATOM     44  C   UNL A   1      38.874  29.567  29.607  1.00  0.00     0.029 A 
ATOM     45  C   UNL A   1      39.837  29.459  30.698  1.00  0.00     0.049 A 
ATOM     46  H   UNL A   1      39.898  30.589  32.448  1.00  0.00     0.167 HD
ATOM     47  C   UNL A   1      40.045  33.196  35.973  1.00  0.00     0.031 A 
ATOM     48  C   UNL A   1      40.864  28.588  30.748  1.00  0.00     0.031 A 
ATOM     49  C   UNL A   1      41.109  32.245  36.155  1.00  0.00     0.049 A 
ATOM     50  C   UNL A   1      41.781  28.606  31.942  1.00  0.00     0.074 A 
ATOM     51  C   UNL A   1      41.966  32.111  37.232  1.00  0.00     0.029 A 
ATOM     52  N   UNL A   1      41.461  31.266  35.237  1.00  0.00    -0.354 N 
ATOM     53  N   UNL A   1      41.741  29.382  33.000  1.00  0.00    -0.248 NA
ATOM     54  C   UNL A   1      42.875  27.624  31.956  1.00  0.00     0.031 C 
ATOM     55  C   UNL A   1      42.874  31.089  36.942  1.00  0.00     0.029 A 
ATOM     56  C   UNL A   1      42.537  30.538  35.714  1.00  0.00     0.049 A 
ATOM     57  H   UNL A   1      41.012  31.111  34.376  1.00  0.00     0.167 HD
ATOM     58  C   UNL A   1      42.779  28.955  33.822  1.00  0.00     0.074 A 
ATOM     59  C   UNL A   1      43.424  27.851  33.142  1.00  0.00     0.031 C 
ATOM     60  C   UNL A   1      43.158  29.431  35.033  1.00  0.00     0.031 A 
BRANCH  47  61
ATOM     61  C   UNL A   1      39.830  34.241  37.036  1.00  0.00    -0.014 A 
ATOM     62  C   UNL A   1      40.374  35.532  36.910  1.00  0.00     0.010 A 
ATOM     63  C   UNL A   1      39.031  33.943  38.156  1.00  0.00     0.010 A 
ATOM     64  C   UNL A   1      40.159  36.492  37.903  1.00  0.00     0.020 A 
ATOM     65  C   UNL A   1      38.786  34.910  39.135  1.00  0.00     0.020 A 
ATOM     66  C   UNL A   1      39.366  36.174  39.010  1.00  0.00     0.054 A 
BRANCH  66  67
ATOM     67  S   UNL A   1      39.081  37.449  40.267  1.00  0.00     0.124 S 
ATOM     68  O   UNL A   1      38.139  38.336  39.589  1.00  0.00    -0.237 OA
ATOM     69  O   UNL A   1      38.530  36.682  41.381  1.00  0.00    -0.237 OA
ATOM     70  O   UNL A   1      40.409  38.012  40.498  1.00  0.00    -0.744 OA
ENDBRANCH  66  67
ENDBRANCH  47  61
BRANCH  48  71
ATOM     71  C   UNL A   1      41.078  27.621  29.635  1.00  0.00    -0.014 A 
ATOM     72  C   UNL A   1      40.186  26.554  29.432  1.00  0.00     0.010 A 
ATOM     73  C   UNL A   1      42.178  27.765  28.768  1.00  0.00     0.010 A 
ATOM     74  C   UNL A   1      40.400  25.636  28.401  1.00  0.00     0.020 A 
ATOM     75  C   UNL A   1      42.378  26.866  27.715  1.00  0.00     0.020 A 
ATOM     76  C   UNL A   1      41.495  25.799  27.547  1.00  0.00     0.054 A 
BRANCH  76  77
ATOM     77  S   UNL A   1      41.731  24.617  26.191  1.00  0.00     0.124 S 
ATOM     78  O   UNL A   1      42.985  23.972  26.565  1.00  0.00    -0.237 OA
ATOM     79  O   UNL A   1      40.536  23.784  26.289  1.00  0.00    -0.237 OA
ATOM     80  O   UNL A   1      41.793  25.467  25.004  1.00  0.00    -0.744 OA
ENDBRANCH  76  77
ENDBRANCH  48  71
BRANCH  60  81
ATOM     81  C   UNL A   1      44.287  28.730  35.743  1.00  0.00    -0.014 A 
ATOM     82  C   UNL A   1      45.619  29.155  35.605  1.00  0.00     0.010 A 
ATOM     83  C   UNL A   1      43.988  27.682  36.635  1.00  0.00     0.010 A 
ATOM     84  C   UNL A   1      46.636  28.534  36.337  1.00  0.00     0.020 A 
ATOM     85  C   UNL A   1      44.997  27.080  37.390  1.00  0.00     0.020 A 
ATOM     86  C   UNL A   1      46.317  27.505  37.230  1.00  0.00     0.054 A 
BRANCH  86  87
ATOM     87  S   UNL A   1      47.644  26.769  38.223  1.00  0.00     0.124 S 
ATOM     88  O   UNL A   1      46.964  26.495  39.485  1.00  0.00    -0.237 OA
ATOM     89  O   UNL A   1      48.013  25.593  37.439  1.00  0.00    -0.237 OA
ATOM     90  O   UNL A   1      48.660  27.818  38.278  1.00  0.00    -0.744 OA
ENDBRANCH  86  87
ENDBRANCH  60  81
ENDBRANCH  34  35
ENDBRANCH  26  29
ENDBRANCH  24  25
ENDBRANCH  23  24
ENDBRANCH  22  23
ENDBRANCH  21  22
ENDBRANCH   1  21
TORSDOF 22
ENDMDL
