MODEL 1
REMARK VINA RESULT:     -11.0      0.000      0.000
REMARK SMILES C[C@H](c1cnccn1)[N@@H+]1[C@@H](C(=O)NCCCCCCNC(=O)c2ccc(-c3c4nc(c(-c5ccc(S(=O)(=O)[O-])cc5)c5ccc([nH]5)c(-c5ccc(S(=O)(=O)[O-])cc5)c5nc(c(-c6ccc(S(=O)(=O)[O-])cc6)c6ccc3[nH]6)C=C5)C=C4)cc2)CC[C@H]2CCCC[C@H]21
REMARK SMILES IDX 17 1 16 2 15 3 14 4 13 5 11 6 12 7 10 9 9 10 90 11 83 13
REMARK SMILES IDX 85 14 89 15 84 16 86 17 88 18 87 19 2 20 1 21 3 22 4 23 8 24
REMARK SMILES IDX 5 25 7 26 6 27 18 28 19 29 20 30 21 31 22 33 23 34 24 35
REMARK SMILES IDX 82 36 25 37 81 38 26 39 27 40 28 41 75 42 29 43 80 44 74 45
REMARK SMILES IDX 76 46 30 47 79 48 73 49 72 50 31 52 61 53 42 54 60 55 43 56
REMARK SMILES IDX 46 57 59 58 77 59 44 60 45 61 58 63 78 64 47 65 32 66 33 67
REMARK SMILES IDX 41 68 34 69 40 70 35 71 36 72 37 73 38 74 39 75 62 76 63 77
REMARK SMILES IDX 71 78 64 79 70 80 65 81 66 82 67 83 68 84 69 85 48 86 49 87
REMARK SMILES IDX 57 88 50 89 56 90 51 91 52 92 53 93 54 94 55 95
REMARK H PARENT 13 8 9 12 20 32 76 51 46 62
REMARK Flexibility Score: inf
ROOT
ATOM      1  C   UNL A   1      32.065  30.504  26.237  1.00  0.00     0.002 C 
ENDROOT
BRANCH   1   2
ATOM      2  C   UNL A   1      32.664  29.462  27.186  1.00  0.00     0.002 C 
BRANCH   2   3
ATOM      3  C   UNL A   1      31.845  28.171  27.307  1.00  0.00     0.021 C 
BRANCH   3   4
ATOM      4  C   UNL A   1      32.415  27.024  26.475  1.00  0.00     0.116 C 
BRANCH   4   5
ATOM      5  N   UNL A   1      31.668  25.817  26.757  1.00  0.00    -0.351 N 
ATOM      6  C   UNL A   1      30.713  25.194  26.016  1.00  0.00     0.278 C 
ATOM      7  O   UNL A   1      29.989  24.373  26.592  1.00  0.00    -0.268 OA
ATOM      8  H   UNL A   1      31.883  25.383  27.615  1.00  0.00     0.163 HD
BRANCH   6   9
ATOM      9  C   UNL A   1      30.481  25.526  24.522  1.00  0.00     0.274 C 
ATOM     10  N   UNL A   1      31.745  25.537  23.723  1.00  0.00    -0.315 N 
ATOM     11  C   UNL A   1      31.611  26.264  22.427  1.00  0.00     0.188 C 
ATOM     12  H   UNL A   1      32.393  26.078  24.297  1.00  0.00     0.349 HD
ATOM     13  C   UNL A   1      29.655  26.826  24.537  1.00  0.00     0.076 C 
ATOM     14  C   UNL A   1      30.875  27.626  22.502  1.00  0.00     0.048 C 
ATOM     15  C   UNL A   1      32.959  26.545  21.729  1.00  0.00     0.065 C 
ATOM     16  C   UNL A   1      29.510  27.447  23.163  1.00  0.00     0.016 C 
ATOM     17  C   UNL A   1      31.682  28.767  23.150  1.00  0.00     0.010 C 
ATOM     18  C   UNL A   1      33.839  27.469  22.555  1.00  0.00     0.006 C 
ATOM     19  C   UNL A   1      33.175  28.812  22.823  1.00  0.00     0.001 C 
BRANCH  10  20
ATOM     20  C   UNL A   1      32.417  24.182  23.569  1.00  0.00     0.233 C 
ATOM     21  C   UNL A   1      31.469  22.968  23.421  1.00  0.00     0.083 C 
BRANCH  20  22
ATOM     22  C   UNL A   1      33.533  23.814  24.559  1.00  0.00     0.116 A 
ATOM     23  C   UNL A   1      34.712  24.562  24.649  1.00  0.00     0.141 A 
ATOM     24  N   UNL A   1      33.351  22.727  25.358  1.00  0.00    -0.252 NA
ATOM     25  N   UNL A   1      35.733  24.264  25.489  1.00  0.00    -0.261 NA
ATOM     26  C   UNL A   1      34.387  22.406  26.170  1.00  0.00     0.131 A 
ATOM     27  C   UNL A   1      35.554  23.149  26.225  1.00  0.00     0.131 A 
ENDBRANCH  20  22
ENDBRANCH  10  20
ENDBRANCH   6   9
ENDBRANCH   4   5
ENDBRANCH   3   4
ENDBRANCH   2   3
ENDBRANCH   1   2
BRANCH   1  28
ATOM     28  C   UNL A   1      31.820  31.873  26.873  1.00  0.00     0.021 C 
BRANCH  28  29
ATOM     29  C   UNL A   1      33.057  32.495  27.509  1.00  0.00     0.116 C 
BRANCH  29  30
ATOM     30  N   UNL A   1      32.884  33.919  27.747  1.00  0.00    -0.352 N 
ATOM     31  C   UNL A   1      33.477  34.709  28.700  1.00  0.00     0.251 C 
ATOM     32  H   UNL A   1      32.257  34.379  27.145  1.00  0.00     0.163 HD
ATOM     33  O   UNL A   1      33.056  35.845  28.910  1.00  0.00    -0.269 OA
BRANCH  31  34
ATOM     34  C   UNL A   1      34.612  34.177  29.480  1.00  0.00     0.039 A 
ATOM     35  C   UNL A   1      34.364  33.560  30.707  1.00  0.00     0.014 A 
ATOM     36  C   UNL A   1      35.918  34.279  28.991  1.00  0.00     0.014 A 
ATOM     37  C   UNL A   1      35.424  32.997  31.420  1.00  0.00     0.010 A 
ATOM     38  C   UNL A   1      36.959  33.649  29.664  1.00  0.00     0.010 A 
ATOM     39  C   UNL A   1      36.724  33.009  30.891  1.00  0.00    -0.014 A 
BRANCH  39  40
ATOM     40  C   UNL A   1      37.854  32.362  31.606  1.00  0.00     0.031 A 
ATOM     41  C   UNL A   1      38.305  32.895  32.940  1.00  0.00     0.074 A 
ATOM     42  C   UNL A   1      38.507  31.331  31.033  1.00  0.00     0.049 A 
ATOM     43  N   UNL A   1      39.299  32.497  33.692  1.00  0.00    -0.248 NA
ATOM     44  C   UNL A   1      37.558  34.038  33.490  1.00  0.00     0.031 C 
ATOM     45  C   UNL A   1      38.186  30.747  29.728  1.00  0.00     0.029 A 
ATOM     46  N   UNL A   1      39.577  30.593  31.472  1.00  0.00    -0.354 N 
ATOM     47  C   UNL A   1      39.304  33.346  34.793  1.00  0.00     0.074 A 
ATOM     48  C   UNL A   1      38.251  34.315  34.584  1.00  0.00     0.031 C 
ATOM     49  C   UNL A   1      39.020  29.722  29.489  1.00  0.00     0.029 A 
ATOM     50  C   UNL A   1      39.963  29.605  30.596  1.00  0.00     0.049 A 
ATOM     51  H   UNL A   1      40.026  30.756  32.333  1.00  0.00     0.167 HD
ATOM     52  C   UNL A   1      40.098  33.308  35.890  1.00  0.00     0.031 A 
ATOM     53  C   UNL A   1      40.968  28.710  30.672  1.00  0.00     0.031 A 
ATOM     54  C   UNL A   1      41.142  32.339  36.095  1.00  0.00     0.049 A 
ATOM     55  C   UNL A   1      41.855  28.709  31.888  1.00  0.00     0.074 A 
ATOM     56  C   UNL A   1      41.971  32.189  37.193  1.00  0.00     0.029 A 
ATOM     57  N   UNL A   1      41.503  31.359  35.184  1.00  0.00    -0.354 N 
ATOM     58  N   UNL A   1      41.803  29.480  32.948  1.00  0.00    -0.248 NA
ATOM     59  C   UNL A   1      42.930  27.707  31.923  1.00  0.00     0.031 C 
ATOM     60  C   UNL A   1      42.872  31.156  36.920  1.00  0.00     0.029 A 
ATOM     61  C   UNL A   1      42.560  30.617  35.683  1.00  0.00     0.049 A 
ATOM     62  H   UNL A   1      41.071  31.211  34.312  1.00  0.00     0.167 HD
ATOM     63  C   UNL A   1      42.817  29.035  33.790  1.00  0.00     0.074 A 
ATOM     64  C   UNL A   1      43.454  27.919  33.122  1.00  0.00     0.031 C 
ATOM     65  C   UNL A   1      43.185  29.507  35.006  1.00  0.00     0.031 A 
BRANCH  52  66
ATOM     66  C   UNL A   1      39.869  34.354  36.952  1.00  0.00    -0.014 A 
ATOM     67  C   UNL A   1      40.451  35.631  36.853  1.00  0.00     0.010 A 
ATOM     68  C   UNL A   1      39.026  34.071  38.043  1.00  0.00     0.010 A 
ATOM     69  C   UNL A   1      40.229  36.590  37.847  1.00  0.00     0.020 A 
ATOM     70  C   UNL A   1      38.776  35.038  39.021  1.00  0.00     0.020 A 
ATOM     71  C   UNL A   1      39.393  36.286  38.925  1.00  0.00     0.054 A 
BRANCH  71  72
ATOM     72  S   UNL A   1      39.104  37.560  40.183  1.00  0.00     0.124 S 
ATOM     73  O   UNL A   1      38.575  36.771  41.294  1.00  0.00    -0.237 OA
ATOM     74  O   UNL A   1      40.439  38.115  40.388  1.00  0.00    -0.237 OA
ATOM     75  O   UNL A   1      38.146  38.463  39.550  1.00  0.00    -0.744 OA
ENDBRANCH  71  72
ENDBRANCH  52  66
BRANCH  53  76
ATOM     76  C   UNL A   1      41.182  27.734  29.568  1.00  0.00    -0.014 A 
ATOM     77  C   UNL A   1      40.320  26.635  29.407  1.00  0.00     0.010 A 
ATOM     78  C   UNL A   1      42.252  27.900  28.667  1.00  0.00     0.010 A 
ATOM     79  C   UNL A   1      40.537  25.708  28.382  1.00  0.00     0.020 A 
ATOM     80  C   UNL A   1      42.451  26.995  27.622  1.00  0.00     0.020 A 
ATOM     81  C   UNL A   1      41.599  25.896  27.495  1.00  0.00     0.054 A 
BRANCH  81  82
ATOM     82  S   UNL A   1      41.835  24.703  26.148  1.00  0.00     0.124 S 
ATOM     83  O   UNL A   1      43.085  24.056  26.530  1.00  0.00    -0.237 OA
ATOM     84  O   UNL A   1      40.635  23.876  26.249  1.00  0.00    -0.237 OA
ATOM     85  O   UNL A   1      41.903  25.544  24.955  1.00  0.00    -0.744 OA
ENDBRANCH  81  82
ENDBRANCH  53  76
BRANCH  65  86
ATOM     86  C   UNL A   1      44.305  28.794  35.720  1.00  0.00    -0.014 A 
ATOM     87  C   UNL A   1      45.645  29.188  35.559  1.00  0.00     0.010 A 
ATOM     88  C   UNL A   1      44.001  27.747  36.610  1.00  0.00     0.010 A 
ATOM     89  C   UNL A   1      46.664  28.526  36.250  1.00  0.00     0.020 A 
ATOM     90  C   UNL A   1      45.013  27.104  37.327  1.00  0.00     0.020 A 
ATOM     91  C   UNL A   1      46.341  27.489  37.131  1.00  0.00     0.054 A 
BRANCH  91  92
ATOM     92  S   UNL A   1      47.678  26.679  38.050  1.00  0.00     0.124 S 
ATOM     93  O   UNL A   1      48.778  27.625  37.884  1.00  0.00    -0.237 OA
ATOM     94  O   UNL A   1      47.128  26.585  39.400  1.00  0.00    -0.237 OA
ATOM     95  O   UNL A   1      47.846  25.400  37.362  1.00  0.00    -0.744 OA
ENDBRANCH  91  92
ENDBRANCH  65  86
ENDBRANCH  39  40
ENDBRANCH  31  34
ENDBRANCH  29  30
ENDBRANCH  28  29
ENDBRANCH   1  28
TORSDOF 18
ENDMDL
MODEL 2
REMARK VINA RESULT:     -11.0      0.635      8.038
REMARK SMILES C[C@H](c1cnccn1)[N@@H+]1[C@@H](C(=O)NCCCCCCNC(=O)c2ccc(-c3c4nc(c(-c5ccc(S(=O)(=O)[O-])cc5)c5ccc([nH]5)c(-c5ccc(S(=O)(=O)[O-])cc5)c5nc(c(-c6ccc(S(=O)(=O)[O-])cc6)c6ccc3[nH]6)C=C5)C=C4)cc2)CC[C@H]2CCCC[C@H]21
REMARK SMILES IDX 17 1 16 2 15 3 14 4 13 5 11 6 12 7 10 9 9 10 90 11 83 13
REMARK SMILES IDX 85 14 89 15 84 16 86 17 88 18 87 19 2 20 1 21 3 22 4 23 8 24
REMARK SMILES IDX 5 25 7 26 6 27 18 28 19 29 20 30 21 31 22 33 23 34 24 35
REMARK SMILES IDX 82 36 25 37 81 38 26 39 27 40 28 41 75 42 29 43 80 44 74 45
REMARK SMILES IDX 76 46 30 47 79 48 73 49 72 50 31 52 61 53 42 54 60 55 43 56
REMARK SMILES IDX 46 57 59 58 77 59 44 60 45 61 58 63 78 64 47 65 32 66 33 67
REMARK SMILES IDX 41 68 34 69 40 70 35 71 36 72 37 73 38 74 39 75 62 76 63 77
REMARK SMILES IDX 71 78 64 79 70 80 65 81 66 82 67 83 68 84 69 85 48 86 49 87
REMARK SMILES IDX 57 88 50 89 56 90 51 91 52 92 53 93 54 94 55 95
REMARK H PARENT 13 8 9 12 20 32 76 51 46 62
REMARK Flexibility Score: inf
ROOT
ATOM      1  C   UNL A   1      31.773  30.727  26.101  1.00  0.00     0.002 C 
ENDROOT
BRANCH   1   2
ATOM      2  C   UNL A   1      32.789  29.681  26.569  1.00  0.00     0.002 C 
BRANCH   2   3
ATOM      3  C   UNL A   1      32.163  28.404  27.142  1.00  0.00     0.021 C 
BRANCH   3   4
ATOM      4  C   UNL A   1      32.562  27.147  26.371  1.00  0.00     0.116 C 
BRANCH   4   5
ATOM      5  N   UNL A   1      31.659  26.072  26.718  1.00  0.00    -0.351 N 
ATOM      6  C   UNL A   1      30.620  25.549  26.012  1.00  0.00     0.278 C 
ATOM      7  O   UNL A   1      29.795  24.867  26.631  1.00  0.00    -0.268 OA
ATOM      8  H   UNL A   1      31.820  25.657  27.596  1.00  0.00     0.163 HD
BRANCH   6   9
ATOM      9  C   UNL A   1      30.422  25.833  24.503  1.00  0.00     0.274 C 
ATOM     10  N   UNL A   1      31.682  25.694  23.712  1.00  0.00    -0.315 N 
ATOM     11  C   UNL A   1      31.617  26.371  22.384  1.00  0.00     0.188 C 
ATOM     12  H   UNL A   1      32.376  26.199  24.265  1.00  0.00     0.349 HD
ATOM     13  C   UNL A   1      29.716  27.202  24.456  1.00  0.00     0.076 C 
ATOM     14  C   UNL A   1      31.008  27.795  22.394  1.00  0.00     0.048 C 
ATOM     15  C   UNL A   1      32.986  26.496  21.682  1.00  0.00     0.065 C 
ATOM     16  C   UNL A   1      29.631  27.771  23.055  1.00  0.00     0.016 C 
ATOM     17  C   UNL A   1      31.913  28.887  22.995  1.00  0.00     0.010 C 
ATOM     18  C   UNL A   1      33.945  27.373  22.470  1.00  0.00     0.006 C 
ATOM     19  C   UNL A   1      33.405  28.782  22.675  1.00  0.00     0.001 C 
BRANCH  10  20
ATOM     20  C   UNL A   1      32.229  24.278  23.622  1.00  0.00     0.233 C 
ATOM     21  C   UNL A   1      31.176  23.144  23.602  1.00  0.00     0.083 C 
BRANCH  20  22
ATOM     22  C   UNL A   1      33.359  23.879  24.585  1.00  0.00     0.116 A 
ATOM     23  C   UNL A   1      33.209  22.829  25.498  1.00  0.00     0.141 A 
ATOM     24  N   UNL A   1      34.525  24.579  24.534  1.00  0.00    -0.252 NA
ATOM     25  N   UNL A   1      34.167  22.455  26.381  1.00  0.00    -0.261 NA
ATOM     26  C   UNL A   1      35.468  24.231  25.444  1.00  0.00     0.131 A 
ATOM     27  C   UNL A   1      35.288  23.202  26.352  1.00  0.00     0.131 A 
ENDBRANCH  20  22
ENDBRANCH  10  20
ENDBRANCH   6   9
ENDBRANCH   4   5
ENDBRANCH   3   4
ENDBRANCH   2   3
ENDBRANCH   1   2
BRANCH   1  28
ATOM     28  C   UNL A   1      31.573  31.893  27.071  1.00  0.00     0.021 C 
BRANCH  28  29
ATOM     29  C   UNL A   1      32.848  32.665  27.388  1.00  0.00     0.116 C 
BRANCH  29  30
ATOM     30  N   UNL A   1      32.575  34.066  27.670  1.00  0.00    -0.352 N 
ATOM     31  C   UNL A   1      33.084  34.856  28.669  1.00  0.00     0.251 C 
ATOM     32  H   UNL A   1      31.940  34.507  27.061  1.00  0.00     0.163 HD
ATOM     33  O   UNL A   1      32.583  35.954  28.904  1.00  0.00    -0.269 OA
BRANCH  31  34
ATOM     34  C   UNL A   1      34.224  34.369  29.470  1.00  0.00     0.039 A 
ATOM     35  C   UNL A   1      33.976  33.693  30.667  1.00  0.00     0.014 A 
ATOM     36  C   UNL A   1      35.537  34.570  29.031  1.00  0.00     0.014 A 
ATOM     37  C   UNL A   1      35.046  33.173  31.397  1.00  0.00     0.010 A 
ATOM     38  C   UNL A   1      36.593  33.982  29.719  1.00  0.00     0.010 A 
ATOM     39  C   UNL A   1      36.360  33.285  30.914  1.00  0.00    -0.014 A 
BRANCH  39  40
ATOM     40  C   UNL A   1      37.504  32.685  31.646  1.00  0.00     0.031 A 
ATOM     41  C   UNL A   1      38.198  31.468  31.095  1.00  0.00     0.074 A 
ATOM     42  C   UNL A   1      37.885  33.204  32.831  1.00  0.00     0.049 A 
ATOM     43  N   UNL A   1      39.180  30.775  31.612  1.00  0.00    -0.248 NA
ATOM     44  C   UNL A   1      37.708  30.946  29.809  1.00  0.00     0.031 C 
ATOM     45  C   UNL A   1      37.270  34.361  33.486  1.00  0.00     0.029 A 
ATOM     46  N   UNL A   1      38.880  32.823  33.697  1.00  0.00    -0.354 N 
ATOM     47  C   UNL A   1      39.416  29.733  30.723  1.00  0.00     0.074 A 
ATOM     48  C   UNL A   1      38.439  29.851  29.664  1.00  0.00     0.031 C 
ATOM     49  C   UNL A   1      37.922  34.614  34.633  1.00  0.00     0.029 A 
ATOM     50  C   UNL A   1      38.966  33.612  34.820  1.00  0.00     0.049 A 
ATOM     51  H   UNL A   1      39.475  32.056  33.530  1.00  0.00     0.167 HD
ATOM     52  C   UNL A   1      40.376  28.777  30.771  1.00  0.00     0.031 A 
ATOM     53  C   UNL A   1      39.790  33.535  35.884  1.00  0.00     0.031 A 
ATOM     54  C   UNL A   1      41.348  28.666  31.825  1.00  0.00     0.049 A 
ATOM     55  C   UNL A   1      40.827  32.446  35.928  1.00  0.00     0.074 A 
ATOM     56  C   UNL A   1      42.389  27.762  31.942  1.00  0.00     0.029 A 
ATOM     57  N   UNL A   1      41.400  29.483  32.945  1.00  0.00    -0.354 N 
ATOM     58  N   UNL A   1      41.076  31.508  35.046  1.00  0.00    -0.248 NA
ATOM     59  C   UNL A   1      41.704  32.413  37.107  1.00  0.00     0.031 C 
ATOM     60  C   UNL A   1      43.032  27.993  33.162  1.00  0.00     0.029 A 
ATOM     61  C   UNL A   1      42.438  29.086  33.771  1.00  0.00     0.049 A 
ATOM     62  H   UNL A   1      40.790  30.233  33.126  1.00  0.00     0.167 HD
ATOM     63  C   UNL A   1      42.158  30.792  35.548  1.00  0.00     0.074 A 
ATOM     64  C   UNL A   1      42.525  31.417  36.803  1.00  0.00     0.031 C 
ATOM     65  C   UNL A   1      42.792  29.718  35.018  1.00  0.00     0.031 A 
BRANCH  52  66
ATOM     66  C   UNL A   1      40.413  27.770  29.650  1.00  0.00    -0.014 A 
ATOM     67  C   UNL A   1      39.560  26.651  29.648  1.00  0.00     0.010 A 
ATOM     68  C   UNL A   1      41.283  27.966  28.561  1.00  0.00     0.010 A 
ATOM     69  C   UNL A   1      39.606  25.726  28.601  1.00  0.00     0.020 A 
ATOM     70  C   UNL A   1      41.308  27.061  27.497  1.00  0.00     0.020 A 
ATOM     71  C   UNL A   1      40.482  25.937  27.532  1.00  0.00     0.054 A 
BRANCH  71  72
ATOM     72  S   UNL A   1      40.500  24.732  26.175  1.00  0.00     0.124 S 
ATOM     73  O   UNL A   1      39.078  24.433  26.019  1.00  0.00    -0.237 OA
ATOM     74  O   UNL A   1      41.105  25.491  25.084  1.00  0.00    -0.237 OA
ATOM     75  O   UNL A   1      41.313  23.637  26.696  1.00  0.00    -0.744 OA
ENDBRANCH  71  72
ENDBRANCH  52  66
BRANCH  53  76
ATOM     76  C   UNL A   1      39.673  34.525  36.990  1.00  0.00    -0.014 A 
ATOM     77  C   UNL A   1      40.367  35.747  36.934  1.00  0.00     0.010 A 
ATOM     78  C   UNL A   1      38.863  34.252  38.109  1.00  0.00     0.010 A 
ATOM     79  C   UNL A   1      40.273  36.666  37.984  1.00  0.00     0.020 A 
ATOM     80  C   UNL A   1      38.740  35.182  39.145  1.00  0.00     0.020 A 
ATOM     81  C   UNL A   1      39.457  36.378  39.082  1.00  0.00     0.054 A 
BRANCH  81  82
ATOM     82  S   UNL A   1      39.318  37.604  40.412  1.00  0.00     0.124 S 
ATOM     83  O   UNL A   1      39.016  36.766  41.567  1.00  0.00    -0.237 OA
ATOM     84  O   UNL A   1      40.640  38.225  40.406  1.00  0.00    -0.237 OA
ATOM     85  O   UNL A   1      38.230  38.471  39.965  1.00  0.00    -0.744 OA
ENDBRANCH  81  82
ENDBRANCH  53  76
BRANCH  65  86
ATOM     86  C   UNL A   1      43.977  29.168  35.769  1.00  0.00    -0.014 A 
ATOM     87  C   UNL A   1      45.266  29.703  35.599  1.00  0.00     0.010 A 
ATOM     88  C   UNL A   1      43.783  28.135  36.705  1.00  0.00     0.010 A 
ATOM     89  C   UNL A   1      46.345  29.192  36.325  1.00  0.00     0.020 A 
ATOM     90  C   UNL A   1      44.853  27.643  37.457  1.00  0.00     0.020 A 
ATOM     91  C   UNL A   1      46.131  28.166  37.251  1.00  0.00     0.054 A 
BRANCH  91  92
ATOM     92  S   UNL A   1      47.540  27.552  38.214  1.00  0.00     0.124 S 
ATOM     93  O   UNL A   1      48.154  28.793  38.679  1.00  0.00    -0.237 OA
ATOM     94  O   UNL A   1      46.895  26.745  39.246  1.00  0.00    -0.237 OA
ATOM     95  O   UNL A   1      48.324  26.797  37.239  1.00  0.00    -0.744 OA
ENDBRANCH  91  92
ENDBRANCH  65  86
ENDBRANCH  39  40
ENDBRANCH  31  34
ENDBRANCH  29  30
ENDBRANCH  28  29
ENDBRANCH   1  28
TORSDOF 18
ENDMDL
MODEL 3
REMARK VINA RESULT:     -10.5      5.762      8.359
REMARK SMILES C[C@H](c1cnccn1)[N@@H+]1[C@@H](C(=O)NCCCCCCNC(=O)c2ccc(-c3c4nc(c(-c5ccc(S(=O)(=O)[O-])cc5)c5ccc([nH]5)c(-c5ccc(S(=O)(=O)[O-])cc5)c5nc(c(-c6ccc(S(=O)(=O)[O-])cc6)c6ccc3[nH]6)C=C5)C=C4)cc2)CC[C@H]2CCCC[C@H]21
REMARK SMILES IDX 17 1 16 2 15 3 14 4 13 5 11 6 12 7 10 9 9 10 90 11 83 13
REMARK SMILES IDX 85 14 89 15 84 16 86 17 88 18 87 19 2 20 1 21 3 22 4 23 8 24
REMARK SMILES IDX 5 25 7 26 6 27 18 28 19 29 20 30 21 31 22 33 23 34 24 35
REMARK SMILES IDX 82 36 25 37 81 38 26 39 27 40 28 41 75 42 29 43 80 44 74 45
REMARK SMILES IDX 76 46 30 47 79 48 73 49 72 50 31 52 61 53 42 54 60 55 43 56
REMARK SMILES IDX 46 57 59 58 77 59 44 60 45 61 58 63 78 64 47 65 32 66 33 67
REMARK SMILES IDX 41 68 34 69 40 70 35 71 36 72 37 73 38 74 39 75 62 76 63 77
REMARK SMILES IDX 71 78 64 79 70 80 65 81 66 82 67 83 68 84 69 85 48 86 49 87
REMARK SMILES IDX 57 88 50 89 56 90 51 91 52 92 53 93 54 94 55 95
REMARK H PARENT 13 8 9 12 20 32 76 51 46 62
REMARK Flexibility Score: inf
ROOT
ATOM      1  C   UNL A   1      34.088  30.229  27.498  1.00  0.00     0.002 C 
ENDROOT
BRANCH   1   2
ATOM      2  C   UNL A   1      32.848  30.173  26.601  1.00  0.00     0.002 C 
BRANCH   2   3
ATOM      3  C   UNL A   1      31.719  29.286  27.139  1.00  0.00     0.021 C 
BRANCH   3   4
ATOM      4  C   UNL A   1      32.106  27.810  27.216  1.00  0.00     0.116 C 
BRANCH   4   5
ATOM      5  N   UNL A   1      30.992  27.004  26.768  1.00  0.00    -0.351 N 
ATOM      6  C   UNL A   1      30.989  25.785  26.163  1.00  0.00     0.278 C 
ATOM      7  O   UNL A   1      29.955  25.439  25.581  1.00  0.00    -0.268 OA
ATOM      8  H   UNL A   1      30.102  27.396  26.923  1.00  0.00     0.163 HD
BRANCH   6   9
ATOM      9  C   UNL A   1      32.241  24.875  26.136  1.00  0.00     0.274 C 
ATOM     10  N   UNL A   1      32.817  24.714  24.766  1.00  0.00    -0.315 N 
ATOM     11  C   UNL A   1      33.720  23.532  24.646  1.00  0.00     0.188 C 
ATOM     12  H   UNL A   1      32.004  24.522  24.179  1.00  0.00     0.349 HD
ATOM     13  C   UNL A   1      31.803  23.590  26.864  1.00  0.00     0.076 C 
ATOM     14  C   UNL A   1      33.192  22.225  25.290  1.00  0.00     0.048 C 
ATOM     15  C   UNL A   1      34.086  23.174  23.191  1.00  0.00     0.065 C 
ATOM     16  C   UNL A   1      32.820  22.474  26.750  1.00  0.00     0.016 C 
ATOM     17  C   UNL A   1      32.053  21.533  24.518  1.00  0.00     0.010 C 
ATOM     18  C   UNL A   1      32.864  22.758  22.388  1.00  0.00     0.006 C 
ATOM     19  C   UNL A   1      32.159  21.552  22.992  1.00  0.00     0.001 C 
BRANCH  10  20
ATOM     20  C   UNL A   1      33.422  25.976  24.172  1.00  0.00     0.233 C 
ATOM     21  C   UNL A   1      34.392  26.759  25.089  1.00  0.00     0.083 C 
BRANCH  20  22
ATOM     22  C   UNL A   1      32.475  26.979  23.493  1.00  0.00     0.116 A 
ATOM     23  C   UNL A   1      31.440  26.557  22.651  1.00  0.00     0.141 A 
ATOM     24  N   UNL A   1      32.668  28.306  23.727  1.00  0.00    -0.252 NA
ATOM     25  N   UNL A   1      30.595  27.403  22.012  1.00  0.00    -0.261 NA
ATOM     26  C   UNL A   1      31.849  29.153  23.058  1.00  0.00     0.131 A 
ATOM     27  C   UNL A   1      30.845  28.712  22.212  1.00  0.00     0.131 A 
ENDBRANCH  20  22
ENDBRANCH  10  20
ENDBRANCH   6   9
ENDBRANCH   4   5
ENDBRANCH   3   4
ENDBRANCH   2   3
ENDBRANCH   1   2
BRANCH   1  28
ATOM     28  C   UNL A   1      34.435  31.629  28.011  1.00  0.00     0.021 C 
BRANCH  28  29
ATOM     29  C   UNL A   1      35.768  31.710  28.744  1.00  0.00     0.116 C 
BRANCH  29  30
ATOM     30  N   UNL A   1      35.650  31.278  30.128  1.00  0.00    -0.352 N 
ATOM     31  C   UNL A   1      36.518  30.514  30.867  1.00  0.00     0.251 C 
ATOM     32  H   UNL A   1      34.838  31.573  30.598  1.00  0.00     0.163 HD
ATOM     33  O   UNL A   1      36.166  30.053  31.951  1.00  0.00    -0.269 OA
BRANCH  31  34
ATOM     34  C   UNL A   1      37.870  30.238  30.341  1.00  0.00     0.039 A 
ATOM     35  C   UNL A   1      38.939  30.140  31.233  1.00  0.00     0.014 A 
ATOM     36  C   UNL A   1      38.076  30.065  28.969  1.00  0.00     0.014 A 
ATOM     37  C   UNL A   1      40.208  29.815  30.752  1.00  0.00     0.010 A 
ATOM     38  C   UNL A   1      39.323  29.664  28.503  1.00  0.00     0.010 A 
ATOM     39  C   UNL A   1      40.405  29.543  29.388  1.00  0.00    -0.014 A 
BRANCH  39  40
ATOM     40  C   UNL A   1      41.735  29.137  28.867  1.00  0.00     0.031 A 
ATOM     41  C   UNL A   1      42.837  30.155  28.737  1.00  0.00     0.074 A 
ATOM     42  C   UNL A   1      41.935  27.867  28.462  1.00  0.00     0.049 A 
ATOM     43  N   UNL A   1      44.046  30.004  28.259  1.00  0.00    -0.248 NA
ATOM     44  C   UNL A   1      42.534  31.527  29.177  1.00  0.00     0.031 C 
ATOM     45  C   UNL A   1      40.936  26.797  28.506  1.00  0.00     0.029 A 
ATOM     46  N   UNL A   1      43.046  27.261  27.931  1.00  0.00    -0.354 N 
ATOM     47  C   UNL A   1      44.640  31.258  28.331  1.00  0.00     0.074 A 
ATOM     48  C   UNL A   1      43.642  32.170  28.843  1.00  0.00     0.031 C 
ATOM     49  C   UNL A   1      41.489  25.660  28.053  1.00  0.00     0.029 A 
ATOM     50  C   UNL A   1      42.863  25.928  27.642  1.00  0.00     0.049 A 
ATOM     51  H   UNL A   1      43.894  27.735  27.772  1.00  0.00     0.167 HD
ATOM     52  C   UNL A   1      45.910  31.615  28.020  1.00  0.00     0.031 A 
ATOM     53  C   UNL A   1      43.705  25.025  27.101  1.00  0.00     0.031 A 
ATOM     54  C   UNL A   1      46.900  30.702  27.513  1.00  0.00     0.049 A 
ATOM     55  C   UNL A   1      45.100  25.454  26.736  1.00  0.00     0.074 A 
ATOM     56  C   UNL A   1      48.227  30.955  27.211  1.00  0.00     0.029 A 
ATOM     57  N   UNL A   1      46.674  29.363  27.232  1.00  0.00    -0.354 N 
ATOM     58  N   UNL A   1      45.664  26.631  26.870  1.00  0.00    -0.248 NA
ATOM     59  C   UNL A   1      45.979  24.427  26.157  1.00  0.00     0.031 C 
ATOM     60  C   UNL A   1      48.786  29.785  26.690  1.00  0.00     0.029 A 
ATOM     61  C   UNL A   1      47.829  28.784  26.733  1.00  0.00     0.049 A 
ATOM     62  H   UNL A   1      45.820  28.894  27.366  1.00  0.00     0.167 HD
ATOM     63  C   UNL A   1      46.972  26.478  26.422  1.00  0.00     0.074 A 
ATOM     64  C   UNL A   1      47.119  25.092  26.028  1.00  0.00     0.031 C 
ATOM     65  C   UNL A   1      47.961  27.401  26.346  1.00  0.00     0.031 A 
BRANCH  52  66
ATOM     66  C   UNL A   1      46.296  33.059  28.213  1.00  0.00    -0.014 A 
ATOM     67  C   UNL A   1      46.132  34.001  27.181  1.00  0.00     0.010 A 
ATOM     68  C   UNL A   1      46.788  33.491  29.458  1.00  0.00     0.010 A 
ATOM     69  C   UNL A   1      46.495  35.337  27.376  1.00  0.00     0.020 A 
ATOM     70  C   UNL A   1      47.121  34.833  29.668  1.00  0.00     0.020 A 
ATOM     71  C   UNL A   1      46.987  35.744  28.619  1.00  0.00     0.054 A 
BRANCH  71  72
ATOM     72  S   UNL A   1      47.424  37.489  28.850  1.00  0.00     0.124 S 
ATOM     73  O   UNL A   1      46.657  38.135  27.787  1.00  0.00    -0.237 OA
ATOM     74  O   UNL A   1      46.961  37.757  30.209  1.00  0.00    -0.237 OA
ATOM     75  O   UNL A   1      48.874  37.511  28.672  1.00  0.00    -0.744 OA
ENDBRANCH  71  72
ENDBRANCH  52  66
BRANCH  53  76
ATOM     76  C   UNL A   1      43.253  23.623  26.882  1.00  0.00    -0.014 A 
ATOM     77  C   UNL A   1      42.980  23.154  25.584  1.00  0.00     0.010 A 
ATOM     78  C   UNL A   1      43.096  22.746  27.971  1.00  0.00     0.010 A 
ATOM     79  C   UNL A   1      42.535  21.844  25.383  1.00  0.00     0.020 A 
ATOM     80  C   UNL A   1      42.684  21.426  27.770  1.00  0.00     0.020 A 
ATOM     81  C   UNL A   1      42.393  20.987  26.477  1.00  0.00     0.054 A 
BRANCH  81  82
ATOM     82  S   UNL A   1      41.855  19.279  26.186  1.00  0.00     0.124 S 
ATOM     83  O   UNL A   1      42.623  18.916  25.000  1.00  0.00    -0.237 OA
ATOM     84  O   UNL A   1      42.246  18.611  27.425  1.00  0.00    -0.237 OA
ATOM     85  O   UNL A   1      40.413  19.405  25.984  1.00  0.00    -0.744 OA
ENDBRANCH  81  82
ENDBRANCH  53  76
BRANCH  65  86
ATOM     86  C   UNL A   1      49.309  26.938  25.855  1.00  0.00    -0.014 A 
ATOM     87  C   UNL A   1      49.787  27.292  24.581  1.00  0.00     0.010 A 
ATOM     88  C   UNL A   1      50.133  26.182  26.710  1.00  0.00     0.010 A 
ATOM     89  C   UNL A   1      51.051  26.870  24.159  1.00  0.00     0.020 A 
ATOM     90  C   UNL A   1      51.409  25.785  26.304  1.00  0.00     0.020 A 
ATOM     91  C   UNL A   1      51.854  26.120  25.024  1.00  0.00     0.054 A 
BRANCH  91  92
ATOM     92  S   UNL A   1      53.507  25.625  24.467  1.00  0.00     0.124 S 
ATOM     93  O   UNL A   1      54.371  26.480  25.277  1.00  0.00    -0.237 OA
ATOM     94  O   UNL A   1      53.543  24.203  24.797  1.00  0.00    -0.237 OA
ATOM     95  O   UNL A   1      53.497  25.927  23.037  1.00  0.00    -0.744 OA
ENDBRANCH  91  92
ENDBRANCH  65  86
ENDBRANCH  39  40
ENDBRANCH  31  34
ENDBRANCH  29  30
ENDBRANCH  28  29
ENDBRANCH   1  28
TORSDOF 18
ENDMDL
