MODEL 1
REMARK VINA RESULT:     -10.0      0.000      0.000
REMARK SMILES Cc1nc2cc(SCC(=O)NCCCCCCNC(=O)c3ccc(-c4c5nc(c(-c6ccc(S(=O)(=O)[O-])cc6)c6ccc([nH]6)c(-c6ccc(S(=O)(=O)[O-])cc6)c6nc(c(-c7ccc(S(=O)(=O)[O-])cc7)c7ccc4[nH]7)C=C6)C=C5)cc3)ccc2s1
REMARK SMILES IDX 15 1 14 2 13 3 12 4 11 5 9 6 10 7 8 9 7 10 6 11 1 12 2 13
REMARK SMILES IDX 3 14 84 15 4 16 83 17 5 18 82 19 81 20 16 21 17 22 18 23
REMARK SMILES IDX 19 24 20 26 21 27 22 28 80 29 23 30 79 31 24 32 25 33 26 34
REMARK SMILES IDX 73 35 27 36 78 37 72 38 74 39 28 40 77 41 71 42 70 43 29 45
REMARK SMILES IDX 59 46 40 47 58 48 41 49 44 50 57 51 75 52 42 53 43 54 56 56
REMARK SMILES IDX 76 57 45 58 30 59 31 60 39 61 32 62 38 63 33 64 34 65 35 66
REMARK SMILES IDX 36 67 37 68 60 69 61 70 69 71 62 72 68 73 63 74 64 75 65 76
REMARK SMILES IDX 66 77 67 78 46 79 47 80 55 81 48 82 54 83 49 84 50 85 51 86
REMARK SMILES IDX 52 87 53 88
REMARK H PARENT 11 8 18 25 74 44 44 55
REMARK Flexibility Score: inf
ROOT
ATOM      1  C   UNL A   1      34.759  24.228  23.626  1.00  0.00     0.002 C 
ENDROOT
BRANCH   1   2
ATOM      2  C   UNL A   1      33.894  23.718  22.468  1.00  0.00     0.002 C 
BRANCH   2   3
ATOM      3  C   UNL A   1      32.915  24.748  21.883  1.00  0.00     0.021 C 
BRANCH   3   4
ATOM      4  C   UNL A   1      33.252  26.198  22.236  1.00  0.00     0.116 C 
BRANCH   4   5
ATOM      5  N   UNL A   1      32.169  27.082  21.854  1.00  0.00    -0.355 N 
ATOM      6  C   UNL A   1      31.112  27.531  22.583  1.00  0.00     0.230 C 
ATOM      7  O   UNL A   1      30.264  28.216  22.003  1.00  0.00    -0.274 OA
ATOM      8  H   UNL A   1      32.203  27.407  20.925  1.00  0.00     0.163 HD
BRANCH   6   9
ATOM      9  C   UNL A   1      31.027  27.298  24.079  1.00  0.00     0.174 C 
BRANCH   9  10
ATOM     10  S   UNL A   1      29.949  25.928  24.595  1.00  0.00    -0.116 SA
BRANCH  10  11
ATOM     11  C   UNL A   1      31.016  24.705  25.336  1.00  0.00     0.010 A 
ATOM     12  C   UNL A   1      33.193  19.030  24.957  1.00  0.00     0.079 C 
ATOM     13  C   UNL A   1      32.806  20.423  25.306  1.00  0.00     0.091 A 
ATOM     14  N   UNL A   1      31.923  21.132  24.642  1.00  0.00    -0.241 NA
ATOM     15  S   UNL A   1      33.542  21.212  26.641  1.00  0.00    -0.119 S 
ATOM     16  C   UNL A   1      31.827  22.400  25.189  1.00  0.00     0.083 A 
ATOM     17  C   UNL A   1      32.648  22.640  26.290  1.00  0.00     0.055 A 
ATOM     18  C   UNL A   1      30.999  23.440  24.724  1.00  0.00     0.045 A 
ATOM     19  C   UNL A   1      32.674  23.887  26.928  1.00  0.00     0.022 A 
ATOM     20  C   UNL A   1      31.863  24.914  26.422  1.00  0.00     0.016 A 
ENDBRANCH  10  11
ENDBRANCH   9  10
ENDBRANCH   6   9
ENDBRANCH   4   5
ENDBRANCH   3   4
ENDBRANCH   2   3
ENDBRANCH   1   2
BRANCH   1  21
ATOM     21  C   UNL A   1      35.662  23.172  24.267  1.00  0.00     0.021 C 
BRANCH  21  22
ATOM     22  C   UNL A   1      36.855  23.739  25.028  1.00  0.00     0.116 C 
BRANCH  22  23
ATOM     23  N   UNL A   1      37.838  22.713  25.344  1.00  0.00    -0.352 N 
ATOM     24  C   UNL A   1      39.035  22.835  26.002  1.00  0.00     0.251 C 
ATOM     25  H   UNL A   1      37.612  21.805  25.041  1.00  0.00     0.163 HD
ATOM     26  O   UNL A   1      39.836  21.902  25.999  1.00  0.00    -0.269 OA
BRANCH  24  27
ATOM     27  C   UNL A   1      39.369  24.096  26.698  1.00  0.00     0.039 A 
ATOM     28  C   UNL A   1      38.926  24.287  28.009  1.00  0.00     0.014 A 
ATOM     29  C   UNL A   1      40.117  25.089  26.058  1.00  0.00     0.014 A 
ATOM     30  C   UNL A   1      39.282  25.449  28.698  1.00  0.00     0.010 A 
ATOM     31  C   UNL A   1      40.535  26.209  26.771  1.00  0.00     0.010 A 
ATOM     32  C   UNL A   1      40.117  26.404  28.095  1.00  0.00    -0.014 A 
BRANCH  32  33
ATOM     33  C   UNL A   1      40.559  27.618  28.830  1.00  0.00     0.031 A 
ATOM     34  C   UNL A   1      41.903  27.643  29.507  1.00  0.00     0.074 A 
ATOM     35  C   UNL A   1      39.727  28.673  28.942  1.00  0.00     0.049 A 
ATOM     36  N   UNL A   1      42.435  28.580  30.250  1.00  0.00    -0.248 NA
ATOM     37  C   UNL A   1      42.752  26.451  29.347  1.00  0.00     0.031 C 
ATOM     38  C   UNL A   1      38.385  28.762  28.359  1.00  0.00     0.029 A 
ATOM     39  N   UNL A   1      39.884  29.872  29.592  1.00  0.00    -0.354 N 
ATOM     40  C   UNL A   1      43.668  28.083  30.659  1.00  0.00     0.074 A 
ATOM     41  C   UNL A   1      43.783  26.745  30.125  1.00  0.00     0.031 C 
ATOM     42  C   UNL A   1      37.855  29.957  28.655  1.00  0.00     0.029 A 
ATOM     43  C   UNL A   1      38.793  30.704  29.489  1.00  0.00     0.049 A 
ATOM     44  H   UNL A   1      40.700  30.115  30.086  1.00  0.00     0.167 HD
ATOM     45  C   UNL A   1      44.627  28.694  31.398  1.00  0.00     0.031 A 
ATOM     46  C   UNL A   1      38.566  31.924  30.014  1.00  0.00     0.031 A 
ATOM     47  C   UNL A   1      44.510  30.028  31.923  1.00  0.00     0.049 A 
ATOM     48  C   UNL A   1      39.634  32.570  30.854  1.00  0.00     0.074 A 
ATOM     49  C   UNL A   1      45.445  30.754  32.639  1.00  0.00     0.029 A 
ATOM     50  N   UNL A   1      43.390  30.836  31.796  1.00  0.00    -0.354 N 
ATOM     51  N   UNL A   1      40.819  32.110  31.177  1.00  0.00    -0.248 NA
ATOM     52  C   UNL A   1      39.339  33.905  31.392  1.00  0.00     0.031 C 
ATOM     53  C   UNL A   1      44.868  31.976  32.998  1.00  0.00     0.029 A 
ATOM     54  C   UNL A   1      43.600  32.041  32.445  1.00  0.00     0.049 A 
ATOM     55  H   UNL A   1      42.567  30.589  31.314  1.00  0.00     0.167 HD
ATOM     56  C   UNL A   1      41.423  33.112  31.929  1.00  0.00     0.074 A 
ATOM     57  C   UNL A   1      40.478  34.208  31.999  1.00  0.00     0.031 C 
ATOM     58  C   UNL A   1      42.650  33.124  32.507  1.00  0.00     0.031 A 
BRANCH  45  59
ATOM     59  C   UNL A   1      45.884  27.915  31.689  1.00  0.00    -0.014 A 
ATOM     60  C   UNL A   1      46.965  27.909  30.788  1.00  0.00     0.010 A 
ATOM     61  C   UNL A   1      46.005  27.213  32.902  1.00  0.00     0.010 A 
ATOM     62  C   UNL A   1      48.122  27.180  31.074  1.00  0.00     0.020 A 
ATOM     63  C   UNL A   1      47.175  26.509  33.207  1.00  0.00     0.020 A 
ATOM     64  C   UNL A   1      48.220  26.484  32.281  1.00  0.00     0.054 A 
BRANCH  64  65
ATOM     65  S   UNL A   1      49.744  25.567  32.635  1.00  0.00     0.124 S 
ATOM     66  O   UNL A   1      50.086  25.032  31.318  1.00  0.00    -0.237 OA
ATOM     67  O   UNL A   1      50.634  26.609  33.139  1.00  0.00    -0.237 OA
ATOM     68  O   UNL A   1      49.331  24.572  33.621  1.00  0.00    -0.744 OA
ENDBRANCH  64  65
ENDBRANCH  45  59
BRANCH  46  69
ATOM     69  C   UNL A   1      37.273  32.618  29.756  1.00  0.00    -0.014 A 
ATOM     70  C   UNL A   1      37.144  33.514  28.681  1.00  0.00     0.010 A 
ATOM     71  C   UNL A   1      36.159  32.379  30.582  1.00  0.00     0.010 A 
ATOM     72  C   UNL A   1      35.933  34.174  28.448  1.00  0.00     0.020 A 
ATOM     73  C   UNL A   1      34.937  33.011  30.334  1.00  0.00     0.020 A 
ATOM     74  C   UNL A   1      34.836  33.915  29.275  1.00  0.00     0.054 A 
BRANCH  74  75
ATOM     75  S   UNL A   1      33.261  34.745  28.924  1.00  0.00     0.124 S 
ATOM     76  O   UNL A   1      33.706  36.025  28.381  1.00  0.00    -0.237 OA
ATOM     77  O   UNL A   1      32.633  33.836  27.969  1.00  0.00    -0.237 OA
ATOM     78  O   UNL A   1      32.611  34.811  30.231  1.00  0.00    -0.744 OA
ENDBRANCH  74  75
ENDBRANCH  46  69
BRANCH  58  79
ATOM     79  C   UNL A   1      43.063  34.377  33.237  1.00  0.00    -0.014 A 
ATOM     80  C   UNL A   1      42.973  34.475  34.636  1.00  0.00     0.010 A 
ATOM     81  C   UNL A   1      43.604  35.453  32.508  1.00  0.00     0.010 A 
ATOM     82  C   UNL A   1      43.387  35.639  35.290  1.00  0.00     0.020 A 
ATOM     83  C   UNL A   1      44.049  36.606  33.161  1.00  0.00     0.020 A 
ATOM     84  C   UNL A   1      43.923  36.696  34.549  1.00  0.00     0.054 A 
BRANCH  84  85
ATOM     85  S   UNL A   1      44.494  38.177  35.426  1.00  0.00     0.124 S 
ATOM     86  O   UNL A   1      43.817  38.048  36.713  1.00  0.00    -0.237 OA
ATOM     87  O   UNL A   1      45.943  37.990  35.457  1.00  0.00    -0.237 OA
ATOM     88  O   UNL A   1      44.032  39.280  34.587  1.00  0.00    -0.744 OA
ENDBRANCH  84  85
ENDBRANCH  58  79
ENDBRANCH  32  33
ENDBRANCH  24  27
ENDBRANCH  22  23
ENDBRANCH  21  22
ENDBRANCH   1  21
TORSDOF 18
ENDMDL
MODEL 2
REMARK VINA RESULT:      -9.9      2.591      9.231
REMARK SMILES Cc1nc2cc(SCC(=O)NCCCCCCNC(=O)c3ccc(-c4c5nc(c(-c6ccc(S(=O)(=O)[O-])cc6)c6ccc([nH]6)c(-c6ccc(S(=O)(=O)[O-])cc6)c6nc(c(-c7ccc(S(=O)(=O)[O-])cc7)c7ccc4[nH]7)C=C6)C=C5)cc3)ccc2s1
REMARK SMILES IDX 15 1 14 2 13 3 12 4 11 5 9 6 10 7 8 9 7 10 6 11 1 12 2 13
REMARK SMILES IDX 3 14 84 15 4 16 83 17 5 18 82 19 81 20 16 21 17 22 18 23
REMARK SMILES IDX 19 24 20 26 21 27 22 28 80 29 23 30 79 31 24 32 25 33 26 34
REMARK SMILES IDX 73 35 27 36 78 37 72 38 74 39 28 40 77 41 71 42 70 43 29 45
REMARK SMILES IDX 59 46 40 47 58 48 41 49 44 50 57 51 75 52 42 53 43 54 56 56
REMARK SMILES IDX 76 57 45 58 30 59 31 60 39 61 32 62 38 63 33 64 34 65 35 66
REMARK SMILES IDX 36 67 37 68 60 69 61 70 69 71 62 72 68 73 63 74 64 75 65 76
REMARK SMILES IDX 66 77 67 78 46 79 47 80 55 81 48 82 54 83 49 84 50 85 51 86
REMARK SMILES IDX 52 87 53 88
REMARK H PARENT 11 8 18 25 74 44 44 55
REMARK Flexibility Score: inf
ROOT
ATOM      1  C   UNL A   1      32.793  26.597  25.849  1.00  0.00     0.002 C 
ENDROOT
BRANCH   1   2
ATOM      2  C   UNL A   1      33.081  25.188  26.381  1.00  0.00     0.002 C 
BRANCH   2   3
ATOM      3  C   UNL A   1      34.280  24.479  25.735  1.00  0.00     0.021 C 
BRANCH   3   4
ATOM      4  C   UNL A   1      34.870  23.353  26.586  1.00  0.00     0.116 C 
BRANCH   4   5
ATOM      5  N   UNL A   1      35.435  22.317  25.743  1.00  0.00    -0.355 N 
ATOM      6  C   UNL A   1      34.927  21.106  25.389  1.00  0.00     0.230 C 
ATOM      7  O   UNL A   1      35.645  20.355  24.722  1.00  0.00    -0.274 OA
ATOM      8  H   UNL A   1      36.323  22.523  25.368  1.00  0.00     0.163 HD
BRANCH   6   9
ATOM      9  C   UNL A   1      33.492  20.729  25.704  1.00  0.00     0.174 C 
BRANCH   9  10
ATOM     10  S   UNL A   1      32.385  20.608  24.267  1.00  0.00    -0.116 SA
BRANCH  10  11
ATOM     11  C   UNL A   1      32.329  22.238  23.542  1.00  0.00     0.010 A 
ATOM     12  C   UNL A   1      29.406  27.578  23.377  1.00  0.00     0.079 C 
ATOM     13  C   UNL A   1      30.278  26.386  23.196  1.00  0.00     0.091 A 
ATOM     14  N   UNL A   1      30.088  25.234  23.796  1.00  0.00    -0.241 NA
ATOM     15  S   UNL A   1      31.647  26.470  22.163  1.00  0.00    -0.119 S 
ATOM     16  C   UNL A   1      31.097  24.351  23.455  1.00  0.00     0.083 A 
ATOM     17  C   UNL A   1      32.056  24.851  22.575  1.00  0.00     0.055 A 
ATOM     18  C   UNL A   1      31.235  23.031  23.926  1.00  0.00     0.045 A 
ATOM     19  C   UNL A   1      33.150  24.076  22.165  1.00  0.00     0.022 A 
ATOM     20  C   UNL A   1      33.278  22.776  22.676  1.00  0.00     0.016 A 
ENDBRANCH  10  11
ENDBRANCH   9  10
ENDBRANCH   6   9
ENDBRANCH   4   5
ENDBRANCH   3   4
ENDBRANCH   2   3
ENDBRANCH   1   2
BRANCH   1  21
ATOM     21  C   UNL A   1      33.141  27.733  26.814  1.00  0.00     0.021 C 
BRANCH  21  22
ATOM     22  C   UNL A   1      34.127  28.753  26.258  1.00  0.00     0.116 C 
BRANCH  22  23
ATOM     23  N   UNL A   1      33.943  30.069  26.853  1.00  0.00    -0.352 N 
ATOM     24  C   UNL A   1      34.712  30.712  27.789  1.00  0.00     0.251 C 
ATOM     25  H   UNL A   1      33.154  30.568  26.539  1.00  0.00     0.163 HD
ATOM     26  O   UNL A   1      34.295  31.734  28.331  1.00  0.00    -0.269 OA
BRANCH  24  27
ATOM     27  C   UNL A   1      36.034  30.163  28.159  1.00  0.00     0.039 A 
ATOM     28  C   UNL A   1      37.074  30.211  27.229  1.00  0.00     0.014 A 
ATOM     29  C   UNL A   1      36.246  29.602  29.422  1.00  0.00     0.014 A 
ATOM     30  C   UNL A   1      38.344  29.747  27.585  1.00  0.00     0.010 A 
ATOM     31  C   UNL A   1      37.528  29.213  29.801  1.00  0.00     0.010 A 
ATOM     32  C   UNL A   1      38.589  29.276  28.885  1.00  0.00    -0.014 A 
BRANCH  32  33
ATOM     33  C   UNL A   1      39.944  28.835  29.305  1.00  0.00     0.031 A 
ATOM     34  C   UNL A   1      40.847  29.781  30.051  1.00  0.00     0.074 A 
ATOM     35  C   UNL A   1      40.387  27.609  28.961  1.00  0.00     0.049 A 
ATOM     36  N   UNL A   1      42.084  29.605  30.441  1.00  0.00    -0.248 NA
ATOM     37  C   UNL A   1      40.297  31.105  30.383  1.00  0.00     0.031 C 
ATOM     38  C   UNL A   1      39.621  26.610  28.211  1.00  0.00     0.029 A 
ATOM     39  N   UNL A   1      41.593  26.995  29.191  1.00  0.00    -0.354 N 
ATOM     40  C   UNL A   1      42.463  30.799  31.045  1.00  0.00     0.074 A 
ATOM     41  C   UNL A   1      41.345  31.707  30.925  1.00  0.00     0.031 C 
ATOM     42  C   UNL A   1      40.365  25.503  28.066  1.00  0.00     0.029 A 
ATOM     43  C   UNL A   1      41.677  25.726  28.668  1.00  0.00     0.049 A 
ATOM     44  H   UNL A   1      42.331  27.423  29.683  1.00  0.00     0.167 HD
ATOM     45  C   UNL A   1      43.631  31.106  31.661  1.00  0.00     0.031 A 
ATOM     46  C   UNL A   1      42.695  24.845  28.660  1.00  0.00     0.031 A 
ATOM     47  C   UNL A   1      44.740  30.197  31.782  1.00  0.00     0.049 A 
ATOM     48  C   UNL A   1      43.992  25.218  29.326  1.00  0.00     0.074 A 
ATOM     49  C   UNL A   1      45.946  30.395  32.431  1.00  0.00     0.029 A 
ATOM     50  N   UNL A   1      44.783  28.921  31.239  1.00  0.00    -0.354 N 
ATOM     51  N   UNL A   1      44.309  26.329  29.948  1.00  0.00    -0.248 NA
ATOM     52  C   UNL A   1      45.066  24.215  29.300  1.00  0.00     0.031 C 
ATOM     53  C   UNL A   1      46.742  29.263  32.228  1.00  0.00     0.029 A 
ATOM     54  C   UNL A   1      46.006  28.332  31.513  1.00  0.00     0.049 A 
ATOM     55  H   UNL A   1      44.052  28.497  30.733  1.00  0.00     0.167 HD
ATOM     56  C   UNL A   1      45.607  26.145  30.413  1.00  0.00     0.074 A 
ATOM     57  C   UNL A   1      46.009  24.812  30.015  1.00  0.00     0.031 C 
ATOM     58  C   UNL A   1      46.394  27.003  31.110  1.00  0.00     0.031 A 
BRANCH  45  59
ATOM     59  C   UNL A   1      43.770  32.489  32.243  1.00  0.00    -0.014 A 
ATOM     60  C   UNL A   1      44.370  33.532  31.513  1.00  0.00     0.010 A 
ATOM     61  C   UNL A   1      43.256  32.762  33.524  1.00  0.00     0.010 A 
ATOM     62  C   UNL A   1      44.492  34.808  32.069  1.00  0.00     0.020 A 
ATOM     63  C   UNL A   1      43.347  34.047  34.071  1.00  0.00     0.020 A 
ATOM     64  C   UNL A   1      43.981  35.057  33.345  1.00  0.00     0.054 A 
BRANCH  64  65
ATOM     65  S   UNL A   1      44.133  36.729  34.031  1.00  0.00     0.124 S 
ATOM     66  O   UNL A   1      43.159  37.471  33.234  1.00  0.00    -0.237 OA
ATOM     67  O   UNL A   1      43.777  36.533  35.433  1.00  0.00    -0.237 OA
ATOM     68  O   UNL A   1      45.531  37.079  33.788  1.00  0.00    -0.744 OA
ENDBRANCH  64  65
ENDBRANCH  45  59
BRANCH  46  69
ATOM     69  C   UNL A   1      42.528  23.518  28.004  1.00  0.00    -0.014 A 
ATOM     70  C   UNL A   1      42.892  23.334  26.658  1.00  0.00     0.010 A 
ATOM     71  C   UNL A   1      42.011  22.425  28.725  1.00  0.00     0.010 A 
ATOM     72  C   UNL A   1      42.723  22.091  26.040  1.00  0.00     0.020 A 
ATOM     73  C   UNL A   1      41.871  21.172  28.121  1.00  0.00     0.020 A 
ATOM     74  C   UNL A   1      42.216  21.017  26.777  1.00  0.00     0.054 A 
BRANCH  74  75
ATOM     75  S   UNL A   1      42.052  19.401  25.969  1.00  0.00     0.124 S 
ATOM     76  O   UNL A   1      42.576  18.497  26.988  1.00  0.00    -0.237 OA
ATOM     77  O   UNL A   1      40.614  19.316  25.725  1.00  0.00    -0.237 OA
ATOM     78  O   UNL A   1      42.873  19.535  24.768  1.00  0.00    -0.744 OA
ENDBRANCH  74  75
ENDBRANCH  46  69
BRANCH  58  79
ATOM     79  C   UNL A   1      47.759  26.516  31.523  1.00  0.00    -0.014 A 
ATOM     80  C   UNL A   1      47.990  25.977  32.801  1.00  0.00     0.010 A 
ATOM     81  C   UNL A   1      48.814  26.547  30.592  1.00  0.00     0.010 A 
ATOM     82  C   UNL A   1      49.260  25.509  33.151  1.00  0.00     0.020 A 
ATOM     83  C   UNL A   1      50.076  26.049  30.927  1.00  0.00     0.020 A 
ATOM     84  C   UNL A   1      50.294  25.547  32.210  1.00  0.00     0.054 A 
BRANCH  84  85
ATOM     85  S   UNL A   1      51.920  24.891  32.674  1.00  0.00     0.124 S 
ATOM     86  O   UNL A   1      52.817  25.681  31.836  1.00  0.00    -0.237 OA
ATOM     87  O   UNL A   1      51.983  25.175  34.106  1.00  0.00    -0.237 OA
ATOM     88  O   UNL A   1      51.835  23.473  32.330  1.00  0.00    -0.744 OA
ENDBRANCH  84  85
ENDBRANCH  58  79
ENDBRANCH  32  33
ENDBRANCH  24  27
ENDBRANCH  22  23
ENDBRANCH  21  22
ENDBRANCH   1  21
TORSDOF 18
ENDMDL
MODEL 3
REMARK VINA RESULT:      -9.9      2.576      9.033
REMARK SMILES Cc1nc2cc(SCC(=O)NCCCCCCNC(=O)c3ccc(-c4c5nc(c(-c6ccc(S(=O)(=O)[O-])cc6)c6ccc([nH]6)c(-c6ccc(S(=O)(=O)[O-])cc6)c6nc(c(-c7ccc(S(=O)(=O)[O-])cc7)c7ccc4[nH]7)C=C6)C=C5)cc3)ccc2s1
REMARK SMILES IDX 15 1 14 2 13 3 12 4 11 5 9 6 10 7 8 9 7 10 6 11 1 12 2 13
REMARK SMILES IDX 3 14 84 15 4 16 83 17 5 18 82 19 81 20 16 21 17 22 18 23
REMARK SMILES IDX 19 24 20 26 21 27 22 28 80 29 23 30 79 31 24 32 25 33 26 34
REMARK SMILES IDX 73 35 27 36 78 37 72 38 74 39 28 40 77 41 71 42 70 43 29 45
REMARK SMILES IDX 59 46 40 47 58 48 41 49 44 50 57 51 75 52 42 53 43 54 56 56
REMARK SMILES IDX 76 57 45 58 30 59 31 60 39 61 32 62 38 63 33 64 34 65 35 66
REMARK SMILES IDX 36 67 37 68 60 69 61 70 69 71 62 72 68 73 63 74 64 75 65 76
REMARK SMILES IDX 66 77 67 78 46 79 47 80 55 81 48 82 54 83 49 84 50 85 51 86
REMARK SMILES IDX 52 87 53 88
REMARK H PARENT 11 8 18 25 74 44 44 55
REMARK Flexibility Score: inf
ROOT
ATOM      1  C   UNL A   1      31.394  28.292  26.013  1.00  0.00     0.002 C 
ENDROOT
BRANCH   1   2
ATOM      2  C   UNL A   1      31.607  28.349  24.496  1.00  0.00     0.002 C 
BRANCH   2   3
ATOM      3  C   UNL A   1      30.360  28.051  23.651  1.00  0.00     0.021 C 
BRANCH   3   4
ATOM      4  C   UNL A   1      29.707  26.702  23.958  1.00  0.00     0.116 C 
BRANCH   4   5
ATOM      5  N   UNL A   1      30.431  25.625  23.311  1.00  0.00    -0.355 N 
ATOM      6  C   UNL A   1      31.187  24.633  23.854  1.00  0.00     0.230 C 
ATOM      7  O   UNL A   1      31.780  23.875  23.081  1.00  0.00    -0.274 OA
ATOM      8  H   UNL A   1      30.364  25.609  22.328  1.00  0.00     0.163 HD
BRANCH   6   9
ATOM      9  C   UNL A   1      31.216  24.391  25.351  1.00  0.00     0.174 C 
BRANCH   9  10
ATOM     10  S   UNL A   1      31.164  22.646  25.860  1.00  0.00    -0.116 SA
BRANCH  10  11
ATOM     11  C   UNL A   1      32.780  21.976  25.508  1.00  0.00     0.010 A 
ATOM     12  C   UNL A   1      38.790  22.735  26.130  1.00  0.00     0.079 C 
ATOM     13  C   UNL A   1      37.398  22.320  25.810  1.00  0.00     0.091 A 
ATOM     14  N   UNL A   1      36.331  23.022  26.113  1.00  0.00    -0.241 NA
ATOM     15  S   UNL A   1      37.107  20.829  25.011  1.00  0.00    -0.119 S 
ATOM     16  C   UNL A   1      35.191  22.340  25.724  1.00  0.00     0.083 A 
ATOM     17  C   UNL A   1      35.412  21.108  25.109  1.00  0.00     0.055 A 
ATOM     18  C   UNL A   1      33.864  22.775  25.909  1.00  0.00     0.045 A 
ATOM     19  C   UNL A   1      34.349  20.298  24.688  1.00  0.00     0.022 A 
ATOM     20  C   UNL A   1      33.038  20.742  24.915  1.00  0.00     0.016 A 
ENDBRANCH  10  11
ENDBRANCH   9  10
ENDBRANCH   6   9
ENDBRANCH   4   5
ENDBRANCH   3   4
ENDBRANCH   2   3
ENDBRANCH   1   2
BRANCH   1  21
ATOM     21  C   UNL A   1      32.538  27.650  26.800  1.00  0.00     0.021 C 
BRANCH  21  22
ATOM     22  C   UNL A   1      33.858  28.409  26.729  1.00  0.00     0.116 C 
BRANCH  22  23
ATOM     23  N   UNL A   1      33.717  29.792  27.159  1.00  0.00    -0.352 N 
ATOM     24  C   UNL A   1      34.561  30.550  27.929  1.00  0.00     0.251 C 
ATOM     25  H   UNL A   1      32.898  30.247  26.856  1.00  0.00     0.163 HD
ATOM     26  O   UNL A   1      34.185  31.636  28.368  1.00  0.00    -0.269 OA
BRANCH  24  27
ATOM     27  C   UNL A   1      35.916  30.051  28.246  1.00  0.00     0.039 A 
ATOM     28  C   UNL A   1      36.899  30.077  27.255  1.00  0.00     0.014 A 
ATOM     29  C   UNL A   1      36.216  29.559  29.520  1.00  0.00     0.014 A 
ATOM     30  C   UNL A   1      38.199  29.662  27.557  1.00  0.00     0.010 A 
ATOM     31  C   UNL A   1      37.527  29.220  29.841  1.00  0.00     0.010 A 
ATOM     32  C   UNL A   1      38.531  29.261  28.862  1.00  0.00    -0.014 A 
BRANCH  32  33
ATOM     33  C   UNL A   1      39.920  28.874  29.222  1.00  0.00     0.031 A 
ATOM     34  C   UNL A   1      40.828  29.865  29.900  1.00  0.00     0.074 A 
ATOM     35  C   UNL A   1      40.385  27.655  28.882  1.00  0.00     0.049 A 
ATOM     36  N   UNL A   1      42.088  29.738  30.229  1.00  0.00    -0.248 NA
ATOM     37  C   UNL A   1      40.252  31.178  30.230  1.00  0.00     0.031 C 
ATOM     38  C   UNL A   1      39.615  26.614  28.195  1.00  0.00     0.029 A 
ATOM     39  N   UNL A   1      41.621  27.085  29.063  1.00  0.00    -0.354 N 
ATOM     40  C   UNL A   1      42.458  30.957  30.787  1.00  0.00     0.074 A 
ATOM     41  C   UNL A   1      41.305  31.826  30.705  1.00  0.00     0.031 C 
ATOM     42  C   UNL A   1      40.386  25.528  28.036  1.00  0.00     0.029 A 
ATOM     43  C   UNL A   1      41.719  25.807  28.565  1.00  0.00     0.049 A 
ATOM     44  H   UNL A   1      42.367  27.547  29.508  1.00  0.00     0.167 HD
ATOM     45  C   UNL A   1      43.644  31.314  31.336  1.00  0.00     0.031 A 
ATOM     46  C   UNL A   1      42.764  24.958  28.525  1.00  0.00     0.031 A 
ATOM     47  C   UNL A   1      44.787  30.444  31.420  1.00  0.00     0.049 A 
ATOM     48  C   UNL A   1      44.080  25.388  29.115  1.00  0.00     0.074 A 
ATOM     49  C   UNL A   1      46.017  30.695  32.002  1.00  0.00     0.029 A 
ATOM     50  N   UNL A   1      44.844  29.158  30.903  1.00  0.00    -0.354 N 
ATOM     51  N   UNL A   1      44.392  26.522  29.695  1.00  0.00    -0.248 NA
ATOM     52  C   UNL A   1      45.183  24.419  29.056  1.00  0.00     0.031 C 
ATOM     53  C   UNL A   1      46.839  29.585  31.783  1.00  0.00     0.029 A 
ATOM     54  C   UNL A   1      46.099  28.614  31.128  1.00  0.00     0.049 A 
ATOM     55  H   UNL A   1      44.104  28.699  30.445  1.00  0.00     0.167 HD
ATOM     56  C   UNL A   1      45.717  26.391  30.098  1.00  0.00     0.074 A 
ATOM     57  C   UNL A   1      46.141  25.062  29.709  1.00  0.00     0.031 C 
ATOM     58  C   UNL A   1      46.509  27.289  30.734  1.00  0.00     0.031 A 
BRANCH  45  59
ATOM     59  C   UNL A   1      43.768  32.715  31.879  1.00  0.00    -0.014 A 
ATOM     60  C   UNL A   1      44.080  33.800  31.040  1.00  0.00     0.010 A 
ATOM     61  C   UNL A   1      43.527  32.957  33.244  1.00  0.00     0.010 A 
ATOM     62  C   UNL A   1      44.191  35.091  31.561  1.00  0.00     0.020 A 
ATOM     63  C   UNL A   1      43.605  34.254  33.764  1.00  0.00     0.020 A 
ATOM     64  C   UNL A   1      43.954  35.310  32.921  1.00  0.00     0.054 A 
BRANCH  64  65
ATOM     65  S   UNL A   1      44.084  37.001  33.564  1.00  0.00     0.124 S 
ATOM     66  O   UNL A   1      42.707  37.274  33.972  1.00  0.00    -0.237 OA
ATOM     67  O   UNL A   1      45.044  36.855  34.654  1.00  0.00    -0.237 OA
ATOM     68  O   UNL A   1      44.557  37.774  32.418  1.00  0.00    -0.744 OA
ENDBRANCH  64  65
ENDBRANCH  45  59
BRANCH  46  69
ATOM     69  C   UNL A   1      42.608  23.612  27.907  1.00  0.00    -0.014 A 
ATOM     70  C   UNL A   1      42.201  22.511  28.682  1.00  0.00     0.010 A 
ATOM     71  C   UNL A   1      42.858  23.423  26.534  1.00  0.00     0.010 A 
ATOM     72  C   UNL A   1      42.067  21.245  28.102  1.00  0.00     0.020 A 
ATOM     73  C   UNL A   1      42.694  22.167  25.944  1.00  0.00     0.020 A 
ATOM     74  C   UNL A   1      42.312  21.082  26.735  1.00  0.00     0.054 A 
BRANCH  74  75
ATOM     75  S   UNL A   1      42.083  19.441  25.995  1.00  0.00     0.124 S 
ATOM     76  O   UNL A   1      42.520  18.559  27.072  1.00  0.00    -0.237 OA
ATOM     77  O   UNL A   1      40.652  19.425  25.703  1.00  0.00    -0.237 OA
ATOM     78  O   UNL A   1      42.951  19.473  24.820  1.00  0.00    -0.744 OA
ENDBRANCH  74  75
ENDBRANCH  46  69
BRANCH  58  79
ATOM     79  C   UNL A   1      47.908  26.855  31.088  1.00  0.00    -0.014 A 
ATOM     80  C   UNL A   1      48.186  26.181  32.290  1.00  0.00     0.010 A 
ATOM     81  C   UNL A   1      48.952  27.078  30.170  1.00  0.00     0.010 A 
ATOM     82  C   UNL A   1      49.488  25.767  32.583  1.00  0.00     0.020 A 
ATOM     83  C   UNL A   1      50.249  26.636  30.445  1.00  0.00     0.020 A 
ATOM     84  C   UNL A   1      50.512  25.996  31.657  1.00  0.00     0.054 A 
BRANCH  84  85
ATOM     85  S   UNL A   1      52.183  25.407  32.040  1.00  0.00     0.124 S 
ATOM     86  O   UNL A   1      52.454  26.069  33.314  1.00  0.00    -0.237 OA
ATOM     87  O   UNL A   1      52.004  23.959  32.111  1.00  0.00    -0.237 OA
ATOM     88  O   UNL A   1      52.985  25.876  30.912  1.00  0.00    -0.744 OA
ENDBRANCH  84  85
ENDBRANCH  58  79
ENDBRANCH  32  33
ENDBRANCH  24  27
ENDBRANCH  22  23
ENDBRANCH  21  22
ENDBRANCH   1  21
TORSDOF 18
ENDMDL
