MODEL 1
REMARK VINA RESULT:      -8.0      0.000      0.000
REMARK SMILES O=C(NCCCCCCNC(=O)[C@@H]1CCCN1C(=O)[C@@H]1CCCN1C(=O)OCC1c2ccccc2-c2ccccc21)c1ccc(-c2c3nc(c(-c4ccc(S(=O)(=O)[O-])cc4)c4ccc([nH]4)c(-c4ccc(S(=O)(=O)[O-])cc4)c4nc(c(-c5ccc(S(=O)(=O)[O-])cc5)c5ccc2[nH]5)C=C4)C=C3)cc1
REMARK SMILES IDX 8 1 7 2 6 3 5 4 4 5 3 6 1 7 2 8 42 10 43 11 101 12 44 13
REMARK SMILES IDX 100 14 45 15 46 16 47 17 94 18 48 19 99 20 93 21 95 22 49 23
REMARK SMILES IDX 98 24 92 25 91 26 50 28 80 29 61 30 79 31 62 32 65 33 78 34
REMARK SMILES IDX 96 35 63 36 64 37 77 39 97 40 66 41 51 42 52 43 60 44 53 45
REMARK SMILES IDX 59 46 54 47 55 48 56 49 57 50 58 51 81 52 82 53 90 54 83 55
REMARK SMILES IDX 89 56 84 57 85 58 86 59 87 60 88 61 67 62 68 63 76 64 69 65
REMARK SMILES IDX 75 66 70 67 71 68 72 69 73 70 74 71 9 72 10 73 11 74 12 76
REMARK SMILES IDX 13 77 14 78 17 79 15 80 16 81 18 82 19 83 20 84 21 85 24 86
REMARK SMILES IDX 22 87 23 88 25 89 26 90 27 91 28 92 29 93 30 94 41 95 31 96
REMARK SMILES IDX 35 97 36 98 40 99 32 100 34 101 37 102 39 103 33 104 38 105
REMARK H PARENT 3 9 95 27 65 38 10 75
REMARK Flexibility Score: inf
ROOT
ATOM      1  C   UNL A   1      40.271  35.007  34.997  1.00  0.00     0.021 C 
ENDROOT
BRANCH   1   2
ATOM      2  C   UNL A   1      40.144  36.284  35.838  1.00  0.00     0.002 C 
BRANCH   2   3
ATOM      3  C   UNL A   1      39.695  36.071  37.286  1.00  0.00     0.002 C 
BRANCH   3   4
ATOM      4  C   UNL A   1      40.823  36.052  38.313  1.00  0.00     0.021 C 
BRANCH   4   5
ATOM      5  C   UNL A   1      41.273  34.660  38.716  1.00  0.00     0.116 C 
BRANCH   5   6
ATOM      6  N   UNL A   1      40.155  33.798  39.051  1.00  0.00    -0.352 N 
ATOM      7  O   UNL A   1      38.652  32.158  38.651  1.00  0.00    -0.269 OA
ATOM      8  C   UNL A   1      39.713  32.696  38.361  1.00  0.00     0.251 C 
ATOM      9  H   UNL A   1      39.657  34.030  39.868  1.00  0.00     0.163 HD
BRANCH   8  10
ATOM     10  C   UNL A   1      40.537  32.195  37.242  1.00  0.00     0.039 A 
ATOM     11  C   UNL A   1      41.928  32.330  37.285  1.00  0.00     0.014 A 
ATOM     12  C   UNL A   1      39.910  31.644  36.123  1.00  0.00     0.014 A 
ATOM     13  C   UNL A   1      42.680  32.034  36.156  1.00  0.00     0.010 A 
ATOM     14  C   UNL A   1      40.681  31.254  35.026  1.00  0.00     0.010 A 
ATOM     15  C   UNL A   1      42.070  31.463  35.027  1.00  0.00    -0.014 A 
BRANCH  15  16
ATOM     16  C   UNL A   1      42.923  31.002  33.904  1.00  0.00     0.031 A 
ATOM     17  C   UNL A   1      43.490  29.611  33.864  1.00  0.00     0.074 A 
ATOM     18  C   UNL A   1      43.162  31.866  32.897  1.00  0.00     0.049 A 
ATOM     19  N   UNL A   1      44.252  29.064  32.952  1.00  0.00    -0.248 NA
ATOM     20  C   UNL A   1      43.171  28.720  34.991  1.00  0.00     0.031 C 
ATOM     21  C   UNL A   1      42.665  33.245  32.834  1.00  0.00     0.029 A 
ATOM     22  N   UNL A   1      43.859  31.714  31.727  1.00  0.00    -0.354 N 
ATOM     23  C   UNL A   1      44.514  27.773  33.395  1.00  0.00     0.074 A 
ATOM     24  C   UNL A   1      43.852  27.626  34.674  1.00  0.00     0.031 C 
ATOM     25  C   UNL A   1      43.029  33.792  31.667  1.00  0.00     0.029 A 
ATOM     26  C   UNL A   1      43.846  32.835  30.933  1.00  0.00     0.049 A 
ATOM     27  H   UNL A   1      44.324  30.882  31.481  1.00  0.00     0.167 HD
ATOM     28  C   UNL A   1      45.236  26.799  32.786  1.00  0.00     0.031 A 
ATOM     29  C   UNL A   1      44.445  33.081  29.755  1.00  0.00     0.031 A 
ATOM     30  C   UNL A   1      45.900  26.962  31.517  1.00  0.00     0.049 A 
ATOM     31  C   UNL A   1      45.272  32.000  29.126  1.00  0.00     0.074 A 
ATOM     32  C   UNL A   1      46.653  26.036  30.815  1.00  0.00     0.029 A 
ATOM     33  N   UNL A   1      45.892  28.124  30.760  1.00  0.00    -0.354 N 
ATOM     34  N   UNL A   1      45.495  30.781  29.556  1.00  0.00    -0.248 NA
ATOM     35  C   UNL A   1      45.927  32.325  27.854  1.00  0.00     0.031 C 
ATOM     36  C   UNL A   1      47.138  26.653  29.657  1.00  0.00     0.029 A 
ATOM     37  C   UNL A   1      46.640  27.945  29.608  1.00  0.00     0.049 A 
ATOM     38  H   UNL A   1      45.424  28.955  31.005  1.00  0.00     0.167 HD
ATOM     39  C   UNL A   1      46.306  30.188  28.597  1.00  0.00     0.074 A 
ATOM     40  C   UNL A   1      46.510  31.173  27.554  1.00  0.00     0.031 C 
ATOM     41  C   UNL A   1      46.836  28.940  28.583  1.00  0.00     0.031 A 
BRANCH  28  42
ATOM     42  C   UNL A   1      45.360  25.474  33.492  1.00  0.00    -0.014 A 
ATOM     43  C   UNL A   1      44.434  24.440  33.263  1.00  0.00     0.010 A 
ATOM     44  C   UNL A   1      46.447  25.236  34.353  1.00  0.00     0.010 A 
ATOM     45  C   UNL A   1      44.573  23.208  33.907  1.00  0.00     0.020 A 
ATOM     46  C   UNL A   1      46.604  23.995  34.981  1.00  0.00     0.020 A 
ATOM     47  C   UNL A   1      45.656  22.994  34.766  1.00  0.00     0.054 A 
BRANCH  47  48
ATOM     48  S   UNL A   1      45.821  21.376  35.570  1.00  0.00     0.124 S 
ATOM     49  O   UNL A   1      45.618  21.718  36.976  1.00  0.00    -0.237 OA
ATOM     50  O   UNL A   1      44.749  20.600  34.953  1.00  0.00    -0.237 OA
ATOM     51  O   UNL A   1      47.175  20.951  35.222  1.00  0.00    -0.744 OA
ENDBRANCH  47  48
ENDBRANCH  28  42
BRANCH  29  52
ATOM     52  C   UNL A   1      44.303  34.418  29.117  1.00  0.00    -0.014 A 
ATOM     53  C   UNL A   1      43.407  34.617  28.054  1.00  0.00     0.010 A 
ATOM     54  C   UNL A   1      45.061  35.508  29.588  1.00  0.00     0.010 A 
ATOM     55  C   UNL A   1      43.290  35.874  27.456  1.00  0.00     0.020 A 
ATOM     56  C   UNL A   1      44.922  36.773  29.015  1.00  0.00     0.020 A 
ATOM     57  C   UNL A   1      44.049  36.944  27.939  1.00  0.00     0.054 A 
BRANCH  57  58
ATOM     58  S   UNL A   1      43.859  38.575  27.169  1.00  0.00     0.124 S 
ATOM     59  O   UNL A   1      45.020  38.630  26.288  1.00  0.00    -0.237 OA
ATOM     60  O   UNL A   1      42.563  38.462  26.504  1.00  0.00    -0.237 OA
ATOM     61  O   UNL A   1      43.888  39.494  28.305  1.00  0.00    -0.744 OA
ENDBRANCH  57  58
ENDBRANCH  29  52
BRANCH  41  62
ATOM     62  C   UNL A   1      47.662  28.566  27.382  1.00  0.00    -0.014 A 
ATOM     63  C   UNL A   1      49.046  28.812  27.345  1.00  0.00     0.010 A 
ATOM     64  C   UNL A   1      47.045  27.936  26.287  1.00  0.00     0.010 A 
ATOM     65  C   UNL A   1      49.792  28.470  26.214  1.00  0.00     0.020 A 
ATOM     66  C   UNL A   1      47.793  27.567  25.166  1.00  0.00     0.020 A 
ATOM     67  C   UNL A   1      49.160  27.852  25.131  1.00  0.00     0.054 A 
BRANCH  67  68
ATOM     68  S   UNL A   1      50.155  27.390  23.687  1.00  0.00     0.124 S 
ATOM     69  O   UNL A   1      51.036  26.366  24.242  1.00  0.00    -0.237 OA
ATOM     70  O   UNL A   1      49.148  26.909  22.743  1.00  0.00    -0.237 OA
ATOM     71  O   UNL A   1      50.811  28.637  23.305  1.00  0.00    -0.744 OA
ENDBRANCH  67  68
ENDBRANCH  41  62
ENDBRANCH  15  16
ENDBRANCH   8  10
ENDBRANCH   5   6
ENDBRANCH   4   5
ENDBRANCH   3   4
ENDBRANCH   2   3
ENDBRANCH   1   2
BRANCH   1  72
ATOM     72  C   UNL A   1      39.094  34.742  34.067  1.00  0.00     0.116 C 
BRANCH  72  73
ATOM     73  N   UNL A   1      37.920  34.265  34.770  1.00  0.00    -0.354 N 
ATOM     74  C   UNL A   1      36.699  33.887  34.305  1.00  0.00     0.242 C 
ATOM     75  H   UNL A   1      38.024  34.206  35.747  1.00  0.00     0.163 HD
ATOM     76  O   UNL A   1      35.902  33.439  35.135  1.00  0.00    -0.273 OA
BRANCH  74  77
ATOM     77  C   UNL A   1      36.382  33.869  32.803  1.00  0.00     0.174 C 
ATOM     78  C   UNL A   1      35.194  34.818  32.554  1.00  0.00     0.037 C 
ATOM     79  N   UNL A   1      35.958  32.598  32.205  1.00  0.00    -0.329 N 
ATOM     80  C   UNL A   1      34.523  34.278  31.308  1.00  0.00     0.024 C 
ATOM     81  C   UNL A   1      34.788  32.785  31.357  1.00  0.00     0.120 C 
BRANCH  79  82
ATOM     82  C   UNL A   1      36.640  31.407  32.086  1.00  0.00     0.246 C 
ATOM     83  O   UNL A   1      36.366  30.481  32.868  1.00  0.00    -0.272 OA
BRANCH  82  84
ATOM     84  C   UNL A   1      37.858  31.203  31.154  1.00  0.00     0.178 C 
ATOM     85  C   UNL A   1      39.105  31.886  31.711  1.00  0.00     0.037 C 
ATOM     86  N   UNL A   1      37.834  31.582  29.755  1.00  0.00    -0.296 N 
ATOM     87  C   UNL A   1      39.968  32.290  30.524  1.00  0.00     0.024 C 
ATOM     88  C   UNL A   1      39.138  32.000  29.291  1.00  0.00     0.124 C 
BRANCH  86  89
ATOM     89  C   UNL A   1      36.968  31.010  28.852  1.00  0.00     0.410 C 
ATOM     90  O   UNL A   1      36.291  31.658  28.062  1.00  0.00    -0.224 OA
BRANCH  89  91
ATOM     91  O   UNL A   1      36.916  29.657  28.969  1.00  0.00    -0.448 OA
BRANCH  91  92
ATOM     92  C   UNL A   1      37.685  28.936  27.996  1.00  0.00     0.248 C 
BRANCH  92  93
ATOM     93  C   UNL A   1      38.895  28.141  28.547  1.00  0.00     0.088 C 
ATOM     94  C   UNL A   1      40.227  28.661  27.997  1.00  0.00    -0.029 A 
ATOM     95  C   UNL A   1      39.174  28.132  30.049  1.00  0.00    -0.029 A 
ATOM     96  C   UNL A   1      40.605  28.842  26.674  1.00  0.00     0.005 A 
ATOM     97  C   UNL A   1      41.128  28.913  29.050  1.00  0.00    -0.014 A 
ATOM     98  C   UNL A   1      40.490  28.581  30.303  1.00  0.00    -0.014 A 
ATOM     99  C   UNL A   1      38.365  27.716  31.096  1.00  0.00     0.005 A 
ATOM    100  C   UNL A   1      41.890  29.321  26.411  1.00  0.00     0.000 A 
ATOM    101  C   UNL A   1      42.401  29.396  28.791  1.00  0.00     0.009 A 
ATOM    102  C   UNL A   1      40.985  28.647  31.597  1.00  0.00     0.009 A 
ATOM    103  C   UNL A   1      38.843  27.836  32.405  1.00  0.00     0.000 A 
ATOM    104  C   UNL A   1      42.778  29.603  27.461  1.00  0.00     0.001 A 
ATOM    105  C   UNL A   1      40.142  28.296  32.654  1.00  0.00     0.001 A 
ENDBRANCH  92  93
ENDBRANCH  91  92
ENDBRANCH  89  91
ENDBRANCH  86  89
ENDBRANCH  82  84
ENDBRANCH  79  82
ENDBRANCH  74  77
ENDBRANCH  72  73
ENDBRANCH   1  72
TORSDOF 22
ENDMDL
MODEL 2
REMARK VINA RESULT:      -7.9      3.138      9.826
REMARK SMILES O=C(NCCCCCCNC(=O)[C@@H]1CCCN1C(=O)[C@@H]1CCCN1C(=O)OCC1c2ccccc2-c2ccccc21)c1ccc(-c2c3nc(c(-c4ccc(S(=O)(=O)[O-])cc4)c4ccc([nH]4)c(-c4ccc(S(=O)(=O)[O-])cc4)c4nc(c(-c5ccc(S(=O)(=O)[O-])cc5)c5ccc2[nH]5)C=C4)C=C3)cc1
REMARK SMILES IDX 8 1 7 2 6 3 5 4 4 5 3 6 1 7 2 8 42 10 43 11 101 12 44 13
REMARK SMILES IDX 100 14 45 15 46 16 47 17 94 18 48 19 99 20 93 21 95 22 49 23
REMARK SMILES IDX 98 24 92 25 91 26 50 28 80 29 61 30 79 31 62 32 65 33 78 34
REMARK SMILES IDX 96 35 63 36 64 37 77 39 97 40 66 41 51 42 52 43 60 44 53 45
REMARK SMILES IDX 59 46 54 47 55 48 56 49 57 50 58 51 81 52 82 53 90 54 83 55
REMARK SMILES IDX 89 56 84 57 85 58 86 59 87 60 88 61 67 62 68 63 76 64 69 65
REMARK SMILES IDX 75 66 70 67 71 68 72 69 73 70 74 71 9 72 10 73 11 74 12 76
REMARK SMILES IDX 13 77 14 78 17 79 15 80 16 81 18 82 19 83 20 84 21 85 24 86
REMARK SMILES IDX 22 87 23 88 25 89 26 90 27 91 28 92 29 93 30 94 41 95 31 96
REMARK SMILES IDX 35 97 36 98 40 99 32 100 34 101 37 102 39 103 33 104 38 105
REMARK H PARENT 3 9 95 27 65 38 10 75
REMARK Flexibility Score: inf
ROOT
ATOM      1  C   UNL A   1      45.005  21.868  24.302  1.00  0.00     0.021 C 
ENDROOT
BRANCH   1   2
ATOM      2  C   UNL A   1      46.064  22.238  25.349  1.00  0.00     0.002 C 
BRANCH   2   3
ATOM      3  C   UNL A   1      46.420  23.725  25.422  1.00  0.00     0.002 C 
BRANCH   3   4
ATOM      4  C   UNL A   1      47.143  24.274  24.196  1.00  0.00     0.021 C 
BRANCH   4   5
ATOM      5  C   UNL A   1      48.331  25.162  24.521  1.00  0.00     0.116 C 
BRANCH   5   6
ATOM      6  N   UNL A   1      48.511  26.216  23.541  1.00  0.00    -0.352 N 
ATOM      7  O   UNL A   1      48.104  28.243  22.628  1.00  0.00    -0.269 OA
ATOM      8  C   UNL A   1      48.033  27.502  23.600  1.00  0.00     0.251 C 
ATOM      9  H   UNL A   1      49.037  25.983  22.742  1.00  0.00     0.163 HD
BRANCH   8  10
ATOM     10  C   UNL A   1      47.404  27.958  24.857  1.00  0.00     0.039 A 
ATOM     11  C   UNL A   1      48.195  28.490  25.879  1.00  0.00     0.014 A 
ATOM     12  C   UNL A   1      46.029  27.795  25.033  1.00  0.00     0.014 A 
ATOM     13  C   UNL A   1      47.630  28.738  27.123  1.00  0.00     0.010 A 
ATOM     14  C   UNL A   1      45.447  28.141  26.254  1.00  0.00     0.010 A 
ATOM     15  C   UNL A   1      46.246  28.598  27.315  1.00  0.00    -0.014 A 
BRANCH  15  16
ATOM     16  C   UNL A   1      45.650  29.032  28.602  1.00  0.00     0.031 A 
ATOM     17  C   UNL A   1      45.564  28.107  29.783  1.00  0.00     0.074 A 
ATOM     18  C   UNL A   1      45.201  30.300  28.694  1.00  0.00     0.049 A 
ATOM     19  N   UNL A   1      45.070  28.342  30.972  1.00  0.00    -0.248 NA
ATOM     20  C   UNL A   1      46.091  26.744  29.611  1.00  0.00     0.031 C 
ATOM     21  C   UNL A   1      45.229  31.285  27.607  1.00  0.00     0.029 A 
ATOM     22  N   UNL A   1      44.655  30.987  29.746  1.00  0.00    -0.354 N 
ATOM     23  C   UNL A   1      45.214  27.158  31.687  1.00  0.00     0.074 A 
ATOM     24  C   UNL A   1      45.818  26.196  30.788  1.00  0.00     0.031 C 
ATOM     25  C   UNL A   1      44.772  32.459  28.063  1.00  0.00     0.029 A 
ATOM     26  C   UNL A   1      44.349  32.293  29.446  1.00  0.00     0.049 A 
ATOM     27  H   UNL A   1      44.497  30.584  30.630  1.00  0.00     0.167 HD
ATOM     28  C   UNL A   1      44.880  26.902  32.976  1.00  0.00     0.031 A 
ATOM     29  C   UNL A   1      43.767  33.250  30.192  1.00  0.00     0.031 A 
ATOM     30  C   UNL A   1      44.269  27.866  33.857  1.00  0.00     0.049 A 
ATOM     31  C   UNL A   1      43.369  32.925  31.601  1.00  0.00     0.074 A 
ATOM     32  C   UNL A   1      43.893  27.706  35.180  1.00  0.00     0.029 A 
ATOM     33  N   UNL A   1      43.943  29.167  33.506  1.00  0.00    -0.354 N 
ATOM     34  N   UNL A   1      43.527  31.803  32.261  1.00  0.00    -0.248 NA
ATOM     35  C   UNL A   1      42.715  33.993  32.365  1.00  0.00     0.031 C 
ATOM     36  C   UNL A   1      43.299  28.896  35.614  1.00  0.00     0.029 A 
ATOM     37  C   UNL A   1      43.357  29.816  34.581  1.00  0.00     0.049 A 
ATOM     38  H   UNL A   1      44.105  29.572  32.623  1.00  0.00     0.167 HD
ATOM     39  C   UNL A   1      43.005  32.036  33.527  1.00  0.00     0.074 A 
ATOM     40  C   UNL A   1      42.552  33.413  33.545  1.00  0.00     0.031 C 
ATOM     41  C   UNL A   1      42.907  31.186  34.578  1.00  0.00     0.031 A 
BRANCH  28  42
ATOM     42  C   UNL A   1      45.151  25.519  33.509  1.00  0.00    -0.014 A 
ATOM     43  C   UNL A   1      44.220  24.479  33.334  1.00  0.00     0.010 A 
ATOM     44  C   UNL A   1      46.375  25.238  34.142  1.00  0.00     0.010 A 
ATOM     45  C   UNL A   1      44.493  23.195  33.814  1.00  0.00     0.020 A 
ATOM     46  C   UNL A   1      46.664  23.948  34.601  1.00  0.00     0.020 A 
ATOM     47  C   UNL A   1      45.712  22.938  34.448  1.00  0.00     0.054 A 
BRANCH  47  48
ATOM     48  S   UNL A   1      46.046  21.255  35.039  1.00  0.00     0.124 S 
ATOM     49  O   UNL A   1      44.745  20.614  34.871  1.00  0.00    -0.237 OA
ATOM     50  O   UNL A   1      47.093  20.797  34.131  1.00  0.00    -0.237 OA
ATOM     51  O   UNL A   1      46.469  21.452  36.424  1.00  0.00    -0.744 OA
ENDBRANCH  47  48
ENDBRANCH  28  42
BRANCH  29  52
ATOM     52  C   UNL A   1      43.506  34.591  29.602  1.00  0.00    -0.014 A 
ATOM     53  C   UNL A   1      44.445  35.627  29.726  1.00  0.00     0.010 A 
ATOM     54  C   UNL A   1      42.311  34.829  28.896  1.00  0.00     0.010 A 
ATOM     55  C   UNL A   1      44.184  36.885  29.177  1.00  0.00     0.020 A 
ATOM     56  C   UNL A   1      42.061  36.074  28.318  1.00  0.00     0.020 A 
ATOM     57  C   UNL A   1      42.993  37.102  28.478  1.00  0.00     0.054 A 
BRANCH  57  58
ATOM     58  S   UNL A   1      42.687  38.733  27.746  1.00  0.00     0.124 S 
ATOM     59  O   UNL A   1      44.021  39.116  27.296  1.00  0.00    -0.237 OA
ATOM     60  O   UNL A   1      41.724  38.431  26.690  1.00  0.00    -0.237 OA
ATOM     61  O   UNL A   1      42.153  39.512  28.861  1.00  0.00    -0.744 OA
ENDBRANCH  57  58
ENDBRANCH  29  52
BRANCH  41  62
ATOM     62  C   UNL A   1      42.313  31.738  35.845  1.00  0.00    -0.014 A 
ATOM     63  C   UNL A   1      40.923  31.892  35.991  1.00  0.00     0.010 A 
ATOM     64  C   UNL A   1      43.159  32.082  36.914  1.00  0.00     0.010 A 
ATOM     65  C   UNL A   1      40.392  32.421  37.170  1.00  0.00     0.020 A 
ATOM     66  C   UNL A   1      42.630  32.584  38.106  1.00  0.00     0.020 A 
ATOM     67  C   UNL A   1      41.250  32.766  38.219  1.00  0.00     0.054 A 
BRANCH  67  68
ATOM     68  S   UNL A   1      40.536  33.420  39.752  1.00  0.00     0.124 S 
ATOM     69  O   UNL A   1      40.655  32.278  40.654  1.00  0.00    -0.237 OA
ATOM     70  O   UNL A   1      41.407  34.554  40.054  1.00  0.00    -0.237 OA
ATOM     71  O   UNL A   1      39.171  33.776  39.374  1.00  0.00    -0.744 OA
ENDBRANCH  67  68
ENDBRANCH  41  62
ENDBRANCH  15  16
ENDBRANCH   8  10
ENDBRANCH   5   6
ENDBRANCH   4   5
ENDBRANCH   3   4
ENDBRANCH   2   3
ENDBRANCH   1   2
BRANCH   1  72
ATOM     72  C   UNL A   1      43.819  22.822  24.237  1.00  0.00     0.116 C 
BRANCH  72  73
ATOM     73  N   UNL A   1      42.631  22.285  24.870  1.00  0.00    -0.354 N 
ATOM     74  C   UNL A   1      42.071  22.552  26.080  1.00  0.00     0.242 C 
ATOM     75  H   UNL A   1      42.150  21.613  24.334  1.00  0.00     0.163 HD
ATOM     76  O   UNL A   1      40.996  21.997  26.330  1.00  0.00    -0.273 OA
BRANCH  74  77
ATOM     77  C   UNL A   1      42.662  23.609  27.022  1.00  0.00     0.174 C 
ATOM     78  C   UNL A   1      43.748  22.932  27.881  1.00  0.00     0.037 C 
ATOM     79  N   UNL A   1      41.767  24.234  28.003  1.00  0.00    -0.329 N 
ATOM     80  C   UNL A   1      43.796  23.746  29.156  1.00  0.00     0.024 C 
ATOM     81  C   UNL A   1      42.380  24.265  29.324  1.00  0.00     0.120 C 
BRANCH  79  82
ATOM     82  C   UNL A   1      40.650  25.016  27.807  1.00  0.00     0.246 C 
ATOM     83  O   UNL A   1      39.528  24.498  27.923  1.00  0.00    -0.272 OA
BRANCH  82  84
ATOM     84  C   UNL A   1      40.702  26.468  27.271  1.00  0.00     0.178 C 
ATOM     85  C   UNL A   1      41.202  26.511  25.829  1.00  0.00     0.037 C 
ATOM     86  N   UNL A   1      41.447  27.514  27.942  1.00  0.00    -0.296 N 
ATOM     87  C   UNL A   1      41.909  27.845  25.635  1.00  0.00     0.024 C 
ATOM     88  C   UNL A   1      41.969  28.485  27.006  1.00  0.00     0.124 C 
BRANCH  86  89
ATOM     89  C   UNL A   1      41.146  27.929  29.219  1.00  0.00     0.410 C 
ATOM     90  O   UNL A   1      41.857  27.698  30.190  1.00  0.00    -0.224 OA
BRANCH  89  91
ATOM     91  O   UNL A   1      39.954  28.579  29.285  1.00  0.00    -0.448 OA
BRANCH  91  92
ATOM     92  C   UNL A   1      40.029  29.932  29.757  1.00  0.00     0.248 C 
BRANCH  92  93
ATOM     93  C   UNL A   1      38.677  30.594  30.124  1.00  0.00     0.088 C 
ATOM     94  C   UNL A   1      38.789  32.119  30.227  1.00  0.00    -0.029 A 
ATOM     95  C   UNL A   1      37.481  30.443  29.186  1.00  0.00    -0.029 A 
ATOM     96  C   UNL A   1      39.672  32.872  30.987  1.00  0.00     0.005 A 
ATOM     97  C   UNL A   1      37.792  32.737  29.446  1.00  0.00    -0.014 A 
ATOM     98  C   UNL A   1      36.986  31.715  28.818  1.00  0.00    -0.014 A 
ATOM     99  C   UNL A   1      36.848  29.293  28.736  1.00  0.00     0.005 A 
ATOM    100  C   UNL A   1      39.576  34.263  30.930  1.00  0.00     0.000 A 
ATOM    101  C   UNL A   1      37.700  34.118  29.383  1.00  0.00     0.009 A 
ATOM    102  C   UNL A   1      35.888  31.840  27.981  1.00  0.00     0.009 A 
ATOM    103  C   UNL A   1      35.777  29.418  27.846  1.00  0.00     0.000 A 
ATOM    104  C   UNL A   1      38.603  34.882  30.128  1.00  0.00     0.001 A 
ATOM    105  C   UNL A   1      35.299  30.680  27.472  1.00  0.00     0.001 A 
ENDBRANCH  92  93
ENDBRANCH  91  92
ENDBRANCH  89  91
ENDBRANCH  86  89
ENDBRANCH  82  84
ENDBRANCH  79  82
ENDBRANCH  74  77
ENDBRANCH  72  73
ENDBRANCH   1  72
TORSDOF 22
ENDMDL
MODEL 3
REMARK VINA RESULT:      -7.2      5.540     12.238
REMARK SMILES O=C(NCCCCCCNC(=O)[C@@H]1CCCN1C(=O)[C@@H]1CCCN1C(=O)OCC1c2ccccc2-c2ccccc21)c1ccc(-c2c3nc(c(-c4ccc(S(=O)(=O)[O-])cc4)c4ccc([nH]4)c(-c4ccc(S(=O)(=O)[O-])cc4)c4nc(c(-c5ccc(S(=O)(=O)[O-])cc5)c5ccc2[nH]5)C=C4)C=C3)cc1
REMARK SMILES IDX 8 1 7 2 6 3 5 4 4 5 3 6 1 7 2 8 42 10 43 11 101 12 44 13
REMARK SMILES IDX 100 14 45 15 46 16 47 17 94 18 48 19 99 20 93 21 95 22 49 23
REMARK SMILES IDX 98 24 92 25 91 26 50 28 80 29 61 30 79 31 62 32 65 33 78 34
REMARK SMILES IDX 96 35 63 36 64 37 77 39 97 40 66 41 51 42 52 43 60 44 53 45
REMARK SMILES IDX 59 46 54 47 55 48 56 49 57 50 58 51 81 52 82 53 90 54 83 55
REMARK SMILES IDX 89 56 84 57 85 58 86 59 87 60 88 61 67 62 68 63 76 64 69 65
REMARK SMILES IDX 75 66 70 67 71 68 72 69 73 70 74 71 9 72 10 73 11 74 12 76
REMARK SMILES IDX 13 77 14 78 17 79 15 80 16 81 18 82 19 83 20 84 21 85 24 86
REMARK SMILES IDX 22 87 23 88 25 89 26 90 27 91 28 92 29 93 30 94 41 95 31 96
REMARK SMILES IDX 35 97 36 98 40 99 32 100 34 101 37 102 39 103 33 104 38 105
REMARK H PARENT 3 9 95 27 65 38 10 75
REMARK Flexibility Score: inf
ROOT
ATOM      1  C   UNL A   1      44.144  21.571  25.204  1.00  0.00     0.021 C 
ENDROOT
BRANCH   1   2
ATOM      2  C   UNL A   1      45.384  22.472  25.269  1.00  0.00     0.002 C 
BRANCH   2   3
ATOM      3  C   UNL A   1      45.113  23.970  25.102  1.00  0.00     0.002 C 
BRANCH   3   4
ATOM      4  C   UNL A   1      46.124  24.886  25.785  1.00  0.00     0.021 C 
BRANCH   4   5
ATOM      5  C   UNL A   1      45.563  25.662  26.962  1.00  0.00     0.116 C 
BRANCH   5   6
ATOM      6  N   UNL A   1      44.642  24.868  27.753  1.00  0.00    -0.352 N 
ATOM      7  O   UNL A   1      43.347  24.439  29.555  1.00  0.00    -0.269 OA
ATOM      8  C   UNL A   1      43.957  25.257  28.878  1.00  0.00     0.251 C 
ATOM      9  H   UNL A   1      44.489  23.945  27.447  1.00  0.00     0.163 HD
BRANCH   8  10
ATOM     10  C   UNL A   1      44.002  26.681  29.267  1.00  0.00     0.039 A 
ATOM     11  C   UNL A   1      44.934  27.117  30.213  1.00  0.00     0.014 A 
ATOM     12  C   UNL A   1      43.070  27.569  28.727  1.00  0.00     0.014 A 
ATOM     13  C   UNL A   1      44.848  28.409  30.715  1.00  0.00     0.010 A 
ATOM     14  C   UNL A   1      43.052  28.896  29.161  1.00  0.00     0.010 A 
ATOM     15  C   UNL A   1      43.929  29.321  30.171  1.00  0.00    -0.014 A 
BRANCH  15  16
ATOM     16  C   UNL A   1      43.977  30.738  30.609  1.00  0.00     0.031 A 
ATOM     17  C   UNL A   1      44.869  31.742  29.934  1.00  0.00     0.074 A 
ATOM     18  C   UNL A   1      43.175  31.112  31.626  1.00  0.00     0.049 A 
ATOM     19  N   UNL A   1      45.021  33.013  30.204  1.00  0.00    -0.248 NA
ATOM     20  C   UNL A   1      45.702  31.262  28.820  1.00  0.00     0.031 C 
ATOM     21  C   UNL A   1      42.271  30.218  32.359  1.00  0.00     0.029 A 
ATOM     22  N   UNL A   1      42.970  32.336  32.207  1.00  0.00    -0.354 N 
ATOM     23  C   UNL A   1      45.971  33.485  29.306  1.00  0.00     0.074 A 
ATOM     24  C   UNL A   1      46.383  32.355  28.500  1.00  0.00     0.031 C 
ATOM     25  C   UNL A   1      41.574  30.932  33.253  1.00  0.00     0.029 A 
ATOM     26  C   UNL A   1      42.033  32.314  33.212  1.00  0.00     0.049 A 
ATOM     27  H   UNL A   1      43.449  33.151  31.931  1.00  0.00     0.167 HD
ATOM     28  C   UNL A   1      46.449  34.746  29.165  1.00  0.00     0.031 A 
ATOM     29  C   UNL A   1      41.603  33.291  34.031  1.00  0.00     0.031 A 
ATOM     30  C   UNL A   1      46.039  35.861  29.982  1.00  0.00     0.049 A 
ATOM     31  C   UNL A   1      42.182  34.666  33.880  1.00  0.00     0.074 A 
ATOM     32  C   UNL A   1      46.462  37.177  29.917  1.00  0.00     0.029 A 
ATOM     33  N   UNL A   1      45.113  35.791  31.012  1.00  0.00    -0.354 N 
ATOM     34  N   UNL A   1      43.070  35.093  33.014  1.00  0.00    -0.248 NA
ATOM     35  C   UNL A   1      41.701  35.691  34.813  1.00  0.00     0.031 C 
ATOM     36  C   UNL A   1      45.826  37.893  30.938  1.00  0.00     0.029 A 
ATOM     37  C   UNL A   1      44.963  37.036  31.601  1.00  0.00     0.049 A 
ATOM     38  H   UNL A   1      44.632  34.976  31.285  1.00  0.00     0.167 HD
ATOM     39  C   UNL A   1      43.244  36.443  33.290  1.00  0.00     0.074 A 
ATOM     40  C   UNL A   1      42.348  36.764  34.384  1.00  0.00     0.031 C 
ATOM     41  C   UNL A   1      44.071  37.336  32.693  1.00  0.00     0.031 A 
BRANCH  28  42
ATOM     42  C   UNL A   1      47.485  34.987  28.097  1.00  0.00    -0.014 A 
ATOM     43  C   UNL A   1      47.119  35.091  26.742  1.00  0.00     0.010 A 
ATOM     44  C   UNL A   1      48.833  35.169  28.455  1.00  0.00     0.010 A 
ATOM     45  C   UNL A   1      48.087  35.337  25.764  1.00  0.00     0.020 A 
ATOM     46  C   UNL A   1      49.801  35.440  27.481  1.00  0.00     0.020 A 
ATOM     47  C   UNL A   1      49.423  35.507  26.139  1.00  0.00     0.054 A 
BRANCH  47  48
ATOM     48  S   UNL A   1      50.652  35.846  24.848  1.00  0.00     0.124 S 
ATOM     49  O   UNL A   1      50.918  34.507  24.328  1.00  0.00    -0.237 OA
ATOM     50  O   UNL A   1      49.930  36.738  23.944  1.00  0.00    -0.237 OA
ATOM     51  O   UNL A   1      51.759  36.463  25.575  1.00  0.00    -0.744 OA
ENDBRANCH  47  48
ENDBRANCH  28  42
BRANCH  29  52
ATOM     52  C   UNL A   1      40.595  32.986  35.081  1.00  0.00    -0.014 A 
ATOM     53  C   UNL A   1      39.224  32.965  34.777  1.00  0.00     0.010 A 
ATOM     54  C   UNL A   1      41.010  32.698  36.395  1.00  0.00     0.010 A 
ATOM     55  C   UNL A   1      38.285  32.687  35.774  1.00  0.00     0.020 A 
ATOM     56  C   UNL A   1      40.077  32.387  37.386  1.00  0.00     0.020 A 
ATOM     57  C   UNL A   1      38.717  32.402  37.073  1.00  0.00     0.054 A 
BRANCH  57  58
ATOM     58  S   UNL A   1      37.484  32.013  38.344  1.00  0.00     0.124 S 
ATOM     59  O   UNL A   1      37.172  30.620  38.046  1.00  0.00    -0.237 OA
ATOM     60  O   UNL A   1      38.222  32.247  39.583  1.00  0.00    -0.237 OA
ATOM     61  O   UNL A   1      36.409  32.968  38.080  1.00  0.00    -0.744 OA
ENDBRANCH  57  58
ENDBRANCH  29  52
BRANCH  41  62
ATOM     62  C   UNL A   1      44.019  38.753  33.196  1.00  0.00    -0.014 A 
ATOM     63  C   UNL A   1      43.185  39.710  32.591  1.00  0.00     0.010 A 
ATOM     64  C   UNL A   1      44.798  39.123  34.306  1.00  0.00     0.010 A 
ATOM     65  C   UNL A   1      43.162  41.025  33.063  1.00  0.00     0.020 A 
ATOM     66  C   UNL A   1      44.757  40.429  34.799  1.00  0.00     0.020 A 
ATOM     67  C   UNL A   1      43.952  41.376  34.163  1.00  0.00     0.054 A 
BRANCH  67  68
ATOM     68  S   UNL A   1      43.883  43.080  34.779  1.00  0.00     0.124 S 
ATOM     69  O   UNL A   1      44.351  43.839  33.622  1.00  0.00    -0.237 OA
ATOM     70  O   UNL A   1      42.469  43.245  35.110  1.00  0.00    -0.237 OA
ATOM     71  O   UNL A   1      44.787  43.071  35.926  1.00  0.00    -0.744 OA
ENDBRANCH  67  68
ENDBRANCH  41  62
ENDBRANCH  15  16
ENDBRANCH   8  10
ENDBRANCH   5   6
ENDBRANCH   4   5
ENDBRANCH   3   4
ENDBRANCH   2   3
ENDBRANCH   1   2
BRANCH   1  72
ATOM     72  C   UNL A   1      42.819  22.302  25.383  1.00  0.00     0.116 C 
BRANCH  72  73
ATOM     73  N   UNL A   1      41.792  21.466  25.971  1.00  0.00    -0.354 N 
ATOM     74  C   UNL A   1      40.547  21.774  26.424  1.00  0.00     0.242 C 
ATOM     75  H   UNL A   1      42.037  20.516  26.059  1.00  0.00     0.163 HD
ATOM     76  O   UNL A   1      39.846  20.833  26.806  1.00  0.00    -0.273 OA
BRANCH  74  77
ATOM     77  C   UNL A   1      39.984  23.198  26.318  1.00  0.00     0.174 C 
ATOM     78  C   UNL A   1      40.485  24.002  27.534  1.00  0.00     0.037 C 
ATOM     79  N   UNL A   1      38.527  23.366  26.353  1.00  0.00    -0.329 N 
ATOM     80  C   UNL A   1      39.436  25.072  27.749  1.00  0.00     0.024 C 
ATOM     81  C   UNL A   1      38.146  24.435  27.267  1.00  0.00     0.120 C 
BRANCH  79  82
ATOM     82  C   UNL A   1      37.564  22.909  25.480  1.00  0.00     0.246 C 
ATOM     83  O   UNL A   1      37.423  23.485  24.389  1.00  0.00    -0.272 OA
BRANCH  82  84
ATOM     84  C   UNL A   1      36.518  21.828  25.845  1.00  0.00     0.178 C 
ATOM     85  C   UNL A   1      36.690  20.575  24.989  1.00  0.00     0.037 C 
ATOM     86  N   UNL A   1      35.092  22.090  25.818  1.00  0.00    -0.296 N 
ATOM     87  C   UNL A   1      35.317  19.935  24.844  1.00  0.00     0.024 C 
ATOM     88  C   UNL A   1      34.337  20.909  25.463  1.00  0.00     0.124 C 
BRANCH  86  89
ATOM     89  C   UNL A   1      34.501  23.028  26.633  1.00  0.00     0.410 C 
ATOM     90  O   UNL A   1      34.458  22.931  27.853  1.00  0.00    -0.224 OA
BRANCH  89  91
ATOM     91  O   UNL A   1      33.934  24.042  25.928  1.00  0.00    -0.448 OA
BRANCH  91  92
ATOM     92  C   UNL A   1      32.630  24.436  26.379  1.00  0.00     0.248 C 
BRANCH  92  93
ATOM     93  C   UNL A   1      31.852  25.393  25.441  1.00  0.00     0.088 C 
ATOM     94  C   UNL A   1      31.926  26.849  25.911  1.00  0.00    -0.029 A 
ATOM     95  C   UNL A   1      32.274  25.527  23.979  1.00  0.00    -0.029 A 
ATOM     96  C   UNL A   1      31.605  27.374  27.154  1.00  0.00     0.005 A 
ATOM     97  C   UNL A   1      32.338  27.685  24.854  1.00  0.00    -0.014 A 
ATOM     98  C   UNL A   1      32.542  26.880  23.671  1.00  0.00    -0.014 A 
ATOM     99  C   UNL A   1      32.364  24.557  22.992  1.00  0.00     0.005 A 
ATOM    100  C   UNL A   1      31.740  28.750  27.348  1.00  0.00     0.000 A 
ATOM    101  C   UNL A   1      32.480  29.050  25.047  1.00  0.00     0.009 A 
ATOM    102  C   UNL A   1      32.929  27.260  22.395  1.00  0.00     0.009 A 
ATOM    103  C   UNL A   1      32.810  24.931  21.719  1.00  0.00     0.000 A 
ATOM    104  C   UNL A   1      32.182  29.580  26.305  1.00  0.00     0.001 A 
ATOM    105  C   UNL A   1      33.089  26.270  21.422  1.00  0.00     0.001 A 
ENDBRANCH  92  93
ENDBRANCH  91  92
ENDBRANCH  89  91
ENDBRANCH  86  89
ENDBRANCH  82  84
ENDBRANCH  79  82
ENDBRANCH  74  77
ENDBRANCH  72  73
ENDBRANCH   1  72
TORSDOF 22
ENDMDL
