MODEL 1
REMARK VINA RESULT:     -13.7      0.000      0.000
REMARK SMILES COc1ccc(/C=C2/C(=O)N(c3ccccc3)C(=O)[NH+]=C2NCCCCCCNC(=O)c2ccc(-c3c4nc(c(-c5ccc(S(=O)(=O)[O-])cc5)c5ccc([nH]5)c(-c5ccc(S(=O)(=O)[O-])cc5)c5nc(c(-c6ccc(S(=O)(=O)[O-])cc6)c6ccc3[nH]6)C=C5)C=C4)cc2)cc1C(=O)[O-]
REMARK SMILES IDX 26 1 25 2 24 3 23 4 22 5 7 6 8 7 9 8 21 9 10 10 11 11 20 12
REMARK SMILES IDX 18 13 19 16 6 17 3 18 4 19 93 20 5 21 92 22 2 23 1 24 94 25
REMARK SMILES IDX 95 26 96 27 12 28 13 29 17 30 14 31 16 32 15 33 27 34 28 35
REMARK SMILES IDX 29 36 30 37 31 39 32 40 33 41 91 42 34 43 90 44 35 45 36 46
REMARK SMILES IDX 37 47 84 48 38 49 89 50 83 51 85 52 39 53 88 54 82 55 81 56
REMARK SMILES IDX 40 58 70 59 51 60 69 61 52 62 55 63 68 64 86 65 53 66 54 67
REMARK SMILES IDX 67 69 87 70 56 71 41 72 42 73 50 74 43 75 49 76 44 77 45 78
REMARK SMILES IDX 46 79 47 80 48 81 71 82 72 83 80 84 73 85 79 86 74 87 75 88
REMARK SMILES IDX 76 89 77 90 78 91 57 92 58 93 66 94 59 95 65 96 60 97 61 98
REMARK SMILES IDX 62 99 63 100 64 101
REMARK H PARENT 20 14 22 15 29 38 85 57 55 68
REMARK Flexibility Score: inf
ROOT
ATOM      1  C   UNL A   1      38.844  23.059  26.564  1.00  0.00     0.002 C 
ENDROOT
BRANCH   1   2
ATOM      2  C   UNL A   1      37.810  22.394  25.588  1.00  0.00     0.003 C 
BRANCH   2   3
ATOM      3  C   UNL A   1      36.070  21.955  25.709  1.00  0.00     0.037 C 
BRANCH   3   4
ATOM      4  C   UNL A   1      34.175  22.838  25.059  1.00  0.00     0.194 C 
BRANCH   4   5
ATOM      5  N   UNL A   1      33.895  24.047  23.974  1.00  0.00    -0.305 N 
ATOM      6  C   UNL A   1      31.119  23.488  25.037  1.00  0.00     0.030 C 
ATOM      7  C   UNL A   1      31.510  24.673  24.560  1.00  0.00     0.129 C 
ATOM      8  C   UNL A   1      30.685  25.883  24.702  1.00  0.00     0.328 C 
ATOM      9  C   UNL A   1      32.753  24.805  23.765  1.00  0.00     0.236 C 
ATOM     10  O   UNL A   1      29.960  26.047  25.681  1.00  0.00    -0.249 OA
ATOM     11  N   UNL A   1      30.827  26.737  23.627  1.00  0.00    -0.155 N 
ATOM     12  N   UNL A   1      32.743  25.648  22.768  1.00  0.00    -0.209 N 
ATOM     13  C   UNL A   1      31.573  26.347  22.517  1.00  0.00     0.448 C 
ATOM     14  H   UNL A   1      33.543  25.782  22.210  1.00  0.00     0.270 HD
ATOM     15  H   UNL A   1      34.654  24.263  23.385  1.00  0.00     0.256 HD
ATOM     16  O   UNL A   1      31.202  26.568  21.367  1.00  0.00    -0.212 OA
BRANCH   6  17
ATOM     17  C   UNL A   1      32.122  22.437  25.002  1.00  0.00    -0.024 A 
ATOM     18  C   UNL A   1      33.217  19.010  24.831  1.00  0.00     0.127 A 
ATOM     19  C   UNL A   1      33.259  19.882  26.418  1.00  0.00     0.048 A 
ATOM     20  C   UNL A   1      32.538  19.814  23.385  1.00  0.00     0.040 A 
ATOM     21  C   UNL A   1      32.798  21.647  26.496  1.00  0.00     0.012 A 
ATOM     22  C   UNL A   1      32.055  21.524  23.457  1.00  0.00     0.022 A 
BRANCH  18  23
ATOM     23  O   UNL A   1      33.924  17.840  24.708  1.00  0.00    -0.496 OA
ATOM     24  C   UNL A   1      35.317  18.128  24.490  1.00  0.00     0.278 C 
ENDBRANCH  18  23
BRANCH  20  25
ATOM     25  C   UNL A   1      32.236  19.102  22.136  1.00  0.00     0.075 C 
ATOM     26  O   UNL A   1      32.377  17.908  21.966  1.00  0.00    -0.545 OA
ATOM     27  O   UNL A   1      31.849  19.943  21.169  1.00  0.00    -0.545 OA
ENDBRANCH  20  25
ENDBRANCH   6  17
BRANCH  11  28
ATOM     28  C   UNL A   1      29.964  27.853  23.542  1.00  0.00     0.111 A 
ATOM     29  C   UNL A   1      30.457  29.160  23.594  1.00  0.00     0.044 A 
ATOM     30  C   UNL A   1      28.607  27.624  23.290  1.00  0.00     0.044 A 
ATOM     31  C   UNL A   1      29.589  30.235  23.388  1.00  0.00     0.004 A 
ATOM     32  C   UNL A   1      27.747  28.700  23.079  1.00  0.00     0.004 A 
ATOM     33  C   UNL A   1      28.238  30.005  23.125  1.00  0.00     0.000 A 
ENDBRANCH  11  28
ENDBRANCH   4   5
ENDBRANCH   3   4
ENDBRANCH   2   3
ENDBRANCH   1   2
BRANCH   1  34
ATOM     34  C   UNL A   1      40.015  22.292  27.214  1.00  0.00     0.021 C 
BRANCH  34  35
ATOM     35  C   UNL A   1      41.326  23.056  27.345  1.00  0.00     0.116 C 
BRANCH  35  36
ATOM     36  N   UNL A   1      41.700  23.829  26.182  1.00  0.00    -0.352 N 
ATOM     37  C   UNL A   1      41.774  25.203  26.092  1.00  0.00     0.251 C 
ATOM     38  H   UNL A   1      41.926  23.321  25.369  1.00  0.00     0.163 HD
ATOM     39  O   UNL A   1      41.976  25.734  25.004  1.00  0.00    -0.269 OA
BRANCH  37  40
ATOM     40  C   UNL A   1      41.568  26.050  27.300  1.00  0.00     0.039 A 
ATOM     41  C   UNL A   1      40.349  25.958  27.980  1.00  0.00     0.014 A 
ATOM     42  C   UNL A   1      42.533  26.962  27.741  1.00  0.00     0.014 A 
ATOM     43  C   UNL A   1      40.107  26.764  29.099  1.00  0.00     0.010 A 
ATOM     44  C   UNL A   1      42.311  27.726  28.894  1.00  0.00     0.010 A 
ATOM     45  C   UNL A   1      41.085  27.655  29.573  1.00  0.00    -0.014 A 
BRANCH  45  46
ATOM     46  C   UNL A   1      40.791  28.532  30.742  1.00  0.00     0.031 A 
ATOM     47  C   UNL A   1      41.635  28.456  31.991  1.00  0.00     0.074 A 
ATOM     48  C   UNL A   1      39.784  29.426  30.680  1.00  0.00     0.049 A 
ATOM     49  N   UNL A   1      41.607  29.225  33.052  1.00  0.00    -0.248 NA
ATOM     50  C   UNL A   1      42.624  27.371  32.063  1.00  0.00     0.031 C 
ATOM     51  C   UNL A   1      38.866  29.586  29.551  1.00  0.00     0.029 A 
ATOM     52  N   UNL A   1      39.380  30.387  31.576  1.00  0.00    -0.354 N 
ATOM     53  C   UNL A   1      42.575  28.718  33.914  1.00  0.00     0.074 A 
ATOM     54  C   UNL A   1      43.126  27.541  33.278  1.00  0.00     0.031 C 
ATOM     55  C   UNL A   1      38.041  30.616  29.800  1.00  0.00     0.029 A 
ATOM     56  C   UNL A   1      38.353  31.177  31.113  1.00  0.00     0.049 A 
ATOM     57  H   UNL A   1      39.786  30.499  32.466  1.00  0.00     0.167 HD
ATOM     58  C   UNL A   1      42.989  29.197  35.114  1.00  0.00     0.031 A 
ATOM     59  C   UNL A   1      37.743  32.244  31.666  1.00  0.00     0.031 A 
ATOM     60  C   UNL A   1      42.441  30.364  35.754  1.00  0.00     0.049 A 
ATOM     61  C   UNL A   1      38.206  32.754  33.004  1.00  0.00     0.074 A 
ATOM     62  C   UNL A   1      42.831  30.957  36.944  1.00  0.00     0.029 A 
ATOM     63  N   UNL A   1      41.381  31.112  35.266  1.00  0.00    -0.354 N 
ATOM     64  N   UNL A   1      39.179  32.308  33.764  1.00  0.00    -0.248 NA
ATOM     65  C   UNL A   1      37.498  33.920  33.552  1.00  0.00     0.031 C 
ATOM     66  C   UNL A   1      41.967  32.027  37.204  1.00  0.00     0.029 A 
ATOM     67  C   UNL A   1      41.079  32.139  36.146  1.00  0.00     0.049 A 
ATOM     68  H   UNL A   1      40.910  30.938  34.420  1.00  0.00     0.167 HD
ATOM     69  C   UNL A   1      39.212  33.153  34.869  1.00  0.00     0.074 A 
ATOM     70  C   UNL A   1      38.175  34.144  34.670  1.00  0.00     0.031 C 
ATOM     71  C   UNL A   1      40.031  33.111  35.950  1.00  0.00     0.031 A 
BRANCH  58  72
ATOM     72  C   UNL A   1      44.086  28.438  35.819  1.00  0.00    -0.014 A 
ATOM     73  C   UNL A   1      43.788  27.396  36.717  1.00  0.00     0.010 A 
ATOM     74  C   UNL A   1      45.432  28.764  35.575  1.00  0.00     0.010 A 
ATOM     75  C   UNL A   1      44.812  26.739  37.405  1.00  0.00     0.020 A 
ATOM     76  C   UNL A   1      46.461  28.089  36.239  1.00  0.00     0.020 A 
ATOM     77  C   UNL A   1      46.142  27.097  37.169  1.00  0.00     0.054 A 
BRANCH  77  78
ATOM     78  S   UNL A   1      47.450  26.243  38.090  1.00  0.00     0.124 S 
ATOM     79  O   UNL A   1      48.008  27.327  38.896  1.00  0.00    -0.237 OA
ATOM     80  O   UNL A   1      46.710  25.226  38.832  1.00  0.00    -0.237 OA
ATOM     81  O   UNL A   1      48.332  25.729  37.043  1.00  0.00    -0.744 OA
ENDBRANCH  77  78
ENDBRANCH  58  72
BRANCH  59  82
ATOM     82  C   UNL A   1      36.648  32.931  30.928  1.00  0.00    -0.014 A 
ATOM     83  C   UNL A   1      35.304  32.730  31.291  1.00  0.00     0.010 A 
ATOM     84  C   UNL A   1      36.947  33.816  29.877  1.00  0.00     0.010 A 
ATOM     85  C   UNL A   1      34.280  33.402  30.616  1.00  0.00     0.020 A 
ATOM     86  C   UNL A   1      35.928  34.509  29.216  1.00  0.00     0.020 A 
ATOM     87  C   UNL A   1      34.599  34.293  29.588  1.00  0.00     0.054 A 
BRANCH  87  88
ATOM     88  S   UNL A   1      33.261  35.217  28.782  1.00  0.00     0.124 S 
ATOM     89  O   UNL A   1      32.605  34.177  27.995  1.00  0.00    -0.237 OA
ATOM     90  O   UNL A   1      32.500  35.725  29.920  1.00  0.00    -0.237 OA
ATOM     91  O   UNL A   1      33.967  36.236  28.010  1.00  0.00    -0.744 OA
ENDBRANCH  87  88
ENDBRANCH  59  82
BRANCH  71  92
ATOM     92  C   UNL A   1      39.849  34.176  37.002  1.00  0.00    -0.014 A 
ATOM     93  C   UNL A   1      39.071  33.940  38.150  1.00  0.00     0.010 A 
ATOM     94  C   UNL A   1      40.500  35.415  36.860  1.00  0.00     0.010 A 
ATOM     95  C   UNL A   1      38.918  34.936  39.119  1.00  0.00     0.020 A 
ATOM     96  C   UNL A   1      40.373  36.404  37.839  1.00  0.00     0.020 A 
ATOM     97  C   UNL A   1      39.569  36.163  38.955  1.00  0.00     0.054 A 
BRANCH  97  98
ATOM     98  S   UNL A   1      39.382  37.429  40.242  1.00  0.00     0.124 S 
ATOM     99  O   UNL A   1      40.756  37.890  40.416  1.00  0.00    -0.237 OA
ATOM    100  O   UNL A   1      38.471  38.387  39.620  1.00  0.00    -0.237 OA
ATOM    101  O   UNL A   1      38.823  36.692  41.373  1.00  0.00    -0.744 OA
ENDBRANCH  97  98
ENDBRANCH  71  92
ENDBRANCH  45  46
ENDBRANCH  37  40
ENDBRANCH  35  36
ENDBRANCH  34  35
ENDBRANCH   1  34
TORSDOF 19
ENDMDL
MODEL 2
REMARK VINA RESULT:     -13.3      5.675      7.831
REMARK SMILES COc1ccc(/C=C2/C(=O)N(c3ccccc3)C(=O)[NH+]=C2NCCCCCCNC(=O)c2ccc(-c3c4nc(c(-c5ccc(S(=O)(=O)[O-])cc5)c5ccc([nH]5)c(-c5ccc(S(=O)(=O)[O-])cc5)c5nc(c(-c6ccc(S(=O)(=O)[O-])cc6)c6ccc3[nH]6)C=C5)C=C4)cc2)cc1C(=O)[O-]
REMARK SMILES IDX 26 1 25 2 24 3 23 4 22 5 7 6 8 7 9 8 21 9 10 10 11 11 20 12
REMARK SMILES IDX 18 13 19 16 6 17 3 18 4 19 93 20 5 21 92 22 2 23 1 24 94 25
REMARK SMILES IDX 95 26 96 27 12 28 13 29 17 30 14 31 16 32 15 33 27 34 28 35
REMARK SMILES IDX 29 36 30 37 31 39 32 40 33 41 91 42 34 43 90 44 35 45 36 46
REMARK SMILES IDX 37 47 84 48 38 49 89 50 83 51 85 52 39 53 88 54 82 55 81 56
REMARK SMILES IDX 40 58 70 59 51 60 69 61 52 62 55 63 68 64 86 65 53 66 54 67
REMARK SMILES IDX 67 69 87 70 56 71 41 72 42 73 50 74 43 75 49 76 44 77 45 78
REMARK SMILES IDX 46 79 47 80 48 81 71 82 72 83 80 84 73 85 79 86 74 87 75 88
REMARK SMILES IDX 76 89 77 90 78 91 57 92 58 93 66 94 59 95 65 96 60 97 61 98
REMARK SMILES IDX 62 99 63 100 64 101
REMARK H PARENT 20 14 22 15 29 38 85 57 55 68
REMARK Flexibility Score: inf
ROOT
ATOM      1  C   UNL A   1      39.030  22.149  26.141  1.00  0.00     0.002 C 
ENDROOT
BRANCH   1   2
ATOM      2  C   UNL A   1      37.698  22.940  25.896  1.00  0.00     0.003 C 
BRANCH   2   3
ATOM      3  C   UNL A   1      36.031  22.474  25.405  1.00  0.00     0.037 C 
BRANCH   3   4
ATOM      4  C   UNL A   1      34.158  23.531  24.992  1.00  0.00     0.194 C 
BRANCH   4   5
ATOM      5  N   UNL A   1      33.822  24.668  23.847  1.00  0.00    -0.305 N 
ATOM      6  C   UNL A   1      31.095  24.145  25.047  1.00  0.00     0.030 C 
ATOM      7  C   UNL A   1      31.453  25.303  24.485  1.00  0.00     0.129 C 
ATOM      8  C   UNL A   1      30.618  26.511  24.585  1.00  0.00     0.328 C 
ATOM      9  C   UNL A   1      32.664  25.400  23.637  1.00  0.00     0.236 C 
ATOM     10  O   UNL A   1      29.928  26.726  25.579  1.00  0.00    -0.249 OA
ATOM     11  N   UNL A   1      30.708  27.299  23.455  1.00  0.00    -0.155 N 
ATOM     12  N   UNL A   1      32.605  26.180  22.591  1.00  0.00    -0.209 N 
ATOM     13  C   UNL A   1      31.417  26.850  22.344  1.00  0.00     0.448 C 
ATOM     14  H   UNL A   1      33.381  26.289  21.996  1.00  0.00     0.270 HD
ATOM     15  H   UNL A   1      34.556  24.856  23.218  1.00  0.00     0.256 HD
ATOM     16  O   UNL A   1      31.001  26.997  21.197  1.00  0.00    -0.212 OA
BRANCH   6  17
ATOM     17  C   UNL A   1      32.110  23.105  25.037  1.00  0.00    -0.024 A 
ATOM     18  C   UNL A   1      33.243  19.686  25.030  1.00  0.00     0.127 A 
ATOM     19  C   UNL A   1      33.331  20.652  26.560  1.00  0.00     0.048 A 
ATOM     20  C   UNL A   1      32.501  20.394  23.566  1.00  0.00     0.040 A 
ATOM     21  C   UNL A   1      32.851  22.413  26.550  1.00  0.00     0.012 A 
ATOM     22  C   UNL A   1      31.999  22.100  23.553  1.00  0.00     0.022 A 
BRANCH  18  23
ATOM     23  O   UNL A   1      33.960  18.518  24.951  1.00  0.00    -0.496 OA
ATOM     24  C   UNL A   1      33.145  17.411  25.377  1.00  0.00     0.278 C 
ENDBRANCH  18  23
BRANCH  20  25
ATOM     25  C   UNL A   1      32.163  19.605  22.373  1.00  0.00     0.075 C 
ATOM     26  O   UNL A   1      32.199  18.393  22.310  1.00  0.00    -0.545 OA
ATOM     27  O   UNL A   1      31.874  20.389  21.328  1.00  0.00    -0.545 OA
ENDBRANCH  20  25
ENDBRANCH   6  17
BRANCH  11  28
ATOM     28  C   UNL A   1      29.828  28.398  23.336  1.00  0.00     0.111 A 
ATOM     29  C   UNL A   1      28.495  28.223  22.951  1.00  0.00     0.044 A 
ATOM     30  C   UNL A   1      30.287  29.662  23.724  1.00  0.00     0.044 A 
ATOM     31  C   UNL A   1      27.624  29.315  22.959  1.00  0.00     0.004 A 
ATOM     32  C   UNL A   1      29.412  30.746  23.736  1.00  0.00     0.004 A 
ATOM     33  C   UNL A   1      28.081  30.573  23.357  1.00  0.00     0.000 A 
ENDBRANCH  11  28
ENDBRANCH   4   5
ENDBRANCH   3   4
ENDBRANCH   2   3
ENDBRANCH   1   2
BRANCH   1  34
ATOM     34  C   UNL A   1      39.261  20.701  25.658  1.00  0.00     0.021 C 
BRANCH  34  35
ATOM     35  C   UNL A   1      40.003  19.782  26.620  1.00  0.00     0.116 C 
BRANCH  35  36
ATOM     36  N   UNL A   1      41.091  19.034  26.032  1.00  0.00    -0.352 N 
ATOM     37  C   UNL A   1      42.365  19.496  25.773  1.00  0.00     0.251 C 
ATOM     38  H   UNL A   1      40.903  18.098  25.791  1.00  0.00     0.163 HD
ATOM     39  O   UNL A   1      43.153  18.792  25.147  1.00  0.00    -0.269 OA
BRANCH  37  40
ATOM     40  C   UNL A   1      42.778  20.858  26.211  1.00  0.00     0.039 A 
ATOM     41  C   UNL A   1      42.946  21.849  25.239  1.00  0.00     0.014 A 
ATOM     42  C   UNL A   1      43.046  21.158  27.552  1.00  0.00     0.014 A 
ATOM     43  C   UNL A   1      43.367  23.132  25.610  1.00  0.00     0.010 A 
ATOM     44  C   UNL A   1      43.412  22.457  27.927  1.00  0.00     0.010 A 
ATOM     45  C   UNL A   1      43.602  23.453  26.958  1.00  0.00    -0.014 A 
BRANCH  45  46
ATOM     46  C   UNL A   1      44.087  24.814  27.326  1.00  0.00     0.031 A 
ATOM     47  C   UNL A   1      45.522  25.211  27.083  1.00  0.00     0.074 A 
ATOM     48  C   UNL A   1      43.234  25.716  27.853  1.00  0.00     0.049 A 
ATOM     49  N   UNL A   1      46.087  26.386  27.221  1.00  0.00    -0.248 NA
ATOM     50  C   UNL A   1      46.441  24.152  26.642  1.00  0.00     0.031 C 
ATOM     51  C   UNL A   1      41.829  25.460  28.176  1.00  0.00     0.029 A 
ATOM     52  N   UNL A   1      43.416  27.037  28.188  1.00  0.00    -0.354 N 
ATOM     53  C   UNL A   1      47.425  26.207  26.882  1.00  0.00     0.074 A 
ATOM     54  C   UNL A   1      47.597  24.799  26.593  1.00  0.00     0.031 C 
ATOM     55  C   UNL A   1      41.265  26.599  28.611  1.00  0.00     0.029 A 
ATOM     56  C   UNL A   1      42.269  27.660  28.622  1.00  0.00     0.049 A 
ATOM     57  H   UNL A   1      44.286  27.493  28.122  1.00  0.00     0.167 HD
ATOM     58  C   UNL A   1      48.417  27.127  26.793  1.00  0.00     0.031 A 
ATOM     59  C   UNL A   1      42.041  28.942  28.971  1.00  0.00     0.031 A 
ATOM     60  C   UNL A   1      48.253  28.528  27.084  1.00  0.00     0.049 A 
ATOM     61  C   UNL A   1      43.157  29.947  28.879  1.00  0.00     0.074 A 
ATOM     62  C   UNL A   1      49.185  29.546  26.973  1.00  0.00     0.029 A 
ATOM     63  N   UNL A   1      47.084  29.108  27.554  1.00  0.00    -0.354 N 
ATOM     64  N   UNL A   1      44.393  29.772  28.477  1.00  0.00    -0.248 NA
ATOM     65  C   UNL A   1      42.841  31.327  29.275  1.00  0.00     0.031 C 
ATOM     66  C   UNL A   1      48.597  30.731  27.431  1.00  0.00     0.029 A 
ATOM     67  C   UNL A   1      47.280  30.462  27.770  1.00  0.00     0.049 A 
ATOM     68  H   UNL A   1      46.240  28.627  27.712  1.00  0.00     0.167 HD
ATOM     69  C   UNL A   1      44.996  31.023  28.552  1.00  0.00     0.074 A 
ATOM     70  C   UNL A   1      43.984  31.948  29.020  1.00  0.00     0.031 C 
ATOM     71  C   UNL A   1      46.273  31.373  28.256  1.00  0.00     0.031 A 
BRANCH  58  72
ATOM     72  C   UNL A   1      49.780  26.635  26.375  1.00  0.00    -0.014 A 
ATOM     73  C   UNL A   1      50.680  26.099  27.316  1.00  0.00     0.010 A 
ATOM     74  C   UNL A   1      50.165  26.700  25.025  1.00  0.00     0.010 A 
ATOM     75  C   UNL A   1      51.961  25.698  26.924  1.00  0.00     0.020 A 
ATOM     76  C   UNL A   1      51.435  26.272  24.623  1.00  0.00     0.020 A 
ATOM     77  C   UNL A   1      52.333  25.798  25.580  1.00  0.00     0.054 A 
BRANCH  77  78
ATOM     78  S   UNL A   1      54.007  25.290  25.102  1.00  0.00     0.124 S 
ATOM     79  O   UNL A   1      53.853  23.843  24.963  1.00  0.00    -0.237 OA
ATOM     80  O   UNL A   1      54.221  26.020  23.856  1.00  0.00    -0.237 OA
ATOM     81  O   UNL A   1      54.835  25.722  26.225  1.00  0.00    -0.744 OA
ENDBRANCH  77  78
ENDBRANCH  58  72
BRANCH  59  82
ATOM     82  C   UNL A   1      40.677  29.355  29.400  1.00  0.00    -0.014 A 
ATOM     83  C   UNL A   1      40.322  29.348  30.761  1.00  0.00     0.010 A 
ATOM     84  C   UNL A   1      39.735  29.791  28.451  1.00  0.00     0.010 A 
ATOM     85  C   UNL A   1      39.051  29.768  31.165  1.00  0.00     0.020 A 
ATOM     86  C   UNL A   1      38.471  30.236  28.852  1.00  0.00     0.020 A 
ATOM     87  C   UNL A   1      38.136  30.217  30.208  1.00  0.00     0.054 A 
BRANCH  87  88
ATOM     88  S   UNL A   1      36.522  30.835  30.761  1.00  0.00     0.124 S 
ATOM     89  O   UNL A   1      36.780  32.263  30.916  1.00  0.00    -0.237 OA
ATOM     90  O   UNL A   1      35.647  30.466  29.651  1.00  0.00    -0.237 OA
ATOM     91  O   UNL A   1      36.283  30.103  32.002  1.00  0.00    -0.744 OA
ENDBRANCH  87  88
ENDBRANCH  59  82
BRANCH  71  92
ATOM     92  C   UNL A   1      46.651  32.824  28.419  1.00  0.00    -0.014 A 
ATOM     93  C   UNL A   1      47.194  33.304  29.624  1.00  0.00     0.010 A 
ATOM     94  C   UNL A   1      46.502  33.710  27.336  1.00  0.00     0.010 A 
ATOM     95  C   UNL A   1      47.545  34.651  29.756  1.00  0.00     0.020 A 
ATOM     96  C   UNL A   1      46.878  35.050  27.454  1.00  0.00     0.020 A 
ATOM     97  C   UNL A   1      47.383  35.516  28.669  1.00  0.00     0.054 A 
BRANCH  97  98
ATOM     98  S   UNL A   1      47.877  37.252  28.854  1.00  0.00     0.124 S 
ATOM     99  O   UNL A   1      47.150  37.648  30.057  1.00  0.00    -0.237 OA
ATOM    100  O   UNL A   1      49.327  37.159  28.999  1.00  0.00    -0.237 OA
ATOM    101  O   UNL A   1      47.419  37.876  27.615  1.00  0.00    -0.744 OA
ENDBRANCH  97  98
ENDBRANCH  71  92
ENDBRANCH  45  46
ENDBRANCH  37  40
ENDBRANCH  35  36
ENDBRANCH  34  35
ENDBRANCH   1  34
TORSDOF 19
ENDMDL
MODEL 3
REMARK VINA RESULT:     -13.1      5.754     10.066
REMARK SMILES COc1ccc(/C=C2/C(=O)N(c3ccccc3)C(=O)[NH+]=C2NCCCCCCNC(=O)c2ccc(-c3c4nc(c(-c5ccc(S(=O)(=O)[O-])cc5)c5ccc([nH]5)c(-c5ccc(S(=O)(=O)[O-])cc5)c5nc(c(-c6ccc(S(=O)(=O)[O-])cc6)c6ccc3[nH]6)C=C5)C=C4)cc2)cc1C(=O)[O-]
REMARK SMILES IDX 26 1 25 2 24 3 23 4 22 5 7 6 8 7 9 8 21 9 10 10 11 11 20 12
REMARK SMILES IDX 18 13 19 16 6 17 3 18 4 19 93 20 5 21 92 22 2 23 1 24 94 25
REMARK SMILES IDX 95 26 96 27 12 28 13 29 17 30 14 31 16 32 15 33 27 34 28 35
REMARK SMILES IDX 29 36 30 37 31 39 32 40 33 41 91 42 34 43 90 44 35 45 36 46
REMARK SMILES IDX 37 47 84 48 38 49 89 50 83 51 85 52 39 53 88 54 82 55 81 56
REMARK SMILES IDX 40 58 70 59 51 60 69 61 52 62 55 63 68 64 86 65 53 66 54 67
REMARK SMILES IDX 67 69 87 70 56 71 41 72 42 73 50 74 43 75 49 76 44 77 45 78
REMARK SMILES IDX 46 79 47 80 48 81 71 82 72 83 80 84 73 85 79 86 74 87 75 88
REMARK SMILES IDX 76 89 77 90 78 91 57 92 58 93 66 94 59 95 65 96 60 97 61 98
REMARK SMILES IDX 62 99 63 100 64 101
REMARK H PARENT 20 14 22 15 29 38 85 57 55 68
REMARK Flexibility Score: inf
ROOT
ATOM      1  C   UNL A   1      39.193  22.297  26.146  1.00  0.00     0.002 C 
ENDROOT
BRANCH   1   2
ATOM      2  C   UNL A   1      37.853  23.054  25.840  1.00  0.00     0.003 C 
BRANCH   2   3
ATOM      3  C   UNL A   1      36.208  22.541  25.325  1.00  0.00     0.037 C 
BRANCH   3   4
ATOM      4  C   UNL A   1      34.297  23.537  24.937  1.00  0.00     0.194 C 
BRANCH   4   5
ATOM      5  N   UNL A   1      33.900  24.633  23.772  1.00  0.00    -0.305 N 
ATOM      6  C   UNL A   1      31.246  24.178  25.151  1.00  0.00     0.030 C 
ATOM      7  C   UNL A   1      31.576  25.311  24.524  1.00  0.00     0.129 C 
ATOM      8  C   UNL A   1      30.755  26.527  24.627  1.00  0.00     0.328 C 
ATOM      9  C   UNL A   1      32.735  25.365  23.602  1.00  0.00     0.236 C 
ATOM     10  O   UNL A   1      30.128  26.786  25.651  1.00  0.00    -0.249 OA
ATOM     11  N   UNL A   1      30.783  27.272  23.465  1.00  0.00    -0.155 N 
ATOM     12  N   UNL A   1      32.618  26.106  22.533  1.00  0.00    -0.209 N 
ATOM     13  C   UNL A   1      31.422  26.775  22.331  1.00  0.00     0.448 C 
ATOM     14  H   UNL A   1      33.359  26.186  21.889  1.00  0.00     0.270 HD
ATOM     15  H   UNL A   1      34.595  24.791  23.093  1.00  0.00     0.256 HD
ATOM     16  O   UNL A   1      30.939  26.882  21.207  1.00  0.00    -0.212 OA
BRANCH   6  17
ATOM     17  C   UNL A   1      32.253  23.130  25.120  1.00  0.00    -0.024 A 
ATOM     18  C   UNL A   1      33.360  19.702  25.121  1.00  0.00     0.127 A 
ATOM     19  C   UNL A   1      33.508  20.688  26.634  1.00  0.00     0.048 A 
ATOM     20  C   UNL A   1      32.574  20.396  23.673  1.00  0.00     0.040 A 
ATOM     21  C   UNL A   1      33.040  22.453  26.616  1.00  0.00     0.012 A 
ATOM     22  C   UNL A   1      32.084  22.106  23.654  1.00  0.00     0.022 A 
BRANCH  18  23
ATOM     23  O   UNL A   1      34.066  18.528  25.034  1.00  0.00    -0.496 OA
ATOM     24  C   UNL A   1      33.231  17.423  25.422  1.00  0.00     0.278 C 
ENDBRANCH  18  23
BRANCH  20  25
ATOM     25  C   UNL A   1      32.189  19.594  22.503  1.00  0.00     0.075 C 
ATOM     26  O   UNL A   1      32.204  18.381  22.459  1.00  0.00    -0.545 OA
ATOM     27  O   UNL A   1      31.884  20.366  21.454  1.00  0.00    -0.545 OA
ENDBRANCH  20  25
ENDBRANCH   6  17
BRANCH  11  28
ATOM     28  C   UNL A   1      29.904  28.372  23.357  1.00  0.00     0.111 A 
ATOM     29  C   UNL A   1      28.559  28.197  23.017  1.00  0.00     0.044 A 
ATOM     30  C   UNL A   1      30.379  29.640  23.709  1.00  0.00     0.044 A 
ATOM     31  C   UNL A   1      27.692  29.293  23.035  1.00  0.00     0.004 A 
ATOM     32  C   UNL A   1      29.509  30.729  23.732  1.00  0.00     0.004 A 
ATOM     33  C   UNL A   1      28.166  30.555  23.398  1.00  0.00     0.000 A 
ENDBRANCH  11  28
ENDBRANCH   4   5
ENDBRANCH   3   4
ENDBRANCH   2   3
ENDBRANCH   1   2
BRANCH   1  34
ATOM     34  C   UNL A   1      39.448  20.827  25.749  1.00  0.00     0.021 C 
BRANCH  34  35
ATOM     35  C   UNL A   1      40.308  20.013  26.708  1.00  0.00     0.116 C 
BRANCH  35  36
ATOM     36  N   UNL A   1      41.357  19.241  26.081  1.00  0.00    -0.352 N 
ATOM     37  C   UNL A   1      42.587  19.704  25.666  1.00  0.00     0.251 C 
ATOM     38  H   UNL A   1      41.173  18.284  25.934  1.00  0.00     0.163 HD
ATOM     39  O   UNL A   1      43.333  18.967  25.027  1.00  0.00    -0.269 OA
BRANCH  37  40
ATOM     40  C   UNL A   1      43.002  21.105  25.953  1.00  0.00     0.039 A 
ATOM     41  C   UNL A   1      43.049  22.018  24.895  1.00  0.00     0.014 A 
ATOM     42  C   UNL A   1      43.390  21.518  27.234  1.00  0.00     0.014 A 
ATOM     43  C   UNL A   1      43.467  23.335  25.121  1.00  0.00     0.010 A 
ATOM     44  C   UNL A   1      43.753  22.850  27.468  1.00  0.00     0.010 A 
ATOM     45  C   UNL A   1      43.821  23.769  26.410  1.00  0.00    -0.014 A 
BRANCH  45  46
ATOM     46  C   UNL A   1      44.301  25.165  26.621  1.00  0.00     0.031 A 
ATOM     47  C   UNL A   1      43.387  26.212  27.207  1.00  0.00     0.074 A 
ATOM     48  C   UNL A   1      45.572  25.495  26.318  1.00  0.00     0.049 A 
ATOM     49  N   UNL A   1      43.667  27.437  27.578  1.00  0.00    -0.248 NA
ATOM     50  C   UNL A   1      41.975  25.841  27.385  1.00  0.00     0.031 C 
ATOM     51  C   UNL A   1      46.557  24.596  25.713  1.00  0.00     0.029 A 
ATOM     52  N   UNL A   1      46.263  26.670  26.500  1.00  0.00    -0.354 N 
ATOM     53  C   UNL A   1      42.470  27.981  28.034  1.00  0.00     0.074 A 
ATOM     54  C   UNL A   1      41.452  26.973  27.835  1.00  0.00     0.031 C 
ATOM     55  C   UNL A   1      47.735  25.233  25.623  1.00  0.00     0.029 A 
ATOM     56  C   UNL A   1      47.589  26.592  26.139  1.00  0.00     0.049 A 
ATOM     57  H   UNL A   1      45.849  27.489  26.854  1.00  0.00     0.167 HD
ATOM     58  C   UNL A   1      42.238  29.195  28.592  1.00  0.00     0.031 A 
ATOM     59  C   UNL A   1      48.582  27.500  26.231  1.00  0.00     0.031 A 
ATOM     60  C   UNL A   1      43.246  30.204  28.789  1.00  0.00     0.049 A 
ATOM     61  C   UNL A   1      48.303  28.847  26.840  1.00  0.00     0.074 A 
ATOM     62  C   UNL A   1      43.118  31.443  29.392  1.00  0.00     0.029 A 
ATOM     63  N   UNL A   1      44.566  30.096  28.377  1.00  0.00    -0.354 N 
ATOM     64  N   UNL A   1      47.182  29.309  27.341  1.00  0.00    -0.248 NA
ATOM     65  C   UNL A   1      49.429  29.790  26.909  1.00  0.00     0.031 C 
ATOM     66  C   UNL A   1      44.346  32.108  29.292  1.00  0.00     0.029 A 
ATOM     67  C   UNL A   1      45.255  31.259  28.682  1.00  0.00     0.049 A 
ATOM     68  H   UNL A   1      44.956  29.309  27.933  1.00  0.00     0.167 HD
ATOM     69  C   UNL A   1      47.473  30.588  27.803  1.00  0.00     0.074 A 
ATOM     70  C   UNL A   1      48.879  30.819  27.538  1.00  0.00     0.031 C 
ATOM     71  C   UNL A   1      46.650  31.489  28.397  1.00  0.00     0.031 A 
BRANCH  58  72
ATOM     72  C   UNL A   1      40.823  29.500  29.016  1.00  0.00    -0.014 A 
ATOM     73  C   UNL A   1      40.472  29.579  30.377  1.00  0.00     0.010 A 
ATOM     74  C   UNL A   1      39.832  29.720  28.043  1.00  0.00     0.010 A 
ATOM     75  C   UNL A   1      39.146  29.808  30.755  1.00  0.00     0.020 A 
ATOM     76  C   UNL A   1      38.509  29.979  28.417  1.00  0.00     0.020 A 
ATOM     77  C   UNL A   1      38.171  29.996  29.772  1.00  0.00     0.054 A 
BRANCH  77  78
ATOM     78  S   UNL A   1      36.454  30.271  30.289  1.00  0.00     0.124 S 
ATOM     79  O   UNL A   1      36.453  31.704  30.575  1.00  0.00    -0.237 OA
ATOM     80  O   UNL A   1      35.694  29.865  29.110  1.00  0.00    -0.237 OA
ATOM     81  O   UNL A   1      36.301  29.404  31.455  1.00  0.00    -0.744 OA
ENDBRANCH  77  78
ENDBRANCH  58  72
BRANCH  59  82
ATOM     82  C   UNL A   1      49.951  27.141  25.768  1.00  0.00    -0.014 A 
ATOM     83  C   UNL A   1      50.374  27.466  24.467  1.00  0.00     0.010 A 
ATOM     84  C   UNL A   1      50.851  26.503  26.640  1.00  0.00     0.010 A 
ATOM     85  C   UNL A   1      51.671  27.158  24.046  1.00  0.00     0.020 A 
ATOM     86  C   UNL A   1      52.157  26.215  26.232  1.00  0.00     0.020 A 
ATOM     87  C   UNL A   1      52.557  26.541  24.935  1.00  0.00     0.054 A 
BRANCH  87  88
ATOM     88  S   UNL A   1      54.261  26.225  24.395  1.00  0.00     0.124 S 
ATOM     89  O   UNL A   1      55.002  27.265  25.102  1.00  0.00    -0.237 OA
ATOM     90  O   UNL A   1      54.488  24.858  24.858  1.00  0.00    -0.237 OA
ATOM     91  O   UNL A   1      54.193  26.378  22.944  1.00  0.00    -0.744 OA
ENDBRANCH  87  88
ENDBRANCH  59  82
BRANCH  71  92
ATOM     92  C   UNL A   1      47.248  32.809  28.813  1.00  0.00    -0.014 A 
ATOM     93  C   UNL A   1      47.271  33.907  27.935  1.00  0.00     0.010 A 
ATOM     94  C   UNL A   1      47.756  32.965  30.115  1.00  0.00     0.010 A 
ATOM     95  C   UNL A   1      47.823  35.126  28.339  1.00  0.00     0.020 A 
ATOM     96  C   UNL A   1      48.284  34.189  30.533  1.00  0.00     0.020 A 
ATOM     97  C   UNL A   1      48.329  35.258  29.636  1.00  0.00     0.054 A 
BRANCH  97  98
ATOM     98  S   UNL A   1      49.011  36.860  30.148  1.00  0.00     0.124 S 
ATOM     99  O   UNL A   1      49.987  37.124  29.095  1.00  0.00    -0.237 OA
ATOM    100  O   UNL A   1      47.834  37.725  30.147  1.00  0.00    -0.237 OA
ATOM    101  O   UNL A   1      49.576  36.589  31.468  1.00  0.00    -0.744 OA
ENDBRANCH  97  98
ENDBRANCH  71  92
ENDBRANCH  45  46
ENDBRANCH  37  40
ENDBRANCH  35  36
ENDBRANCH  34  35
ENDBRANCH   1  34
TORSDOF 19
ENDMDL
