MODEL 1
REMARK VINA RESULT:     -10.7      0.000      0.000
REMARK SMILES CCCCNC(=O)[C@]1(C)CC[C@@](C)(C(=O)NCCCCCCNC(=O)c2ccc(-c3c4nc(c(-c5ccc(S(=O)(=O)[O-])cc5)c5ccc([nH]5)c(-c5ccc(S(=O)(=O)[O-])cc5)c5nc(c(-c6ccc(S(=O)(=O)[O-])cc6)c6ccc3[nH]6)C=C5)C=C4)cc2)C1(C)C
REMARK SMILES IDX 19 1 18 2 17 3 16 4 14 5 15 6 12 8 8 9 10 10 86 11 9 12
REMARK SMILES IDX 11 13 87 14 88 15 13 16 6 17 5 18 7 20 4 21 3 22 2 23 1 24
REMARK SMILES IDX 20 25 21 26 22 27 23 28 24 29 25 31 26 32 27 33 85 34 28 35
REMARK SMILES IDX 84 36 29 37 30 38 31 39 78 40 32 41 83 42 77 43 79 44 33 45
REMARK SMILES IDX 82 46 76 47 75 48 34 50 64 51 45 52 63 53 46 54 49 55 62 56
REMARK SMILES IDX 80 57 47 58 48 59 61 61 81 62 50 63 35 64 36 65 44 66 37 67
REMARK SMILES IDX 43 68 38 69 39 70 40 71 41 72 42 73 65 74 66 75 74 76 67 77
REMARK SMILES IDX 73 78 68 79 69 80 70 81 71 82 72 83 51 84 52 85 60 86 53 87
REMARK SMILES IDX 59 88 54 89 55 90 56 91 57 92 58 93
REMARK H PARENT 16 7 5 19 23 30 79 49 49 60
REMARK Flexibility Score: inf
ROOT
ATOM      1  C   UNL A   1      31.930  29.959  25.761  1.00  0.00     0.002 C 
ENDROOT
BRANCH   1   2
ATOM      2  C   UNL A   1      31.246  29.003  24.778  1.00  0.00     0.021 C 
BRANCH   2   3
ATOM      3  C   UNL A   1      31.657  27.539  24.886  1.00  0.00     0.116 C 
BRANCH   3   4
ATOM      4  N   UNL A   1      32.369  27.054  23.716  1.00  0.00    -0.356 N 
ATOM      5  C   UNL A   1      33.148  25.949  23.507  1.00  0.00     0.226 C 
ATOM      6  O   UNL A   1      33.528  25.819  22.342  1.00  0.00    -0.274 OA
ATOM      7  H   UNL A   1      32.270  27.629  22.922  1.00  0.00     0.163 HD
BRANCH   5   8
ATOM      8  C   UNL A   1      33.611  25.031  24.692  1.00  0.00     0.052 C 
ATOM      9  C   UNL A   1      33.381  22.497  25.016  1.00  0.00     0.052 C 
ATOM     10  C   UNL A   1      34.131  22.839  23.735  1.00  0.00     0.018 C 
ATOM     11  C   UNL A   1      32.576  23.876  25.229  1.00  0.00    -0.007 C 
ATOM     12  C   UNL A   1      32.478  21.271  24.761  1.00  0.00     0.022 C 
ATOM     13  C   UNL A   1      34.759  24.186  24.049  1.00  0.00     0.018 C 
ATOM     14  C   UNL A   1      31.234  23.848  24.442  1.00  0.00     0.013 C 
ATOM     15  C   UNL A   1      32.094  24.075  26.689  1.00  0.00     0.013 C 
ATOM     16  C   UNL A   1      34.146  25.924  25.846  1.00  0.00     0.022 C 
BRANCH   9  17
ATOM     17  C   UNL A   1      34.233  22.081  26.262  1.00  0.00     0.226 C 
ATOM     18  N   UNL A   1      35.454  21.498  26.281  1.00  0.00    -0.356 N 
ATOM     19  H   UNL A   1      35.828  21.475  27.191  1.00  0.00     0.163 HD
ATOM     20  O   UNL A   1      33.748  22.208  27.397  1.00  0.00    -0.274 OA
BRANCH  18  21
ATOM     21  C   UNL A   1      36.363  20.894  25.318  1.00  0.00     0.116 C 
BRANCH  21  22
ATOM     22  C   UNL A   1      37.549  21.802  24.985  1.00  0.00     0.021 C 
BRANCH  22  23
ATOM     23  C   UNL A   1      38.838  21.492  25.748  1.00  0.00    -0.002 C 
ATOM     24  C   UNL A   1      39.323  22.652  26.606  1.00  0.00     0.004 C 
ENDBRANCH  22  23
ENDBRANCH  21  22
ENDBRANCH  18  21
ENDBRANCH   9  17
ENDBRANCH   5   8
ENDBRANCH   3   4
ENDBRANCH   2   3
ENDBRANCH   1   2
BRANCH   1  25
ATOM     25  C   UNL A   1      32.850  29.310  26.799  1.00  0.00     0.002 C 
BRANCH  25  26
ATOM     26  C   UNL A   1      34.320  29.726  26.739  1.00  0.00     0.021 C 
BRANCH  26  27
ATOM     27  C   UNL A   1      35.193  29.197  27.871  1.00  0.00     0.116 C 
BRANCH  27  28
ATOM     28  N   UNL A   1      35.270  30.112  28.996  1.00  0.00    -0.352 N 
ATOM     29  C   UNL A   1      36.347  30.421  29.791  1.00  0.00     0.251 C 
ATOM     30  H   UNL A   1      34.432  30.579  29.219  1.00  0.00     0.163 HD
ATOM     31  O   UNL A   1      36.194  31.106  30.794  1.00  0.00    -0.269 OA
BRANCH  29  32
ATOM     32  C   UNL A   1      37.686  29.895  29.444  1.00  0.00     0.039 A 
ATOM     33  C   UNL A   1      38.084  29.899  28.105  1.00  0.00     0.014 A 
ATOM     34  C   UNL A   1      38.548  29.409  30.431  1.00  0.00     0.014 A 
ATOM     35  C   UNL A   1      39.370  29.474  27.764  1.00  0.00     0.010 A 
ATOM     36  C   UNL A   1      39.854  29.060  30.100  1.00  0.00     0.010 A 
ATOM     37  C   UNL A   1      40.279  29.084  28.763  1.00  0.00    -0.014 A 
BRANCH  37  38
ATOM     38  C   UNL A   1      41.674  28.696  28.426  1.00  0.00     0.031 A 
ATOM     39  C   UNL A   1      42.764  29.732  28.413  1.00  0.00     0.074 A 
ATOM     40  C   UNL A   1      41.947  27.421  28.084  1.00  0.00     0.049 A 
ATOM     41  N   UNL A   1      44.028  29.596  28.098  1.00  0.00    -0.248 NA
ATOM     42  C   UNL A   1      42.384  31.107  28.777  1.00  0.00     0.031 C 
ATOM     43  C   UNL A   1      40.972  26.330  28.027  1.00  0.00     0.029 A 
ATOM     44  N   UNL A   1      43.129  26.827  27.715  1.00  0.00    -0.354 N 
ATOM     45  C   UNL A   1      44.587  30.863  28.217  1.00  0.00     0.074 A 
ATOM     46  C   UNL A   1      43.515  31.766  28.574  1.00  0.00     0.031 C 
ATOM     47  C   UNL A   1      41.600  25.195  27.680  1.00  0.00     0.029 A 
ATOM     48  C   UNL A   1      43.011  25.484  27.442  1.00  0.00     0.049 A 
ATOM     49  H   UNL A   1      43.981  27.316  27.652  1.00  0.00     0.167 HD
ATOM     50  C   UNL A   1      45.880  31.238  28.065  1.00  0.00     0.031 A 
ATOM     51  C   UNL A   1      43.931  24.587  27.038  1.00  0.00     0.031 A 
ATOM     52  C   UNL A   1      46.945  30.336  27.711  1.00  0.00     0.049 A 
ATOM     53  C   UNL A   1      45.354  25.036  26.842  1.00  0.00     0.074 A 
ATOM     54  C   UNL A   1      48.293  30.611  27.574  1.00  0.00     0.029 A 
ATOM     55  N   UNL A   1      46.781  28.986  27.436  1.00  0.00    -0.354 N 
ATOM     56  N   UNL A   1      45.875  26.227  27.017  1.00  0.00    -0.248 NA
ATOM     57  C   UNL A   1      46.317  24.016  26.403  1.00  0.00     0.031 C 
ATOM     58  C   UNL A   1      48.937  29.440  27.158  1.00  0.00     0.029 A 
ATOM     59  C   UNL A   1      48.001  28.421  27.104  1.00  0.00     0.049 A 
ATOM     60  H   UNL A   1      45.925  28.502  27.473  1.00  0.00     0.167 HD
ATOM     61  C   UNL A   1      47.231  26.091  26.743  1.00  0.00     0.074 A 
ATOM     62  C   UNL A   1      47.453  24.700  26.406  1.00  0.00     0.031 C 
ATOM     63  C   UNL A   1      48.207  27.033  26.771  1.00  0.00     0.031 A 
BRANCH  50  64
ATOM     64  C   UNL A   1      46.213  32.694  28.273  1.00  0.00    -0.014 A 
ATOM     65  C   UNL A   1      46.493  33.199  29.557  1.00  0.00     0.010 A 
ATOM     66  C   UNL A   1      46.289  33.560  27.168  1.00  0.00     0.010 A 
ATOM     67  C   UNL A   1      46.799  34.550  29.736  1.00  0.00     0.020 A 
ATOM     68  C   UNL A   1      46.628  34.906  27.339  1.00  0.00     0.020 A 
ATOM     69  C   UNL A   1      46.863  35.396  28.626  1.00  0.00     0.054 A 
BRANCH  69  70
ATOM     70  S   UNL A   1      47.286  37.140  28.887  1.00  0.00     0.124 S 
ATOM     71  O   UNL A   1      45.989  37.793  28.715  1.00  0.00    -0.237 OA
ATOM     72  O   UNL A   1      47.813  37.141  30.249  1.00  0.00    -0.237 OA
ATOM     73  O   UNL A   1      48.266  37.421  27.841  1.00  0.00    -0.744 OA
ENDBRANCH  69  70
ENDBRANCH  50  64
BRANCH  51  74
ATOM     74  C   UNL A   1      43.540  23.169  26.802  1.00  0.00    -0.014 A 
ATOM     75  C   UNL A   1      42.992  22.396  27.841  1.00  0.00     0.010 A 
ATOM     76  C   UNL A   1      43.713  22.583  25.535  1.00  0.00     0.010 A 
ATOM     77  C   UNL A   1      42.650  21.057  27.624  1.00  0.00     0.020 A 
ATOM     78  C   UNL A   1      43.342  21.255  25.306  1.00  0.00     0.020 A 
ATOM     79  C   UNL A   1      42.825  20.496  26.357  1.00  0.00     0.054 A 
BRANCH  79  80
ATOM     80  S   UNL A   1      42.337  18.769  26.090  1.00  0.00     0.124 S 
ATOM     81  O   UNL A   1      43.253  18.355  25.032  1.00  0.00    -0.237 OA
ATOM     82  O   UNL A   1      42.571  18.171  27.402  1.00  0.00    -0.237 OA
ATOM     83  O   UNL A   1      40.933  18.867  25.700  1.00  0.00    -0.744 OA
ENDBRANCH  79  80
ENDBRANCH  51  74
BRANCH  63  84
ATOM     84  C   UNL A   1      49.614  26.587  26.467  1.00  0.00    -0.014 A 
ATOM     85  C   UNL A   1      50.415  25.969  27.443  1.00  0.00     0.010 A 
ATOM     86  C   UNL A   1      50.120  26.743  25.163  1.00  0.00     0.010 A 
ATOM     87  C   UNL A   1      51.709  25.545  27.128  1.00  0.00     0.020 A 
ATOM     88  C   UNL A   1      51.401  26.291  24.836  1.00  0.00     0.020 A 
ATOM     89  C   UNL A   1      52.193  25.707  25.826  1.00  0.00     0.054 A 
BRANCH  89  90
ATOM     90  S   UNL A   1      53.858  25.105  25.434  1.00  0.00     0.124 S 
ATOM     91  O   UNL A   1      54.650  25.669  26.523  1.00  0.00    -0.237 OA
ATOM     92  O   UNL A   1      53.689  23.653  25.466  1.00  0.00    -0.237 OA
ATOM     93  O   UNL A   1      54.128  25.666  24.112  1.00  0.00    -0.744 OA
ENDBRANCH  89  90
ENDBRANCH  63  84
ENDBRANCH  37  38
ENDBRANCH  29  32
ENDBRANCH  27  28
ENDBRANCH  26  27
ENDBRANCH  25  26
ENDBRANCH   1  25
TORSDOF 20
ENDMDL
MODEL 2
REMARK VINA RESULT:     -10.4      4.862      5.885
REMARK SMILES CCCCNC(=O)[C@]1(C)CC[C@@](C)(C(=O)NCCCCCCNC(=O)c2ccc(-c3c4nc(c(-c5ccc(S(=O)(=O)[O-])cc5)c5ccc([nH]5)c(-c5ccc(S(=O)(=O)[O-])cc5)c5nc(c(-c6ccc(S(=O)(=O)[O-])cc6)c6ccc3[nH]6)C=C5)C=C4)cc2)C1(C)C
REMARK SMILES IDX 19 1 18 2 17 3 16 4 14 5 15 6 12 8 8 9 10 10 86 11 9 12
REMARK SMILES IDX 11 13 87 14 88 15 13 16 6 17 5 18 7 20 4 21 3 22 2 23 1 24
REMARK SMILES IDX 20 25 21 26 22 27 23 28 24 29 25 31 26 32 27 33 85 34 28 35
REMARK SMILES IDX 84 36 29 37 30 38 31 39 78 40 32 41 83 42 77 43 79 44 33 45
REMARK SMILES IDX 82 46 76 47 75 48 34 50 64 51 45 52 63 53 46 54 49 55 62 56
REMARK SMILES IDX 80 57 47 58 48 59 61 61 81 62 50 63 35 64 36 65 44 66 37 67
REMARK SMILES IDX 43 68 38 69 39 70 40 71 41 72 42 73 65 74 66 75 74 76 67 77
REMARK SMILES IDX 73 78 68 79 69 80 70 81 71 82 72 83 51 84 52 85 60 86 53 87
REMARK SMILES IDX 59 88 54 89 55 90 56 91 57 92 58 93
REMARK H PARENT 16 7 5 19 23 30 79 49 49 60
REMARK Flexibility Score: inf
ROOT
ATOM      1  C   UNL A   1      31.032  29.172  23.779  1.00  0.00     0.002 C 
ENDROOT
BRANCH   1   2
ATOM      2  C   UNL A   1      30.137  27.935  23.650  1.00  0.00     0.021 C 
BRANCH   2   3
ATOM      3  C   UNL A   1      30.837  26.592  23.831  1.00  0.00     0.116 C 
BRANCH   3   4
ATOM      4  N   UNL A   1      31.915  26.373  22.883  1.00  0.00    -0.356 N 
ATOM      5  C   UNL A   1      32.995  25.534  22.897  1.00  0.00     0.226 C 
ATOM      6  O   UNL A   1      33.666  25.565  21.864  1.00  0.00    -0.274 OA
ATOM      7  H   UNL A   1      31.857  26.935  22.076  1.00  0.00     0.163 HD
BRANCH   5   8
ATOM      8  C   UNL A   1      33.392  24.724  24.180  1.00  0.00     0.052 C 
ATOM      9  C   UNL A   1      33.596  22.194  24.550  1.00  0.00     0.052 C 
ATOM     10  C   UNL A   1      34.495  22.676  23.419  1.00  0.00     0.018 C 
ATOM     11  C   UNL A   1      32.515  23.389  24.559  1.00  0.00    -0.007 C 
ATOM     12  C   UNL A   1      33.010  20.815  24.177  1.00  0.00     0.022 C 
ATOM     13  C   UNL A   1      34.781  24.120  23.794  1.00  0.00     0.018 C 
ATOM     14  C   UNL A   1      31.378  23.099  23.537  1.00  0.00     0.013 C 
ATOM     15  C   UNL A   1      31.736  23.489  25.895  1.00  0.00     0.013 C 
ATOM     16  C   UNL A   1      33.517  25.704  25.380  1.00  0.00     0.022 C 
BRANCH   9  17
ATOM     17  C   UNL A   1      34.259  21.952  25.948  1.00  0.00     0.226 C 
ATOM     18  N   UNL A   1      35.528  21.562  26.213  1.00  0.00    -0.356 N 
ATOM     19  H   UNL A   1      35.731  21.626  27.174  1.00  0.00     0.163 HD
ATOM     20  O   UNL A   1      33.564  22.041  26.972  1.00  0.00    -0.274 OA
BRANCH  18  21
ATOM     21  C   UNL A   1      36.673  21.073  25.459  1.00  0.00     0.116 C 
BRANCH  21  22
ATOM     22  C   UNL A   1      37.789  22.113  25.352  1.00  0.00     0.021 C 
BRANCH  22  23
ATOM     23  C   UNL A   1      37.518  23.435  26.071  1.00  0.00    -0.002 C 
ATOM     24  C   UNL A   1      38.781  24.111  26.586  1.00  0.00     0.004 C 
ENDBRANCH  22  23
ENDBRANCH  21  22
ENDBRANCH  18  21
ENDBRANCH   9  17
ENDBRANCH   5   8
ENDBRANCH   3   4
ENDBRANCH   2   3
ENDBRANCH   1   2
BRANCH   1  25
ATOM     25  C   UNL A   1      31.812  29.303  25.091  1.00  0.00     0.002 C 
BRANCH  25  26
ATOM     26  C   UNL A   1      33.317  29.047  25.000  1.00  0.00     0.021 C 
BRANCH  26  27
ATOM     27  C   UNL A   1      34.105  29.340  26.272  1.00  0.00     0.116 C 
BRANCH  27  28
ATOM     28  N   UNL A   1      33.762  30.622  26.862  1.00  0.00    -0.352 N 
ATOM     29  C   UNL A   1      34.375  31.295  27.891  1.00  0.00     0.251 C 
ATOM     30  H   UNL A   1      32.980  31.072  26.469  1.00  0.00     0.163 HD
ATOM     31  O   UNL A   1      33.859  32.300  28.361  1.00  0.00    -0.269 OA
BRANCH  29  32
ATOM     32  C   UNL A   1      35.648  30.780  28.445  1.00  0.00     0.039 A 
ATOM     33  C   UNL A   1      36.845  31.381  28.050  1.00  0.00     0.014 A 
ATOM     34  C   UNL A   1      35.661  29.718  29.354  1.00  0.00     0.014 A 
ATOM     35  C   UNL A   1      38.050  30.957  28.615  1.00  0.00     0.010 A 
ATOM     36  C   UNL A   1      36.852  29.350  29.973  1.00  0.00     0.010 A 
ATOM     37  C   UNL A   1      38.061  29.963  29.607  1.00  0.00    -0.014 A 
BRANCH  37  38
ATOM     38  C   UNL A   1      39.325  29.549  30.271  1.00  0.00     0.031 A 
ATOM     39  C   UNL A   1      39.826  30.296  31.477  1.00  0.00     0.074 A 
ATOM     40  C   UNL A   1      40.047  28.533  29.756  1.00  0.00     0.049 A 
ATOM     41  N   UNL A   1      40.928  30.115  32.160  1.00  0.00    -0.248 NA
ATOM     42  C   UNL A   1      38.994  31.407  31.967  1.00  0.00     0.031 C 
ATOM     43  C   UNL A   1      39.686  27.750  28.572  1.00  0.00     0.029 A 
ATOM     44  N   UNL A   1      41.239  27.986  30.162  1.00  0.00    -0.354 N 
ATOM     45  C   UNL A   1      40.925  31.091  33.150  1.00  0.00     0.074 A 
ATOM     46  C   UNL A   1      39.744  31.898  32.943  1.00  0.00     0.031 C 
ATOM     47  C   UNL A   1      40.617  26.804  28.368  1.00  0.00     0.029 A 
ATOM     48  C   UNL A   1      41.664  26.941  29.375  1.00  0.00     0.049 A 
ATOM     49  H   UNL A   1      41.742  28.310  30.944  1.00  0.00     0.167 HD
ATOM     50  C   UNL A   1      41.814  31.284  34.154  1.00  0.00     0.031 A 
ATOM     51  C   UNL A   1      42.776  26.183  29.448  1.00  0.00     0.031 A 
ATOM     52  C   UNL A   1      42.988  30.477  34.358  1.00  0.00     0.049 A 
ATOM     53  C   UNL A   1      43.766  26.441  30.552  1.00  0.00     0.074 A 
ATOM     54  C   UNL A   1      43.927  30.566  35.370  1.00  0.00     0.029 A 
ATOM     55  N   UNL A   1      43.386  29.435  33.534  1.00  0.00    -0.354 N 
ATOM     56  N   UNL A   1      43.715  27.331  31.515  1.00  0.00    -0.248 NA
ATOM     57  C   UNL A   1      44.959  25.583  30.588  1.00  0.00     0.031 C 
ATOM     58  C   UNL A   1      44.924  29.617  35.125  1.00  0.00     0.029 A 
ATOM     59  C   UNL A   1      44.571  28.890  33.999  1.00  0.00     0.049 A 
ATOM     60  H   UNL A   1      42.898  29.127  32.736  1.00  0.00     0.167 HD
ATOM     61  C   UNL A   1      44.850  27.118  32.288  1.00  0.00     0.074 A 
ATOM     62  C   UNL A   1      45.561  26.006  31.691  1.00  0.00     0.031 C 
ATOM     63  C   UNL A   1      45.267  27.782  33.395  1.00  0.00     0.031 A 
BRANCH  50  64
ATOM     64  C   UNL A   1      41.551  32.422  35.107  1.00  0.00    -0.014 A 
ATOM     65  C   UNL A   1      40.679  32.268  36.201  1.00  0.00     0.010 A 
ATOM     66  C   UNL A   1      42.218  33.649  34.934  1.00  0.00     0.010 A 
ATOM     67  C   UNL A   1      40.445  33.332  37.076  1.00  0.00     0.020 A 
ATOM     68  C   UNL A   1      42.011  34.706  35.827  1.00  0.00     0.020 A 
ATOM     69  C   UNL A   1      41.111  34.545  36.883  1.00  0.00     0.054 A 
BRANCH  69  70
ATOM     70  S   UNL A   1      40.803  35.900  38.049  1.00  0.00     0.124 S 
ATOM     71  O   UNL A   1      40.769  35.193  39.327  1.00  0.00    -0.237 OA
ATOM     72  O   UNL A   1      41.959  36.768  37.842  1.00  0.00    -0.237 OA
ATOM     73  O   UNL A   1      39.524  36.452  37.610  1.00  0.00    -0.744 OA
ENDBRANCH  69  70
ENDBRANCH  50  64
BRANCH  51  74
ATOM     74  C   UNL A   1      43.010  25.100  28.452  1.00  0.00    -0.014 A 
ATOM     75  C   UNL A   1      43.725  25.359  27.269  1.00  0.00     0.010 A 
ATOM     76  C   UNL A   1      42.518  23.802  28.682  1.00  0.00     0.010 A 
ATOM     77  C   UNL A   1      43.920  24.347  26.324  1.00  0.00     0.020 A 
ATOM     78  C   UNL A   1      42.739  22.781  27.754  1.00  0.00     0.020 A 
ATOM     79  C   UNL A   1      43.428  23.064  26.573  1.00  0.00     0.054 A 
BRANCH  79  80
ATOM     80  S   UNL A   1      43.729  21.759  25.349  1.00  0.00     0.124 S 
ATOM     81  O   UNL A   1      43.590  22.484  24.091  1.00  0.00    -0.237 OA
ATOM     82  O   UNL A   1      45.082  21.320  25.684  1.00  0.00    -0.237 OA
ATOM     83  O   UNL A   1      42.679  20.781  25.628  1.00  0.00    -0.744 OA
ENDBRANCH  79  80
ENDBRANCH  51  74
BRANCH  63  84
ATOM     84  C   UNL A   1      46.530  27.300  34.061  1.00  0.00    -0.014 A 
ATOM     85  C   UNL A   1      46.497  26.358  35.104  1.00  0.00     0.010 A 
ATOM     86  C   UNL A   1      47.775  27.763  33.595  1.00  0.00     0.010 A 
ATOM     87  C   UNL A   1      47.685  25.911  35.689  1.00  0.00     0.020 A 
ATOM     88  C   UNL A   1      48.966  27.295  34.155  1.00  0.00     0.020 A 
ATOM     89  C   UNL A   1      48.912  26.381  35.210  1.00  0.00     0.054 A 
BRANCH  89  90
ATOM     90  S   UNL A   1      50.439  25.750  35.958  1.00  0.00     0.124 S 
ATOM     91  O   UNL A   1      50.570  26.595  37.141  1.00  0.00    -0.237 OA
ATOM     92  O   UNL A   1      50.112  24.349  36.218  1.00  0.00    -0.237 OA
ATOM     93  O   UNL A   1      51.447  25.966  34.922  1.00  0.00    -0.744 OA
ENDBRANCH  89  90
ENDBRANCH  63  84
ENDBRANCH  37  38
ENDBRANCH  29  32
ENDBRANCH  27  28
ENDBRANCH  26  27
ENDBRANCH  25  26
ENDBRANCH   1  25
TORSDOF 20
ENDMDL
MODEL 3
REMARK VINA RESULT:     -10.3      6.827      9.415
REMARK SMILES CCCCNC(=O)[C@]1(C)CC[C@@](C)(C(=O)NCCCCCCNC(=O)c2ccc(-c3c4nc(c(-c5ccc(S(=O)(=O)[O-])cc5)c5ccc([nH]5)c(-c5ccc(S(=O)(=O)[O-])cc5)c5nc(c(-c6ccc(S(=O)(=O)[O-])cc6)c6ccc3[nH]6)C=C5)C=C4)cc2)C1(C)C
REMARK SMILES IDX 19 1 18 2 17 3 16 4 14 5 15 6 12 8 8 9 10 10 86 11 9 12
REMARK SMILES IDX 11 13 87 14 88 15 13 16 6 17 5 18 7 20 4 21 3 22 2 23 1 24
REMARK SMILES IDX 20 25 21 26 22 27 23 28 24 29 25 31 26 32 27 33 85 34 28 35
REMARK SMILES IDX 84 36 29 37 30 38 31 39 78 40 32 41 83 42 77 43 79 44 33 45
REMARK SMILES IDX 82 46 76 47 75 48 34 50 64 51 45 52 63 53 46 54 49 55 62 56
REMARK SMILES IDX 80 57 47 58 48 59 61 61 81 62 50 63 35 64 36 65 44 66 37 67
REMARK SMILES IDX 43 68 38 69 39 70 40 71 41 72 42 73 65 74 66 75 74 76 67 77
REMARK SMILES IDX 73 78 68 79 69 80 70 81 71 82 72 83 51 84 52 85 60 86 53 87
REMARK SMILES IDX 59 88 54 89 55 90 56 91 57 92 58 93
REMARK H PARENT 16 7 5 19 23 30 79 49 49 60
REMARK Flexibility Score: inf
ROOT
ATOM      1  C   UNL A   1      34.892  32.127  28.635  1.00  0.00     0.002 C 
ENDROOT
BRANCH   1   2
ATOM      2  C   UNL A   1      34.627  30.843  27.843  1.00  0.00     0.021 C 
BRANCH   2   3
ATOM      3  C   UNL A   1      33.261  30.752  27.171  1.00  0.00     0.116 C 
BRANCH   3   4
ATOM      4  N   UNL A   1      32.436  29.675  27.688  1.00  0.00    -0.356 N 
ATOM      5  C   UNL A   1      31.828  28.610  27.081  1.00  0.00     0.226 C 
ATOM      6  O   UNL A   1      31.264  27.844  27.864  1.00  0.00    -0.274 OA
ATOM      7  H   UNL A   1      32.287  29.719  28.660  1.00  0.00     0.163 HD
BRANCH   5   8
ATOM      8  C   UNL A   1      31.755  28.484  25.519  1.00  0.00     0.052 C 
ATOM      9  C   UNL A   1      32.432  26.548  23.978  1.00  0.00     0.052 C 
ATOM     10  C   UNL A   1      31.400  26.116  25.011  1.00  0.00     0.018 C 
ATOM     11  C   UNL A   1      33.041  27.835  24.732  1.00  0.00    -0.007 C 
ATOM     12  C   UNL A   1      33.444  25.403  23.764  1.00  0.00     0.022 C 
ATOM     13  C   UNL A   1      30.647  27.401  25.310  1.00  0.00     0.018 C 
ATOM     14  C   UNL A   1      34.189  27.407  25.692  1.00  0.00     0.013 C 
ATOM     15  C   UNL A   1      33.766  28.811  23.771  1.00  0.00     0.013 C 
ATOM     16  C   UNL A   1      31.328  29.852  24.918  1.00  0.00     0.022 C 
BRANCH   9  17
ATOM     17  C   UNL A   1      31.918  26.867  22.533  1.00  0.00     0.226 C 
ATOM     18  N   UNL A   1      30.743  27.434  22.172  1.00  0.00    -0.356 N 
ATOM     19  H   UNL A   1      30.730  27.655  21.213  1.00  0.00     0.163 HD
ATOM     20  O   UNL A   1      32.595  26.509  21.556  1.00  0.00    -0.274 OA
BRANCH  18  21
ATOM     21  C   UNL A   1      29.494  27.804  22.819  1.00  0.00     0.116 C 
BRANCH  21  22
ATOM     22  C   UNL A   1      29.008  29.193  22.402  1.00  0.00     0.021 C 
BRANCH  22  23
ATOM     23  C   UNL A   1      27.816  29.731  23.195  1.00  0.00    -0.002 C 
ATOM     24  C   UNL A   1      27.792  31.250  23.289  1.00  0.00     0.004 C 
ENDBRANCH  22  23
ENDBRANCH  21  22
ENDBRANCH  18  21
ENDBRANCH   9  17
ENDBRANCH   5   8
ENDBRANCH   3   4
ENDBRANCH   2   3
ENDBRANCH   1   2
BRANCH   1  25
ATOM     25  C   UNL A   1      34.525  33.438  27.933  1.00  0.00     0.002 C 
BRANCH  25  26
ATOM     26  C   UNL A   1      33.252  34.126  28.429  1.00  0.00     0.021 C 
BRANCH  26  27
ATOM     27  C   UNL A   1      33.468  35.439  29.171  1.00  0.00     0.116 C 
BRANCH  27  28
ATOM     28  N   UNL A   1      32.652  35.549  30.367  1.00  0.00    -0.352 N 
ATOM     29  C   UNL A   1      32.887  35.052  31.627  1.00  0.00     0.251 C 
ATOM     30  H   UNL A   1      31.812  36.052  30.261  1.00  0.00     0.163 HD
ATOM     31  O   UNL A   1      32.015  35.112  32.483  1.00  0.00    -0.269 OA
BRANCH  29  32
ATOM     32  C   UNL A   1      34.190  34.419  31.931  1.00  0.00     0.039 A 
ATOM     33  C   UNL A   1      35.325  35.227  32.027  1.00  0.00     0.014 A 
ATOM     34  C   UNL A   1      34.291  33.039  32.130  1.00  0.00     0.014 A 
ATOM     35  C   UNL A   1      36.550  34.659  32.383  1.00  0.00     0.010 A 
ATOM     36  C   UNL A   1      35.494  32.488  32.560  1.00  0.00     0.010 A 
ATOM     37  C   UNL A   1      36.638  33.291  32.687  1.00  0.00    -0.014 A 
BRANCH  37  38
ATOM     38  C   UNL A   1      37.918  32.682  33.137  1.00  0.00     0.031 A 
ATOM     39  C   UNL A   1      38.436  32.949  34.524  1.00  0.00     0.074 A 
ATOM     40  C   UNL A   1      38.637  31.931  32.279  1.00  0.00     0.049 A 
ATOM     41  N   UNL A   1      39.552  32.548  35.079  1.00  0.00    -0.248 NA
ATOM     42  C   UNL A   1      37.605  33.796  35.396  1.00  0.00     0.031 C 
ATOM     43  C   UNL A   1      38.259  31.625  30.897  1.00  0.00     0.029 A 
ATOM     44  N   UNL A   1      39.840  31.290  32.442  1.00  0.00    -0.354 N 
ATOM     45  C   UNL A   1      39.561  33.100  36.355  1.00  0.00     0.074 A 
ATOM     46  C   UNL A   1      38.369  33.911  36.472  1.00  0.00     0.031 C 
ATOM     47  C   UNL A   1      39.193  30.829  30.351  1.00  0.00     0.029 A 
ATOM     48  C   UNL A   1      40.259  30.607  31.323  1.00  0.00     0.049 A 
ATOM     49  H   UNL A   1      40.356  31.317  33.280  1.00  0.00     0.167 HD
ATOM     50  C   UNL A   1      40.467  32.929  37.348  1.00  0.00     0.031 A 
ATOM     51  C   UNL A   1      41.377  29.889  31.101  1.00  0.00     0.031 A 
ATOM     52  C   UNL A   1      41.650  32.119  37.228  1.00  0.00     0.049 A 
ATOM     53  C   UNL A   1      42.385  29.743  32.209  1.00  0.00     0.074 A 
ATOM     54  C   UNL A   1      42.607  31.849  38.190  1.00  0.00     0.029 A 
ATOM     55  N   UNL A   1      42.040  31.450  36.077  1.00  0.00    -0.354 N 
ATOM     56  N   UNL A   1      42.346  30.224  33.429  1.00  0.00    -0.248 NA
ATOM     57  C   UNL A   1      43.585  28.947  31.913  1.00  0.00     0.031 C 
ATOM     58  C   UNL A   1      43.607  31.066  37.603  1.00  0.00     0.029 A 
ATOM     59  C   UNL A   1      43.238  30.791  36.296  1.00  0.00     0.049 A 
ATOM     60  H   UNL A   1      41.539  31.446  35.229  1.00  0.00     0.167 HD
ATOM     61  C   UNL A   1      43.498  29.761  34.056  1.00  0.00     0.074 A 
ATOM     62  C   UNL A   1      44.205  28.951  33.086  1.00  0.00     0.031 C 
ATOM     63  C   UNL A   1      43.930  29.985  35.321  1.00  0.00     0.031 A 
BRANCH  50  64
ATOM     64  C   UNL A   1      40.214  33.642  38.652  1.00  0.00    -0.014 A 
ATOM     65  C   UNL A   1      40.757  34.916  38.902  1.00  0.00     0.010 A 
ATOM     66  C   UNL A   1      39.386  33.051  39.624  1.00  0.00     0.010 A 
ATOM     67  C   UNL A   1      40.514  35.565  40.115  1.00  0.00     0.020 A 
ATOM     68  C   UNL A   1      39.114  33.712  40.826  1.00  0.00     0.020 A 
ATOM     69  C   UNL A   1      39.696  34.958  41.071  1.00  0.00     0.054 A 
BRANCH  69  70
ATOM     70  S   UNL A   1      39.381  35.835  42.627  1.00  0.00     0.124 S 
ATOM     71  O   UNL A   1      40.360  35.221  43.521  1.00  0.00    -0.237 OA
ATOM     72  O   UNL A   1      39.643  37.226  42.268  1.00  0.00    -0.237 OA
ATOM     73  O   UNL A   1      37.986  35.522  42.926  1.00  0.00    -0.744 OA
ENDBRANCH  69  70
ENDBRANCH  50  64
BRANCH  51  74
ATOM     74  C   UNL A   1      41.600  29.242  29.777  1.00  0.00    -0.014 A 
ATOM     75  C   UNL A   1      42.285  29.923  28.755  1.00  0.00     0.010 A 
ATOM     76  C   UNL A   1      41.127  27.941  29.531  1.00  0.00     0.010 A 
ATOM     77  C   UNL A   1      42.470  29.325  27.505  1.00  0.00     0.020 A 
ATOM     78  C   UNL A   1      41.338  27.327  28.293  1.00  0.00     0.020 A 
ATOM     79  C   UNL A   1      41.998  28.030  27.283  1.00  0.00     0.054 A 
BRANCH  79  80
ATOM     80  S   UNL A   1      42.284  27.260  25.665  1.00  0.00     0.124 S 
ATOM     81  O   UNL A   1      42.241  28.410  24.769  1.00  0.00    -0.237 OA
ATOM     82  O   UNL A   1      43.596  26.641  25.840  1.00  0.00    -0.237 OA
ATOM     83  O   UNL A   1      41.173  26.320  25.533  1.00  0.00    -0.744 OA
ENDBRANCH  79  80
ENDBRANCH  51  74
BRANCH  63  84
ATOM     84  C   UNL A   1      45.209  29.313  35.749  1.00  0.00    -0.014 A 
ATOM     85  C   UNL A   1      46.454  29.954  35.619  1.00  0.00     0.010 A 
ATOM     86  C   UNL A   1      45.154  28.038  36.342  1.00  0.00     0.010 A 
ATOM     87  C   UNL A   1      47.623  29.317  36.044  1.00  0.00     0.020 A 
ATOM     88  C   UNL A   1      46.316  27.411  36.797  1.00  0.00     0.020 A 
ATOM     89  C   UNL A   1      47.546  28.051  36.632  1.00  0.00     0.054 A 
BRANCH  89  90
ATOM     90  S   UNL A   1      49.074  27.267  37.217  1.00  0.00     0.124 S 
ATOM     91  O   UNL A   1      49.164  27.762  38.587  1.00  0.00    -0.237 OA
ATOM     92  O   UNL A   1      48.775  25.843  37.081  1.00  0.00    -0.237 OA
ATOM     93  O   UNL A   1      50.096  27.773  36.302  1.00  0.00    -0.744 OA
ENDBRANCH  89  90
ENDBRANCH  63  84
ENDBRANCH  37  38
ENDBRANCH  29  32
ENDBRANCH  27  28
ENDBRANCH  26  27
ENDBRANCH  25  26
ENDBRANCH   1  25
TORSDOF 20
ENDMDL
