MODEL 1
REMARK VINA RESULT:     -10.4      0.000      0.000
REMARK SMILES COc1ccc([C@H]2C[NH2+]C[C@@H]2C(=O)NCCCCCCNC(=O)c2ccc(-c3c4nc(c(-c5ccc(S(=O)(=O)[O-])cc5)c5ccc([nH]5)c(-c5ccc(S(=O)(=O)[O-])cc5)c5nc(c(-c6ccc(S(=O)(=O)[O-])cc6)c6ccc3[nH]6)C=C5)C=C4)cc2)cc1
REMARK SMILES IDX 18 1 17 2 16 3 15 4 14 5 12 6 13 7 11 9 7 10 8 11 9 12 10 13
REMARK SMILES IDX 6 16 3 17 4 18 85 19 5 20 84 21 2 22 1 23 19 24 20 25 21 26
REMARK SMILES IDX 22 27 23 29 24 30 25 31 83 32 26 33 82 34 27 35 28 36 29 37
REMARK SMILES IDX 76 38 30 39 81 40 75 41 77 42 31 43 80 44 74 45 73 46 32 48
REMARK SMILES IDX 62 49 43 50 61 51 44 52 47 53 60 54 78 55 45 56 46 57 59 59
REMARK SMILES IDX 79 60 48 61 33 62 34 63 42 64 35 65 41 66 36 67 37 68 38 69
REMARK SMILES IDX 39 70 40 71 63 72 64 73 72 74 65 75 71 76 66 77 67 78 68 79
REMARK SMILES IDX 69 80 70 81 49 82 50 83 58 84 51 85 57 86 52 87 53 88 54 89
REMARK SMILES IDX 55 90 56 91
REMARK H PARENT 14 8 9 14 9 15 21 28 77 47 47 58
REMARK Flexibility Score: inf
ROOT
ATOM      1  C   UNL A   1      32.581  28.528  24.637  1.00  0.00     0.002 C 
ENDROOT
BRANCH   1   2
ATOM      2  C   UNL A   1      31.606  27.973  23.597  1.00  0.00     0.002 C 
BRANCH   2   3
ATOM      3  C   UNL A   1      30.214  27.629  24.116  1.00  0.00     0.021 C 
BRANCH   3   4
ATOM      4  C   UNL A   1      29.858  26.151  24.107  1.00  0.00     0.116 C 
BRANCH   4   5
ATOM      5  N   UNL A   1      29.916  25.517  25.400  1.00  0.00    -0.356 N 
ATOM      6  C   UNL A   1      30.719  24.516  25.846  1.00  0.00     0.229 C 
ATOM      7  O   UNL A   1      30.608  24.213  27.040  1.00  0.00    -0.275 OA
ATOM      8  H   UNL A   1      29.276  25.863  26.063  1.00  0.00     0.163 HD
BRANCH   6   9
ATOM      9  C   UNL A   1      31.717  23.752  24.969  1.00  0.00     0.146 C 
ATOM     10  C   UNL A   1      33.036  24.465  24.638  1.00  0.00     0.092 C 
ATOM     11  C   UNL A   1      32.879  24.852  23.158  1.00  0.00     0.269 C 
ATOM     12  N   UNL A   1      31.936  23.900  22.553  1.00  0.00    -0.345 N 
ATOM     13  C   UNL A   1      31.142  23.297  23.635  1.00  0.00     0.274 C 
ATOM     14  H   UNL A   1      32.449  23.173  22.054  1.00  0.00     0.346 HD
ATOM     15  H   UNL A   1      31.326  24.378  21.889  1.00  0.00     0.346 HD
BRANCH  10  16
ATOM     16  C   UNL A   1      34.327  23.643  24.725  1.00  0.00    -0.038 A 
ATOM     17  C   UNL A   1      36.939  22.589  24.894  1.00  0.00     0.118 A 
ATOM     18  C   UNL A   1      36.339  23.156  26.016  1.00  0.00     0.047 A 
ATOM     19  C   UNL A   1      36.206  22.470  23.716  1.00  0.00     0.047 A 
ATOM     20  C   UNL A   1      35.043  23.669  25.937  1.00  0.00     0.008 A 
ATOM     21  C   UNL A   1      34.915  22.999  23.630  1.00  0.00     0.008 A 
BRANCH  17  22
ATOM     22  O   UNL A   1      38.230  22.170  25.056  1.00  0.00    -0.497 OA
ATOM     23  C   UNL A   1      38.842  22.565  26.281  1.00  0.00     0.278 C 
ENDBRANCH  17  22
ENDBRANCH  10  16
ENDBRANCH   6   9
ENDBRANCH   4   5
ENDBRANCH   3   4
ENDBRANCH   2   3
ENDBRANCH   1   2
BRANCH   1  24
ATOM     24  C   UNL A   1      32.561  27.847  26.009  1.00  0.00     0.021 C 
BRANCH  24  25
ATOM     25  C   UNL A   1      33.634  28.309  26.988  1.00  0.00     0.116 C 
BRANCH  25  26
ATOM     26  N   UNL A   1      33.510  29.718  27.320  1.00  0.00    -0.352 N 
ATOM     27  C   UNL A   1      34.391  30.543  27.974  1.00  0.00     0.251 C 
ATOM     28  H   UNL A   1      32.669  30.143  27.034  1.00  0.00     0.163 HD
ATOM     29  O   UNL A   1      34.034  31.662  28.322  1.00  0.00    -0.269 OA
BRANCH  27  30
ATOM     30  C   UNL A   1      35.760  30.071  28.273  1.00  0.00     0.039 A 
ATOM     31  C   UNL A   1      36.722  30.114  27.262  1.00  0.00     0.014 A 
ATOM     32  C   UNL A   1      36.094  29.580  29.540  1.00  0.00     0.014 A 
ATOM     33  C   UNL A   1      38.032  29.716  27.536  1.00  0.00     0.010 A 
ATOM     34  C   UNL A   1      37.416  29.256  29.831  1.00  0.00     0.010 A 
ATOM     35  C   UNL A   1      38.398  29.314  28.831  1.00  0.00    -0.014 A 
BRANCH  35  36
ATOM     36  C   UNL A   1      39.803  28.956  29.155  1.00  0.00     0.031 A 
ATOM     37  C   UNL A   1      40.713  29.963  29.805  1.00  0.00     0.074 A 
ATOM     38  C   UNL A   1      40.274  27.740  28.815  1.00  0.00     0.049 A 
ATOM     39  N   UNL A   1      41.977  29.848  30.124  1.00  0.00    -0.248 NA
ATOM     40  C   UNL A   1      40.134  31.281  30.116  1.00  0.00     0.031 C 
ATOM     41  C   UNL A   1      39.503  26.687  28.148  1.00  0.00     0.029 A 
ATOM     42  N   UNL A   1      41.517  27.182  28.981  1.00  0.00    -0.354 N 
ATOM     43  C   UNL A   1      42.347  31.075  30.660  1.00  0.00     0.074 A 
ATOM     44  C   UNL A   1      41.190  31.939  30.573  1.00  0.00     0.031 C 
ATOM     45  C   UNL A   1      40.279  25.603  27.991  1.00  0.00     0.029 A 
ATOM     46  C   UNL A   1      41.614  25.897  28.501  1.00  0.00     0.049 A 
ATOM     47  H   UNL A   1      42.269  27.657  29.403  1.00  0.00     0.167 HD
ATOM     48  C   UNL A   1      43.536  31.445  31.194  1.00  0.00     0.031 A 
ATOM     49  C   UNL A   1      42.663  25.050  28.466  1.00  0.00     0.031 A 
ATOM     50  C   UNL A   1      44.683  30.580  31.279  1.00  0.00     0.049 A 
ATOM     51  C   UNL A   1      43.980  25.492  29.043  1.00  0.00     0.074 A 
ATOM     52  C   UNL A   1      45.917  30.844  31.848  1.00  0.00     0.029 A 
ATOM     53  N   UNL A   1      44.741  29.288  30.780  1.00  0.00    -0.354 N 
ATOM     54  N   UNL A   1      44.291  26.635  29.605  1.00  0.00    -0.248 NA
ATOM     55  C   UNL A   1      45.085  24.525  28.990  1.00  0.00     0.031 C 
ATOM     56  C   UNL A   1      46.741  29.734  31.636  1.00  0.00     0.029 A 
ATOM     57  C   UNL A   1      45.999  28.752  31.000  1.00  0.00     0.049 A 
ATOM     58  H   UNL A   1      43.998  28.820  30.334  1.00  0.00     0.167 HD
ATOM     59  C   UNL A   1      45.619  26.513  30.002  1.00  0.00     0.074 A 
ATOM     60  C   UNL A   1      46.045  25.180  29.628  1.00  0.00     0.031 C 
ATOM     61  C   UNL A   1      46.412  27.423  30.622  1.00  0.00     0.031 A 
BRANCH  48  62
ATOM     62  C   UNL A   1      43.657  32.853  31.720  1.00  0.00    -0.014 A 
ATOM     63  C   UNL A   1      43.324  33.166  33.049  1.00  0.00     0.010 A 
ATOM     64  C   UNL A   1      44.154  33.871  30.884  1.00  0.00     0.010 A 
ATOM     65  C   UNL A   1      43.442  34.476  33.521  1.00  0.00     0.020 A 
ATOM     66  C   UNL A   1      44.306  35.176  31.361  1.00  0.00     0.020 A 
ATOM     67  C   UNL A   1      43.931  35.474  32.672  1.00  0.00     0.054 A 
BRANCH  67  68
ATOM     68  S   UNL A   1      44.095  37.161  33.319  1.00  0.00     0.124 S 
ATOM     69  O   UNL A   1      43.913  37.965  32.113  1.00  0.00    -0.237 OA
ATOM     70  O   UNL A   1      43.009  37.236  34.294  1.00  0.00    -0.237 OA
ATOM     71  O   UNL A   1      45.441  37.186  33.887  1.00  0.00    -0.744 OA
ENDBRANCH  67  68
ENDBRANCH  48  62
BRANCH  49  72
ATOM     72  C   UNL A   1      42.504  23.693  27.872  1.00  0.00    -0.014 A 
ATOM     73  C   UNL A   1      42.766  23.472  26.509  1.00  0.00     0.010 A 
ATOM     74  C   UNL A   1      42.096  22.609  28.673  1.00  0.00     0.010 A 
ATOM     75  C   UNL A   1      42.606  22.199  25.952  1.00  0.00     0.020 A 
ATOM     76  C   UNL A   1      41.965  21.330  28.128  1.00  0.00     0.020 A 
ATOM     77  C   UNL A   1      42.209  21.135  26.768  1.00  0.00     0.054 A 
BRANCH  77  78
ATOM     78  S   UNL A   1      42.055  19.482  26.033  1.00  0.00     0.124 S 
ATOM     79  O   UNL A   1      40.620  19.393  25.787  1.00  0.00    -0.237 OA
ATOM     80  O   UNL A   1      42.897  19.588  24.844  1.00  0.00    -0.237 OA
ATOM     81  O   UNL A   1      42.569  18.596  27.076  1.00  0.00    -0.744 OA
ENDBRANCH  77  78
ENDBRANCH  49  72
BRANCH  61  82
ATOM     82  C   UNL A   1      47.814  26.998  30.971  1.00  0.00    -0.014 A 
ATOM     83  C   UNL A   1      48.107  26.369  32.194  1.00  0.00     0.010 A 
ATOM     84  C   UNL A   1      48.846  27.183  30.032  1.00  0.00     0.010 A 
ATOM     85  C   UNL A   1      49.413  25.964  32.485  1.00  0.00     0.020 A 
ATOM     86  C   UNL A   1      50.146  26.750  30.305  1.00  0.00     0.020 A 
ATOM     87  C   UNL A   1      50.423  26.157  31.537  1.00  0.00     0.054 A 
BRANCH  87  88
ATOM     88  S   UNL A   1      52.100  25.581  31.922  1.00  0.00     0.124 S 
ATOM     89  O   UNL A   1      51.885  24.159  32.169  1.00  0.00    -0.237 OA
ATOM     90  O   UNL A   1      52.836  25.904  30.702  1.00  0.00    -0.237 OA
ATOM     91  O   UNL A   1      52.476  26.368  33.095  1.00  0.00    -0.744 OA
ENDBRANCH  87  88
ENDBRANCH  61  82
ENDBRANCH  35  36
ENDBRANCH  27  30
ENDBRANCH  25  26
ENDBRANCH  24  25
ENDBRANCH   1  24
TORSDOF 18
ENDMDL
MODEL 2
REMARK VINA RESULT:     -10.3      2.956      3.696
REMARK SMILES COc1ccc([C@H]2C[NH2+]C[C@@H]2C(=O)NCCCCCCNC(=O)c2ccc(-c3c4nc(c(-c5ccc(S(=O)(=O)[O-])cc5)c5ccc([nH]5)c(-c5ccc(S(=O)(=O)[O-])cc5)c5nc(c(-c6ccc(S(=O)(=O)[O-])cc6)c6ccc3[nH]6)C=C5)C=C4)cc2)cc1
REMARK SMILES IDX 18 1 17 2 16 3 15 4 14 5 12 6 13 7 11 9 7 10 8 11 9 12 10 13
REMARK SMILES IDX 6 16 3 17 4 18 85 19 5 20 84 21 2 22 1 23 19 24 20 25 21 26
REMARK SMILES IDX 22 27 23 29 24 30 25 31 83 32 26 33 82 34 27 35 28 36 29 37
REMARK SMILES IDX 76 38 30 39 81 40 75 41 77 42 31 43 80 44 74 45 73 46 32 48
REMARK SMILES IDX 62 49 43 50 61 51 44 52 47 53 60 54 78 55 45 56 46 57 59 59
REMARK SMILES IDX 79 60 48 61 33 62 34 63 42 64 35 65 41 66 36 67 37 68 38 69
REMARK SMILES IDX 39 70 40 71 63 72 64 73 72 74 65 75 71 76 66 77 67 78 68 79
REMARK SMILES IDX 69 80 70 81 49 82 50 83 58 84 51 85 57 86 52 87 53 88 54 89
REMARK SMILES IDX 55 90 56 91
REMARK H PARENT 14 8 9 14 9 15 21 28 77 47 47 58
REMARK Flexibility Score: inf
ROOT
ATOM      1  C   UNL A   1      32.813  29.026  27.316  1.00  0.00     0.002 C 
ENDROOT
BRANCH   1   2
ATOM      2  C   UNL A   1      31.629  28.158  26.884  1.00  0.00     0.002 C 
BRANCH   2   3
ATOM      3  C   UNL A   1      31.513  27.898  25.386  1.00  0.00     0.021 C 
BRANCH   3   4
ATOM      4  C   UNL A   1      30.645  26.714  24.992  1.00  0.00     0.116 C 
BRANCH   4   5
ATOM      5  N   UNL A   1      30.433  25.755  26.048  1.00  0.00    -0.356 N 
ATOM      6  C   UNL A   1      31.126  24.628  26.356  1.00  0.00     0.229 C 
ATOM      7  O   UNL A   1      30.768  24.024  27.374  1.00  0.00    -0.275 OA
ATOM      8  H   UNL A   1      29.668  25.946  26.637  1.00  0.00     0.163 HD
BRANCH   6   9
ATOM      9  C   UNL A   1      32.286  24.072  25.523  1.00  0.00     0.146 C 
ATOM     10  C   UNL A   1      33.653  24.749  25.700  1.00  0.00     0.092 C 
ATOM     11  C   UNL A   1      33.833  25.550  24.400  1.00  0.00     0.269 C 
ATOM     12  N   UNL A   1      33.039  24.882  23.359  1.00  0.00    -0.345 N 
ATOM     13  C   UNL A   1      32.018  24.058  24.025  1.00  0.00     0.274 C 
ATOM     14  H   UNL A   1      33.643  24.290  22.788  1.00  0.00     0.346 HD
ATOM     15  H   UNL A   1      32.597  25.573  22.751  1.00  0.00     0.346 HD
BRANCH  10  16
ATOM     16  C   UNL A   1      34.884  23.843  25.812  1.00  0.00    -0.038 A 
ATOM     17  C   UNL A   1      37.144  22.182  25.502  1.00  0.00     0.118 A 
ATOM     18  C   UNL A   1      37.246  23.552  25.273  1.00  0.00     0.047 A 
ATOM     19  C   UNL A   1      35.942  21.656  25.968  1.00  0.00     0.047 A 
ATOM     20  C   UNL A   1      36.131  24.377  25.436  1.00  0.00     0.008 A 
ATOM     21  C   UNL A   1      34.820  22.477  26.113  1.00  0.00     0.008 A 
BRANCH  17  22
ATOM     22  O   UNL A   1      38.273  21.452  25.258  1.00  0.00    -0.497 OA
ATOM     23  C   UNL A   1      39.369  21.730  26.126  1.00  0.00     0.278 C 
ENDBRANCH  17  22
ENDBRANCH  10  16
ENDBRANCH   6   9
ENDBRANCH   4   5
ENDBRANCH   3   4
ENDBRANCH   2   3
ENDBRANCH   1   2
BRANCH   1  24
ATOM     24  C   UNL A   1      34.201  28.516  26.915  1.00  0.00     0.021 C 
BRANCH  24  25
ATOM     25  C   UNL A   1      35.374  29.367  27.386  1.00  0.00     0.116 C 
BRANCH  25  26
ATOM     26  N   UNL A   1      35.268  29.727  28.790  1.00  0.00    -0.352 N 
ATOM     27  C   UNL A   1      36.227  29.712  29.771  1.00  0.00     0.251 C 
ATOM     28  H   UNL A   1      34.376  30.025  29.079  1.00  0.00     0.163 HD
ATOM     29  O   UNL A   1      35.904  29.879  30.942  1.00  0.00    -0.269 OA
BRANCH  27  30
ATOM     30  C   UNL A   1      37.643  29.474  29.416  1.00  0.00     0.039 A 
ATOM     31  C   UNL A   1      38.537  29.115  30.426  1.00  0.00     0.014 A 
ATOM     32  C   UNL A   1      38.090  29.612  28.098  1.00  0.00     0.014 A 
ATOM     33  C   UNL A   1      39.869  28.842  30.106  1.00  0.00     0.010 A 
ATOM     34  C   UNL A   1      39.398  29.266  27.771  1.00  0.00     0.010 A 
ATOM     35  C   UNL A   1      40.303  28.883  28.771  1.00  0.00    -0.014 A 
BRANCH  35  36
ATOM     36  C   UNL A   1      41.699  28.526  28.407  1.00  0.00     0.031 A 
ATOM     37  C   UNL A   1      42.766  29.586  28.361  1.00  0.00     0.074 A 
ATOM     38  C   UNL A   1      41.992  27.256  28.065  1.00  0.00     0.049 A 
ATOM     39  N   UNL A   1      44.026  29.473  28.026  1.00  0.00    -0.248 NA
ATOM     40  C   UNL A   1      42.360  30.956  28.716  1.00  0.00     0.031 C 
ATOM     41  C   UNL A   1      41.039  26.143  28.035  1.00  0.00     0.029 A 
ATOM     42  N   UNL A   1      43.178  26.684  27.676  1.00  0.00    -0.354 N 
ATOM     43  C   UNL A   1      44.559  30.754  28.117  1.00  0.00     0.074 A 
ATOM     44  C   UNL A   1      43.474  31.637  28.486  1.00  0.00     0.031 C 
ATOM     45  C   UNL A   1      41.682  25.020  27.679  1.00  0.00     0.029 A 
ATOM     46  C   UNL A   1      43.081  25.338  27.411  1.00  0.00     0.049 A 
ATOM     47  H   UNL A   1      44.019  27.189  27.594  1.00  0.00     0.167 HD
ATOM     48  C   UNL A   1      45.839  31.156  27.930  1.00  0.00     0.031 A 
ATOM     49  C   UNL A   1      44.010  24.458  26.989  1.00  0.00     0.031 A 
ATOM     50  C   UNL A   1      46.915  30.272  27.566  1.00  0.00     0.049 A 
ATOM     51  C   UNL A   1      45.420  24.933  26.764  1.00  0.00     0.074 A 
ATOM     52  C   UNL A   1      48.256  30.573  27.402  1.00  0.00     0.029 A 
ATOM     53  N   UNL A   1      46.774  28.918  27.304  1.00  0.00    -0.354 N 
ATOM     54  N   UNL A   1      45.918  26.136  26.920  1.00  0.00    -0.248 NA
ATOM     55  C   UNL A   1      46.395  23.929  26.318  1.00  0.00     0.031 C 
ATOM     56  C   UNL A   1      48.915  29.414  26.980  1.00  0.00     0.029 A 
ATOM     57  C   UNL A   1      47.999  28.375  26.950  1.00  0.00     0.049 A 
ATOM     58  H   UNL A   1      45.929  28.416  27.360  1.00  0.00     0.167 HD
ATOM     59  C   UNL A   1      47.272  26.026  26.621  1.00  0.00     0.074 A 
ATOM     60  C   UNL A   1      47.515  24.637  26.290  1.00  0.00     0.031 C 
ATOM     61  C   UNL A   1      48.227  26.990  26.622  1.00  0.00     0.031 A 
BRANCH  48  62
ATOM     62  C   UNL A   1      46.143  32.622  28.108  1.00  0.00    -0.014 A 
ATOM     63  C   UNL A   1      46.595  33.129  29.339  1.00  0.00     0.010 A 
ATOM     64  C   UNL A   1      46.017  33.500  27.015  1.00  0.00     0.010 A 
ATOM     65  C   UNL A   1      46.872  34.490  29.488  1.00  0.00     0.020 A 
ATOM     66  C   UNL A   1      46.325  34.856  27.150  1.00  0.00     0.020 A 
ATOM     67  C   UNL A   1      46.734  35.346  28.391  1.00  0.00     0.054 A 
BRANCH  67  68
ATOM     68  S   UNL A   1      47.123  37.105  28.609  1.00  0.00     0.124 S 
ATOM     69  O   UNL A   1      48.499  37.050  29.095  1.00  0.00    -0.237 OA
ATOM     70  O   UNL A   1      46.954  37.639  27.259  1.00  0.00    -0.237 OA
ATOM     71  O   UNL A   1      46.136  37.561  29.585  1.00  0.00    -0.744 OA
ENDBRANCH  67  68
ENDBRANCH  48  62
BRANCH  49  72
ATOM     72  C   UNL A   1      43.638  23.033  26.764  1.00  0.00    -0.014 A 
ATOM     73  C   UNL A   1      42.990  22.294  27.770  1.00  0.00     0.010 A 
ATOM     74  C   UNL A   1      43.921  22.408  25.535  1.00  0.00     0.010 A 
ATOM     75  C   UNL A   1      42.651  20.953  27.559  1.00  0.00     0.020 A 
ATOM     76  C   UNL A   1      43.557  21.079  25.309  1.00  0.00     0.020 A 
ATOM     77  C   UNL A   1      42.934  20.356  26.327  1.00  0.00     0.054 A 
BRANCH  77  78
ATOM     78  S   UNL A   1      42.441  18.630  26.060  1.00  0.00     0.124 S 
ATOM     79  O   UNL A   1      43.331  18.224  24.978  1.00  0.00    -0.237 OA
ATOM     80  O   UNL A   1      42.707  18.022  27.362  1.00  0.00    -0.237 OA
ATOM     81  O   UNL A   1      41.027  18.731  25.705  1.00  0.00    -0.744 OA
ENDBRANCH  77  78
ENDBRANCH  49  72
BRANCH  61  82
ATOM     82  C   UNL A   1      49.636  26.571  26.291  1.00  0.00    -0.014 A 
ATOM     83  C   UNL A   1      50.473  25.983  27.256  1.00  0.00     0.010 A 
ATOM     84  C   UNL A   1      50.110  26.720  24.974  1.00  0.00     0.010 A 
ATOM     85  C   UNL A   1      51.769  25.583  26.918  1.00  0.00     0.020 A 
ATOM     86  C   UNL A   1      51.392  26.291  24.623  1.00  0.00     0.020 A 
ATOM     87  C   UNL A   1      52.219  25.739  25.602  1.00  0.00     0.054 A 
BRANCH  87  88
ATOM     88  S   UNL A   1      53.889  25.170  25.180  1.00  0.00     0.124 S 
ATOM     89  O   UNL A   1      54.224  26.026  24.046  1.00  0.00    -0.237 OA
ATOM     90  O   UNL A   1      54.635  25.431  26.408  1.00  0.00    -0.237 OA
ATOM     91  O   UNL A   1      53.703  23.756  24.860  1.00  0.00    -0.744 OA
ENDBRANCH  87  88
ENDBRANCH  61  82
ENDBRANCH  35  36
ENDBRANCH  27  30
ENDBRANCH  25  26
ENDBRANCH  24  25
ENDBRANCH   1  24
TORSDOF 18
ENDMDL
MODEL 3
REMARK VINA RESULT:     -10.0      3.180     10.512
REMARK SMILES COc1ccc([C@H]2C[NH2+]C[C@@H]2C(=O)NCCCCCCNC(=O)c2ccc(-c3c4nc(c(-c5ccc(S(=O)(=O)[O-])cc5)c5ccc([nH]5)c(-c5ccc(S(=O)(=O)[O-])cc5)c5nc(c(-c6ccc(S(=O)(=O)[O-])cc6)c6ccc3[nH]6)C=C5)C=C4)cc2)cc1
REMARK SMILES IDX 18 1 17 2 16 3 15 4 14 5 12 6 13 7 11 9 7 10 8 11 9 12 10 13
REMARK SMILES IDX 6 16 3 17 4 18 85 19 5 20 84 21 2 22 1 23 19 24 20 25 21 26
REMARK SMILES IDX 22 27 23 29 24 30 25 31 83 32 26 33 82 34 27 35 28 36 29 37
REMARK SMILES IDX 76 38 30 39 81 40 75 41 77 42 31 43 80 44 74 45 73 46 32 48
REMARK SMILES IDX 62 49 43 50 61 51 44 52 47 53 60 54 78 55 45 56 46 57 59 59
REMARK SMILES IDX 79 60 48 61 33 62 34 63 42 64 35 65 41 66 36 67 37 68 38 69
REMARK SMILES IDX 39 70 40 71 63 72 64 73 72 74 65 75 71 76 66 77 67 78 68 79
REMARK SMILES IDX 69 80 70 81 49 82 50 83 58 84 51 85 57 86 52 87 53 88 54 89
REMARK SMILES IDX 55 90 56 91
REMARK H PARENT 14 8 9 14 9 15 21 28 77 47 47 58
REMARK Flexibility Score: inf
ROOT
ATOM      1  C   UNL A   1      36.089  33.037  29.519  1.00  0.00     0.002 C 
ENDROOT
BRANCH   1   2
ATOM      2  C   UNL A   1      36.545  33.343  30.948  1.00  0.00     0.002 C 
BRANCH   2   3
ATOM      3  C   UNL A   1      35.439  33.389  31.997  1.00  0.00     0.021 C 
BRANCH   3   4
ATOM      4  C   UNL A   1      35.439  34.616  32.895  1.00  0.00     0.116 C 
BRANCH   4   5
ATOM      5  N   UNL A   1      35.392  34.321  34.306  1.00  0.00    -0.356 N 
ATOM      6  C   UNL A   1      36.335  33.769  35.113  1.00  0.00     0.229 C 
ATOM      7  O   UNL A   1      36.055  33.698  36.316  1.00  0.00    -0.275 OA
ATOM      8  H   UNL A   1      34.548  34.555  34.753  1.00  0.00     0.163 HD
BRANCH   6   9
ATOM      9  C   UNL A   1      37.683  33.228  34.625  1.00  0.00     0.146 C 
ATOM     10  C   UNL A   1      38.375  32.185  35.516  1.00  0.00     0.092 C 
ATOM     11  C   UNL A   1      39.543  32.963  36.146  1.00  0.00     0.269 C 
ATOM     12  N   UNL A   1      39.885  34.060  35.229  1.00  0.00    -0.345 N 
ATOM     13  C   UNL A   1      38.723  34.309  34.363  1.00  0.00     0.274 C 
ATOM     14  H   UNL A   1      40.690  33.797  34.660  1.00  0.00     0.346 HD
ATOM     15  H   UNL A   1      40.123  34.902  35.755  1.00  0.00     0.346 HD
BRANCH  10  16
ATOM     16  C   UNL A   1      39.002  30.969  34.827  1.00  0.00    -0.038 A 
ATOM     17  C   UNL A   1      40.448  29.074  33.316  1.00  0.00     0.118 A 
ATOM     18  C   UNL A   1      41.045  29.704  34.405  1.00  0.00     0.047 A 
ATOM     19  C   UNL A   1      39.106  29.324  33.035  1.00  0.00     0.047 A 
ATOM     20  C   UNL A   1      40.328  30.634  35.160  1.00  0.00     0.008 A 
ATOM     21  C   UNL A   1      38.392  30.269  33.779  1.00  0.00     0.008 A 
BRANCH  17  22
ATOM     22  O   UNL A   1      41.249  28.226  32.604  1.00  0.00    -0.497 OA
ATOM     23  C   UNL A   1      42.559  28.047  33.136  1.00  0.00     0.278 C 
ENDBRANCH  17  22
ENDBRANCH  10  16
ENDBRANCH   6   9
ENDBRANCH   4   5
ENDBRANCH   3   4
ENDBRANCH   2   3
ENDBRANCH   1   2
BRANCH   1  24
ATOM     24  C   UNL A   1      34.616  32.650  29.353  1.00  0.00     0.021 C 
BRANCH  24  25
ATOM     25  C   UNL A   1      34.178  32.332  27.928  1.00  0.00     0.116 C 
BRANCH  25  26
ATOM     26  N   UNL A   1      33.604  31.003  27.810  1.00  0.00    -0.352 N 
ATOM     27  C   UNL A   1      34.224  29.778  27.814  1.00  0.00     0.251 C 
ATOM     28  H   UNL A   1      32.625  30.977  27.712  1.00  0.00     0.163 HD
ATOM     29  O   UNL A   1      33.589  28.772  27.521  1.00  0.00    -0.269 OA
BRANCH  27  30
ATOM     30  C   UNL A   1      35.660  29.680  28.152  1.00  0.00     0.039 A 
ATOM     31  C   UNL A   1      36.022  29.326  29.453  1.00  0.00     0.014 A 
ATOM     32  C   UNL A   1      36.647  29.944  27.196  1.00  0.00     0.014 A 
ATOM     33  C   UNL A   1      37.371  29.183  29.782  1.00  0.00     0.010 A 
ATOM     34  C   UNL A   1      37.987  29.727  27.506  1.00  0.00     0.010 A 
ATOM     35  C   UNL A   1      38.365  29.351  28.803  1.00  0.00    -0.014 A 
BRANCH  35  36
ATOM     36  C   UNL A   1      39.800  29.133  29.120  1.00  0.00     0.031 A 
ATOM     37  C   UNL A   1      40.461  27.824  28.782  1.00  0.00     0.074 A 
ATOM     38  C   UNL A   1      40.492  30.095  29.761  1.00  0.00     0.049 A 
ATOM     39  N   UNL A   1      41.689  27.436  29.018  1.00  0.00    -0.248 NA
ATOM     40  C   UNL A   1      39.630  26.810  28.111  1.00  0.00     0.031 C 
ATOM     41  C   UNL A   1      39.955  31.394  30.176  1.00  0.00     0.029 A 
ATOM     42  N   UNL A   1      41.799  30.131  30.179  1.00  0.00    -0.354 N 
ATOM     43  C   UNL A   1      41.773  26.134  28.538  1.00  0.00     0.074 A 
ATOM     44  C   UNL A   1      40.460  25.779  28.047  1.00  0.00     0.031 C 
ATOM     45  C   UNL A   1      40.930  32.109  30.759  1.00  0.00     0.029 A 
ATOM     46  C   UNL A   1      42.147  31.306  30.803  1.00  0.00     0.049 A 
ATOM     47  H   UNL A   1      42.428  29.385  30.045  1.00  0.00     0.167 HD
ATOM     48  C   UNL A   1      42.852  25.315  28.493  1.00  0.00     0.031 A 
ATOM     49  C   UNL A   1      43.313  31.692  31.358  1.00  0.00     0.031 A 
ATOM     50  C   UNL A   1      44.157  25.674  28.981  1.00  0.00     0.049 A 
ATOM     51  C   UNL A   1      44.489  30.755  31.318  1.00  0.00     0.074 A 
ATOM     52  C   UNL A   1      45.326  24.934  28.934  1.00  0.00     0.029 A 
ATOM     53  N   UNL A   1      44.466  26.871  29.608  1.00  0.00    -0.354 N 
ATOM     54  N   UNL A   1      44.567  29.553  30.800  1.00  0.00    -0.248 NA
ATOM     55  C   UNL A   1      45.738  31.232  31.925  1.00  0.00     0.031 C 
ATOM     56  C   UNL A   1      46.327  25.658  29.589  1.00  0.00     0.029 A 
ATOM     57  C   UNL A   1      45.801  26.879  29.980  1.00  0.00     0.049 A 
ATOM     58  H   UNL A   1      43.832  27.608  29.766  1.00  0.00     0.167 HD
ATOM     59  C   UNL A   1      45.882  29.142  30.993  1.00  0.00     0.074 A 
ATOM     60  C   UNL A   1      46.566  30.231  31.660  1.00  0.00     0.031 C 
ATOM     61  C   UNL A   1      46.470  27.970  30.645  1.00  0.00     0.031 A 
BRANCH  48  62
ATOM     62  C   UNL A   1      42.660  23.941  27.901  1.00  0.00    -0.014 A 
ATOM     63  C   UNL A   1      42.861  23.703  26.530  1.00  0.00     0.010 A 
ATOM     64  C   UNL A   1      42.316  22.862  28.736  1.00  0.00     0.010 A 
ATOM     65  C   UNL A   1      42.679  22.424  25.997  1.00  0.00     0.020 A 
ATOM     66  C   UNL A   1      42.165  21.575  28.214  1.00  0.00     0.020 A 
ATOM     67  C   UNL A   1      42.330  21.368  26.843  1.00  0.00     0.054 A 
BRANCH  67  68
ATOM     68  S   UNL A   1      42.123  19.714  26.126  1.00  0.00     0.124 S 
ATOM     69  O   UNL A   1      40.703  19.711  25.783  1.00  0.00    -0.237 OA
ATOM     70  O   UNL A   1      43.043  19.739  24.993  1.00  0.00    -0.237 OA
ATOM     71  O   UNL A   1      42.502  18.814  27.213  1.00  0.00    -0.744 OA
ENDBRANCH  67  68
ENDBRANCH  48  62
BRANCH  49  72
ATOM     72  C   UNL A   1      43.427  33.036  31.991  1.00  0.00    -0.014 A 
ATOM     73  C   UNL A   1      43.879  34.142  31.249  1.00  0.00     0.010 A 
ATOM     74  C   UNL A   1      43.072  33.221  33.341  1.00  0.00     0.010 A 
ATOM     75  C   UNL A   1      43.995  35.400  31.848  1.00  0.00     0.020 A 
ATOM     76  C   UNL A   1      43.156  34.482  33.934  1.00  0.00     0.020 A 
ATOM     77  C   UNL A   1      43.628  35.562  33.187  1.00  0.00     0.054 A 
BRANCH  77  78
ATOM     78  S   UNL A   1      43.741  37.215  33.929  1.00  0.00     0.124 S 
ATOM     79  O   UNL A   1      42.565  37.240  34.792  1.00  0.00    -0.237 OA
ATOM     80  O   UNL A   1      45.030  37.164  34.615  1.00  0.00    -0.237 OA
ATOM     81  O   UNL A   1      43.692  38.110  32.775  1.00  0.00    -0.744 OA
ENDBRANCH  77  78
ENDBRANCH  49  72
BRANCH  61  82
ATOM     82  C   UNL A   1      47.938  27.813  30.946  1.00  0.00    -0.014 A 
ATOM     83  C   UNL A   1      48.922  28.219  30.028  1.00  0.00     0.010 A 
ATOM     84  C   UNL A   1      48.336  27.300  32.195  1.00  0.00     0.010 A 
ATOM     85  C   UNL A   1      50.278  28.083  30.340  1.00  0.00     0.020 A 
ATOM     86  C   UNL A   1      49.689  27.194  32.524  1.00  0.00     0.020 A 
ATOM     87  C   UNL A   1      50.652  27.573  31.588  1.00  0.00     0.054 A 
BRANCH  87  88
ATOM     88  S   UNL A   1      52.417  27.449  31.985  1.00  0.00     0.124 S 
ATOM     89  O   UNL A   1      52.397  27.361  33.442  1.00  0.00    -0.237 OA
ATOM     90  O   UNL A   1      52.817  26.230  31.286  1.00  0.00    -0.237 OA
ATOM     91  O   UNL A   1      52.982  28.683  31.443  1.00  0.00    -0.744 OA
ENDBRANCH  87  88
ENDBRANCH  61  82
ENDBRANCH  35  36
ENDBRANCH  27  30
ENDBRANCH  25  26
ENDBRANCH  24  25
ENDBRANCH   1  24
TORSDOF 18
ENDMDL
