MODEL 1
REMARK VINA RESULT:     -13.1      0.000      0.000
REMARK SMILES Cc1ccc(Nc2c(F)cccc2I)c(CC(=O)NCCCCCCNC(=O)c2ccc(-c3c4nc(c(-c5ccc(S(=O)(=O)[O-])cc5)c5ccc([nH]5)c(-c5ccc(S(=O)(=O)[O-])cc5)c5nc(c(-c6ccc(S(=O)(=O)[O-])cc6)c6ccc3[nH]6)C=C5)C=C4)cc2)c1
REMARK SMILES IDX 22 1 21 2 20 3 19 4 17 5 18 6 16 8 15 9 1 10 2 11 3 12 89 13
REMARK SMILES IDX 4 14 5 15 6 16 7 18 8 19 13 20 9 21 10 22 12 23 14 24 11 25
REMARK SMILES IDX 23 26 24 27 25 28 26 29 27 30 28 32 29 33 30 34 88 35 31 36
REMARK SMILES IDX 87 37 32 38 33 39 34 40 81 41 35 42 86 43 80 44 82 45 36 46
REMARK SMILES IDX 85 47 79 48 78 49 37 51 67 52 48 53 66 54 49 55 52 56 65 57
REMARK SMILES IDX 83 58 50 59 51 60 64 62 84 63 53 64 38 65 39 66 47 67 40 68
REMARK SMILES IDX 46 69 41 70 42 71 43 72 44 73 45 74 68 75 69 76 77 77 70 78
REMARK SMILES IDX 76 79 71 80 72 81 73 82 74 83 75 84 54 85 55 86 63 87 56 88
REMARK SMILES IDX 62 89 57 90 58 91 59 92 60 93 61 94
REMARK H PARENT 19 7 6 17 26 31 82 50 52 61
REMARK Flexibility Score: inf
ROOT
ATOM      1  C   UNL A   1      32.208  29.008  24.719  1.00  0.00     0.002 C 
ENDROOT
BRANCH   1   2
ATOM      2  C   UNL A   1      33.223  29.005  23.567  1.00  0.00     0.021 C 
BRANCH   2   3
ATOM      3  C   UNL A   1      33.855  27.648  23.254  1.00  0.00     0.116 C 
BRANCH   3   4
ATOM      4  N   UNL A   1      33.531  27.180  21.921  1.00  0.00    -0.356 N 
ATOM      5  C   UNL A   1      33.112  25.948  21.523  1.00  0.00     0.224 C 
ATOM      6  O   UNL A   1      32.951  25.738  20.317  1.00  0.00    -0.275 OA
ATOM      7  H   UNL A   1      33.629  27.846  21.203  1.00  0.00     0.163 HD
BRANCH   5   8
ATOM      8  C   UNL A   1      32.850  24.846  22.532  1.00  0.00     0.137 C 
BRANCH   8   9
ATOM      9  C   UNL A   1      31.831  25.195  23.596  1.00  0.00    -0.015 A 
ATOM     10  C   UNL A   1      28.541  27.154  23.667  1.00  0.00     0.044 C 
ATOM     11  C   UNL A   1      29.715  26.327  24.097  1.00  0.00    -0.051 A 
ATOM     12  C   UNL A   1      29.855  25.954  25.432  1.00  0.00     0.005 A 
ATOM     13  C   UNL A   1      30.691  25.923  23.186  1.00  0.00     0.009 A 
ATOM     14  C   UNL A   1      30.958  25.201  25.843  1.00  0.00     0.026 A 
ATOM     15  C   UNL A   1      31.973  24.818  24.950  1.00  0.00     0.042 A 
BRANCH  15  16
ATOM     16  N   UNL A   1      33.076  24.052  25.388  1.00  0.00    -0.352 N 
ATOM     17  H   UNL A   1      33.739  24.545  25.922  1.00  0.00     0.167 HD
BRANCH  16  18
ATOM     18  C   UNL A   1      33.373  22.686  25.177  1.00  0.00     0.088 A 
ATOM     19  C   UNL A   1      32.365  21.710  25.113  1.00  0.00     0.147 A 
ATOM     20  C   UNL A   1      34.705  22.237  25.094  1.00  0.00     0.040 A 
ATOM     21  F   UNL A   1      31.071  22.067  25.160  1.00  0.00    -0.205 F 
ATOM     22  C   UNL A   1      32.657  20.355  24.964  1.00  0.00     0.041 A 
ATOM     23  C   UNL A   1      35.006  20.875  24.948  1.00  0.00     0.017 A 
ATOM     24  I   UNL A   1      36.335  23.560  25.238  1.00  0.00    -0.042 I 
ATOM     25  C   UNL A   1      33.981  19.934  24.884  1.00  0.00     0.004 A 
ENDBRANCH  16  18
ENDBRANCH  15  16
ENDBRANCH   8   9
ENDBRANCH   5   8
ENDBRANCH   3   4
ENDBRANCH   2   3
ENDBRANCH   1   2
BRANCH   1  26
ATOM     26  C   UNL A   1      32.421  30.052  25.824  1.00  0.00     0.002 C 
BRANCH  26  27
ATOM     27  C   UNL A   1      33.074  29.556  27.116  1.00  0.00     0.021 C 
BRANCH  27  28
ATOM     28  C   UNL A   1      34.590  29.428  27.033  1.00  0.00     0.116 C 
BRANCH  28  29
ATOM     29  N   UNL A   1      35.275  30.679  27.355  1.00  0.00    -0.352 N 
ATOM     30  C   UNL A   1      36.447  30.865  28.063  1.00  0.00     0.251 C 
ATOM     31  H   UNL A   1      34.843  31.498  27.021  1.00  0.00     0.163 HD
ATOM     32  O   UNL A   1      36.777  31.933  28.497  1.00  0.00    -0.269 OA
BRANCH  30  33
ATOM     33  C   UNL A   1      37.361  29.698  28.141  1.00  0.00     0.039 A 
ATOM     34  C   UNL A   1      37.371  28.982  29.345  1.00  0.00     0.014 A 
ATOM     35  C   UNL A   1      38.336  29.491  27.171  1.00  0.00     0.014 A 
ATOM     36  C   UNL A   1      38.462  28.175  29.652  1.00  0.00     0.010 A 
ATOM     37  C   UNL A   1      39.455  28.760  27.514  1.00  0.00     0.010 A 
ATOM     38  C   UNL A   1      39.542  28.143  28.774  1.00  0.00    -0.014 A 
BRANCH  38  39
ATOM     39  C   UNL A   1      40.846  27.573  29.097  1.00  0.00     0.031 A 
ATOM     40  C   UNL A   1      41.161  26.171  28.738  1.00  0.00     0.074 A 
ATOM     41  C   UNL A   1      41.828  28.368  29.580  1.00  0.00     0.049 A 
ATOM     42  N   UNL A   1      42.193  25.526  29.169  1.00  0.00    -0.248 NA
ATOM     43  C   UNL A   1      40.277  25.345  27.917  1.00  0.00     0.031 C 
ATOM     44  C   UNL A   1      43.264  28.099  29.545  1.00  0.00     0.029 A 
ATOM     45  N   UNL A   1      41.719  29.481  30.414  1.00  0.00    -0.354 N 
ATOM     46  C   UNL A   1      42.297  24.379  28.421  1.00  0.00     0.074 A 
ATOM     47  C   UNL A   1      41.010  24.236  27.786  1.00  0.00     0.031 C 
ATOM     48  C   UNL A   1      43.854  28.795  30.527  1.00  0.00     0.029 A 
ATOM     49  C   UNL A   1      42.795  29.395  31.318  1.00  0.00     0.049 A 
ATOM     50  H   UNL A   1      41.030  30.184  30.378  1.00  0.00     0.167 HD
ATOM     51  C   UNL A   1      43.512  23.771  28.299  1.00  0.00     0.031 A 
ATOM     52  C   UNL A   1      42.647  29.262  32.671  1.00  0.00     0.031 A 
ATOM     53  C   UNL A   1      44.486  24.279  29.269  1.00  0.00     0.049 A 
ATOM     54  C   UNL A   1      43.310  28.023  33.246  1.00  0.00     0.074 A 
ATOM     55  C   UNL A   1      45.673  24.988  29.198  1.00  0.00     0.029 A 
ATOM     56  N   UNL A   1      44.154  24.233  30.616  1.00  0.00    -0.354 N 
ATOM     57  N   UNL A   1      43.979  27.149  32.546  1.00  0.00    -0.248 NA
ATOM     58  C   UNL A   1      43.172  27.614  34.646  1.00  0.00     0.031 C 
ATOM     59  C   UNL A   1      46.037  25.380  30.522  1.00  0.00     0.029 A 
ATOM     60  C   UNL A   1      45.084  24.890  31.394  1.00  0.00     0.049 A 
ATOM     61  H   UNL A   1      43.353  23.786  30.971  1.00  0.00     0.167 HD
ATOM     62  C   UNL A   1      44.282  26.067  33.328  1.00  0.00     0.074 A 
ATOM     63  C   UNL A   1      43.777  26.413  34.644  1.00  0.00     0.031 C 
ATOM     64  C   UNL A   1      44.867  24.939  32.831  1.00  0.00     0.031 A 
BRANCH  51  65
ATOM     65  C   UNL A   1      43.883  22.833  27.163  1.00  0.00    -0.014 A 
ATOM     66  C   UNL A   1      42.967  21.845  26.742  1.00  0.00     0.010 A 
ATOM     67  C   UNL A   1      45.151  22.788  26.548  1.00  0.00     0.010 A 
ATOM     68  C   UNL A   1      43.315  20.850  25.809  1.00  0.00     0.020 A 
ATOM     69  C   UNL A   1      45.505  21.823  25.596  1.00  0.00     0.020 A 
ATOM     70  C   UNL A   1      44.590  20.840  25.250  1.00  0.00     0.054 A 
BRANCH  70  71
ATOM     71  S   UNL A   1      45.065  19.522  24.102  1.00  0.00     0.124 S 
ATOM     72  O   UNL A   1      44.529  20.008  22.833  1.00  0.00    -0.237 OA
ATOM     73  O   UNL A   1      46.520  19.509  24.213  1.00  0.00    -0.237 OA
ATOM     74  O   UNL A   1      44.395  18.337  24.640  1.00  0.00    -0.744 OA
ENDBRANCH  70  71
ENDBRANCH  51  65
BRANCH  52  75
ATOM     75  C   UNL A   1      41.407  29.891  33.204  1.00  0.00    -0.014 A 
ATOM     76  C   UNL A   1      41.432  31.285  33.423  1.00  0.00     0.010 A 
ATOM     77  C   UNL A   1      40.167  29.243  33.059  1.00  0.00     0.010 A 
ATOM     78  C   UNL A   1      40.264  32.040  33.302  1.00  0.00     0.020 A 
ATOM     79  C   UNL A   1      38.993  29.999  32.950  1.00  0.00     0.020 A 
ATOM     80  C   UNL A   1      39.066  31.395  32.997  1.00  0.00     0.054 A 
BRANCH  80  81
ATOM     81  S   UNL A   1      37.667  32.416  32.444  1.00  0.00     0.124 S 
ATOM     82  O   UNL A   1      36.598  31.433  32.300  1.00  0.00    -0.237 OA
ATOM     83  O   UNL A   1      37.522  33.350  33.558  1.00  0.00    -0.237 OA
ATOM     84  O   UNL A   1      38.154  33.004  31.200  1.00  0.00    -0.744 OA
ENDBRANCH  80  81
ENDBRANCH  52  75
BRANCH  64  85
ATOM     85  C   UNL A   1      45.225  23.743  33.671  1.00  0.00    -0.014 A 
ATOM     86  C   UNL A   1      44.283  22.764  34.026  1.00  0.00     0.010 A 
ATOM     87  C   UNL A   1      46.515  23.640  34.238  1.00  0.00     0.010 A 
ATOM     88  C   UNL A   1      44.632  21.697  34.867  1.00  0.00     0.020 A 
ATOM     89  C   UNL A   1      46.867  22.592  35.091  1.00  0.00     0.020 A 
ATOM     90  C   UNL A   1      45.925  21.615  35.388  1.00  0.00     0.054 A 
BRANCH  90  91
ATOM     91  S   UNL A   1      46.347  20.253  36.507  1.00  0.00     0.124 S 
ATOM     92  O   UNL A   1      45.675  19.110  35.889  1.00  0.00    -0.237 OA
ATOM     93  O   UNL A   1      47.804  20.239  36.430  1.00  0.00    -0.237 OA
ATOM     94  O   UNL A   1      45.792  20.672  37.791  1.00  0.00    -0.744 OA
ENDBRANCH  90  91
ENDBRANCH  64  85
ENDBRANCH  38  39
ENDBRANCH  30  33
ENDBRANCH  28  29
ENDBRANCH  27  28
ENDBRANCH  26  27
ENDBRANCH   1  26
TORSDOF 19
ENDMDL
MODEL 2
REMARK VINA RESULT:     -12.8      1.459      2.132
REMARK SMILES Cc1ccc(Nc2c(F)cccc2I)c(CC(=O)NCCCCCCNC(=O)c2ccc(-c3c4nc(c(-c5ccc(S(=O)(=O)[O-])cc5)c5ccc([nH]5)c(-c5ccc(S(=O)(=O)[O-])cc5)c5nc(c(-c6ccc(S(=O)(=O)[O-])cc6)c6ccc3[nH]6)C=C5)C=C4)cc2)c1
REMARK SMILES IDX 22 1 21 2 20 3 19 4 17 5 18 6 16 8 15 9 1 10 2 11 3 12 89 13
REMARK SMILES IDX 4 14 5 15 6 16 7 18 8 19 13 20 9 21 10 22 12 23 14 24 11 25
REMARK SMILES IDX 23 26 24 27 25 28 26 29 27 30 28 32 29 33 30 34 88 35 31 36
REMARK SMILES IDX 87 37 32 38 33 39 34 40 81 41 35 42 86 43 80 44 82 45 36 46
REMARK SMILES IDX 85 47 79 48 78 49 37 51 67 52 48 53 66 54 49 55 52 56 65 57
REMARK SMILES IDX 83 58 50 59 51 60 64 62 84 63 53 64 38 65 39 66 47 67 40 68
REMARK SMILES IDX 46 69 41 70 42 71 43 72 44 73 45 74 68 75 69 76 77 77 70 78
REMARK SMILES IDX 76 79 71 80 72 81 73 82 74 83 75 84 54 85 55 86 63 87 56 88
REMARK SMILES IDX 62 89 57 90 58 91 59 92 60 93 61 94
REMARK H PARENT 19 7 6 17 26 31 82 50 52 61
REMARK Flexibility Score: inf
ROOT
ATOM      1  C   UNL A   1      32.874  27.071  26.515  1.00  0.00     0.002 C 
ENDROOT
BRANCH   1   2
ATOM      2  C   UNL A   1      33.836  25.968  26.052  1.00  0.00     0.021 C 
BRANCH   2   3
ATOM      3  C   UNL A   1      33.399  24.539  26.373  1.00  0.00     0.116 C 
BRANCH   3   4
ATOM      4  N   UNL A   1      32.075  24.482  26.962  1.00  0.00    -0.356 N 
ATOM      5  C   UNL A   1      30.920  23.996  26.431  1.00  0.00     0.224 C 
ATOM      6  O   UNL A   1      29.878  24.103  27.083  1.00  0.00    -0.275 OA
ATOM      7  H   UNL A   1      32.002  24.845  27.873  1.00  0.00     0.163 HD
BRANCH   5   8
ATOM      8  C   UNL A   1      30.902  23.342  25.063  1.00  0.00     0.137 C 
BRANCH   8   9
ATOM      9  C   UNL A   1      31.274  24.260  23.919  1.00  0.00    -0.015 A 
ATOM     10  C   UNL A   1      30.131  27.718  22.732  1.00  0.00     0.044 C 
ATOM     11  C   UNL A   1      30.869  26.416  22.823  1.00  0.00    -0.051 A 
ATOM     12  C   UNL A   1      31.812  26.079  21.856  1.00  0.00     0.005 A 
ATOM     13  C   UNL A   1      30.625  25.515  23.860  1.00  0.00     0.009 A 
ATOM     14  C   UNL A   1      32.488  24.857  21.924  1.00  0.00     0.026 A 
ATOM     15  C   UNL A   1      32.230  23.918  22.936  1.00  0.00     0.042 A 
BRANCH  15  16
ATOM     16  N   UNL A   1      32.930  22.693  22.988  1.00  0.00    -0.352 N 
ATOM     17  H   UNL A   1      32.548  21.972  22.437  1.00  0.00     0.167 HD
BRANCH  16  18
ATOM     18  C   UNL A   1      34.094  22.342  23.709  1.00  0.00     0.088 A 
ATOM     19  C   UNL A   1      35.229  23.171  23.732  1.00  0.00     0.147 A 
ATOM     20  C   UNL A   1      34.190  21.107  24.379  1.00  0.00     0.040 A 
ATOM     21  F   UNL A   1      35.202  24.374  23.137  1.00  0.00    -0.205 F 
ATOM     22  C   UNL A   1      36.400  22.801  24.393  1.00  0.00     0.041 A 
ATOM     23  C   UNL A   1      35.365  20.728  25.042  1.00  0.00     0.017 A 
ATOM     24  I   UNL A   1      32.606  19.722  24.386  1.00  0.00    -0.042 I 
ATOM     25  C   UNL A   1      36.471  21.576  25.048  1.00  0.00     0.004 A 
ENDBRANCH  16  18
ENDBRANCH  15  16
ENDBRANCH   8   9
ENDBRANCH   5   8
ENDBRANCH   3   4
ENDBRANCH   2   3
ENDBRANCH   1   2
BRANCH   1  26
ATOM     26  C   UNL A   1      32.657  28.248  25.554  1.00  0.00     0.002 C 
BRANCH  26  27
ATOM     27  C   UNL A   1      33.435  29.530  25.857  1.00  0.00     0.021 C 
BRANCH  27  28
ATOM     28  C   UNL A   1      34.485  29.373  26.950  1.00  0.00     0.116 C 
BRANCH  28  29
ATOM     29  N   UNL A   1      35.165  30.630  27.256  1.00  0.00    -0.352 N 
ATOM     30  C   UNL A   1      36.329  30.830  27.973  1.00  0.00     0.251 C 
ATOM     31  H   UNL A   1      34.736  31.443  26.904  1.00  0.00     0.163 HD
ATOM     32  O   UNL A   1      36.654  31.905  28.392  1.00  0.00    -0.269 OA
BRANCH  30  33
ATOM     33  C   UNL A   1      37.244  29.665  28.081  1.00  0.00     0.039 A 
ATOM     34  C   UNL A   1      37.270  28.993  29.310  1.00  0.00     0.014 A 
ATOM     35  C   UNL A   1      38.205  29.422  27.106  1.00  0.00     0.014 A 
ATOM     36  C   UNL A   1      38.364  28.197  29.631  1.00  0.00     0.010 A 
ATOM     37  C   UNL A   1      39.328  28.702  27.460  1.00  0.00     0.010 A 
ATOM     38  C   UNL A   1      39.432  28.131  28.740  1.00  0.00    -0.014 A 
BRANCH  38  39
ATOM     39  C   UNL A   1      40.740  27.572  29.066  1.00  0.00     0.031 A 
ATOM     40  C   UNL A   1      41.065  26.170  28.713  1.00  0.00     0.074 A 
ATOM     41  C   UNL A   1      41.717  28.376  29.545  1.00  0.00     0.049 A 
ATOM     42  N   UNL A   1      42.102  25.535  29.147  1.00  0.00    -0.248 NA
ATOM     43  C   UNL A   1      40.186  25.335  27.896  1.00  0.00     0.031 C 
ATOM     44  C   UNL A   1      43.155  28.116  29.512  1.00  0.00     0.029 A 
ATOM     45  N   UNL A   1      41.600  29.492  30.375  1.00  0.00    -0.354 N 
ATOM     46  C   UNL A   1      42.214  24.385  28.404  1.00  0.00     0.074 A 
ATOM     47  C   UNL A   1      40.928  24.230  27.769  1.00  0.00     0.031 C 
ATOM     48  C   UNL A   1      43.739  28.821  30.491  1.00  0.00     0.029 A 
ATOM     49  C   UNL A   1      42.676  29.417  31.279  1.00  0.00     0.049 A 
ATOM     50  H   UNL A   1      40.906  30.190  30.335  1.00  0.00     0.167 HD
ATOM     51  C   UNL A   1      43.433  23.785  28.285  1.00  0.00     0.031 A 
ATOM     52  C   UNL A   1      42.529  29.289  32.632  1.00  0.00     0.031 A 
ATOM     53  C   UNL A   1      44.403  24.305  29.253  1.00  0.00     0.049 A 
ATOM     54  C   UNL A   1      43.201  28.057  33.213  1.00  0.00     0.074 A 
ATOM     55  C   UNL A   1      45.584  25.021  29.178  1.00  0.00     0.029 A 
ATOM     56  N   UNL A   1      44.071  24.262  30.600  1.00  0.00    -0.354 N 
ATOM     57  N   UNL A   1      43.876  27.184  32.516  1.00  0.00    -0.248 NA
ATOM     58  C   UNL A   1      43.066  27.653  34.615  1.00  0.00     0.031 C 
ATOM     59  C   UNL A   1      45.946  25.422  30.501  1.00  0.00     0.029 A 
ATOM     60  C   UNL A   1      44.997  24.928  31.375  1.00  0.00     0.049 A 
ATOM     61  H   UNL A   1      43.273  23.811  30.957  1.00  0.00     0.167 HD
ATOM     62  C   UNL A   1      44.186  26.108  33.304  1.00  0.00     0.074 A 
ATOM     63  C   UNL A   1      43.679  26.456  34.618  1.00  0.00     0.031 C 
ATOM     64  C   UNL A   1      44.779  24.983  32.812  1.00  0.00     0.031 A 
BRANCH  51  65
ATOM     65  C   UNL A   1      43.811  22.844  27.153  1.00  0.00    -0.014 A 
ATOM     66  C   UNL A   1      42.934  21.800  26.787  1.00  0.00     0.010 A 
ATOM     67  C   UNL A   1      45.054  22.855  26.490  1.00  0.00     0.010 A 
ATOM     68  C   UNL A   1      43.299  20.807  25.860  1.00  0.00     0.020 A 
ATOM     69  C   UNL A   1      45.423  21.889  25.543  1.00  0.00     0.020 A 
ATOM     70  C   UNL A   1      44.551  20.853  25.251  1.00  0.00     0.054 A 
BRANCH  70  71
ATOM     71  S   UNL A   1      45.051  19.538  24.111  1.00  0.00     0.124 S 
ATOM     72  O   UNL A   1      46.508  19.579  24.212  1.00  0.00    -0.237 OA
ATOM     73  O   UNL A   1      44.409  18.358  24.682  1.00  0.00    -0.237 OA
ATOM     74  O   UNL A   1      44.511  19.972  22.823  1.00  0.00    -0.744 OA
ENDBRANCH  70  71
ENDBRANCH  51  65
BRANCH  52  75
ATOM     75  C   UNL A   1      41.284  29.911  33.163  1.00  0.00    -0.014 A 
ATOM     76  C   UNL A   1      41.339  31.282  33.493  1.00  0.00     0.010 A 
ATOM     77  C   UNL A   1      40.035  29.315  32.915  1.00  0.00     0.010 A 
ATOM     78  C   UNL A   1      40.198  32.080  33.386  1.00  0.00     0.020 A 
ATOM     79  C   UNL A   1      38.888  30.113  32.820  1.00  0.00     0.020 A 
ATOM     80  C   UNL A   1      38.997  31.498  32.981  1.00  0.00     0.054 A 
BRANCH  80  81
ATOM     81  S   UNL A   1      37.651  32.602  32.454  1.00  0.00     0.124 S 
ATOM     82  O   UNL A   1      38.116  33.907  32.913  1.00  0.00    -0.237 OA
ATOM     83  O   UNL A   1      37.654  32.402  31.006  1.00  0.00    -0.237 OA
ATOM     84  O   UNL A   1      36.487  32.065  33.151  1.00  0.00    -0.744 OA
ENDBRANCH  80  81
ENDBRANCH  52  75
BRANCH  64  85
ATOM     85  C   UNL A   1      45.145  23.793  33.657  1.00  0.00    -0.014 A 
ATOM     86  C   UNL A   1      44.191  22.861  34.098  1.00  0.00     0.010 A 
ATOM     87  C   UNL A   1      46.465  23.651  34.141  1.00  0.00     0.010 A 
ATOM     88  C   UNL A   1      44.554  21.801  34.942  1.00  0.00     0.020 A 
ATOM     89  C   UNL A   1      46.832  22.610  34.996  1.00  0.00     0.020 A 
ATOM     90  C   UNL A   1      45.874  21.678  35.379  1.00  0.00     0.054 A 
BRANCH  90  91
ATOM     91  S   UNL A   1      46.316  20.326  36.502  1.00  0.00     0.124 S 
ATOM     92  O   UNL A   1      47.776  20.323  36.443  1.00  0.00    -0.237 OA
ATOM     93  O   UNL A   1      45.741  20.782  37.764  1.00  0.00    -0.237 OA
ATOM     94  O   UNL A   1      45.674  19.156  35.909  1.00  0.00    -0.744 OA
ENDBRANCH  90  91
ENDBRANCH  64  85
ENDBRANCH  38  39
ENDBRANCH  30  33
ENDBRANCH  28  29
ENDBRANCH  27  28
ENDBRANCH  26  27
ENDBRANCH   1  26
TORSDOF 19
ENDMDL
MODEL 3
REMARK VINA RESULT:     -12.6      1.469      1.880
REMARK SMILES Cc1ccc(Nc2c(F)cccc2I)c(CC(=O)NCCCCCCNC(=O)c2ccc(-c3c4nc(c(-c5ccc(S(=O)(=O)[O-])cc5)c5ccc([nH]5)c(-c5ccc(S(=O)(=O)[O-])cc5)c5nc(c(-c6ccc(S(=O)(=O)[O-])cc6)c6ccc3[nH]6)C=C5)C=C4)cc2)c1
REMARK SMILES IDX 22 1 21 2 20 3 19 4 17 5 18 6 16 8 15 9 1 10 2 11 3 12 89 13
REMARK SMILES IDX 4 14 5 15 6 16 7 18 8 19 13 20 9 21 10 22 12 23 14 24 11 25
REMARK SMILES IDX 23 26 24 27 25 28 26 29 27 30 28 32 29 33 30 34 88 35 31 36
REMARK SMILES IDX 87 37 32 38 33 39 34 40 81 41 35 42 86 43 80 44 82 45 36 46
REMARK SMILES IDX 85 47 79 48 78 49 37 51 67 52 48 53 66 54 49 55 52 56 65 57
REMARK SMILES IDX 83 58 50 59 51 60 64 62 84 63 53 64 38 65 39 66 47 67 40 68
REMARK SMILES IDX 46 69 41 70 42 71 43 72 44 73 45 74 68 75 69 76 77 77 70 78
REMARK SMILES IDX 76 79 71 80 72 81 73 82 74 83 75 84 54 85 55 86 63 87 56 88
REMARK SMILES IDX 62 89 57 90 58 91 59 92 60 93 61 94
REMARK H PARENT 19 7 6 17 26 31 82 50 52 61
REMARK Flexibility Score: inf
ROOT
ATOM      1  C   UNL A   1      32.954  28.951  24.695  1.00  0.00     0.002 C 
ENDROOT
BRANCH   1   2
ATOM      2  C   UNL A   1      33.069  29.069  23.169  1.00  0.00     0.021 C 
BRANCH   2   3
ATOM      3  C   UNL A   1      34.154  28.207  22.523  1.00  0.00     0.116 C 
BRANCH   3   4
ATOM      4  N   UNL A   1      33.626  27.324  21.501  1.00  0.00    -0.356 N 
ATOM      5  C   UNL A   1      33.262  26.017  21.601  1.00  0.00     0.224 C 
ATOM      6  O   UNL A   1      32.893  25.426  20.582  1.00  0.00    -0.275 OA
ATOM      7  H   UNL A   1      33.516  27.727  20.611  1.00  0.00     0.163 HD
BRANCH   5   8
ATOM      8  C   UNL A   1      33.311  25.290  22.931  1.00  0.00     0.137 C 
BRANCH   8   9
ATOM      9  C   UNL A   1      32.078  25.466  23.792  1.00  0.00    -0.015 A 
ATOM     10  C   UNL A   1      28.793  27.408  23.465  1.00  0.00     0.044 C 
ATOM     11  C   UNL A   1      29.871  26.514  24.000  1.00  0.00    -0.051 A 
ATOM     12  C   UNL A   1      29.733  25.927  25.255  1.00  0.00     0.005 A 
ATOM     13  C   UNL A   1      31.032  26.259  23.268  1.00  0.00     0.009 A 
ATOM     14  C   UNL A   1      30.745  25.109  25.768  1.00  0.00     0.026 A 
ATOM     15  C   UNL A   1      31.938  24.872  25.066  1.00  0.00     0.042 A 
BRANCH  15  16
ATOM     16  N   UNL A   1      32.943  24.037  25.602  1.00  0.00    -0.352 N 
ATOM     17  H   UNL A   1      33.500  24.452  26.299  1.00  0.00     0.167 HD
BRANCH  16  18
ATOM     18  C   UNL A   1      33.272  22.697  25.291  1.00  0.00     0.088 A 
ATOM     19  C   UNL A   1      32.290  21.698  25.192  1.00  0.00     0.147 A 
ATOM     20  C   UNL A   1      34.613  22.295  25.139  1.00  0.00     0.040 A 
ATOM     21  F   UNL A   1      30.989  22.012  25.300  1.00  0.00    -0.205 F 
ATOM     22  C   UNL A   1      32.615  20.365  24.944  1.00  0.00     0.041 A 
ATOM     23  C   UNL A   1      34.947  20.956  24.893  1.00  0.00     0.017 A 
ATOM     24  I   UNL A   1      36.208  23.654  25.323  1.00  0.00    -0.042 I 
ATOM     25  C   UNL A   1      33.947  19.990  24.797  1.00  0.00     0.004 A 
ENDBRANCH  16  18
ENDBRANCH  15  16
ENDBRANCH   8   9
ENDBRANCH   5   8
ENDBRANCH   3   4
ENDBRANCH   2   3
ENDBRANCH   1   2
BRANCH   1  26
ATOM     26  C   UNL A   1      31.670  29.495  25.336  1.00  0.00     0.002 C 
BRANCH  26  27
ATOM     27  C   UNL A   1      31.779  29.975  26.785  1.00  0.00     0.021 C 
BRANCH  27  28
ATOM     28  C   UNL A   1      33.197  29.941  27.342  1.00  0.00     0.116 C 
BRANCH  28  29
ATOM     29  N   UNL A   1      33.682  31.269  27.718  1.00  0.00    -0.352 N 
ATOM     30  C   UNL A   1      34.781  31.601  28.487  1.00  0.00     0.251 C 
ATOM     31  H   UNL A   1      33.154  32.026  27.378  1.00  0.00     0.163 HD
ATOM     32  O   UNL A   1      34.935  32.694  28.955  1.00  0.00    -0.269 OA
BRANCH  30  33
ATOM     33  C   UNL A   1      35.847  30.573  28.590  1.00  0.00     0.039 A 
ATOM     34  C   UNL A   1      35.968  29.908  29.817  1.00  0.00     0.014 A 
ATOM     35  C   UNL A   1      36.830  30.467  27.613  1.00  0.00     0.014 A 
ATOM     36  C   UNL A   1      37.162  29.269  30.135  1.00  0.00     0.010 A 
ATOM     37  C   UNL A   1      38.042  29.907  27.963  1.00  0.00     0.010 A 
ATOM     38  C   UNL A   1      38.227  29.353  29.241  1.00  0.00    -0.014 A 
BRANCH  38  39
ATOM     39  C   UNL A   1      39.600  28.979  29.563  1.00  0.00     0.031 A 
ATOM     40  C   UNL A   1      40.142  27.671  29.126  1.00  0.00     0.074 A 
ATOM     41  C   UNL A   1      40.434  29.886  30.121  1.00  0.00     0.049 A 
ATOM     42  N   UNL A   1      41.257  27.172  29.544  1.00  0.00    -0.248 NA
ATOM     43  C   UNL A   1      39.415  26.770  28.233  1.00  0.00     0.031 C 
ATOM     44  C   UNL A   1      41.895  29.852  30.108  1.00  0.00     0.029 A 
ATOM     45  N   UNL A   1      40.134  30.911  31.019  1.00  0.00    -0.354 N 
ATOM     46  C   UNL A   1      41.556  26.108  28.730  1.00  0.00     0.074 A 
ATOM     47  C   UNL A   1      40.320  25.803  28.052  1.00  0.00     0.031 C 
ATOM     48  C   UNL A   1      42.349  30.568  31.146  1.00  0.00     0.029 A 
ATOM     49  C   UNL A   1      41.194  30.938  31.945  1.00  0.00     0.049 A 
ATOM     50  H   UNL A   1      39.342  31.496  31.008  1.00  0.00     0.167 HD
ATOM     51  C   UNL A   1      42.855  25.709  28.603  1.00  0.00     0.031 A 
ATOM     52  C   UNL A   1      41.047  30.695  33.282  1.00  0.00     0.031 A 
ATOM     53  C   UNL A   1      43.718  26.302  29.629  1.00  0.00     0.049 A 
ATOM     54  C   UNL A   1      41.891  29.542  33.797  1.00  0.00     0.074 A 
ATOM     55  C   UNL A   1      44.777  27.194  29.633  1.00  0.00     0.029 A 
ATOM     56  N   UNL A   1      43.376  26.115  30.960  1.00  0.00    -0.354 N 
ATOM     57  N   UNL A   1      42.703  28.833  33.062  1.00  0.00    -0.248 NA
ATOM     58  C   UNL A   1      41.798  29.025  35.165  1.00  0.00     0.031 C 
ATOM     59  C   UNL A   1      45.052  27.551  30.988  1.00  0.00     0.029 A 
ATOM     60  C   UNL A   1      44.176  26.859  31.803  1.00  0.00     0.049 A 
ATOM     61  H   UNL A   1      42.651  25.524  31.266  1.00  0.00     0.167 HD
ATOM     62  C   UNL A   1      43.163  27.764  33.783  1.00  0.00     0.074 A 
ATOM     63  C   UNL A   1      42.588  27.939  35.104  1.00  0.00     0.031 C 
ATOM     64  C   UNL A   1      43.930  26.780  33.233  1.00  0.00     0.031 A 
BRANCH  51  65
ATOM     65  C   UNL A   1      43.391  24.919  27.421  1.00  0.00    -0.014 A 
ATOM     66  C   UNL A   1      43.541  23.519  27.525  1.00  0.00     0.010 A 
ATOM     67  C   UNL A   1      43.874  25.496  26.229  1.00  0.00     0.010 A 
ATOM     68  C   UNL A   1      44.179  22.759  26.527  1.00  0.00     0.020 A 
ATOM     69  C   UNL A   1      44.485  24.750  25.213  1.00  0.00     0.020 A 
ATOM     70  C   UNL A   1      44.658  23.385  25.379  1.00  0.00     0.054 A 
BRANCH  70  71
ATOM     71  S   UNL A   1      45.541  22.422  24.125  1.00  0.00     0.124 S 
ATOM     72  O   UNL A   1      44.517  22.237  23.099  1.00  0.00    -0.237 OA
ATOM     73  O   UNL A   1      46.648  23.302  23.765  1.00  0.00    -0.237 OA
ATOM     74  O   UNL A   1      45.929  21.202  24.835  1.00  0.00    -0.744 OA
ENDBRANCH  70  71
ENDBRANCH  51  65
BRANCH  52  75
ATOM     75  C   UNL A   1      39.714  31.082  33.820  1.00  0.00    -0.014 A 
ATOM     76  C   UNL A   1      39.555  32.415  34.254  1.00  0.00     0.010 A 
ATOM     77  C   UNL A   1      38.573  30.328  33.490  1.00  0.00     0.010 A 
ATOM     78  C   UNL A   1      38.309  33.040  34.172  1.00  0.00     0.020 A 
ATOM     79  C   UNL A   1      37.321  30.952  33.421  1.00  0.00     0.020 A 
ATOM     80  C   UNL A   1      37.217  32.321  33.689  1.00  0.00     0.054 A 
BRANCH  80  81
ATOM     81  S   UNL A   1      35.731  33.251  33.206  1.00  0.00     0.124 S 
ATOM     82  O   UNL A   1      35.059  32.323  32.302  1.00  0.00    -0.237 OA
ATOM     83  O   UNL A   1      35.079  33.459  34.497  1.00  0.00    -0.237 OA
ATOM     84  O   UNL A   1      36.277  34.454  32.585  1.00  0.00    -0.744 OA
ENDBRANCH  80  81
ENDBRANCH  52  75
BRANCH  64  85
ATOM     85  C   UNL A   1      44.461  25.603  34.007  1.00  0.00    -0.014 A 
ATOM     86  C   UNL A   1      43.618  24.650  34.601  1.00  0.00     0.010 A 
ATOM     87  C   UNL A   1      45.846  25.497  34.264  1.00  0.00     0.010 A 
ATOM     88  C   UNL A   1      44.142  23.604  35.373  1.00  0.00     0.020 A 
ATOM     89  C   UNL A   1      46.376  24.469  35.047  1.00  0.00     0.020 A 
ATOM     90  C   UNL A   1      45.520  23.516  35.584  1.00  0.00     0.054 A 
BRANCH  90  91
ATOM     91  S   UNL A   1      46.176  22.181  36.620  1.00  0.00     0.124 S 
ATOM     92  O   UNL A   1      45.560  20.990  36.037  1.00  0.00    -0.237 OA
ATOM     93  O   UNL A   1      47.614  22.311  36.404  1.00  0.00    -0.237 OA
ATOM     94  O   UNL A   1      45.711  22.520  37.962  1.00  0.00    -0.744 OA
ENDBRANCH  90  91
ENDBRANCH  64  85
ENDBRANCH  38  39
ENDBRANCH  30  33
ENDBRANCH  28  29
ENDBRANCH  27  28
ENDBRANCH  26  27
ENDBRANCH   1  26
TORSDOF 19
ENDMDL
