MODEL 1
REMARK VINA RESULT:     -11.1      0.000      0.000
REMARK SMILES O=C(NCCCCCCNC(=O)[C@H]1CSCN1C(=O)c1cnc2ccccn2c1=O)c1ccc(-c2c3nc(c(-c4ccc(S(=O)(=O)[O-])cc4)c4ccc([nH]4)c(-c4ccc(S(=O)(=O)[O-])cc4)c4nc(c(-c5ccc(S(=O)(=O)[O-])cc5)c5ccc2[nH]5)C=C4)C=C3)cc1
REMARK SMILES IDX 6 1 5 2 4 3 3 4 1 5 2 6 31 8 32 9 90 10 33 11 89 12 34 13
REMARK SMILES IDX 35 14 36 15 83 16 37 17 88 18 82 19 84 20 38 21 87 22 81 23
REMARK SMILES IDX 80 24 39 26 69 27 50 28 68 29 51 30 54 31 67 32 85 33 52 34
REMARK SMILES IDX 53 35 66 37 86 38 55 39 40 40 41 41 49 42 42 43 48 44 43 45
REMARK SMILES IDX 44 46 45 47 46 48 47 49 70 50 71 51 79 52 72 53 78 54 73 55
REMARK SMILES IDX 74 56 75 57 76 58 77 59 56 60 57 61 65 62 58 63 64 64 59 65
REMARK SMILES IDX 60 66 61 67 62 68 63 69 7 70 8 71 9 72 10 73 11 74 12 76
REMARK SMILES IDX 13 77 14 78 17 79 15 80 16 81 18 82 19 83 20 84 21 85 29 86
REMARK SMILES IDX 22 87 28 88 30 89 23 90 27 91 24 92 26 93 25 94
REMARK H PARENT 3 7 84 25 54 36 10 75
REMARK Flexibility Score: inf
ROOT
ATOM      1  C   UNL A   1      34.403  32.838  28.364  1.00  0.00     0.002 C 
ENDROOT
BRANCH   1   2
ATOM      2  C   UNL A   1      35.594  33.713  28.751  1.00  0.00     0.021 C 
BRANCH   2   3
ATOM      3  C   UNL A   1      36.648  33.077  29.645  1.00  0.00     0.116 C 
BRANCH   3   4
ATOM      4  N   UNL A   1      36.120  32.080  30.559  1.00  0.00    -0.352 N 
ATOM      5  O   UNL A   1      36.028  30.117  31.663  1.00  0.00    -0.269 OA
ATOM      6  C   UNL A   1      36.658  30.866  30.929  1.00  0.00     0.251 C 
ATOM      7  H   UNL A   1      35.255  32.302  30.974  1.00  0.00     0.163 HD
BRANCH   6   8
ATOM      8  C   UNL A   1      37.985  30.455  30.409  1.00  0.00     0.039 A 
ATOM      9  C   UNL A   1      39.059  30.224  31.271  1.00  0.00     0.014 A 
ATOM     10  C   UNL A   1      38.152  30.289  29.029  1.00  0.00     0.014 A 
ATOM     11  C   UNL A   1      40.323  29.971  30.749  1.00  0.00     0.010 A 
ATOM     12  C   UNL A   1      39.406  29.948  28.511  1.00  0.00     0.010 A 
ATOM     13  C   UNL A   1      40.510  29.813  29.365  1.00  0.00    -0.014 A 
BRANCH  13  14
ATOM     14  C   UNL A   1      41.851  29.419  28.860  1.00  0.00     0.031 A 
ATOM     15  C   UNL A   1      42.999  30.391  28.830  1.00  0.00     0.074 A 
ATOM     16  C   UNL A   1      42.035  28.143  28.467  1.00  0.00     0.049 A 
ATOM     17  N   UNL A   1      44.244  30.177  28.482  1.00  0.00    -0.248 NA
ATOM     18  C   UNL A   1      42.724  31.778  29.238  1.00  0.00     0.031 C 
ATOM     19  C   UNL A   1      40.990  27.114  28.432  1.00  0.00     0.029 A 
ATOM     20  N   UNL A   1      43.161  27.481  28.051  1.00  0.00    -0.354 N 
ATOM     21  C   UNL A   1      44.895  31.397  28.611  1.00  0.00     0.074 A 
ATOM     22  C   UNL A   1      43.905  32.356  29.055  1.00  0.00     0.031 C 
ATOM     23  C   UNL A   1      41.535  25.944  28.073  1.00  0.00     0.029 A 
ATOM     24  C   UNL A   1      42.950  26.147  27.794  1.00  0.00     0.049 A 
ATOM     25  H   UNL A   1      44.037  27.919  27.946  1.00  0.00     0.167 HD
ATOM     26  C   UNL A   1      46.200  31.689  28.387  1.00  0.00     0.031 A 
ATOM     27  C   UNL A   1      43.796  25.191  27.370  1.00  0.00     0.031 A 
ATOM     28  C   UNL A   1      47.181  30.733  27.939  1.00  0.00     0.049 A 
ATOM     29  C   UNL A   1      45.233  25.547  27.122  1.00  0.00     0.074 A 
ATOM     30  C   UNL A   1      48.531  30.932  27.701  1.00  0.00     0.029 A 
ATOM     31  N   UNL A   1      46.921  29.400  27.657  1.00  0.00    -0.354 N 
ATOM     32  N   UNL A   1      45.831  26.703  27.284  1.00  0.00    -0.248 NA
ATOM     33  C   UNL A   1      46.105  24.471  26.635  1.00  0.00     0.031 C 
ATOM     34  C   UNL A   1      49.079  29.730  27.238  1.00  0.00     0.029 A 
ATOM     35  C   UNL A   1      48.081  28.769  27.236  1.00  0.00     0.049 A 
ATOM     36  H   UNL A   1      46.042  28.966  27.745  1.00  0.00     0.167 HD
ATOM     37  C   UNL A   1      47.155  26.491  26.919  1.00  0.00     0.074 A 
ATOM     38  C   UNL A   1      47.275  25.092  26.565  1.00  0.00     0.031 C 
ATOM     39  C   UNL A   1      48.179  27.380  26.873  1.00  0.00     0.031 A 
BRANCH  26  40
ATOM     40  C   UNL A   1      46.653  33.108  28.611  1.00  0.00    -0.014 A 
ATOM     41  C   UNL A   1      47.193  33.506  29.847  1.00  0.00     0.010 A 
ATOM     42  C   UNL A   1      46.617  34.032  27.550  1.00  0.00     0.010 A 
ATOM     43  C   UNL A   1      47.672  34.808  30.023  1.00  0.00     0.020 A 
ATOM     44  C   UNL A   1      47.115  35.328  27.717  1.00  0.00     0.020 A 
ATOM     45  C   UNL A   1      47.631  35.710  28.957  1.00  0.00     0.054 A 
BRANCH  45  46
ATOM     46  S   UNL A   1      48.307  37.377  29.200  1.00  0.00     0.124 S 
ATOM     47  O   UNL A   1      47.652  38.127  28.132  1.00  0.00    -0.237 OA
ATOM     48  O   UNL A   1      47.870  37.704  30.556  1.00  0.00    -0.237 OA
ATOM     49  O   UNL A   1      49.748  37.194  29.041  1.00  0.00    -0.744 OA
ENDBRANCH  45  46
ENDBRANCH  26  40
BRANCH  27  50
ATOM     50  C   UNL A   1      43.296  23.811  27.131  1.00  0.00    -0.014 A 
ATOM     51  C   UNL A   1      43.196  22.888  28.186  1.00  0.00     0.010 A 
ATOM     52  C   UNL A   1      42.905  23.418  25.837  1.00  0.00     0.010 A 
ATOM     53  C   UNL A   1      42.737  21.590  27.947  1.00  0.00     0.020 A 
ATOM     54  C   UNL A   1      42.418  22.132  25.600  1.00  0.00     0.020 A 
ATOM     55  C   UNL A   1      42.353  21.219  26.654  1.00  0.00     0.054 A 
BRANCH  55  56
ATOM     56  S   UNL A   1      41.722  19.543  26.368  1.00  0.00     0.124 S 
ATOM     57  O   UNL A   1      42.050  18.880  27.626  1.00  0.00    -0.237 OA
ATOM     58  O   UNL A   1      40.301  19.775  26.125  1.00  0.00    -0.237 OA
ATOM     59  O   UNL A   1      42.479  19.091  25.203  1.00  0.00    -0.744 OA
ENDBRANCH  55  56
ENDBRANCH  27  50
BRANCH  39  60
ATOM     60  C   UNL A   1      49.515  26.849  26.432  1.00  0.00    -0.014 A 
ATOM     61  C   UNL A   1      49.895  26.880  25.078  1.00  0.00     0.010 A 
ATOM     62  C   UNL A   1      50.402  26.317  27.383  1.00  0.00     0.010 A 
ATOM     63  C   UNL A   1      51.120  26.344  24.676  1.00  0.00     0.020 A 
ATOM     64  C   UNL A   1      51.640  25.804  26.989  1.00  0.00     0.020 A 
ATOM     65  C   UNL A   1      51.982  25.801  25.635  1.00  0.00     0.054 A 
BRANCH  65  66
ATOM     66  S   UNL A   1      53.572  25.118  25.095  1.00  0.00     0.124 S 
ATOM     67  O   UNL A   1      54.453  25.496  26.197  1.00  0.00    -0.237 OA
ATOM     68  O   UNL A   1      53.289  23.689  24.979  1.00  0.00    -0.237 OA
ATOM     69  O   UNL A   1      53.829  25.801  23.829  1.00  0.00    -0.744 OA
ENDBRANCH  65  66
ENDBRANCH  39  60
ENDBRANCH  13  14
ENDBRANCH   6   8
ENDBRANCH   3   4
ENDBRANCH   2   3
ENDBRANCH   1   2
BRANCH   1  70
ATOM     70  C   UNL A   1      34.702  31.529  27.629  1.00  0.00     0.002 C 
BRANCH  70  71
ATOM     71  C   UNL A   1      33.516  30.640  27.249  1.00  0.00     0.021 C 
BRANCH  71  72
ATOM     72  C   UNL A   1      33.812  29.174  26.961  1.00  0.00     0.116 C 
BRANCH  72  73
ATOM     73  N   UNL A   1      34.054  28.865  25.574  1.00  0.00    -0.354 N 
ATOM     74  C   UNL A   1      33.141  28.676  24.580  1.00  0.00     0.243 C 
ATOM     75  H   UNL A   1      34.999  28.779  25.313  1.00  0.00     0.163 HD
ATOM     76  O   UNL A   1      33.596  28.471  23.445  1.00  0.00    -0.273 OA
BRANCH  74  77
ATOM     77  C   UNL A   1      31.618  28.498  24.832  1.00  0.00     0.185 C 
ATOM     78  C   UNL A   1      30.889  29.306  23.744  1.00  0.00     0.106 C 
ATOM     79  N   UNL A   1      31.027  27.152  24.945  1.00  0.00    -0.316 N 
ATOM     80  S   UNL A   1      29.853  28.145  22.830  1.00  0.00    -0.138 SA
ATOM     81  C   UNL A   1      29.811  26.966  24.180  1.00  0.00     0.190 C 
BRANCH  79  82
ATOM     82  C   UNL A   1      31.423  26.339  25.991  1.00  0.00     0.262 C 
ATOM     83  O   UNL A   1      31.363  26.740  27.155  1.00  0.00    -0.269 OA
BRANCH  82  84
ATOM     84  C   UNL A   1      31.976  24.983  25.719  1.00  0.00     0.124 A 
ATOM     85  C   UNL A   1      31.173  23.932  25.933  1.00  0.00     0.133 A 
ATOM     86  C   UNL A   1      33.396  24.677  25.423  1.00  0.00     0.270 A 
ATOM     87  N   UNL A   1      31.532  22.618  25.821  1.00  0.00    -0.237 NA
ATOM     88  N   UNL A   1      33.713  23.337  25.236  1.00  0.00    -0.267 N 
ATOM     89  O   UNL A   1      34.234  25.580  25.384  1.00  0.00    -0.268 OA
ATOM     90  C   UNL A   1      32.758  22.358  25.485  1.00  0.00     0.139 A 
ATOM     91  C   UNL A   1      35.003  22.992  24.842  1.00  0.00     0.096 A 
ATOM     92  C   UNL A   1      33.196  20.940  25.359  1.00  0.00     0.048 A 
ATOM     93  C   UNL A   1      35.382  21.717  24.700  1.00  0.00     0.019 A 
ATOM     94  C   UNL A   1      34.450  20.658  24.985  1.00  0.00     0.005 A 
ENDBRANCH  82  84
ENDBRANCH  79  82
ENDBRANCH  74  77
ENDBRANCH  72  73
ENDBRANCH  71  72
ENDBRANCH  70  71
ENDBRANCH   1  70
TORSDOF 18
ENDMDL
MODEL 2
REMARK VINA RESULT:     -10.9      6.177     11.961
REMARK SMILES O=C(NCCCCCCNC(=O)[C@H]1CSCN1C(=O)c1cnc2ccccn2c1=O)c1ccc(-c2c3nc(c(-c4ccc(S(=O)(=O)[O-])cc4)c4ccc([nH]4)c(-c4ccc(S(=O)(=O)[O-])cc4)c4nc(c(-c5ccc(S(=O)(=O)[O-])cc5)c5ccc2[nH]5)C=C4)C=C3)cc1
REMARK SMILES IDX 6 1 5 2 4 3 3 4 1 5 2 6 31 8 32 9 90 10 33 11 89 12 34 13
REMARK SMILES IDX 35 14 36 15 83 16 37 17 88 18 82 19 84 20 38 21 87 22 81 23
REMARK SMILES IDX 80 24 39 26 69 27 50 28 68 29 51 30 54 31 67 32 85 33 52 34
REMARK SMILES IDX 53 35 66 37 86 38 55 39 40 40 41 41 49 42 42 43 48 44 43 45
REMARK SMILES IDX 44 46 45 47 46 48 47 49 70 50 71 51 79 52 72 53 78 54 73 55
REMARK SMILES IDX 74 56 75 57 76 58 77 59 56 60 57 61 65 62 58 63 64 64 59 65
REMARK SMILES IDX 60 66 61 67 62 68 63 69 7 70 8 71 9 72 10 73 11 74 12 76
REMARK SMILES IDX 13 77 14 78 17 79 15 80 16 81 18 82 19 83 20 84 21 85 29 86
REMARK SMILES IDX 22 87 28 88 30 89 23 90 27 91 24 92 26 93 25 94
REMARK H PARENT 3 7 84 25 54 36 10 75
REMARK Flexibility Score: inf
ROOT
ATOM      1  C   UNL A   1      37.395  22.541  25.408  1.00  0.00     0.002 C 
ENDROOT
BRANCH   1   2
ATOM      2  C   UNL A   1      37.799  23.837  26.108  1.00  0.00     0.021 C 
BRANCH   2   3
ATOM      3  C   UNL A   1      39.120  23.823  26.862  1.00  0.00     0.116 C 
BRANCH   3   4
ATOM      4  N   UNL A   1      40.262  24.214  26.055  1.00  0.00    -0.352 N 
ATOM      5  O   UNL A   1      42.007  25.484  25.402  1.00  0.00    -0.269 OA
ATOM      6  C   UNL A   1      41.137  25.263  26.235  1.00  0.00     0.251 C 
ATOM      7  H   UNL A   1      40.436  23.649  25.268  1.00  0.00     0.163 HD
BRANCH   6   8
ATOM      8  C   UNL A   1      41.003  26.144  27.421  1.00  0.00     0.039 A 
ATOM      9  C   UNL A   1      40.014  25.918  28.381  1.00  0.00     0.014 A 
ATOM     10  C   UNL A   1      41.894  27.212  27.578  1.00  0.00     0.014 A 
ATOM     11  C   UNL A   1      39.826  26.835  29.410  1.00  0.00     0.010 A 
ATOM     12  C   UNL A   1      41.758  28.085  28.663  1.00  0.00     0.010 A 
ATOM     13  C   UNL A   1      40.705  27.920  29.574  1.00  0.00    -0.014 A 
BRANCH  13  14
ATOM     14  C   UNL A   1      40.544  28.804  30.757  1.00  0.00     0.031 A 
ATOM     15  C   UNL A   1      41.441  28.686  31.959  1.00  0.00     0.074 A 
ATOM     16  C   UNL A   1      39.595  29.761  30.714  1.00  0.00     0.049 A 
ATOM     17  N   UNL A   1      41.467  29.430  33.037  1.00  0.00    -0.248 NA
ATOM     18  C   UNL A   1      42.433  27.599  31.959  1.00  0.00     0.031 C 
ATOM     19  C   UNL A   1      38.650  29.960  29.609  1.00  0.00     0.029 A 
ATOM     20  N   UNL A   1      39.281  30.760  31.597  1.00  0.00    -0.354 N 
ATOM     21  C   UNL A   1      42.461  28.895  33.849  1.00  0.00     0.074 A 
ATOM     22  C   UNL A   1      43.005  27.752  33.148  1.00  0.00     0.031 C 
ATOM     23  C   UNL A   1      37.905  31.046  29.855  1.00  0.00     0.029 A 
ATOM     24  C   UNL A   1      38.274  31.586  31.158  1.00  0.00     0.049 A 
ATOM     25  H   UNL A   1      39.734  30.877  32.464  1.00  0.00     0.167 HD
ATOM     26  C   UNL A   1      42.883  29.323  35.064  1.00  0.00     0.031 A 
ATOM     27  C   UNL A   1      37.697  32.653  31.739  1.00  0.00     0.031 A 
ATOM     28  C   UNL A   1      42.334  30.458  35.762  1.00  0.00     0.049 A 
ATOM     29  C   UNL A   1      38.181  33.098  33.088  1.00  0.00     0.074 A 
ATOM     30  C   UNL A   1      42.709  30.979  36.989  1.00  0.00     0.029 A 
ATOM     31  N   UNL A   1      41.291  31.248  35.299  1.00  0.00    -0.354 N 
ATOM     32  N   UNL A   1      39.145  32.595  33.820  1.00  0.00    -0.248 NA
ATOM     33  C   UNL A   1      37.500  34.252  33.687  1.00  0.00     0.031 C 
ATOM     34  C   UNL A   1      41.868  32.057  37.286  1.00  0.00     0.029 A 
ATOM     35  C   UNL A   1      41.002  32.241  36.221  1.00  0.00     0.049 A 
ATOM     36  H   UNL A   1      40.826  31.121  34.440  1.00  0.00     0.167 HD
ATOM     37  C   UNL A   1      39.187  33.375  34.970  1.00  0.00     0.074 A 
ATOM     38  C   UNL A   1      38.178  34.403  34.816  1.00  0.00     0.031 C 
ATOM     39  C   UNL A   1      39.984  33.246  36.059  1.00  0.00     0.031 A 
BRANCH  26  40
ATOM     40  C   UNL A   1      43.994  28.557  35.734  1.00  0.00    -0.014 A 
ATOM     41  C   UNL A   1      45.338  28.922  35.545  1.00  0.00     0.010 A 
ATOM     42  C   UNL A   1      43.687  27.514  36.628  1.00  0.00     0.010 A 
ATOM     43  C   UNL A   1      46.357  28.247  36.224  1.00  0.00     0.020 A 
ATOM     44  C   UNL A   1      44.702  26.850  37.324  1.00  0.00     0.020 A 
ATOM     45  C   UNL A   1      46.032  27.215  37.110  1.00  0.00     0.054 A 
BRANCH  45  46
ATOM     46  S   UNL A   1      47.372  26.392  38.016  1.00  0.00     0.124 S 
ATOM     47  O   UNL A   1      47.504  25.136  37.281  1.00  0.00    -0.237 OA
ATOM     48  O   UNL A   1      48.483  27.328  37.863  1.00  0.00    -0.237 OA
ATOM     49  O   UNL A   1      46.848  26.267  39.374  1.00  0.00    -0.744 OA
ENDBRANCH  45  46
ENDBRANCH  26  40
BRANCH  27  50
ATOM     50  C   UNL A   1      36.582  33.359  31.053  1.00  0.00    -0.014 A 
ATOM     51  C   UNL A   1      36.789  34.013  29.827  1.00  0.00     0.010 A 
ATOM     52  C   UNL A   1      35.297  33.369  31.627  1.00  0.00     0.010 A 
ATOM     53  C   UNL A   1      35.736  34.684  29.198  1.00  0.00     0.020 A 
ATOM     54  C   UNL A   1      34.237  34.012  30.989  1.00  0.00     0.020 A 
ATOM     55  C   UNL A   1      34.467  34.681  29.785  1.00  0.00     0.054 A 
BRANCH  55  56
ATOM     56  S   UNL A   1      33.102  35.523  28.937  1.00  0.00     0.124 S 
ATOM     57  O   UNL A   1      32.481  34.425  28.204  1.00  0.00    -0.237 OA
ATOM     58  O   UNL A   1      32.323  36.065  30.047  1.00  0.00    -0.237 OA
ATOM     59  O   UNL A   1      33.780  36.524  28.116  1.00  0.00    -0.744 OA
ENDBRANCH  55  56
ENDBRANCH  27  50
BRANCH  39  60
ATOM     60  C   UNL A   1      39.794  34.254  37.159  1.00  0.00    -0.014 A 
ATOM     61  C   UNL A   1      40.384  35.528  37.081  1.00  0.00     0.010 A 
ATOM     62  C   UNL A   1      39.014  33.924  38.280  1.00  0.00     0.010 A 
ATOM     63  C   UNL A   1      40.236  36.439  38.130  1.00  0.00     0.020 A 
ATOM     64  C   UNL A   1      38.841  34.842  39.318  1.00  0.00     0.020 A 
ATOM     65  C   UNL A   1      39.471  36.086  39.247  1.00  0.00     0.054 A 
BRANCH  65  66
ATOM     66  S   UNL A   1      39.283  37.285  40.593  1.00  0.00     0.124 S 
ATOM     67  O   UNL A   1      40.642  37.800  40.731  1.00  0.00    -0.237 OA
ATOM     68  O   UNL A   1      38.305  38.227  40.054  1.00  0.00    -0.237 OA
ATOM     69  O   UNL A   1      38.806  36.475  41.712  1.00  0.00    -0.744 OA
ENDBRANCH  65  66
ENDBRANCH  39  60
ENDBRANCH  13  14
ENDBRANCH   6   8
ENDBRANCH   3   4
ENDBRANCH   2   3
ENDBRANCH   1   2
BRANCH   1  70
ATOM     70  C   UNL A   1      36.012  21.969  25.730  1.00  0.00     0.002 C 
BRANCH  70  71
ATOM     71  C   UNL A   1      34.937  22.051  24.645  1.00  0.00     0.021 C 
BRANCH  71  72
ATOM     72  C   UNL A   1      34.417  23.436  24.286  1.00  0.00     0.116 C 
BRANCH  72  73
ATOM     73  N   UNL A   1      34.168  23.646  22.882  1.00  0.00    -0.354 N 
ATOM     74  C   UNL A   1      33.165  24.362  22.300  1.00  0.00     0.243 C 
ATOM     75  H   UNL A   1      34.803  23.216  22.264  1.00  0.00     0.163 HD
ATOM     76  O   UNL A   1      33.189  24.443  21.064  1.00  0.00    -0.273 OA
BRANCH  74  77
ATOM     77  C   UNL A   1      31.919  24.883  23.071  1.00  0.00     0.185 C 
ATOM     78  C   UNL A   1      31.148  23.644  23.557  1.00  0.00     0.106 C 
ATOM     79  N   UNL A   1      32.067  25.853  24.171  1.00  0.00    -0.316 N 
ATOM     80  S   UNL A   1      31.058  23.752  25.357  1.00  0.00    -0.138 SA
ATOM     81  C   UNL A   1      31.309  25.527  25.362  1.00  0.00     0.190 C 
BRANCH  79  82
ATOM     82  C   UNL A   1      32.572  27.108  23.886  1.00  0.00     0.262 C 
ATOM     83  O   UNL A   1      33.787  27.286  23.778  1.00  0.00    -0.269 OA
BRANCH  82  84
ATOM     84  C   UNL A   1      31.654  28.274  23.757  1.00  0.00     0.124 A 
ATOM     85  C   UNL A   1      31.623  29.153  24.767  1.00  0.00     0.133 A 
ATOM     86  C   UNL A   1      30.628  28.448  22.701  1.00  0.00     0.270 A 
ATOM     87  N   UNL A   1      30.786  30.230  24.862  1.00  0.00    -0.237 NA
ATOM     88  N   UNL A   1      29.847  29.594  22.782  1.00  0.00    -0.267 N 
ATOM     89  O   UNL A   1      30.477  27.588  21.832  1.00  0.00    -0.268 OA
ATOM     90  C   UNL A   1      29.942  30.420  23.896  1.00  0.00     0.139 A 
ATOM     91  C   UNL A   1      28.944  29.875  21.760  1.00  0.00     0.096 A 
ATOM     92  C   UNL A   1      29.005  31.576  23.962  1.00  0.00     0.048 A 
ATOM     93  C   UNL A   1      28.127  30.933  21.810  1.00  0.00     0.019 A 
ATOM     94  C   UNL A   1      28.149  31.801  22.958  1.00  0.00     0.005 A 
ENDBRANCH  82  84
ENDBRANCH  79  82
ENDBRANCH  74  77
ENDBRANCH  72  73
ENDBRANCH  71  72
ENDBRANCH  70  71
ENDBRANCH   1  70
TORSDOF 18
ENDMDL
MODEL 3
REMARK VINA RESULT:     -10.7      6.036     11.748
REMARK SMILES O=C(NCCCCCCNC(=O)[C@H]1CSCN1C(=O)c1cnc2ccccn2c1=O)c1ccc(-c2c3nc(c(-c4ccc(S(=O)(=O)[O-])cc4)c4ccc([nH]4)c(-c4ccc(S(=O)(=O)[O-])cc4)c4nc(c(-c5ccc(S(=O)(=O)[O-])cc5)c5ccc2[nH]5)C=C4)C=C3)cc1
REMARK SMILES IDX 6 1 5 2 4 3 3 4 1 5 2 6 31 8 32 9 90 10 33 11 89 12 34 13
REMARK SMILES IDX 35 14 36 15 83 16 37 17 88 18 82 19 84 20 38 21 87 22 81 23
REMARK SMILES IDX 80 24 39 26 69 27 50 28 68 29 51 30 54 31 67 32 85 33 52 34
REMARK SMILES IDX 53 35 66 37 86 38 55 39 40 40 41 41 49 42 42 43 48 44 43 45
REMARK SMILES IDX 44 46 45 47 46 48 47 49 70 50 71 51 79 52 72 53 78 54 73 55
REMARK SMILES IDX 74 56 75 57 76 58 77 59 56 60 57 61 65 62 58 63 64 64 59 65
REMARK SMILES IDX 60 66 61 67 62 68 63 69 7 70 8 71 9 72 10 73 11 74 12 76
REMARK SMILES IDX 13 77 14 78 17 79 15 80 16 81 18 82 19 83 20 84 21 85 29 86
REMARK SMILES IDX 22 87 28 88 30 89 23 90 27 91 24 92 26 93 25 94
REMARK H PARENT 3 7 84 25 54 36 10 75
REMARK Flexibility Score: inf
ROOT
ATOM      1  C   UNL A   1      38.271  23.229  26.073  1.00  0.00     0.002 C 
ENDROOT
BRANCH   1   2
ATOM      2  C   UNL A   1      39.478  22.569  26.736  1.00  0.00     0.021 C 
BRANCH   2   3
ATOM      3  C   UNL A   1      40.637  23.481  27.109  1.00  0.00     0.116 C 
BRANCH   3   4
ATOM      4  N   UNL A   1      41.164  24.249  25.996  1.00  0.00    -0.352 N 
ATOM      5  O   UNL A   1      41.809  26.087  24.861  1.00  0.00    -0.269 OA
ATOM      6  C   UNL A   1      41.433  25.598  25.918  1.00  0.00     0.251 C 
ATOM      7  H   UNL A   1      41.356  23.733  25.180  1.00  0.00     0.163 HD
BRANCH   6   8
ATOM      8  C   UNL A   1      41.235  26.463  27.108  1.00  0.00     0.039 A 
ATOM      9  C   UNL A   1      42.081  27.543  27.365  1.00  0.00     0.014 A 
ATOM     10  C   UNL A   1      40.172  26.189  27.976  1.00  0.00     0.014 A 
ATOM     11  C   UNL A   1      41.955  28.253  28.555  1.00  0.00     0.010 A 
ATOM     12  C   UNL A   1      39.993  26.960  29.130  1.00  0.00     0.010 A 
ATOM     13  C   UNL A   1      40.900  27.983  29.443  1.00  0.00    -0.014 A 
BRANCH  13  14
ATOM     14  C   UNL A   1      40.728  28.846  30.641  1.00  0.00     0.031 A 
ATOM     15  C   UNL A   1      41.639  28.733  31.833  1.00  0.00     0.074 A 
ATOM     16  C   UNL A   1      39.756  29.780  30.618  1.00  0.00     0.049 A 
ATOM     17  N   UNL A   1      41.655  29.462  32.921  1.00  0.00    -0.248 NA
ATOM     18  C   UNL A   1      42.656  27.671  31.810  1.00  0.00     0.031 C 
ATOM     19  C   UNL A   1      38.797  29.971  29.524  1.00  0.00     0.029 A 
ATOM     20  N   UNL A   1      39.425  30.759  31.518  1.00  0.00    -0.354 N 
ATOM     21  C   UNL A   1      42.669  28.942  33.717  1.00  0.00     0.074 A 
ATOM     22  C   UNL A   1      43.235  27.822  32.995  1.00  0.00     0.031 C 
ATOM     23  C   UNL A   1      38.028  31.035  29.792  1.00  0.00     0.029 A 
ATOM     24  C   UNL A   1      38.394  31.565  31.099  1.00  0.00     0.049 A 
ATOM     25  H   UNL A   1      39.883  30.874  32.383  1.00  0.00     0.167 HD
ATOM     26  C   UNL A   1      43.091  29.363  34.935  1.00  0.00     0.031 A 
ATOM     27  C   UNL A   1      37.797  32.611  31.699  1.00  0.00     0.031 A 
ATOM     28  C   UNL A   1      42.520  30.474  35.653  1.00  0.00     0.049 A 
ATOM     29  C   UNL A   1      38.281  33.048  33.051  1.00  0.00     0.074 A 
ATOM     30  C   UNL A   1      42.893  30.987  36.884  1.00  0.00     0.029 A 
ATOM     31  N   UNL A   1      41.454  31.245  35.209  1.00  0.00    -0.354 N 
ATOM     32  N   UNL A   1      39.264  32.558  33.768  1.00  0.00    -0.248 NA
ATOM     33  C   UNL A   1      37.577  34.177  33.671  1.00  0.00     0.031 C 
ATOM     34  C   UNL A   1      42.029  32.040  37.203  1.00  0.00     0.029 A 
ATOM     35  C   UNL A   1      41.149  32.217  36.148  1.00  0.00     0.049 A 
ATOM     36  H   UNL A   1      40.985  31.118  34.353  1.00  0.00     0.167 HD
ATOM     37  C   UNL A   1      39.296  33.323  34.928  1.00  0.00     0.074 A 
ATOM     38  C   UNL A   1      38.261  34.328  34.797  1.00  0.00     0.031 C 
ATOM     39  C   UNL A   1      40.105  33.199  36.009  1.00  0.00     0.031 A 
BRANCH  26  40
ATOM     40  C   UNL A   1      44.225  28.615  35.584  1.00  0.00    -0.014 A 
ATOM     41  C   UNL A   1      45.562  28.961  35.322  1.00  0.00     0.010 A 
ATOM     42  C   UNL A   1      43.952  27.611  36.532  1.00  0.00     0.010 A 
ATOM     43  C   UNL A   1      46.606  28.305  35.981  1.00  0.00     0.020 A 
ATOM     44  C   UNL A   1      44.993  26.967  37.209  1.00  0.00     0.020 A 
ATOM     45  C   UNL A   1      46.315  27.313  36.921  1.00  0.00     0.054 A 
BRANCH  45  46
ATOM     46  S   UNL A   1      47.689  26.515  37.799  1.00  0.00     0.124 S 
ATOM     47  O   UNL A   1      47.415  26.885  39.185  1.00  0.00    -0.237 OA
ATOM     48  O   UNL A   1      47.496  25.102  37.476  1.00  0.00    -0.237 OA
ATOM     49  O   UNL A   1      48.878  27.128  37.213  1.00  0.00    -0.744 OA
ENDBRANCH  45  46
ENDBRANCH  26  40
BRANCH  27  50
ATOM     50  C   UNL A   1      36.659  33.298  31.033  1.00  0.00    -0.014 A 
ATOM     51  C   UNL A   1      35.348  33.156  31.520  1.00  0.00     0.010 A 
ATOM     52  C   UNL A   1      36.888  34.110  29.907  1.00  0.00     0.010 A 
ATOM     53  C   UNL A   1      34.284  33.796  30.877  1.00  0.00     0.020 A 
ATOM     54  C   UNL A   1      35.833  34.774  29.281  1.00  0.00     0.020 A 
ATOM     55  C   UNL A   1      34.533  34.600  29.760  1.00  0.00     0.054 A 
BRANCH  55  56
ATOM     56  S   UNL A   1      33.147  35.455  28.962  1.00  0.00     0.124 S 
ATOM     57  O   UNL A   1      32.533  34.378  28.193  1.00  0.00    -0.237 OA
ATOM     58  O   UNL A   1      32.374  35.941  30.102  1.00  0.00    -0.237 OA
ATOM     59  O   UNL A   1      33.801  36.497  28.174  1.00  0.00    -0.744 OA
ENDBRANCH  55  56
ENDBRANCH  27  50
BRANCH  39  60
ATOM     60  C   UNL A   1      39.900  34.187  37.124  1.00  0.00    -0.014 A 
ATOM     61  C   UNL A   1      39.048  33.891  38.204  1.00  0.00     0.010 A 
ATOM     62  C   UNL A   1      40.571  35.421  37.094  1.00  0.00     0.010 A 
ATOM     63  C   UNL A   1      38.832  34.836  39.210  1.00  0.00     0.020 A 
ATOM     64  C   UNL A   1      40.379  36.357  38.113  1.00  0.00     0.020 A 
ATOM     65  C   UNL A   1      39.494  36.067  39.153  1.00  0.00     0.054 A 
BRANCH  65  66
ATOM     66  S   UNL A   1      39.208  37.275  40.474  1.00  0.00     0.124 S 
ATOM     67  O   UNL A   1      38.275  38.202  39.840  1.00  0.00    -0.237 OA
ATOM     68  O   UNL A   1      38.649  36.456  41.547  1.00  0.00    -0.237 OA
ATOM     69  O   UNL A   1      40.539  37.815  40.741  1.00  0.00    -0.744 OA
ENDBRANCH  65  66
ENDBRANCH  39  60
ENDBRANCH  13  14
ENDBRANCH   6   8
ENDBRANCH   3   4
ENDBRANCH   2   3
ENDBRANCH   1   2
BRANCH   1  70
ATOM     70  C   UNL A   1      37.293  22.319  25.326  1.00  0.00     0.002 C 
BRANCH  70  71
ATOM     71  C   UNL A   1      35.799  22.508  25.593  1.00  0.00     0.021 C 
BRANCH  71  72
ATOM     72  C   UNL A   1      34.973  23.156  24.490  1.00  0.00     0.116 C 
BRANCH  72  73
ATOM     73  N   UNL A   1      33.548  22.976  24.613  1.00  0.00    -0.354 N 
ATOM     74  C   UNL A   1      32.552  23.778  24.143  1.00  0.00     0.243 C 
ATOM     75  H   UNL A   1      33.258  22.170  25.099  1.00  0.00     0.163 HD
ATOM     76  O   UNL A   1      31.392  23.383  24.328  1.00  0.00    -0.273 OA
BRANCH  74  77
ATOM     77  C   UNL A   1      32.788  25.214  23.598  1.00  0.00     0.185 C 
ATOM     78  C   UNL A   1      33.278  25.066  22.148  1.00  0.00     0.106 C 
ATOM     79  N   UNL A   1      31.722  26.231  23.672  1.00  0.00    -0.316 N 
ATOM     80  S   UNL A   1      32.100  25.945  21.100  1.00  0.00    -0.138 SA
ATOM     81  C   UNL A   1      31.522  26.978  22.447  1.00  0.00     0.190 C 
BRANCH  79  82
ATOM     82  C   UNL A   1      31.279  26.639  24.916  1.00  0.00     0.262 C 
ATOM     83  O   UNL A   1      30.308  26.096  25.446  1.00  0.00    -0.269 OA
BRANCH  82  84
ATOM     84  C   UNL A   1      31.941  27.779  25.611  1.00  0.00     0.124 A 
ATOM     85  C   UNL A   1      31.333  28.971  25.562  1.00  0.00     0.133 A 
ATOM     86  C   UNL A   1      33.307  27.759  26.186  1.00  0.00     0.270 A 
ATOM     87  N   UNL A   1      31.830  30.142  26.065  1.00  0.00    -0.237 NA
ATOM     88  N   UNL A   1      33.752  28.944  26.761  1.00  0.00    -0.267 N 
ATOM     89  O   UNL A   1      34.000  26.743  26.113  1.00  0.00    -0.268 OA
ATOM     90  C   UNL A   1      32.994  30.102  26.636  1.00  0.00     0.139 A 
ATOM     91  C   UNL A   1      34.979  28.961  27.419  1.00  0.00     0.096 A 
ATOM     92  C   UNL A   1      33.578  31.355  27.190  1.00  0.00     0.048 A 
ATOM     93  C   UNL A   1      35.484  30.083  27.943  1.00  0.00     0.019 A 
ATOM     94  C   UNL A   1      34.765  31.323  27.808  1.00  0.00     0.005 A 
ENDBRANCH  82  84
ENDBRANCH  79  82
ENDBRANCH  74  77
ENDBRANCH  72  73
ENDBRANCH  71  72
ENDBRANCH  70  71
ENDBRANCH   1  70
TORSDOF 18
ENDMDL
