MODEL 1
REMARK VINA RESULT:      -9.1      0.000      0.000
REMARK SMILES CC1(C)Cc2c(-c3ccccc3)c(-c3ccc(Cl)cc3)c(CC(=O)NCCCCCCNC(=O)c3ccc(-c4c5nc(c(-c6ccc(S(=O)(=O)[O-])cc6)c6ccc([nH]6)c(-c6ccc(S(=O)(=O)[O-])cc6)c6nc(c(-c7ccc(S(=O)(=O)[O-])cc7)c7ccc4[nH]7)C=C6)C=C5)cc3)n2C1
REMARK SMILES IDX 29 1 28 2 27 3 26 4 25 5 23 6 24 7 22 9 21 10 1 11 2 12 3 13
REMARK SMILES IDX 4 14 96 15 5 16 95 17 6 18 13 19 7 20 8 21 12 22 9 23 11 24
REMARK SMILES IDX 10 25 14 26 15 27 20 28 16 29 19 30 17 31 18 32 30 33 31 34
REMARK SMILES IDX 32 35 33 36 34 38 35 39 36 40 94 41 37 42 93 43 38 44 39 45
REMARK SMILES IDX 40 46 87 47 41 48 92 49 86 50 88 51 42 52 91 53 85 54 84 55
REMARK SMILES IDX 43 57 73 58 54 59 72 60 55 61 58 62 71 63 89 64 56 65 57 66
REMARK SMILES IDX 70 68 90 69 59 70 44 71 45 72 53 73 46 74 52 75 47 76 48 77
REMARK SMILES IDX 49 78 50 79 51 80 74 81 75 82 83 83 76 84 82 85 77 86 78 87
REMARK SMILES IDX 79 88 80 89 81 90 60 91 61 92 69 93 62 94 68 95 63 96 64 97
REMARK SMILES IDX 65 98 66 99 67 100
REMARK H PARENT 25 8 32 37 88 56 58 67
REMARK Flexibility Score: inf
ROOT
ATOM      1  C   UNL A   1      46.321  26.322  31.865  1.00  0.00     0.002 C 
ENDROOT
BRANCH   1   2
ATOM      2  C   UNL A   1      47.461  25.946  30.905  1.00  0.00     0.002 C 
BRANCH   2   3
ATOM      3  C   UNL A   1      47.277  26.394  29.453  1.00  0.00     0.021 C 
BRANCH   3   4
ATOM      4  C   UNL A   1      46.856  27.853  29.289  1.00  0.00     0.116 C 
BRANCH   4   5
ATOM      5  N   UNL A   1      45.971  28.058  28.166  1.00  0.00    -0.356 N 
ATOM      6  C   UNL A   1      44.605  28.110  28.149  1.00  0.00     0.225 C 
ATOM      7  O   UNL A   1      44.062  28.400  27.078  1.00  0.00    -0.275 OA
ATOM      8  H   UNL A   1      46.412  28.177  27.294  1.00  0.00     0.163 HD
BRANCH   6   9
ATOM      9  C   UNL A   1      43.795  27.915  29.423  1.00  0.00     0.154 C 
BRANCH   9  10
ATOM     10  C   UNL A   1      42.309  27.923  29.213  1.00  0.00     0.036 A 
ATOM     11  C   UNL A   1      40.443  23.465  27.936  1.00  0.00     0.013 C 
ATOM     12  C   UNL A   1      40.698  24.953  27.699  1.00  0.00    -0.012 C 
ATOM     13  C   UNL A   1      40.843  25.194  26.184  1.00  0.00     0.013 C 
ATOM     14  C   UNL A   1      39.545  25.844  28.265  1.00  0.00     0.063 C 
ATOM     15  C   UNL A   1      41.962  25.439  28.466  1.00  0.00     0.129 C 
ATOM     16  C   UNL A   1      40.282  27.047  28.722  1.00  0.00     0.027 A 
ATOM     17  N   UNL A   1      41.619  26.809  28.825  1.00  0.00    -0.346 N 
ATOM     18  C   UNL A   1      40.053  28.352  29.067  1.00  0.00     0.011 A 
ATOM     19  C   UNL A   1      41.338  28.912  29.401  1.00  0.00     0.011 A 
BRANCH  18  20
ATOM     20  C   UNL A   1      38.757  28.994  29.082  1.00  0.00    -0.016 A 
ATOM     21  C   UNL A   1      38.303  29.703  27.968  1.00  0.00     0.009 A 
ATOM     22  C   UNL A   1      37.912  28.819  30.187  1.00  0.00     0.009 A 
ATOM     23  C   UNL A   1      37.003  30.204  27.951  1.00  0.00     0.001 A 
ATOM     24  C   UNL A   1      36.615  29.328  30.169  1.00  0.00     0.001 A 
ATOM     25  C   UNL A   1      36.158  30.008  29.044  1.00  0.00     0.000 A 
ENDBRANCH  18  20
BRANCH  19  26
ATOM     26  C   UNL A   1      41.571  30.268  29.883  1.00  0.00    -0.016 A 
ATOM     27  C   UNL A   1      40.598  30.892  30.678  1.00  0.00     0.010 A 
ATOM     28  C   UNL A   1      42.661  31.017  29.430  1.00  0.00     0.010 A 
ATOM     29  C   UNL A   1      40.717  32.242  31.018  1.00  0.00     0.021 A 
ATOM     30  C   UNL A   1      42.793  32.362  29.786  1.00  0.00     0.021 A 
ATOM     31  C   UNL A   1      41.816  32.971  30.573  1.00  0.00     0.041 A 
ATOM     32  Cl  UNL A   1      41.960  34.639  30.971  1.00  0.00    -0.084 Cl
ENDBRANCH  19  26
ENDBRANCH   9  10
ENDBRANCH   6   9
ENDBRANCH   4   5
ENDBRANCH   3   4
ENDBRANCH   2   3
ENDBRANCH   1   2
BRANCH   1  33
ATOM     33  C   UNL A   1      45.870  25.234  32.853  1.00  0.00     0.021 C 
BRANCH  33  34
ATOM     34  C   UNL A   1      44.422  24.807  32.673  1.00  0.00     0.116 C 
BRANCH  34  35
ATOM     35  N   UNL A   1      43.851  24.267  33.905  1.00  0.00    -0.352 N 
ATOM     36  C   UNL A   1      43.352  24.960  34.985  1.00  0.00     0.251 C 
ATOM     37  H   UNL A   1      43.820  23.285  33.970  1.00  0.00     0.163 HD
ATOM     38  O   UNL A   1      43.226  24.405  36.075  1.00  0.00    -0.269 OA
BRANCH  36  39
ATOM     39  C   UNL A   1      42.983  26.376  34.818  1.00  0.00     0.039 A 
ATOM     40  C   UNL A   1      42.578  26.871  33.576  1.00  0.00     0.014 A 
ATOM     41  C   UNL A   1      43.028  27.208  35.935  1.00  0.00     0.014 A 
ATOM     42  C   UNL A   1      42.141  28.191  33.485  1.00  0.00     0.010 A 
ATOM     43  C   UNL A   1      42.472  28.464  35.873  1.00  0.00     0.010 A 
ATOM     44  C   UNL A   1      42.072  28.980  34.644  1.00  0.00    -0.014 A 
BRANCH  44  45
ATOM     45  C   UNL A   1      41.484  30.317  34.601  1.00  0.00     0.031 A 
ATOM     46  C   UNL A   1      42.462  31.443  34.573  1.00  0.00     0.074 A 
ATOM     47  C   UNL A   1      40.175  30.535  34.350  1.00  0.00     0.049 A 
ATOM     48  N   UNL A   1      42.642  32.364  35.460  1.00  0.00    -0.248 NA
ATOM     49  C   UNL A   1      43.433  31.484  33.466  1.00  0.00     0.031 C 
ATOM     50  C   UNL A   1      39.137  29.552  34.010  1.00  0.00     0.029 A 
ATOM     51  N   UNL A   1      39.520  31.717  34.207  1.00  0.00    -0.354 N 
ATOM     52  C   UNL A   1      43.606  33.223  34.938  1.00  0.00     0.074 A 
ATOM     53  C   UNL A   1      44.172  32.544  33.798  1.00  0.00     0.031 C 
ATOM     54  C   UNL A   1      38.081  30.185  33.453  1.00  0.00     0.029 A 
ATOM     55  C   UNL A   1      38.287  31.615  33.572  1.00  0.00     0.049 A 
ATOM     56  H   UNL A   1      39.887  32.573  34.525  1.00  0.00     0.167 HD
ATOM     57  C   UNL A   1      43.715  34.521  35.341  1.00  0.00     0.031 A 
ATOM     58  C   UNL A   1      37.508  32.637  33.138  1.00  0.00     0.031 A 
ATOM     59  C   UNL A   1      42.972  34.771  36.547  1.00  0.00     0.049 A 
ATOM     60  C   UNL A   1      37.940  33.854  33.864  1.00  0.00     0.074 A 
ATOM     61  C   UNL A   1      43.001  34.264  37.831  1.00  0.00     0.029 A 
ATOM     62  N   UNL A   1      41.750  35.390  36.415  1.00  0.00    -0.354 N 
ATOM     63  N   UNL A   1      37.803  34.008  35.152  1.00  0.00    -0.248 NA
ATOM     64  C   UNL A   1      38.929  34.714  33.235  1.00  0.00     0.031 C 
ATOM     65  C   UNL A   1      41.631  34.164  38.214  1.00  0.00     0.029 A 
ATOM     66  C   UNL A   1      40.855  34.684  37.176  1.00  0.00     0.049 A 
ATOM     67  H   UNL A   1      41.556  36.192  35.876  1.00  0.00     0.167 HD
ATOM     68  C   UNL A   1      38.964  34.651  35.557  1.00  0.00     0.074 A 
ATOM     69  C   UNL A   1      39.568  35.150  34.323  1.00  0.00     0.031 C 
ATOM     70  C   UNL A   1      39.466  34.479  36.817  1.00  0.00     0.031 A 
BRANCH  57  71
ATOM     71  C   UNL A   1      44.175  35.646  34.442  1.00  0.00    -0.014 A 
ATOM     72  C   UNL A   1      43.210  36.473  33.830  1.00  0.00     0.010 A 
ATOM     73  C   UNL A   1      45.496  35.747  33.963  1.00  0.00     0.010 A 
ATOM     74  C   UNL A   1      43.543  37.307  32.752  1.00  0.00     0.020 A 
ATOM     75  C   UNL A   1      45.849  36.607  32.922  1.00  0.00     0.020 A 
ATOM     76  C   UNL A   1      44.860  37.357  32.298  1.00  0.00     0.054 A 
BRANCH  76  77
ATOM     77  S   UNL A   1      45.264  38.353  30.842  1.00  0.00     0.124 S 
ATOM     78  O   UNL A   1      45.742  37.338  29.908  1.00  0.00    -0.237 OA
ATOM     79  O   UNL A   1      43.978  38.962  30.516  1.00  0.00    -0.237 OA
ATOM     80  O   UNL A   1      46.279  39.281  31.335  1.00  0.00    -0.744 OA
ENDBRANCH  76  77
ENDBRANCH  57  71
BRANCH  58  81
ATOM     81  C   UNL A   1      36.648  32.689  31.932  1.00  0.00    -0.014 A 
ATOM     82  C   UNL A   1      35.256  32.507  32.024  1.00  0.00     0.010 A 
ATOM     83  C   UNL A   1      37.163  33.213  30.729  1.00  0.00     0.010 A 
ATOM     84  C   UNL A   1      34.403  32.890  30.974  1.00  0.00     0.020 A 
ATOM     85  C   UNL A   1      36.317  33.602  29.684  1.00  0.00     0.020 A 
ATOM     86  C   UNL A   1      34.939  33.454  29.815  1.00  0.00     0.054 A 
BRANCH  86  87
ATOM     87  S   UNL A   1      33.824  34.113  28.539  1.00  0.00     0.124 S 
ATOM     88  O   UNL A   1      33.509  32.920  27.758  1.00  0.00    -0.237 OA
ATOM     89  O   UNL A   1      32.725  34.664  29.326  1.00  0.00    -0.237 OA
ATOM     90  O   UNL A   1      34.638  35.107  27.844  1.00  0.00    -0.744 OA
ENDBRANCH  86  87
ENDBRANCH  58  81
BRANCH  70  91
ATOM     91  C   UNL A   1      38.598  33.807  37.858  1.00  0.00    -0.014 A 
ATOM     92  C   UNL A   1      37.987  32.549  37.681  1.00  0.00     0.010 A 
ATOM     93  C   UNL A   1      38.529  34.408  39.127  1.00  0.00     0.010 A 
ATOM     94  C   UNL A   1      37.307  31.925  38.739  1.00  0.00     0.020 A 
ATOM     95  C   UNL A   1      37.870  33.785  40.189  1.00  0.00     0.020 A 
ATOM     96  C   UNL A   1      37.253  32.550  39.989  1.00  0.00     0.054 A 
BRANCH  96  97
ATOM     97  S   UNL A   1      36.413  31.723  41.370  1.00  0.00     0.124 S 
ATOM     98  O   UNL A   1      35.205  31.200  40.739  1.00  0.00    -0.237 OA
ATOM     99  O   UNL A   1      37.388  30.720  41.791  1.00  0.00    -0.237 OA
ATOM    100  O   UNL A   1      36.189  32.798  42.335  1.00  0.00    -0.744 OA
ENDBRANCH  96  97
ENDBRANCH  70  91
ENDBRANCH  44  45
ENDBRANCH  36  39
ENDBRANCH  34  35
ENDBRANCH  33  34
ENDBRANCH   1  33
TORSDOF 19
ENDMDL
MODEL 2
REMARK VINA RESULT:      -9.1      5.017      9.412
REMARK SMILES CC1(C)Cc2c(-c3ccccc3)c(-c3ccc(Cl)cc3)c(CC(=O)NCCCCCCNC(=O)c3ccc(-c4c5nc(c(-c6ccc(S(=O)(=O)[O-])cc6)c6ccc([nH]6)c(-c6ccc(S(=O)(=O)[O-])cc6)c6nc(c(-c7ccc(S(=O)(=O)[O-])cc7)c7ccc4[nH]7)C=C6)C=C5)cc3)n2C1
REMARK SMILES IDX 29 1 28 2 27 3 26 4 25 5 23 6 24 7 22 9 21 10 1 11 2 12 3 13
REMARK SMILES IDX 4 14 96 15 5 16 95 17 6 18 13 19 7 20 8 21 12 22 9 23 11 24
REMARK SMILES IDX 10 25 14 26 15 27 20 28 16 29 19 30 17 31 18 32 30 33 31 34
REMARK SMILES IDX 32 35 33 36 34 38 35 39 36 40 94 41 37 42 93 43 38 44 39 45
REMARK SMILES IDX 40 46 87 47 41 48 92 49 86 50 88 51 42 52 91 53 85 54 84 55
REMARK SMILES IDX 43 57 73 58 54 59 72 60 55 61 58 62 71 63 89 64 56 65 57 66
REMARK SMILES IDX 70 68 90 69 59 70 44 71 45 72 53 73 46 74 52 75 47 76 48 77
REMARK SMILES IDX 49 78 50 79 51 80 74 81 75 82 83 83 76 84 82 85 77 86 78 87
REMARK SMILES IDX 79 88 80 89 81 90 60 91 61 92 69 93 62 94 68 95 63 96 64 97
REMARK SMILES IDX 65 98 66 99 67 100
REMARK H PARENT 25 8 32 37 88 56 58 67
REMARK Flexibility Score: inf
ROOT
ATOM      1  C   UNL A   1      45.053  24.145  24.997  1.00  0.00     0.002 C 
ENDROOT
BRANCH   1   2
ATOM      2  C   UNL A   1      45.945  24.120  26.249  1.00  0.00     0.002 C 
BRANCH   2   3
ATOM      3  C   UNL A   1      47.188  25.011  26.193  1.00  0.00     0.021 C 
BRANCH   3   4
ATOM      4  C   UNL A   1      47.706  25.288  24.783  1.00  0.00     0.116 C 
BRANCH   4   5
ATOM      5  N   UNL A   1      47.317  26.587  24.287  1.00  0.00    -0.356 N 
ATOM      6  C   UNL A   1      47.965  27.394  23.394  1.00  0.00     0.225 C 
ATOM      7  O   UNL A   1      47.388  28.426  23.039  1.00  0.00    -0.275 OA
ATOM      8  H   UNL A   1      46.470  26.941  24.641  1.00  0.00     0.163 HD
BRANCH   6   9
ATOM      9  C   UNL A   1      49.301  26.983  22.789  1.00  0.00     0.154 C 
BRANCH   9  10
ATOM     10  C   UNL A   1      50.441  27.889  23.146  1.00  0.00     0.036 A 
ATOM     11  C   UNL A   1      51.596  31.170  19.556  1.00  0.00     0.013 C 
ATOM     12  C   UNL A   1      51.928  30.025  20.512  1.00  0.00    -0.012 C 
ATOM     13  C   UNL A   1      52.963  29.104  19.839  1.00  0.00     0.013 C 
ATOM     14  C   UNL A   1      52.492  30.543  21.875  1.00  0.00     0.063 C 
ATOM     15  C   UNL A   1      50.648  29.233  20.910  1.00  0.00     0.129 C 
ATOM     16  C   UNL A   1      51.945  29.551  22.832  1.00  0.00     0.027 A 
ATOM     17  N   UNL A   1      50.928  28.830  22.283  1.00  0.00    -0.346 N 
ATOM     18  C   UNL A   1      52.143  29.102  24.109  1.00  0.00     0.011 A 
ATOM     19  C   UNL A   1      51.175  28.057  24.325  1.00  0.00     0.011 A 
BRANCH  18  20
ATOM     20  C   UNL A   1      53.140  29.613  25.026  1.00  0.00    -0.016 A 
ATOM     21  C   UNL A   1      52.791  30.543  26.008  1.00  0.00     0.009 A 
ATOM     22  C   UNL A   1      54.441  29.094  24.989  1.00  0.00     0.009 A 
ATOM     23  C   UNL A   1      53.732  30.925  26.962  1.00  0.00     0.001 A 
ATOM     24  C   UNL A   1      55.381  29.484  25.942  1.00  0.00     0.001 A 
ATOM     25  C   UNL A   1      55.020  30.389  26.936  1.00  0.00     0.000 A 
ENDBRANCH  18  20
BRANCH  19  26
ATOM     26  C   UNL A   1      50.980  27.328  25.572  1.00  0.00    -0.016 A 
ATOM     27  C   UNL A   1      51.425  26.000  25.669  1.00  0.00     0.010 A 
ATOM     28  C   UNL A   1      50.211  27.864  26.609  1.00  0.00     0.010 A 
ATOM     29  C   UNL A   1      51.109  25.225  26.789  1.00  0.00     0.021 A 
ATOM     30  C   UNL A   1      49.912  27.097  27.739  1.00  0.00     0.021 A 
ATOM     31  C   UNL A   1      50.357  25.779  27.820  1.00  0.00     0.041 A 
ATOM     32  Cl  UNL A   1      49.947  24.824  29.193  1.00  0.00    -0.084 Cl
ENDBRANCH  19  26
ENDBRANCH   9  10
ENDBRANCH   6   9
ENDBRANCH   4   5
ENDBRANCH   3   4
ENDBRANCH   2   3
ENDBRANCH   1   2
BRANCH   1  33
ATOM     33  C   UNL A   1      44.814  22.796  24.300  1.00  0.00     0.021 C 
BRANCH  33  34
ATOM     34  C   UNL A   1      44.580  21.643  25.262  1.00  0.00     0.116 C 
BRANCH  34  35
ATOM     35  N   UNL A   1      43.212  21.137  25.190  1.00  0.00    -0.352 N 
ATOM     36  C   UNL A   1      42.134  21.486  25.974  1.00  0.00     0.251 C 
ATOM     37  H   UNL A   1      43.039  20.461  24.496  1.00  0.00     0.163 HD
ATOM     38  O   UNL A   1      41.150  20.752  26.039  1.00  0.00    -0.269 OA
BRANCH  36  39
ATOM     39  C   UNL A   1      42.184  22.743  26.738  1.00  0.00     0.039 A 
ATOM     40  C   UNL A   1      42.792  22.797  27.995  1.00  0.00     0.014 A 
ATOM     41  C   UNL A   1      41.628  23.887  26.169  1.00  0.00     0.014 A 
ATOM     42  C   UNL A   1      42.906  24.028  28.638  1.00  0.00     0.010 A 
ATOM     43  C   UNL A   1      41.860  25.116  26.739  1.00  0.00     0.010 A 
ATOM     44  C   UNL A   1      42.454  25.190  27.995  1.00  0.00    -0.014 A 
BRANCH  44  45
ATOM     45  C   UNL A   1      42.691  26.507  28.584  1.00  0.00     0.031 A 
ATOM     46  C   UNL A   1      43.934  27.194  28.127  1.00  0.00     0.074 A 
ATOM     47  C   UNL A   1      41.754  27.175  29.290  1.00  0.00     0.049 A 
ATOM     48  N   UNL A   1      44.969  27.519  28.828  1.00  0.00    -0.248 NA
ATOM     49  C   UNL A   1      44.086  27.456  26.685  1.00  0.00     0.031 C 
ATOM     50  C   UNL A   1      40.359  26.793  29.540  1.00  0.00     0.029 A 
ATOM     51  N   UNL A   1      41.818  28.425  29.821  1.00  0.00    -0.354 N 
ATOM     52  C   UNL A   1      45.820  28.208  27.968  1.00  0.00     0.074 A 
ATOM     53  C   UNL A   1      45.307  27.992  26.637  1.00  0.00     0.031 C 
ATOM     54  C   UNL A   1      39.655  27.880  29.929  1.00  0.00     0.029 A 
ATOM     55  C   UNL A   1      40.581  28.976  30.137  1.00  0.00     0.049 A 
ATOM     56  H   UNL A   1      42.667  28.900  29.970  1.00  0.00     0.167 HD
ATOM     57  C   UNL A   1      46.753  29.092  28.425  1.00  0.00     0.031 A 
ATOM     58  C   UNL A   1      40.331  30.257  30.506  1.00  0.00     0.031 A 
ATOM     59  C   UNL A   1      46.959  28.966  29.844  1.00  0.00     0.049 A 
ATOM     60  C   UNL A   1      41.612  30.834  30.977  1.00  0.00     0.074 A 
ATOM     61  C   UNL A   1      47.365  27.947  30.682  1.00  0.00     0.029 A 
ATOM     62  N   UNL A   1      46.345  29.895  30.652  1.00  0.00    -0.354 N 
ATOM     63  N   UNL A   1      42.237  30.418  32.043  1.00  0.00    -0.248 NA
ATOM     64  C   UNL A   1      42.428  31.566  30.022  1.00  0.00     0.031 C 
ATOM     65  C   UNL A   1      46.541  28.077  31.838  1.00  0.00     0.029 A 
ATOM     66  C   UNL A   1      45.738  29.207  31.671  1.00  0.00     0.049 A 
ATOM     67  H   UNL A   1      46.343  30.872  30.523  1.00  0.00     0.167 HD
ATOM     68  C   UNL A   1      43.581  30.449  31.701  1.00  0.00     0.074 A 
ATOM     69  C   UNL A   1      43.642  31.260  30.487  1.00  0.00     0.031 C 
ATOM     70  C   UNL A   1      44.477  29.590  32.274  1.00  0.00     0.031 A 
BRANCH  57  71
ATOM     71  C   UNL A   1      47.195  30.319  27.663  1.00  0.00    -0.014 A 
ATOM     72  C   UNL A   1      48.569  30.634  27.607  1.00  0.00     0.010 A 
ATOM     73  C   UNL A   1      46.295  31.317  27.237  1.00  0.00     0.010 A 
ATOM     74  C   UNL A   1      49.011  31.904  27.206  1.00  0.00     0.020 A 
ATOM     75  C   UNL A   1      46.725  32.569  26.793  1.00  0.00     0.020 A 
ATOM     76  C   UNL A   1      48.081  32.867  26.815  1.00  0.00     0.054 A 
BRANCH  76  77
ATOM     77  S   UNL A   1      48.647  34.535  26.400  1.00  0.00     0.124 S 
ATOM     78  O   UNL A   1      50.059  34.473  26.766  1.00  0.00    -0.237 OA
ATOM     79  O   UNL A   1      48.364  34.612  24.969  1.00  0.00    -0.237 OA
ATOM     80  O   UNL A   1      47.817  35.396  27.240  1.00  0.00    -0.744 OA
ENDBRANCH  76  77
ENDBRANCH  57  71
BRANCH  58  81
ATOM     81  C   UNL A   1      39.149  31.091  30.185  1.00  0.00    -0.014 A 
ATOM     82  C   UNL A   1      38.489  30.970  28.948  1.00  0.00     0.010 A 
ATOM     83  C   UNL A   1      38.491  31.796  31.213  1.00  0.00     0.010 A 
ATOM     84  C   UNL A   1      37.194  31.485  28.763  1.00  0.00     0.020 A 
ATOM     85  C   UNL A   1      37.198  32.303  31.036  1.00  0.00     0.020 A 
ATOM     86  C   UNL A   1      36.547  32.133  29.817  1.00  0.00     0.054 A 
BRANCH  86  87
ATOM     87  S   UNL A   1      34.809  32.633  29.631  1.00  0.00     0.124 S 
ATOM     88  O   UNL A   1      34.310  32.529  30.999  1.00  0.00    -0.237 OA
ATOM     89  O   UNL A   1      34.920  33.987  29.099  1.00  0.00    -0.237 OA
ATOM     90  O   UNL A   1      34.261  31.651  28.699  1.00  0.00    -0.744 OA
ENDBRANCH  86  87
ENDBRANCH  58  81
BRANCH  70  91
ATOM     91  C   UNL A   1      44.048  28.795  33.487  1.00  0.00    -0.014 A 
ATOM     92  C   UNL A   1      44.314  29.182  34.816  1.00  0.00     0.010 A 
ATOM     93  C   UNL A   1      43.202  27.693  33.271  1.00  0.00     0.010 A 
ATOM     94  C   UNL A   1      43.769  28.468  35.896  1.00  0.00     0.020 A 
ATOM     95  C   UNL A   1      42.642  26.990  34.339  1.00  0.00     0.020 A 
ATOM     96  C   UNL A   1      42.934  27.373  35.647  1.00  0.00     0.054 A 
BRANCH  96  97
ATOM     97  S   UNL A   1      42.192  26.478  37.042  1.00  0.00     0.124 S 
ATOM     98  O   UNL A   1      40.914  27.164  37.214  1.00  0.00    -0.237 OA
ATOM     99  O   UNL A   1      42.109  25.107  36.543  1.00  0.00    -0.237 OA
ATOM    100  O   UNL A   1      43.149  26.673  38.130  1.00  0.00    -0.744 OA
ENDBRANCH  96  97
ENDBRANCH  70  91
ENDBRANCH  44  45
ENDBRANCH  36  39
ENDBRANCH  34  35
ENDBRANCH  33  34
ENDBRANCH   1  33
TORSDOF 19
ENDMDL
MODEL 3
REMARK VINA RESULT:      -9.0      2.574      8.361
REMARK SMILES CC1(C)Cc2c(-c3ccccc3)c(-c3ccc(Cl)cc3)c(CC(=O)NCCCCCCNC(=O)c3ccc(-c4c5nc(c(-c6ccc(S(=O)(=O)[O-])cc6)c6ccc([nH]6)c(-c6ccc(S(=O)(=O)[O-])cc6)c6nc(c(-c7ccc(S(=O)(=O)[O-])cc7)c7ccc4[nH]7)C=C6)C=C5)cc3)n2C1
REMARK SMILES IDX 29 1 28 2 27 3 26 4 25 5 23 6 24 7 22 9 21 10 1 11 2 12 3 13
REMARK SMILES IDX 4 14 96 15 5 16 95 17 6 18 13 19 7 20 8 21 12 22 9 23 11 24
REMARK SMILES IDX 10 25 14 26 15 27 20 28 16 29 19 30 17 31 18 32 30 33 31 34
REMARK SMILES IDX 32 35 33 36 34 38 35 39 36 40 94 41 37 42 93 43 38 44 39 45
REMARK SMILES IDX 40 46 87 47 41 48 92 49 86 50 88 51 42 52 91 53 85 54 84 55
REMARK SMILES IDX 43 57 73 58 54 59 72 60 55 61 58 62 71 63 89 64 56 65 57 66
REMARK SMILES IDX 70 68 90 69 59 70 44 71 45 72 53 73 46 74 52 75 47 76 48 77
REMARK SMILES IDX 49 78 50 79 51 80 74 81 75 82 83 83 76 84 82 85 77 86 78 87
REMARK SMILES IDX 79 88 80 89 81 90 60 91 61 92 69 93 62 94 68 95 63 96 64 97
REMARK SMILES IDX 65 98 66 99 67 100
REMARK H PARENT 25 8 32 37 88 56 58 67
REMARK Flexibility Score: inf
ROOT
ATOM      1  C   UNL A   1      46.827  34.887  31.533  1.00  0.00     0.002 C 
ENDROOT
BRANCH   1   2
ATOM      2  C   UNL A   1      45.443  34.437  31.040  1.00  0.00     0.002 C 
BRANCH   2   3
ATOM      3  C   UNL A   1      45.402  33.857  29.624  1.00  0.00     0.021 C 
BRANCH   3   4
ATOM      4  C   UNL A   1      44.082  33.185  29.252  1.00  0.00     0.116 C 
BRANCH   4   5
ATOM      5  N   UNL A   1      44.144  32.489  27.988  1.00  0.00    -0.356 N 
ATOM      6  C   UNL A   1      43.806  31.196  27.704  1.00  0.00     0.225 C 
ATOM      7  O   UNL A   1      43.845  30.845  26.520  1.00  0.00    -0.275 OA
ATOM      8  H   UNL A   1      44.475  33.018  27.228  1.00  0.00     0.163 HD
BRANCH   6   9
ATOM      9  C   UNL A   1      43.305  30.256  28.793  1.00  0.00     0.154 C 
BRANCH   9  10
ATOM     10  C   UNL A   1      43.093  28.843  28.335  1.00  0.00     0.036 A 
ATOM     11  C   UNL A   1      47.345  26.347  27.511  1.00  0.00     0.013 C 
ATOM     12  C   UNL A   1      45.993  26.914  27.079  1.00  0.00    -0.012 C 
ATOM     13  C   UNL A   1      46.075  27.309  25.592  1.00  0.00     0.013 C 
ATOM     14  C   UNL A   1      44.832  25.887  27.287  1.00  0.00     0.063 C 
ATOM     15  C   UNL A   1      45.583  28.130  27.960  1.00  0.00     0.129 C 
ATOM     16  C   UNL A   1      43.701  26.772  27.659  1.00  0.00     0.027 A 
ATOM     17  N   UNL A   1      44.131  28.011  28.025  1.00  0.00    -0.346 N 
ATOM     18  C   UNL A   1      42.336  26.754  27.741  1.00  0.00     0.011 A 
ATOM     19  C   UNL A   1      41.941  28.065  28.191  1.00  0.00     0.011 A 
BRANCH  18  20
ATOM     20  C   UNL A   1      41.497  25.616  27.430  1.00  0.00    -0.016 A 
ATOM     21  C   UNL A   1      41.516  24.478  28.239  1.00  0.00     0.009 A 
ATOM     22  C   UNL A   1      40.589  25.699  26.365  1.00  0.00     0.009 A 
ATOM     23  C   UNL A   1      40.610  23.446  28.000  1.00  0.00     0.001 A 
ATOM     24  C   UNL A   1      39.690  24.662  26.126  1.00  0.00     0.001 A 
ATOM     25  C   UNL A   1      39.693  23.542  26.953  1.00  0.00     0.000 A 
ENDBRANCH  18  20
BRANCH  19  26
ATOM     26  C   UNL A   1      40.575  28.486  28.476  1.00  0.00    -0.016 A 
ATOM     27  C   UNL A   1      39.887  27.908  29.554  1.00  0.00     0.010 A 
ATOM     28  C   UNL A   1      39.880  29.324  27.598  1.00  0.00     0.010 A 
ATOM     29  C   UNL A   1      38.529  28.169  29.753  1.00  0.00     0.021 A 
ATOM     30  C   UNL A   1      38.527  29.603  27.807  1.00  0.00     0.021 A 
ATOM     31  C   UNL A   1      37.855  29.019  28.880  1.00  0.00     0.041 A 
ATOM     32  Cl  UNL A   1      36.177  29.330  29.106  1.00  0.00    -0.084 Cl
ENDBRANCH  19  26
ENDBRANCH   9  10
ENDBRANCH   6   9
ENDBRANCH   4   5
ENDBRANCH   3   4
ENDBRANCH   2   3
ENDBRANCH   1   2
BRANCH   1  33
ATOM     33  C   UNL A   1      47.033  36.400  31.712  1.00  0.00     0.021 C 
BRANCH  33  34
ATOM     34  C   UNL A   1      47.291  36.817  33.151  1.00  0.00     0.116 C 
BRANCH  34  35
ATOM     35  N   UNL A   1      46.895  38.200  33.402  1.00  0.00    -0.352 N 
ATOM     36  C   UNL A   1      45.622  38.726  33.442  1.00  0.00     0.251 C 
ATOM     37  H   UNL A   1      47.629  38.836  33.562  1.00  0.00     0.163 HD
ATOM     38  O   UNL A   1      45.447  39.936  33.320  1.00  0.00    -0.269 OA
BRANCH  36  39
ATOM     39  C   UNL A   1      44.479  37.816  33.622  1.00  0.00     0.039 A 
ATOM     40  C   UNL A   1      43.750  37.351  32.524  1.00  0.00     0.014 A 
ATOM     41  C   UNL A   1      44.151  37.412  34.915  1.00  0.00     0.014 A 
ATOM     42  C   UNL A   1      42.741  36.412  32.732  1.00  0.00     0.010 A 
ATOM     43  C   UNL A   1      43.251  36.391  35.104  1.00  0.00     0.010 A 
ATOM     44  C   UNL A   1      42.508  35.921  34.026  1.00  0.00    -0.014 A 
BRANCH  44  45
ATOM     45  C   UNL A   1      41.556  34.835  34.248  1.00  0.00     0.031 A 
ATOM     46  C   UNL A   1      41.931  33.525  33.642  1.00  0.00     0.074 A 
ATOM     47  C   UNL A   1      40.541  34.918  35.136  1.00  0.00     0.049 A 
ATOM     48  N   UNL A   1      41.317  32.872  32.711  1.00  0.00    -0.248 NA
ATOM     49  C   UNL A   1      43.209  32.918  34.050  1.00  0.00     0.031 C 
ATOM     50  C   UNL A   1      40.236  36.010  36.069  1.00  0.00     0.029 A 
ATOM     51  N   UNL A   1      39.640  33.964  35.492  1.00  0.00    -0.354 N 
ATOM     52  C   UNL A   1      42.012  31.675  32.553  1.00  0.00     0.074 A 
ATOM     53  C   UNL A   1      43.251  31.832  33.275  1.00  0.00     0.031 C 
ATOM     54  C   UNL A   1      39.412  35.557  37.040  1.00  0.00     0.029 A 
ATOM     55  C   UNL A   1      38.986  34.215  36.693  1.00  0.00     0.049 A 
ATOM     56  H   UNL A   1      39.465  33.164  34.947  1.00  0.00     0.167 HD
ATOM     57  C   UNL A   1      41.425  30.560  32.032  1.00  0.00     0.031 A 
ATOM     58  C   UNL A   1      38.181  33.363  37.375  1.00  0.00     0.031 A 
ATOM     59  C   UNL A   1      40.173  30.864  31.391  1.00  0.00     0.049 A 
ATOM     60  C   UNL A   1      37.733  32.325  36.417  1.00  0.00     0.074 A 
ATOM     61  C   UNL A   1      39.788  31.679  30.345  1.00  0.00     0.029 A 
ATOM     62  N   UNL A   1      39.023  30.586  32.094  1.00  0.00    -0.354 N 
ATOM     63  N   UNL A   1      36.966  32.576  35.394  1.00  0.00    -0.248 NA
ATOM     64  C   UNL A   1      38.498  31.091  36.336  1.00  0.00     0.031 C 
ATOM     65  C   UNL A   1      38.549  32.247  30.764  1.00  0.00     0.029 A 
ATOM     66  C   UNL A   1      38.216  31.690  32.000  1.00  0.00     0.049 A 
ATOM     67  H   UNL A   1      38.820  29.750  32.574  1.00  0.00     0.167 HD
ATOM     68  C   UNL A   1      37.467  31.782  34.372  1.00  0.00     0.074 A 
ATOM     69  C   UNL A   1      38.339  30.817  35.039  1.00  0.00     0.031 C 
ATOM     70  C   UNL A   1      37.346  32.154  33.062  1.00  0.00     0.031 A 
BRANCH  57  71
ATOM     71  C   UNL A   1      41.791  29.150  32.434  1.00  0.00    -0.014 A 
ATOM     72  C   UNL A   1      41.216  28.597  33.597  1.00  0.00     0.010 A 
ATOM     73  C   UNL A   1      42.879  28.455  31.868  1.00  0.00     0.010 A 
ATOM     74  C   UNL A   1      41.748  27.444  34.196  1.00  0.00     0.020 A 
ATOM     75  C   UNL A   1      43.387  27.281  32.430  1.00  0.00     0.020 A 
ATOM     76  C   UNL A   1      42.840  26.803  33.613  1.00  0.00     0.054 A 
BRANCH  76  77
ATOM     77  S   UNL A   1      43.587  25.380  34.444  1.00  0.00     0.124 S 
ATOM     78  O   UNL A   1      44.583  26.021  35.298  1.00  0.00    -0.237 OA
ATOM     79  O   UNL A   1      42.444  24.790  35.135  1.00  0.00    -0.237 OA
ATOM     80  O   UNL A   1      44.122  24.584  33.343  1.00  0.00    -0.744 OA
ENDBRANCH  76  77
ENDBRANCH  57  71
BRANCH  58  81
ATOM     81  C   UNL A   1      38.035  33.214  38.842  1.00  0.00    -0.014 A 
ATOM     82  C   UNL A   1      36.808  32.829  39.415  1.00  0.00     0.010 A 
ATOM     83  C   UNL A   1      39.183  33.161  39.658  1.00  0.00     0.010 A 
ATOM     84  C   UNL A   1      36.741  32.353  40.736  1.00  0.00     0.020 A 
ATOM     85  C   UNL A   1      39.122  32.680  40.971  1.00  0.00     0.020 A 
ATOM     86  C   UNL A   1      37.905  32.264  41.502  1.00  0.00     0.054 A 
BRANCH  86  87
ATOM     87  S   UNL A   1      37.842  31.480  43.141  1.00  0.00     0.124 S 
ATOM     88  O   UNL A   1      38.701  30.313  42.958  1.00  0.00    -0.237 OA
ATOM     89  O   UNL A   1      38.369  32.523  44.016  1.00  0.00    -0.237 OA
ATOM     90  O   UNL A   1      36.425  31.179  43.330  1.00  0.00    -0.744 OA
ENDBRANCH  86  87
ENDBRANCH  58  81
BRANCH  70  91
ATOM     91  C   UNL A   1      36.417  33.296  32.715  1.00  0.00    -0.014 A 
ATOM     92  C   UNL A   1      35.292  33.169  31.876  1.00  0.00     0.010 A 
ATOM     93  C   UNL A   1      36.607  34.512  33.395  1.00  0.00     0.010 A 
ATOM     94  C   UNL A   1      34.397  34.238  31.706  1.00  0.00     0.020 A 
ATOM     95  C   UNL A   1      35.712  35.573  33.244  1.00  0.00     0.020 A 
ATOM     96  C   UNL A   1      34.616  35.436  32.393  1.00  0.00     0.054 A 
BRANCH  96  97
ATOM     97  S   UNL A   1      33.435  36.803  32.209  1.00  0.00     0.124 S 
ATOM     98  O   UNL A   1      34.028  37.849  33.038  1.00  0.00    -0.237 OA
ATOM     99  O   UNL A   1      33.449  37.056  30.771  1.00  0.00    -0.237 OA
ATOM    100  O   UNL A   1      32.180  36.250  32.719  1.00  0.00    -0.744 OA
ENDBRANCH  96  97
ENDBRANCH  70  91
ENDBRANCH  44  45
ENDBRANCH  36  39
ENDBRANCH  34  35
ENDBRANCH  33  34
ENDBRANCH   1  33
TORSDOF 19
ENDMDL
