MODEL 1
REMARK VINA RESULT:     -12.7      0.000      0.000
REMARK SMILES CN1C(=O)C[C@@H](C(=O)NCCCCCCNC(=O)c2ccc(-c3c4nc(c(-c5ccc(S(=O)(=O)[O-])cc5)c5ccc([nH]5)c(-c5ccc(S(=O)(=O)[O-])cc5)c5nc(c(-c6ccc(S(=O)(=O)[O-])cc6)c6ccc3[nH]6)C=C5)C=C4)cc2)C12CCN(C(=O)c1ccccc1-n1cccn1)CC2
REMARK SMILES IDX 13 1 12 2 11 3 10 4 9 5 7 6 8 7 6 9 1 10 2 11 3 12 79 13
REMARK SMILES IDX 4 14 5 15 80 16 97 17 81 18 96 19 82 20 83 21 84 22 85 23
REMARK SMILES IDX 86 24 90 25 87 26 89 27 88 28 91 29 92 30 95 31 93 32 94 33
REMARK SMILES IDX 14 34 15 35 16 36 17 37 18 39 19 40 20 41 78 42 21 43 77 44
REMARK SMILES IDX 22 45 23 46 24 47 71 48 25 49 76 50 70 51 72 52 26 53 75 54
REMARK SMILES IDX 69 55 68 56 27 58 57 59 38 60 56 61 39 62 42 63 55 64 73 65
REMARK SMILES IDX 40 66 41 67 54 69 74 70 43 71 28 72 29 73 37 74 30 75 36 76
REMARK SMILES IDX 31 77 32 78 33 79 34 80 35 81 58 82 59 83 67 84 60 85 66 86
REMARK SMILES IDX 61 87 62 88 63 89 64 90 65 91 44 92 45 93 53 94 46 95 52 96
REMARK SMILES IDX 47 97 48 98 49 99 50 100 51 101
REMARK H PARENT 9 8 16 38 72 57 42 68
REMARK Flexibility Score: inf
ROOT
ATOM      1  C   UNL A   1      38.026  23.704  26.117  1.00  0.00     0.002 C 
ENDROOT
BRANCH   1   2
ATOM      2  C   UNL A   1      37.197  23.318  24.893  1.00  0.00     0.002 C 
BRANCH   2   3
ATOM      3  C   UNL A   1      37.206  21.825  24.573  1.00  0.00     0.021 C 
BRANCH   3   4
ATOM      4  C   UNL A   1      35.996  21.048  25.110  1.00  0.00     0.116 C 
BRANCH   4   5
ATOM      5  N   UNL A   1      35.560  21.479  26.431  1.00  0.00    -0.356 N 
ATOM      6  C   UNL A   1      34.347  21.588  27.031  1.00  0.00     0.226 C 
ATOM      7  O   UNL A   1      34.359  21.980  28.206  1.00  0.00    -0.275 OA
ATOM      8  H   UNL A   1      36.305  21.748  27.014  1.00  0.00     0.163 HD
BRANCH   6   9
ATOM      9  C   UNL A   1      32.985  21.304  26.378  1.00  0.00     0.113 C 
ATOM     10  C   UNL A   1      32.974  21.850  22.687  1.00  0.00     0.147 C 
ATOM     11  N   UNL A   1      32.854  21.370  24.052  1.00  0.00    -0.339 N 
ATOM     12  C   UNL A   1      32.959  20.019  24.364  1.00  0.00     0.223 C 
ATOM     13  C   UNL A   1      32.531  22.214  25.215  1.00  0.00     0.058 C 
ATOM     14  O   UNL A   1      33.126  19.100  23.585  1.00  0.00    -0.275 OA
ATOM     15  C   UNL A   1      32.880  19.870  25.857  1.00  0.00     0.116 C 
ATOM     16  C   UNL A   1      33.229  23.581  25.233  1.00  0.00     0.051 C 
ATOM     17  C   UNL A   1      30.991  22.462  25.207  1.00  0.00     0.051 C 
ATOM     18  C   UNL A   1      32.737  24.499  26.342  1.00  0.00     0.122 C 
ATOM     19  C   UNL A   1      30.509  23.511  26.216  1.00  0.00     0.122 C 
ATOM     20  N   UNL A   1      31.316  24.729  26.154  1.00  0.00    -0.338 N 
ATOM     21  C   UNL A   1      30.708  25.969  25.964  1.00  0.00     0.256 C 
ATOM     22  O   UNL A   1      29.491  26.110  25.857  1.00  0.00    -0.269 OA
BRANCH  21  23
ATOM     23  C   UNL A   1      31.525  27.211  25.946  1.00  0.00     0.065 A 
ATOM     24  C   UNL A   1      31.504  27.961  27.137  1.00  0.00     0.016 A 
ATOM     25  C   UNL A   1      32.327  27.647  24.879  1.00  0.00     0.077 A 
ATOM     26  C   UNL A   1      32.291  29.107  27.273  1.00  0.00     0.001 A 
ATOM     27  C   UNL A   1      33.161  28.770  25.050  1.00  0.00     0.029 A 
ATOM     28  C   UNL A   1      33.128  29.505  26.235  1.00  0.00     0.002 A 
BRANCH  25  29
ATOM     29  N   UNL A   1      32.331  27.029  23.606  1.00  0.00    -0.240 N 
ATOM     30  C   UNL A   1      31.306  26.924  22.694  1.00  0.00     0.115 A 
ATOM     31  N   UNL A   1      33.471  26.454  23.135  1.00  0.00    -0.177 NA
ATOM     32  C   UNL A   1      31.799  26.232  21.612  1.00  0.00     0.042 A 
ATOM     33  C   UNL A   1      33.130  25.946  21.950  1.00  0.00     0.135 A 
ENDBRANCH  25  29
ENDBRANCH  21  23
ENDBRANCH   6   9
ENDBRANCH   4   5
ENDBRANCH   3   4
ENDBRANCH   2   3
ENDBRANCH   1   2
BRANCH   1  34
ATOM     34  C   UNL A   1      39.095  22.683  26.515  1.00  0.00     0.021 C 
BRANCH  34  35
ATOM     35  C   UNL A   1      40.380  23.294  27.068  1.00  0.00     0.116 C 
BRANCH  35  36
ATOM     36  N   UNL A   1      41.107  24.029  26.046  1.00  0.00    -0.352 N 
ATOM     37  C   UNL A   1      41.463  25.355  26.023  1.00  0.00     0.251 C 
ATOM     38  H   UNL A   1      41.383  23.503  25.261  1.00  0.00     0.163 HD
ATOM     39  O   UNL A   1      41.842  25.875  24.980  1.00  0.00    -0.269 OA
BRANCH  37  40
ATOM     40  C   UNL A   1      41.372  26.147  27.266  1.00  0.00     0.039 A 
ATOM     41  C   UNL A   1      42.453  26.945  27.644  1.00  0.00     0.014 A 
ATOM     42  C   UNL A   1      40.211  26.110  28.044  1.00  0.00     0.014 A 
ATOM     43  C   UNL A   1      42.341  27.762  28.771  1.00  0.00     0.010 A 
ATOM     44  C   UNL A   1      40.076  26.977  29.123  1.00  0.00     0.010 A 
ATOM     45  C   UNL A   1      41.138  27.816  29.493  1.00  0.00    -0.014 A 
BRANCH  45  46
ATOM     46  C   UNL A   1      40.954  28.766  30.619  1.00  0.00     0.031 A 
ATOM     47  C   UNL A   1      41.808  28.661  31.851  1.00  0.00     0.074 A 
ATOM     48  C   UNL A   1      39.964  29.678  30.558  1.00  0.00     0.049 A 
ATOM     49  N   UNL A   1      41.751  29.360  32.955  1.00  0.00    -0.248 NA
ATOM     50  C   UNL A   1      42.850  27.622  31.848  1.00  0.00     0.031 C 
ATOM     51  C   UNL A   1      39.050  29.861  29.427  1.00  0.00     0.029 A 
ATOM     52  N   UNL A   1      39.556  30.620  31.468  1.00  0.00    -0.354 N 
ATOM     53  C   UNL A   1      42.739  28.841  33.783  1.00  0.00     0.074 A 
ATOM     54  C   UNL A   1      43.343  27.733  33.074  1.00  0.00     0.031 C 
ATOM     55  C   UNL A   1      38.213  30.875  29.697  1.00  0.00     0.029 A 
ATOM     56  C   UNL A   1      38.493  31.379  31.038  1.00  0.00     0.049 A 
ATOM     57  H   UNL A   1      39.985  30.742  32.346  1.00  0.00     0.167 HD
ATOM     58  C   UNL A   1      43.123  29.259  35.014  1.00  0.00     0.031 A 
ATOM     59  C   UNL A   1      37.811  32.362  31.656  1.00  0.00     0.031 A 
ATOM     60  C   UNL A   1      42.506  30.352  35.719  1.00  0.00     0.049 A 
ATOM     61  C   UNL A   1      38.214  32.772  33.044  1.00  0.00     0.074 A 
ATOM     62  C   UNL A   1      42.845  30.880  36.953  1.00  0.00     0.029 A 
ATOM     63  N   UNL A   1      41.415  31.077  35.261  1.00  0.00    -0.354 N 
ATOM     64  N   UNL A   1      39.194  32.313  33.787  1.00  0.00    -0.248 NA
ATOM     65  C   UNL A   1      37.423  33.835  33.679  1.00  0.00     0.031 C 
ATOM     66  C   UNL A   1      41.917  31.879  37.269  1.00  0.00     0.029 A 
ATOM     67  C   UNL A   1      41.044  32.022  36.203  1.00  0.00     0.049 A 
ATOM     68  H   UNL A   1      40.970  30.939  34.394  1.00  0.00     0.167 HD
ATOM     69  C   UNL A   1      39.152  33.047  34.966  1.00  0.00     0.074 A 
ATOM     70  C   UNL A   1      38.059  33.991  34.832  1.00  0.00     0.031 C 
ATOM     71  C   UNL A   1      39.947  32.950  36.061  1.00  0.00     0.031 A 
BRANCH  58  72
ATOM     72  C   UNL A   1      44.250  28.510  35.679  1.00  0.00    -0.014 A 
ATOM     73  C   UNL A   1      44.000  27.384  36.487  1.00  0.00     0.010 A 
ATOM     74  C   UNL A   1      45.579  28.929  35.488  1.00  0.00     0.010 A 
ATOM     75  C   UNL A   1      45.050  26.732  37.139  1.00  0.00     0.020 A 
ATOM     76  C   UNL A   1      46.636  28.259  36.111  1.00  0.00     0.020 A 
ATOM     77  C   UNL A   1      46.361  27.179  36.953  1.00  0.00     0.054 A 
BRANCH  77  78
ATOM     78  S   UNL A   1      47.702  26.322  37.824  1.00  0.00     0.124 S 
ATOM     79  O   UNL A   1      47.361  24.920  37.593  1.00  0.00    -0.237 OA
ATOM     80  O   UNL A   1      48.893  26.801  37.127  1.00  0.00    -0.237 OA
ATOM     81  O   UNL A   1      47.564  26.776  39.205  1.00  0.00    -0.744 OA
ENDBRANCH  77  78
ENDBRANCH  58  72
BRANCH  59  82
ATOM     82  C   UNL A   1      36.689  33.040  30.949  1.00  0.00    -0.014 A 
ATOM     83  C   UNL A   1      35.365  32.867  31.390  1.00  0.00     0.010 A 
ATOM     84  C   UNL A   1      36.939  33.892  29.857  1.00  0.00     0.010 A 
ATOM     85  C   UNL A   1      34.314  33.528  30.751  1.00  0.00     0.020 A 
ATOM     86  C   UNL A   1      35.893  34.577  29.233  1.00  0.00     0.020 A 
ATOM     87  C   UNL A   1      34.585  34.386  29.681  1.00  0.00     0.054 A 
BRANCH  87  88
ATOM     88  S   UNL A   1      33.209  35.287  28.916  1.00  0.00     0.124 S 
ATOM     89  O   UNL A   1      32.614  34.266  28.060  1.00  0.00    -0.237 OA
ATOM     90  O   UNL A   1      32.413  35.684  30.075  1.00  0.00    -0.237 OA
ATOM     91  O   UNL A   1      33.867  36.387  28.216  1.00  0.00    -0.744 OA
ENDBRANCH  87  88
ENDBRANCH  59  82
BRANCH  71  92
ATOM     92  C   UNL A   1      39.684  33.901  37.198  1.00  0.00    -0.014 A 
ATOM     93  C   UNL A   1      38.854  33.542  38.273  1.00  0.00     0.010 A 
ATOM     94  C   UNL A   1      40.334  35.150  37.224  1.00  0.00     0.010 A 
ATOM     95  C   UNL A   1      38.661  34.420  39.343  1.00  0.00     0.020 A 
ATOM     96  C   UNL A   1      40.169  36.018  38.305  1.00  0.00     0.020 A 
ATOM     97  C   UNL A   1      39.326  35.650  39.355  1.00  0.00     0.054 A 
BRANCH  97  98
ATOM     98  S   UNL A   1      39.111  36.743  40.787  1.00  0.00     0.124 S 
ATOM     99  O   UNL A   1      38.326  37.836  40.222  1.00  0.00    -0.237 OA
ATOM    100  O   UNL A   1      38.403  35.887  41.737  1.00  0.00    -0.237 OA
ATOM    101  O   UNL A   1      40.477  37.089  41.169  1.00  0.00    -0.744 OA
ENDBRANCH  97  98
ENDBRANCH  71  92
ENDBRANCH  45  46
ENDBRANCH  37  40
ENDBRANCH  35  36
ENDBRANCH  34  35
ENDBRANCH   1  34
TORSDOF 18
ENDMDL
MODEL 2
REMARK VINA RESULT:     -12.6      1.322      2.336
REMARK SMILES CN1C(=O)C[C@@H](C(=O)NCCCCCCNC(=O)c2ccc(-c3c4nc(c(-c5ccc(S(=O)(=O)[O-])cc5)c5ccc([nH]5)c(-c5ccc(S(=O)(=O)[O-])cc5)c5nc(c(-c6ccc(S(=O)(=O)[O-])cc6)c6ccc3[nH]6)C=C5)C=C4)cc2)C12CCN(C(=O)c1ccccc1-n1cccn1)CC2
REMARK SMILES IDX 13 1 12 2 11 3 10 4 9 5 7 6 8 7 6 9 1 10 2 11 3 12 79 13
REMARK SMILES IDX 4 14 5 15 80 16 97 17 81 18 96 19 82 20 83 21 84 22 85 23
REMARK SMILES IDX 86 24 90 25 87 26 89 27 88 28 91 29 92 30 95 31 93 32 94 33
REMARK SMILES IDX 14 34 15 35 16 36 17 37 18 39 19 40 20 41 78 42 21 43 77 44
REMARK SMILES IDX 22 45 23 46 24 47 71 48 25 49 76 50 70 51 72 52 26 53 75 54
REMARK SMILES IDX 69 55 68 56 27 58 57 59 38 60 56 61 39 62 42 63 55 64 73 65
REMARK SMILES IDX 40 66 41 67 54 69 74 70 43 71 28 72 29 73 37 74 30 75 36 76
REMARK SMILES IDX 31 77 32 78 33 79 34 80 35 81 58 82 59 83 67 84 60 85 66 86
REMARK SMILES IDX 61 87 62 88 63 89 64 90 65 91 44 92 45 93 53 94 46 95 52 96
REMARK SMILES IDX 47 97 48 98 49 99 50 100 51 101
REMARK H PARENT 9 8 16 38 72 57 42 68
REMARK Flexibility Score: inf
ROOT
ATOM      1  C   UNL A   1      40.758  21.741  27.639  1.00  0.00     0.002 C 
ENDROOT
BRANCH   1   2
ATOM      2  C   UNL A   1      40.122  22.238  26.343  1.00  0.00     0.002 C 
BRANCH   2   3
ATOM      3  C   UNL A   1      38.614  22.460  26.427  1.00  0.00     0.021 C 
BRANCH   3   4
ATOM      4  C   UNL A   1      38.117  23.743  25.748  1.00  0.00     0.116 C 
BRANCH   4   5
ATOM      5  N   UNL A   1      37.430  23.512  24.485  1.00  0.00    -0.356 N 
ATOM      6  C   UNL A   1      36.229  22.972  24.152  1.00  0.00     0.226 C 
ATOM      7  O   UNL A   1      35.960  22.959  22.943  1.00  0.00    -0.275 OA
ATOM      8  H   UNL A   1      37.948  23.813  23.703  1.00  0.00     0.163 HD
BRANCH   6   9
ATOM      9  C   UNL A   1      35.212  22.358  25.127  1.00  0.00     0.113 C 
ATOM     10  C   UNL A   1      32.275  20.816  23.419  1.00  0.00     0.147 C 
ATOM     11  N   UNL A   1      33.431  21.150  24.231  1.00  0.00    -0.339 N 
ATOM     12  C   UNL A   1      34.353  20.187  24.625  1.00  0.00     0.223 C 
ATOM     13  C   UNL A   1      33.710  22.486  24.786  1.00  0.00     0.058 C 
ATOM     14  O   UNL A   1      34.309  18.995  24.388  1.00  0.00    -0.275 OA
ATOM     15  C   UNL A   1      35.464  20.871  25.369  1.00  0.00     0.116 C 
ATOM     16  C   UNL A   1      33.421  23.654  23.833  1.00  0.00     0.051 C 
ATOM     17  C   UNL A   1      32.817  22.668  26.052  1.00  0.00     0.051 C 
ATOM     18  C   UNL A   1      33.542  25.020  24.494  1.00  0.00     0.122 C 
ATOM     19  C   UNL A   1      32.807  24.089  26.627  1.00  0.00     0.122 C 
ATOM     20  N   UNL A   1      32.586  25.090  25.584  1.00  0.00    -0.338 N 
ATOM     21  C   UNL A   1      31.555  26.020  25.708  1.00  0.00     0.256 C 
ATOM     22  O   UNL A   1      30.801  26.063  26.679  1.00  0.00    -0.269 OA
BRANCH  21  23
ATOM     23  C   UNL A   1      31.358  27.065  24.668  1.00  0.00     0.065 A 
ATOM     24  C   UNL A   1      30.578  26.674  23.564  1.00  0.00     0.016 A 
ATOM     25  C   UNL A   1      31.838  28.383  24.731  1.00  0.00     0.077 A 
ATOM     26  C   UNL A   1      30.256  27.586  22.556  1.00  0.00     0.001 A 
ATOM     27  C   UNL A   1      31.457  29.309  23.740  1.00  0.00     0.029 A 
ATOM     28  C   UNL A   1      30.685  28.906  22.650  1.00  0.00     0.002 A 
BRANCH  25  29
ATOM     29  N   UNL A   1      32.721  28.842  25.737  1.00  0.00    -0.240 N 
ATOM     30  C   UNL A   1      33.971  28.372  26.068  1.00  0.00     0.115 A 
ATOM     31  N   UNL A   1      32.370  29.901  26.516  1.00  0.00    -0.177 NA
ATOM     32  C   UNL A   1      34.426  29.140  27.115  1.00  0.00     0.042 A 
ATOM     33  C   UNL A   1      33.388  30.050  27.365  1.00  0.00     0.135 A 
ENDBRANCH  25  29
ENDBRANCH  21  23
ENDBRANCH   6   9
ENDBRANCH   4   5
ENDBRANCH   3   4
ENDBRANCH   2   3
ENDBRANCH   1   2
BRANCH   1  34
ATOM     34  C   UNL A   1      42.281  21.587  27.589  1.00  0.00     0.021 C 
BRANCH  34  35
ATOM     35  C   UNL A   1      43.054  22.899  27.684  1.00  0.00     0.116 C 
BRANCH  35  36
ATOM     36  N   UNL A   1      43.183  23.540  26.385  1.00  0.00    -0.352 N 
ATOM     37  C   UNL A   1      42.766  24.787  25.991  1.00  0.00     0.251 C 
ATOM     38  H   UNL A   1      43.632  23.004  25.691  1.00  0.00     0.163 HD
ATOM     39  O   UNL A   1      42.718  25.075  24.800  1.00  0.00    -0.269 OA
BRANCH  37  40
ATOM     40  C   UNL A   1      42.368  25.771  27.016  1.00  0.00     0.039 A 
ATOM     41  C   UNL A   1      41.286  25.484  27.851  1.00  0.00     0.014 A 
ATOM     42  C   UNL A   1      43.077  26.968  27.160  1.00  0.00     0.014 A 
ATOM     43  C   UNL A   1      40.958  26.371  28.878  1.00  0.00     0.010 A 
ATOM     44  C   UNL A   1      42.794  27.813  28.228  1.00  0.00     0.010 A 
ATOM     45  C   UNL A   1      41.735  27.520  29.101  1.00  0.00    -0.014 A 
BRANCH  45  46
ATOM     46  C   UNL A   1      41.481  28.412  30.260  1.00  0.00     0.031 A 
ATOM     47  C   UNL A   1      42.310  28.293  31.508  1.00  0.00     0.074 A 
ATOM     48  C   UNL A   1      40.451  29.280  30.212  1.00  0.00     0.049 A 
ATOM     49  N   UNL A   1      42.194  28.940  32.639  1.00  0.00    -0.248 NA
ATOM     50  C   UNL A   1      43.398  27.302  31.489  1.00  0.00     0.031 C 
ATOM     51  C   UNL A   1      39.557  29.469  29.067  1.00  0.00     0.029 A 
ATOM     52  N   UNL A   1      39.979  30.163  31.150  1.00  0.00    -0.354 N 
ATOM     53  C   UNL A   1      43.186  28.431  33.469  1.00  0.00     0.074 A 
ATOM     54  C   UNL A   1      43.856  27.383  32.730  1.00  0.00     0.031 C 
ATOM     55  C   UNL A   1      38.668  30.431  29.358  1.00  0.00     0.029 A 
ATOM     56  C   UNL A   1      38.892  30.890  30.725  1.00  0.00     0.049 A 
ATOM     57  H   UNL A   1      40.381  30.266  32.043  1.00  0.00     0.167 HD
ATOM     58  C   UNL A   1      43.520  28.813  34.726  1.00  0.00     0.031 A 
ATOM     59  C   UNL A   1      38.151  31.814  31.365  1.00  0.00     0.031 A 
ATOM     60  C   UNL A   1      42.837  29.846  35.460  1.00  0.00     0.049 A 
ATOM     61  C   UNL A   1      38.502  32.182  32.780  1.00  0.00     0.074 A 
ATOM     62  C   UNL A   1      43.122  30.336  36.723  1.00  0.00     0.029 A 
ATOM     63  N   UNL A   1      41.725  30.539  35.005  1.00  0.00    -0.354 N 
ATOM     64  N   UNL A   1      39.484  31.736  33.527  1.00  0.00    -0.248 NA
ATOM     65  C   UNL A   1      37.648  33.180  33.437  1.00  0.00     0.031 C 
ATOM     66  C   UNL A   1      42.142  31.277  37.057  1.00  0.00     0.029 A 
ATOM     67  C   UNL A   1      41.288  31.426  35.975  1.00  0.00     0.049 A 
ATOM     68  H   UNL A   1      41.307  30.419  34.121  1.00  0.00     0.167 HD
ATOM     69  C   UNL A   1      39.380  32.416  34.735  1.00  0.00     0.074 A 
ATOM     70  C   UNL A   1      38.249  33.315  34.612  1.00  0.00     0.031 C 
ATOM     71  C   UNL A   1      40.154  32.308  35.844  1.00  0.00     0.031 A 
BRANCH  58  72
ATOM     72  C   UNL A   1      44.664  28.088  35.387  1.00  0.00    -0.014 A 
ATOM     73  C   UNL A   1      45.984  28.572  35.298  1.00  0.00     0.010 A 
ATOM     74  C   UNL A   1      44.420  26.911  36.119  1.00  0.00     0.010 A 
ATOM     75  C   UNL A   1      47.041  27.861  35.871  1.00  0.00     0.020 A 
ATOM     76  C   UNL A   1      45.470  26.215  36.724  1.00  0.00     0.020 A 
ATOM     77  C   UNL A   1      46.778  26.682  36.574  1.00  0.00     0.054 A 
BRANCH  77  78
ATOM     78  S   UNL A   1      48.172  25.772  37.296  1.00  0.00     0.124 S 
ATOM     79  O   UNL A   1      49.011  26.858  37.798  1.00  0.00    -0.237 OA
ATOM     80  O   UNL A   1      47.525  24.954  38.318  1.00  0.00    -0.237 OA
ATOM     81  O   UNL A   1      48.725  25.032  36.165  1.00  0.00    -0.744 OA
ENDBRANCH  77  78
ENDBRANCH  58  72
BRANCH  59  82
ATOM     82  C   UNL A   1      37.016  32.470  30.659  1.00  0.00    -0.014 A 
ATOM     83  C   UNL A   1      35.699  32.026  30.869  1.00  0.00     0.010 A 
ATOM     84  C   UNL A   1      37.240  33.566  29.804  1.00  0.00     0.010 A 
ATOM     85  C   UNL A   1      34.628  32.661  30.235  1.00  0.00     0.020 A 
ATOM     86  C   UNL A   1      36.170  34.221  29.190  1.00  0.00     0.020 A 
ATOM     87  C   UNL A   1      34.869  33.761  29.405  1.00  0.00     0.054 A 
BRANCH  87  88
ATOM     88  S   UNL A   1      33.455  34.611  28.652  1.00  0.00     0.124 S 
ATOM     89  O   UNL A   1      34.094  35.751  28.005  1.00  0.00    -0.237 OA
ATOM     90  O   UNL A   1      32.921  33.591  27.752  1.00  0.00    -0.237 OA
ATOM     91  O   UNL A   1      32.602  34.933  29.792  1.00  0.00    -0.744 OA
ENDBRANCH  87  88
ENDBRANCH  59  82
BRANCH  71  92
ATOM     92  C   UNL A   1      39.820  33.198  37.013  1.00  0.00    -0.014 A 
ATOM     93  C   UNL A   1      38.925  32.782  38.014  1.00  0.00     0.010 A 
ATOM     94  C   UNL A   1      40.466  34.442  37.146  1.00  0.00     0.010 A 
ATOM     95  C   UNL A   1      38.667  33.602  39.116  1.00  0.00     0.020 A 
ATOM     96  C   UNL A   1      40.234  35.250  38.261  1.00  0.00     0.020 A 
ATOM     97  C   UNL A   1      39.328  34.828  39.236  1.00  0.00     0.054 A 
BRANCH  97  98
ATOM     98  S   UNL A   1      39.024  35.842  40.709  1.00  0.00     0.124 S 
ATOM     99  O   UNL A   1      37.957  35.100  41.375  1.00  0.00    -0.237 OA
ATOM    100  O   UNL A   1      40.320  35.820  41.383  1.00  0.00    -0.237 OA
ATOM    101  O   UNL A   1      38.634  37.140  40.164  1.00  0.00    -0.744 OA
ENDBRANCH  97  98
ENDBRANCH  71  92
ENDBRANCH  45  46
ENDBRANCH  37  40
ENDBRANCH  35  36
ENDBRANCH  34  35
ENDBRANCH   1  34
TORSDOF 18
ENDMDL
MODEL 3
REMARK VINA RESULT:     -12.5      0.476      7.767
REMARK SMILES CN1C(=O)C[C@@H](C(=O)NCCCCCCNC(=O)c2ccc(-c3c4nc(c(-c5ccc(S(=O)(=O)[O-])cc5)c5ccc([nH]5)c(-c5ccc(S(=O)(=O)[O-])cc5)c5nc(c(-c6ccc(S(=O)(=O)[O-])cc6)c6ccc3[nH]6)C=C5)C=C4)cc2)C12CCN(C(=O)c1ccccc1-n1cccn1)CC2
REMARK SMILES IDX 13 1 12 2 11 3 10 4 9 5 7 6 8 7 6 9 1 10 2 11 3 12 79 13
REMARK SMILES IDX 4 14 5 15 80 16 97 17 81 18 96 19 82 20 83 21 84 22 85 23
REMARK SMILES IDX 86 24 90 25 87 26 89 27 88 28 91 29 92 30 95 31 93 32 94 33
REMARK SMILES IDX 14 34 15 35 16 36 17 37 18 39 19 40 20 41 78 42 21 43 77 44
REMARK SMILES IDX 22 45 23 46 24 47 71 48 25 49 76 50 70 51 72 52 26 53 75 54
REMARK SMILES IDX 69 55 68 56 27 58 57 59 38 60 56 61 39 62 42 63 55 64 73 65
REMARK SMILES IDX 40 66 41 67 54 69 74 70 43 71 28 72 29 73 37 74 30 75 36 76
REMARK SMILES IDX 31 77 32 78 33 79 34 80 35 81 58 82 59 83 67 84 60 85 66 86
REMARK SMILES IDX 61 87 62 88 63 89 64 90 65 91 44 92 45 93 53 94 46 95 52 96
REMARK SMILES IDX 47 97 48 98 49 99 50 100 51 101
REMARK H PARENT 9 8 16 38 72 57 42 68
REMARK Flexibility Score: inf
ROOT
ATOM      1  C   UNL A   1      39.727  21.796  26.140  1.00  0.00     0.002 C 
ENDROOT
BRANCH   1   2
ATOM      2  C   UNL A   1      38.289  22.157  25.770  1.00  0.00     0.002 C 
BRANCH   2   3
ATOM      3  C   UNL A   1      37.582  21.114  24.908  1.00  0.00     0.021 C 
BRANCH   3   4
ATOM      4  C   UNL A   1      36.062  21.038  25.113  1.00  0.00     0.116 C 
BRANCH   4   5
ATOM      5  N   UNL A   1      35.623  21.485  26.427  1.00  0.00    -0.356 N 
ATOM      6  C   UNL A   1      34.409  21.614  27.020  1.00  0.00     0.226 C 
ATOM      7  O   UNL A   1      34.419  22.016  28.191  1.00  0.00    -0.275 OA
ATOM      8  H   UNL A   1      36.369  21.752  27.012  1.00  0.00     0.163 HD
BRANCH   6   9
ATOM      9  C   UNL A   1      33.047  21.337  26.362  1.00  0.00     0.113 C 
ATOM     10  C   UNL A   1      33.047  21.904  22.674  1.00  0.00     0.147 C 
ATOM     11  N   UNL A   1      32.922  21.416  24.036  1.00  0.00    -0.339 N 
ATOM     12  C   UNL A   1      33.022  20.063  24.341  1.00  0.00     0.223 C 
ATOM     13  C   UNL A   1      32.599  22.255  25.203  1.00  0.00     0.058 C 
ATOM     14  O   UNL A   1      33.187  19.148  23.557  1.00  0.00    -0.275 OA
ATOM     15  C   UNL A   1      32.939  19.907  25.833  1.00  0.00     0.116 C 
ATOM     16  C   UNL A   1      33.302  23.620  25.230  1.00  0.00     0.051 C 
ATOM     17  C   UNL A   1      31.060  22.508  25.193  1.00  0.00     0.051 C 
ATOM     18  C   UNL A   1      32.810  24.533  26.344  1.00  0.00     0.122 C 
ATOM     19  C   UNL A   1      30.579  23.553  26.206  1.00  0.00     0.122 C 
ATOM     20  N   UNL A   1      31.391  24.769  26.153  1.00  0.00    -0.338 N 
ATOM     21  C   UNL A   1      30.786  26.012  25.969  1.00  0.00     0.256 C 
ATOM     22  O   UNL A   1      29.570  26.158  25.859  1.00  0.00    -0.269 OA
BRANCH  21  23
ATOM     23  C   UNL A   1      31.608  27.251  25.959  1.00  0.00     0.065 A 
ATOM     24  C   UNL A   1      31.564  28.010  27.144  1.00  0.00     0.016 A 
ATOM     25  C   UNL A   1      32.434  27.677  24.907  1.00  0.00     0.077 A 
ATOM     26  C   UNL A   1      32.351  29.155  27.289  1.00  0.00     0.001 A 
ATOM     27  C   UNL A   1      33.267  28.799  25.088  1.00  0.00     0.029 A 
ATOM     28  C   UNL A   1      33.211  29.542  26.267  1.00  0.00     0.002 A 
BRANCH  25  29
ATOM     29  N   UNL A   1      32.463  27.051  23.638  1.00  0.00    -0.240 N 
ATOM     30  C   UNL A   1      33.525  26.464  22.990  1.00  0.00     0.115 A 
ATOM     31  N   UNL A   1      31.322  26.956  22.902  1.00  0.00    -0.177 NA
ATOM     32  C   UNL A   1      33.055  26.001  21.783  1.00  0.00     0.042 A 
ATOM     33  C   UNL A   1      31.698  26.354  21.772  1.00  0.00     0.135 A 
ENDBRANCH  25  29
ENDBRANCH  21  23
ENDBRANCH   6   9
ENDBRANCH   4   5
ENDBRANCH   3   4
ENDBRANCH   2   3
ENDBRANCH   1   2
BRANCH   1  34
ATOM     34  C   UNL A   1      40.221  22.402  27.457  1.00  0.00     0.021 C 
BRANCH  34  35
ATOM     35  C   UNL A   1      41.550  23.145  27.353  1.00  0.00     0.116 C 
BRANCH  35  36
ATOM     36  N   UNL A   1      41.559  24.073  26.234  1.00  0.00    -0.352 N 
ATOM     37  C   UNL A   1      41.279  25.416  26.222  1.00  0.00     0.251 C 
ATOM     38  H   UNL A   1      41.800  23.682  25.362  1.00  0.00     0.163 HD
ATOM     39  O   UNL A   1      41.079  25.997  25.161  1.00  0.00    -0.269 OA
BRANCH  37  40
ATOM     40  C   UNL A   1      41.211  26.149  27.501  1.00  0.00     0.039 A 
ATOM     41  C   UNL A   1      42.258  27.004  27.852  1.00  0.00     0.014 A 
ATOM     42  C   UNL A   1      40.103  26.002  28.342  1.00  0.00     0.014 A 
ATOM     43  C   UNL A   1      42.160  27.766  29.018  1.00  0.00     0.010 A 
ATOM     44  C   UNL A   1      39.976  26.814  29.464  1.00  0.00     0.010 A 
ATOM     45  C   UNL A   1      41.001  27.708  29.810  1.00  0.00    -0.014 A 
BRANCH  45  46
ATOM     46  C   UNL A   1      40.823  28.598  30.985  1.00  0.00     0.031 A 
ATOM     47  C   UNL A   1      39.770  29.669  30.976  1.00  0.00     0.074 A 
ATOM     48  C   UNL A   1      41.665  28.484  32.031  1.00  0.00     0.049 A 
ATOM     49  N   UNL A   1      39.510  30.577  31.882  1.00  0.00    -0.248 NA
ATOM     50  C   UNL A   1      38.909  29.743  29.784  1.00  0.00     0.031 C 
ATOM     51  C   UNL A   1      42.745  27.501  32.146  1.00  0.00     0.029 A 
ATOM     52  N   UNL A   1      41.747  29.205  33.197  1.00  0.00    -0.354 N 
ATOM     53  C   UNL A   1      38.464  31.335  31.368  1.00  0.00     0.074 A 
ATOM     54  C   UNL A   1      38.177  30.815  30.048  1.00  0.00     0.031 C 
ATOM     55  C   UNL A   1      43.359  27.659  33.330  1.00  0.00     0.029 A 
ATOM     56  C   UNL A   1      42.753  28.784  34.034  1.00  0.00     0.049 A 
ATOM     57  H   UNL A   1      41.143  29.951  33.413  1.00  0.00     0.167 HD
ATOM     58  C   UNL A   1      37.792  32.359  31.949  1.00  0.00     0.031 A 
ATOM     59  C   UNL A   1      43.153  29.257  35.231  1.00  0.00     0.031 A 
ATOM     60  C   UNL A   1      38.096  32.880  33.256  1.00  0.00     0.049 A 
ATOM     61  C   UNL A   1      42.432  30.432  35.831  1.00  0.00     0.074 A 
ATOM     62  C   UNL A   1      37.451  33.888  33.951  1.00  0.00     0.029 A 
ATOM     63  N   UNL A   1      39.139  32.445  34.060  1.00  0.00    -0.354 N 
ATOM     64  N   UNL A   1      41.403  31.096  35.359  1.00  0.00    -0.248 NA
ATOM     65  C   UNL A   1      42.923  30.919  37.127  1.00  0.00     0.031 C 
ATOM     66  C   UNL A   1      38.145  34.108  35.145  1.00  0.00     0.029 A 
ATOM     67  C   UNL A   1      39.179  33.189  35.228  1.00  0.00     0.049 A 
ATOM     68  H   UNL A   1      39.760  31.715  33.835  1.00  0.00     0.167 HD
ATOM     69  C   UNL A   1      41.108  32.064  36.312  1.00  0.00     0.074 A 
ATOM     70  C   UNL A   1      42.058  31.889  37.393  1.00  0.00     0.031 C 
ATOM     71  C   UNL A   1      40.137  33.011  36.293  1.00  0.00     0.031 A 
BRANCH  58  72
ATOM     72  C   UNL A   1      36.677  32.992  31.156  1.00  0.00    -0.014 A 
ATOM     73  C   UNL A   1      36.945  33.762  30.007  1.00  0.00     0.010 A 
ATOM     74  C   UNL A   1      35.341  32.809  31.555  1.00  0.00     0.010 A 
ATOM     75  C   UNL A   1      35.906  34.386  29.313  1.00  0.00     0.020 A 
ATOM     76  C   UNL A   1      34.295  33.403  30.843  1.00  0.00     0.020 A 
ATOM     77  C   UNL A   1      34.587  34.209  29.741  1.00  0.00     0.054 A 
BRANCH  77  78
ATOM     78  S   UNL A   1      33.259  35.043  28.828  1.00  0.00     0.124 S 
ATOM     79  O   UNL A   1      32.807  33.988  27.925  1.00  0.00    -0.237 OA
ATOM     80  O   UNL A   1      32.322  35.407  29.888  1.00  0.00    -0.237 OA
ATOM     81  O   UNL A   1      33.934  36.166  28.183  1.00  0.00    -0.744 OA
ENDBRANCH  77  78
ENDBRANCH  58  72
BRANCH  59  82
ATOM     82  C   UNL A   1      44.281  28.600  35.946  1.00  0.00    -0.014 A 
ATOM     83  C   UNL A   1      45.598  29.058  35.765  1.00  0.00     0.010 A 
ATOM     84  C   UNL A   1      44.044  27.539  36.839  1.00  0.00     0.010 A 
ATOM     85  C   UNL A   1      46.655  28.466  36.461  1.00  0.00     0.020 A 
ATOM     86  C   UNL A   1      45.094  26.963  37.558  1.00  0.00     0.020 A 
ATOM     87  C   UNL A   1      46.396  27.427  37.359  1.00  0.00     0.054 A 
BRANCH  87  88
ATOM     88  S   UNL A   1      47.778  26.725  38.302  1.00  0.00     0.124 S 
ATOM     89  O   UNL A   1      47.351  26.947  39.679  1.00  0.00    -0.237 OA
ATOM     90  O   UNL A   1      47.783  25.333  37.858  1.00  0.00    -0.237 OA
ATOM     91  O   UNL A   1      48.926  27.515  37.866  1.00  0.00    -0.744 OA
ENDBRANCH  87  88
ENDBRANCH  59  82
BRANCH  71  92
ATOM     92  C   UNL A   1      40.034  33.924  37.487  1.00  0.00    -0.014 A 
ATOM     93  C   UNL A   1      40.759  35.127  37.551  1.00  0.00     0.010 A 
ATOM     94  C   UNL A   1      39.143  33.606  38.530  1.00  0.00     0.010 A 
ATOM     95  C   UNL A   1      40.612  35.984  38.645  1.00  0.00     0.020 A 
ATOM     96  C   UNL A   1      38.970  34.474  39.610  1.00  0.00     0.020 A 
ATOM     97  C   UNL A   1      39.713  35.655  39.664  1.00  0.00     0.054 A 
BRANCH  97  98
ATOM     98  S   UNL A   1      39.492  36.817  41.039  1.00  0.00     0.124 S 
ATOM     99  O   UNL A   1      38.870  35.974  42.055  1.00  0.00    -0.237 OA
ATOM    100  O   UNL A   1      40.862  37.237  41.324  1.00  0.00    -0.237 OA
ATOM    101  O   UNL A   1      38.632  37.858  40.481  1.00  0.00    -0.744 OA
ENDBRANCH  97  98
ENDBRANCH  71  92
ENDBRANCH  45  46
ENDBRANCH  37  40
ENDBRANCH  35  36
ENDBRANCH  34  35
ENDBRANCH   1  34
TORSDOF 18
ENDMDL
