MODEL 1
REMARK VINA RESULT:      -9.6      0.000      0.000
REMARK SMILES COC[C@H](C)[C@H](CC(C)C)C(=O)NCCCCCCNC(=O)c1ccc(-c2c3nc(c(-c4ccc(S(=O)(=O)[O-])cc4)c4ccc([nH]4)c(-c4ccc(S(=O)(=O)[O-])cc4)c4nc(c(-c5ccc(S(=O)(=O)[O-])cc5)c5ccc2[nH]5)C=C4)C=C3)cc1
REMARK SMILES IDX 16 1 15 2 14 3 13 4 11 5 12 6 6 8 4 9 5 10 3 11 2 12 1 13
REMARK SMILES IDX 7 14 8 15 9 16 10 17 17 18 18 19 19 20 20 21 21 22 22 24
REMARK SMILES IDX 23 25 24 26 82 27 25 28 81 29 26 30 27 31 28 32 75 33 29 34
REMARK SMILES IDX 80 35 74 36 76 37 30 38 79 39 73 40 72 41 31 43 61 44 42 45
REMARK SMILES IDX 60 46 43 47 46 48 59 49 77 50 44 51 45 52 58 54 78 55 47 56
REMARK SMILES IDX 32 57 33 58 41 59 34 60 40 61 35 62 36 63 37 64 38 65 39 66
REMARK SMILES IDX 62 67 63 68 71 69 64 70 70 71 65 72 66 73 67 74 68 75 69 76
REMARK SMILES IDX 48 77 49 78 57 79 50 80 56 81 51 82 52 83 53 84 54 85 55 86
REMARK H PARENT 13 7 20 23 76 42 46 53
REMARK Flexibility Score: inf
ROOT
ATOM      1  C   UNL A   1      36.922  22.450  24.087  1.00  0.00     0.002 C 
ENDROOT
BRANCH   1   2
ATOM      2  C   UNL A   1      35.766  22.976  23.231  1.00  0.00     0.021 C 
BRANCH   2   3
ATOM      3  C   UNL A   1      34.642  23.608  24.036  1.00  0.00     0.116 C 
BRANCH   3   4
ATOM      4  N   UNL A   1      34.088  24.797  23.412  1.00  0.00    -0.356 N 
ATOM      5  C   UNL A   1      33.192  25.717  23.868  1.00  0.00     0.223 C 
ATOM      6  O   UNL A   1      33.044  26.740  23.191  1.00  0.00    -0.275 OA
ATOM      7  H   UNL A   1      34.418  24.969  22.501  1.00  0.00     0.163 HD
BRANCH   5   8
ATOM      8  C   UNL A   1      32.411  25.543  25.179  1.00  0.00     0.084 C 
BRANCH   8   9
ATOM      9  C   UNL A   1      30.871  25.496  24.940  1.00  0.00     0.024 C 
ATOM     10  C   UNL A   1      30.492  24.538  23.802  1.00  0.00     0.011 C 
BRANCH   9  11
ATOM     11  C   UNL A   1      29.999  25.176  26.164  1.00  0.00     0.163 C 
BRANCH  11  12
ATOM     12  O   UNL A   1      30.639  24.236  27.034  1.00  0.00    -0.384 OA
ATOM     13  C   UNL A   1      30.217  22.896  26.779  1.00  0.00     0.194 C 
ENDBRANCH  11  12
ENDBRANCH   9  11
ENDBRANCH   8   9
BRANCH   8  14
ATOM     14  C   UNL A   1      32.953  26.427  26.322  1.00  0.00     0.017 C 
BRANCH  14  15
ATOM     15  C   UNL A   1      32.565  27.922  26.284  1.00  0.00    -0.017 C 
ATOM     16  C   UNL A   1      31.697  28.349  27.471  1.00  0.00     0.007 C 
ATOM     17  C   UNL A   1      33.847  28.764  26.279  1.00  0.00     0.007 C 
ENDBRANCH  14  15
ENDBRANCH   8  14
ENDBRANCH   5   8
ENDBRANCH   3   4
ENDBRANCH   2   3
ENDBRANCH   1   2
BRANCH   1  18
ATOM     18  C   UNL A   1      37.232  23.251  25.357  1.00  0.00     0.002 C 
BRANCH  18  19
ATOM     19  C   UNL A   1      38.483  22.823  26.132  1.00  0.00     0.021 C 
BRANCH  19  20
ATOM     20  C   UNL A   1      39.260  23.960  26.786  1.00  0.00     0.116 C 
BRANCH  20  21
ATOM     21  N   UNL A   1      40.258  24.525  25.897  1.00  0.00    -0.352 N 
ATOM     22  C   UNL A   1      40.973  25.689  26.016  1.00  0.00     0.251 C 
ATOM     23  H   UNL A   1      40.450  23.995  25.090  1.00  0.00     0.163 HD
ATOM     24  O   UNL A   1      41.646  26.089  25.072  1.00  0.00    -0.269 OA
BRANCH  22  25
ATOM     25  C   UNL A   1      40.913  26.470  27.272  1.00  0.00     0.039 A 
ATOM     26  C   UNL A   1      41.694  27.621  27.380  1.00  0.00     0.014 A 
ATOM     27  C   UNL A   1      40.103  26.068  28.339  1.00  0.00     0.014 A 
ATOM     28  C   UNL A   1      41.622  28.400  28.535  1.00  0.00     0.010 A 
ATOM     29  C   UNL A   1      39.975  26.885  29.460  1.00  0.00     0.010 A 
ATOM     30  C   UNL A   1      40.736  28.058  29.571  1.00  0.00    -0.014 A 
BRANCH  30  31
ATOM     31  C   UNL A   1      40.586  28.932  30.763  1.00  0.00     0.031 A 
ATOM     32  C   UNL A   1      39.537  30.011  30.794  1.00  0.00     0.074 A 
ATOM     33  C   UNL A   1      41.427  28.775  31.806  1.00  0.00     0.049 A 
ATOM     34  N   UNL A   1      39.274  30.875  31.740  1.00  0.00    -0.248 NA
ATOM     35  C   UNL A   1      38.685  30.151  29.601  1.00  0.00     0.031 C 
ATOM     36  C   UNL A   1      42.512  27.793  31.879  1.00  0.00     0.029 A 
ATOM     37  N   UNL A   1      41.502  29.437  33.006  1.00  0.00    -0.354 N 
ATOM     38  C   UNL A   1      38.235  31.662  31.259  1.00  0.00     0.074 A 
ATOM     39  C   UNL A   1      37.950  31.209  29.916  1.00  0.00     0.031 C 
ATOM     40  C   UNL A   1      43.120  27.895  33.071  1.00  0.00     0.029 A 
ATOM     41  C   UNL A   1      42.501  28.975  33.831  1.00  0.00     0.049 A 
ATOM     42  H   UNL A   1      40.896  30.172  33.254  1.00  0.00     0.167 HD
ATOM     43  C   UNL A   1      37.562  32.656  31.886  1.00  0.00     0.031 A 
ATOM     44  C   UNL A   1      42.882  29.379  35.058  1.00  0.00     0.031 A 
ATOM     45  C   UNL A   1      37.845  33.102  33.226  1.00  0.00     0.049 A 
ATOM     46  C   UNL A   1      42.132  30.503  35.722  1.00  0.00     0.074 A 
ATOM     47  C   UNL A   1      37.190  34.070  33.967  1.00  0.00     0.029 A 
ATOM     48  N   UNL A   1      38.867  32.612  34.026  1.00  0.00    -0.354 N 
ATOM     49  N   UNL A   1      41.106  31.187  35.275  1.00  0.00    -0.248 NA
ATOM     50  C   UNL A   1      42.585  30.900  37.062  1.00  0.00     0.031 C 
ATOM     51  C   UNL A   1      37.851  34.208  35.190  1.00  0.00     0.029 A 
ATOM     52  C   UNL A   1      38.877  33.278  35.241  1.00  0.00     0.049 A 
ATOM     53  H   UNL A   1      39.492  31.897  33.769  1.00  0.00     0.167 HD
ATOM     54  C   UNL A   1      40.774  32.077  36.291  1.00  0.00     0.074 A 
ATOM     55  C   UNL A   1      41.692  31.826  37.383  1.00  0.00     0.031 C 
ATOM     56  C   UNL A   1      39.799  33.019  36.317  1.00  0.00     0.031 A 
BRANCH  43  57
ATOM     57  C   UNL A   1      36.446  33.335  31.134  1.00  0.00    -0.014 A 
ATOM     58  C   UNL A   1      35.140  33.371  31.653  1.00  0.00     0.010 A 
ATOM     59  C   UNL A   1      36.720  34.006  29.928  1.00  0.00     0.010 A 
ATOM     60  C   UNL A   1      34.121  34.040  30.967  1.00  0.00     0.020 A 
ATOM     61  C   UNL A   1      35.713  34.701  29.253  1.00  0.00     0.020 A 
ATOM     62  C   UNL A   1      34.416  34.703  29.772  1.00  0.00     0.054 A 
BRANCH  62  63
ATOM     63  S   UNL A   1      33.085  35.603  28.930  1.00  0.00     0.124 S 
ATOM     64  O   UNL A   1      32.310  36.118  30.056  1.00  0.00    -0.237 OA
ATOM     65  O   UNL A   1      33.815  36.605  28.159  1.00  0.00    -0.237 OA
ATOM     66  O   UNL A   1      32.417  34.574  28.136  1.00  0.00    -0.744 OA
ENDBRANCH  62  63
ENDBRANCH  43  57
BRANCH  44  67
ATOM     67  C   UNL A   1      44.030  28.721  35.742  1.00  0.00    -0.014 A 
ATOM     68  C   UNL A   1      45.340  29.206  35.576  1.00  0.00     0.010 A 
ATOM     69  C   UNL A   1      43.820  27.590  36.552  1.00  0.00     0.010 A 
ATOM     70  C   UNL A   1      46.419  28.553  36.178  1.00  0.00     0.020 A 
ATOM     71  C   UNL A   1      44.892  26.955  37.183  1.00  0.00     0.020 A 
ATOM     72  C   UNL A   1      46.188  27.429  36.977  1.00  0.00     0.054 A 
BRANCH  72  73
ATOM     73  S   UNL A   1      47.601  26.610  37.767  1.00  0.00     0.124 S 
ATOM     74  O   UNL A   1      48.227  25.930  36.637  1.00  0.00    -0.237 OA
ATOM     75  O   UNL A   1      48.349  27.736  38.321  1.00  0.00    -0.237 OA
ATOM     76  O   UNL A   1      46.979  25.736  38.758  1.00  0.00    -0.744 OA
ENDBRANCH  72  73
ENDBRANCH  44  67
BRANCH  56  77
ATOM     77  C   UNL A   1      39.656  33.829  37.579  1.00  0.00    -0.014 A 
ATOM     78  C   UNL A   1      40.239  35.102  37.702  1.00  0.00     0.010 A 
ATOM     79  C   UNL A   1      38.894  33.319  38.648  1.00  0.00     0.010 A 
ATOM     80  C   UNL A   1      40.099  35.832  38.885  1.00  0.00     0.020 A 
ATOM     81  C   UNL A   1      38.725  34.060  39.820  1.00  0.00     0.020 A 
ATOM     82  C   UNL A   1      39.344  35.306  39.938  1.00  0.00     0.054 A 
BRANCH  82  83
ATOM     83  S   UNL A   1      39.155  36.287  41.450  1.00  0.00     0.124 S 
ATOM     84  O   UNL A   1      37.976  35.679  42.061  1.00  0.00    -0.237 OA
ATOM     85  O   UNL A   1      40.417  36.052  42.146  1.00  0.00    -0.237 OA
ATOM     86  O   UNL A   1      38.967  37.651  40.958  1.00  0.00    -0.744 OA
ENDBRANCH  82  83
ENDBRANCH  56  77
ENDBRANCH  30  31
ENDBRANCH  22  25
ENDBRANCH  20  21
ENDBRANCH  19  20
ENDBRANCH  18  19
ENDBRANCH   1  18
TORSDOF 21
ENDMDL
MODEL 2
REMARK VINA RESULT:      -9.3      2.149      8.446
REMARK SMILES COC[C@H](C)[C@H](CC(C)C)C(=O)NCCCCCCNC(=O)c1ccc(-c2c3nc(c(-c4ccc(S(=O)(=O)[O-])cc4)c4ccc([nH]4)c(-c4ccc(S(=O)(=O)[O-])cc4)c4nc(c(-c5ccc(S(=O)(=O)[O-])cc5)c5ccc2[nH]5)C=C4)C=C3)cc1
REMARK SMILES IDX 16 1 15 2 14 3 13 4 11 5 12 6 6 8 4 9 5 10 3 11 2 12 1 13
REMARK SMILES IDX 7 14 8 15 9 16 10 17 17 18 18 19 19 20 20 21 21 22 22 24
REMARK SMILES IDX 23 25 24 26 82 27 25 28 81 29 26 30 27 31 28 32 75 33 29 34
REMARK SMILES IDX 80 35 74 36 76 37 30 38 79 39 73 40 72 41 31 43 61 44 42 45
REMARK SMILES IDX 60 46 43 47 46 48 59 49 77 50 44 51 45 52 58 54 78 55 47 56
REMARK SMILES IDX 32 57 33 58 41 59 34 60 40 61 35 62 36 63 37 64 38 65 39 66
REMARK SMILES IDX 62 67 63 68 71 69 64 70 70 71 65 72 66 73 67 74 68 75 69 76
REMARK SMILES IDX 48 77 49 78 57 79 50 80 56 81 51 82 52 83 53 84 54 85 55 86
REMARK H PARENT 13 7 20 23 76 42 46 53
REMARK Flexibility Score: inf
ROOT
ATOM      1  C   UNL A   1      33.517  29.036  27.170  1.00  0.00     0.002 C 
ENDROOT
BRANCH   1   2
ATOM      2  C   UNL A   1      33.685  27.730  26.387  1.00  0.00     0.021 C 
BRANCH   2   3
ATOM      3  C   UNL A   1      32.393  27.204  25.783  1.00  0.00     0.116 C 
BRANCH   3   4
ATOM      4  N   UNL A   1      32.082  25.845  26.191  1.00  0.00    -0.356 N 
ATOM      5  C   UNL A   1      32.490  24.643  25.696  1.00  0.00     0.223 C 
ATOM      6  O   UNL A   1      32.217  23.639  26.362  1.00  0.00    -0.275 OA
ATOM      7  H   UNL A   1      31.470  25.781  26.959  1.00  0.00     0.163 HD
BRANCH   5   8
ATOM      8  C   UNL A   1      33.289  24.505  24.391  1.00  0.00     0.084 C 
BRANCH   8   9
ATOM      9  C   UNL A   1      32.380  24.649  23.132  1.00  0.00     0.024 C 
ATOM     10  C   UNL A   1      30.888  24.661  23.495  1.00  0.00     0.011 C 
BRANCH   9  11
ATOM     11  C   UNL A   1      32.672  25.845  22.212  1.00  0.00     0.163 C 
BRANCH  11  12
ATOM     12  O   UNL A   1      31.812  25.849  21.068  1.00  0.00    -0.384 OA
ATOM     13  C   UNL A   1      32.522  25.559  19.863  1.00  0.00     0.194 C 
ENDBRANCH  11  12
ENDBRANCH   9  11
ENDBRANCH   8   9
BRANCH   8  14
ATOM     14  C   UNL A   1      34.313  23.352  24.433  1.00  0.00     0.017 C 
BRANCH  14  15
ATOM     15  C   UNL A   1      35.804  23.748  24.347  1.00  0.00    -0.017 C 
ATOM     16  C   UNL A   1      36.446  23.975  25.720  1.00  0.00     0.007 C 
ATOM     17  C   UNL A   1      36.568  22.635  23.620  1.00  0.00     0.007 C 
ENDBRANCH  14  15
ENDBRANCH   8  14
ENDBRANCH   5   8
ENDBRANCH   3   4
ENDBRANCH   2   3
ENDBRANCH   1   2
BRANCH   1  18
ATOM     18  C   UNL A   1      32.123  29.672  27.119  1.00  0.00     0.002 C 
BRANCH  18  19
ATOM     19  C   UNL A   1      32.080  31.172  26.808  1.00  0.00     0.021 C 
BRANCH  19  20
ATOM     20  C   UNL A   1      33.271  31.973  27.317  1.00  0.00     0.116 C 
BRANCH  20  21
ATOM     21  N   UNL A   1      32.902  33.322  27.702  1.00  0.00    -0.352 N 
ATOM     22  C   UNL A   1      33.396  34.108  28.712  1.00  0.00     0.251 C 
ATOM     23  H   UNL A   1      32.192  33.734  27.158  1.00  0.00     0.163 HD
ATOM     24  O   UNL A   1      32.833  35.160  28.995  1.00  0.00    -0.269 OA
BRANCH  22  25
ATOM     25  C   UNL A   1      34.590  33.674  29.470  1.00  0.00     0.039 A 
ATOM     26  C   UNL A   1      34.419  32.783  30.530  1.00  0.00     0.014 A 
ATOM     27  C   UNL A   1      35.867  34.147  29.149  1.00  0.00     0.014 A 
ATOM     28  C   UNL A   1      35.534  32.322  31.233  1.00  0.00     0.010 A 
ATOM     29  C   UNL A   1      36.983  33.631  29.801  1.00  0.00     0.010 A 
ATOM     30  C   UNL A   1      36.829  32.715  30.852  1.00  0.00    -0.014 A 
BRANCH  30  31
ATOM     31  C   UNL A   1      38.024  32.158  31.536  1.00  0.00     0.031 A 
ATOM     32  C   UNL A   1      38.477  32.715  32.859  1.00  0.00     0.074 A 
ATOM     33  C   UNL A   1      38.725  31.170  30.941  1.00  0.00     0.049 A 
ATOM     34  N   UNL A   1      39.503  32.364  33.591  1.00  0.00    -0.248 NA
ATOM     35  C   UNL A   1      37.688  33.822  33.426  1.00  0.00     0.031 C 
ATOM     36  C   UNL A   1      38.411  30.575  29.640  1.00  0.00     0.029 A 
ATOM     37  N   UNL A   1      39.844  30.491  31.353  1.00  0.00    -0.354 N 
ATOM     38  C   UNL A   1      39.487  33.205  34.697  1.00  0.00     0.074 A 
ATOM     39  C   UNL A   1      38.382  34.120  34.515  1.00  0.00     0.031 C 
ATOM     40  C   UNL A   1      39.295  29.600  29.376  1.00  0.00     0.029 A 
ATOM     41  C   UNL A   1      40.263  29.527  30.465  1.00  0.00     0.049 A 
ATOM     42  H   UNL A   1      40.303  30.676  32.203  1.00  0.00     0.167 HD
ATOM     43  C   UNL A   1      40.304  33.203  35.777  1.00  0.00     0.031 A 
ATOM     44  C   UNL A   1      41.313  28.685  30.516  1.00  0.00     0.031 A 
ATOM     45  C   UNL A   1      41.401  32.288  35.957  1.00  0.00     0.049 A 
ATOM     46  C   UNL A   1      42.219  28.720  31.718  1.00  0.00     0.074 A 
ATOM     47  C   UNL A   1      42.259  32.174  37.038  1.00  0.00     0.029 A 
ATOM     48  N   UNL A   1      41.796  31.330  35.033  1.00  0.00    -0.354 N 
ATOM     49  N   UNL A   1      42.143  29.478  32.786  1.00  0.00    -0.248 NA
ATOM     50  C   UNL A   1      43.344  27.776  31.726  1.00  0.00     0.031 C 
ATOM     51  C   UNL A   1      43.207  31.190  36.744  1.00  0.00     0.029 A 
ATOM     52  C   UNL A   1      42.900  30.642  35.509  1.00  0.00     0.049 A 
ATOM     53  H   UNL A   1      41.356  31.164  34.169  1.00  0.00     0.167 HD
ATOM     54  C   UNL A   1      43.196  29.083  33.605  1.00  0.00     0.074 A 
ATOM     55  C   UNL A   1      43.876  28.003  32.919  1.00  0.00     0.031 C 
ATOM     56  C   UNL A   1      43.568  29.571  34.814  1.00  0.00     0.031 A 
BRANCH  43  57
ATOM     57  C   UNL A   1      40.045  34.220  36.858  1.00  0.00    -0.014 A 
ATOM     58  C   UNL A   1      40.675  35.478  36.835  1.00  0.00     0.010 A 
ATOM     59  C   UNL A   1      39.109  33.944  37.872  1.00  0.00     0.010 A 
ATOM     60  C   UNL A   1      40.395  36.430  37.820  1.00  0.00     0.020 A 
ATOM     61  C   UNL A   1      38.803  34.903  38.841  1.00  0.00     0.020 A 
ATOM     62  C   UNL A   1      39.458  36.137  38.816  1.00  0.00     0.054 A 
BRANCH  62  63
ATOM     63  S   UNL A   1      39.080  37.409  40.052  1.00  0.00     0.124 S 
ATOM     64  O   UNL A   1      38.537  36.612  41.149  1.00  0.00    -0.237 OA
ATOM     65  O   UNL A   1      40.387  38.011  40.300  1.00  0.00    -0.237 OA
ATOM     66  O   UNL A   1      38.116  38.275  39.377  1.00  0.00    -0.744 OA
ENDBRANCH  62  63
ENDBRANCH  43  57
BRANCH  44  67
ATOM     67  C   UNL A   1      41.569  27.736  29.397  1.00  0.00    -0.014 A 
ATOM     68  C   UNL A   1      40.770  26.591  29.228  1.00  0.00     0.010 A 
ATOM     69  C   UNL A   1      42.630  27.965  28.502  1.00  0.00     0.010 A 
ATOM     70  C   UNL A   1      41.047  25.677  28.208  1.00  0.00     0.020 A 
ATOM     71  C   UNL A   1      42.889  27.072  27.460  1.00  0.00     0.020 A 
ATOM     72  C   UNL A   1      42.108  25.923  27.330  1.00  0.00     0.054 A 
BRANCH  72  73
ATOM     73  S   UNL A   1      42.437  24.734  26.000  1.00  0.00     0.124 S 
ATOM     74  O   UNL A   1      43.790  24.289  26.320  1.00  0.00    -0.237 OA
ATOM     75  O   UNL A   1      41.382  23.743  26.195  1.00  0.00    -0.237 OA
ATOM     76  O   UNL A   1      42.311  25.537  24.785  1.00  0.00    -0.744 OA
ENDBRANCH  72  73
ENDBRANCH  44  67
BRANCH  56  77
ATOM     77  C   UNL A   1      44.748  28.920  35.487  1.00  0.00    -0.014 A 
ATOM     78  C   UNL A   1      46.058  29.386  35.278  1.00  0.00     0.010 A 
ATOM     79  C   UNL A   1      44.537  27.846  36.372  1.00  0.00     0.010 A 
ATOM     80  C   UNL A   1      47.139  28.762  35.907  1.00  0.00     0.020 A 
ATOM     81  C   UNL A   1      45.611  27.241  37.028  1.00  0.00     0.020 A 
ATOM     82  C   UNL A   1      46.909  27.693  36.778  1.00  0.00     0.054 A 
BRANCH  82  83
ATOM     83  S   UNL A   1      48.326  26.921  37.603  1.00  0.00     0.124 S 
ATOM     84  O   UNL A   1      48.934  28.057  38.290  1.00  0.00    -0.237 OA
ATOM     85  O   UNL A   1      47.692  25.929  38.468  1.00  0.00    -0.237 OA
ATOM     86  O   UNL A   1      49.110  26.367  36.501  1.00  0.00    -0.744 OA
ENDBRANCH  82  83
ENDBRANCH  56  77
ENDBRANCH  30  31
ENDBRANCH  22  25
ENDBRANCH  20  21
ENDBRANCH  19  20
ENDBRANCH  18  19
ENDBRANCH   1  18
TORSDOF 21
ENDMDL
MODEL 3
REMARK VINA RESULT:      -9.2      1.265      8.532
REMARK SMILES COC[C@H](C)[C@H](CC(C)C)C(=O)NCCCCCCNC(=O)c1ccc(-c2c3nc(c(-c4ccc(S(=O)(=O)[O-])cc4)c4ccc([nH]4)c(-c4ccc(S(=O)(=O)[O-])cc4)c4nc(c(-c5ccc(S(=O)(=O)[O-])cc5)c5ccc2[nH]5)C=C4)C=C3)cc1
REMARK SMILES IDX 16 1 15 2 14 3 13 4 11 5 12 6 6 8 4 9 5 10 3 11 2 12 1 13
REMARK SMILES IDX 7 14 8 15 9 16 10 17 17 18 18 19 19 20 20 21 21 22 22 24
REMARK SMILES IDX 23 25 24 26 82 27 25 28 81 29 26 30 27 31 28 32 75 33 29 34
REMARK SMILES IDX 80 35 74 36 76 37 30 38 79 39 73 40 72 41 31 43 61 44 42 45
REMARK SMILES IDX 60 46 43 47 46 48 59 49 77 50 44 51 45 52 58 54 78 55 47 56
REMARK SMILES IDX 32 57 33 58 41 59 34 60 40 61 35 62 36 63 37 64 38 65 39 66
REMARK SMILES IDX 62 67 63 68 71 69 64 70 70 71 65 72 66 73 67 74 68 75 69 76
REMARK SMILES IDX 48 77 49 78 57 79 50 80 56 81 51 82 52 83 53 84 54 85 55 86
REMARK H PARENT 13 7 20 23 76 42 46 53
REMARK Flexibility Score: inf
ROOT
ATOM      1  C   UNL A   1      36.104  23.530  23.777  1.00  0.00     0.002 C 
ENDROOT
BRANCH   1   2
ATOM      2  C   UNL A   1      34.843  23.164  24.567  1.00  0.00     0.021 C 
BRANCH   2   3
ATOM      3  C   UNL A   1      33.568  23.775  24.009  1.00  0.00     0.116 C 
BRANCH   3   4
ATOM      4  N   UNL A   1      33.806  24.691  22.907  1.00  0.00    -0.356 N 
ATOM      5  C   UNL A   1      33.509  26.012  22.756  1.00  0.00     0.223 C 
ATOM      6  O   UNL A   1      34.002  26.592  21.783  1.00  0.00    -0.275 OA
ATOM      7  H   UNL A   1      34.263  24.288  22.134  1.00  0.00     0.163 HD
BRANCH   5   8
ATOM      8  C   UNL A   1      32.636  26.790  23.753  1.00  0.00     0.084 C 
BRANCH   8   9
ATOM      9  C   UNL A   1      31.210  27.068  23.185  1.00  0.00     0.024 C 
ATOM     10  C   UNL A   1      30.121  26.319  23.967  1.00  0.00     0.011 C 
BRANCH   9  11
ATOM     11  C   UNL A   1      30.800  28.544  23.062  1.00  0.00     0.163 C 
BRANCH  11  12
ATOM     12  O   UNL A   1      29.877  28.745  21.987  1.00  0.00    -0.384 OA
ATOM     13  C   UNL A   1      29.544  30.123  21.816  1.00  0.00     0.194 C 
ENDBRANCH  11  12
ENDBRANCH   9  11
ENDBRANCH   8   9
BRANCH   8  14
ATOM     14  C   UNL A   1      33.393  27.944  24.441  1.00  0.00     0.017 C 
BRANCH  14  15
ATOM     15  C   UNL A   1      33.475  27.894  25.984  1.00  0.00    -0.017 C 
ATOM     16  C   UNL A   1      34.449  28.922  26.568  1.00  0.00     0.007 C 
ATOM     17  C   UNL A   1      32.077  28.152  26.560  1.00  0.00     0.007 C 
ENDBRANCH  14  15
ENDBRANCH   8  14
ENDBRANCH   5   8
ENDBRANCH   3   4
ENDBRANCH   2   3
ENDBRANCH   1   2
BRANCH   1  18
ATOM     18  C   UNL A   1      37.430  23.397  24.536  1.00  0.00     0.002 C 
BRANCH  18  19
ATOM     19  C   UNL A   1      37.324  23.318  26.063  1.00  0.00     0.021 C 
BRANCH  19  20
ATOM     20  C   UNL A   1      38.405  24.074  26.827  1.00  0.00     0.116 C 
BRANCH  20  21
ATOM     21  N   UNL A   1      39.508  24.468  25.970  1.00  0.00    -0.352 N 
ATOM     22  C   UNL A   1      40.363  25.535  26.084  1.00  0.00     0.251 C 
ATOM     23  H   UNL A   1      39.667  23.883  25.195  1.00  0.00     0.163 HD
ATOM     24  O   UNL A   1      41.125  25.804  25.162  1.00  0.00    -0.269 OA
BRANCH  22  25
ATOM     25  C   UNL A   1      40.346  26.370  27.305  1.00  0.00     0.039 A 
ATOM     26  C   UNL A   1      41.475  27.134  27.606  1.00  0.00     0.014 A 
ATOM     27  C   UNL A   1      39.235  26.393  28.154  1.00  0.00     0.014 A 
ATOM     28  C   UNL A   1      41.469  27.965  28.727  1.00  0.00     0.010 A 
ATOM     29  C   UNL A   1      39.202  27.278  29.230  1.00  0.00     0.010 A 
ATOM     30  C   UNL A   1      40.319  28.071  29.530  1.00  0.00    -0.014 A 
BRANCH  30  31
ATOM     31  C   UNL A   1      40.274  29.021  30.670  1.00  0.00     0.031 A 
ATOM     32  C   UNL A   1      41.205  28.855  31.841  1.00  0.00     0.074 A 
ATOM     33  C   UNL A   1      39.361  30.015  30.666  1.00  0.00     0.049 A 
ATOM     34  N   UNL A   1      41.295  29.578  32.928  1.00  0.00    -0.248 NA
ATOM     35  C   UNL A   1      42.143  27.722  31.796  1.00  0.00     0.031 C 
ATOM     36  C   UNL A   1      38.376  30.255  29.608  1.00  0.00     0.029 A 
ATOM     37  N   UNL A   1      39.114  31.010  31.578  1.00  0.00    -0.354 N 
ATOM     38  C   UNL A   1      42.292  28.987  33.696  1.00  0.00     0.074 A 
ATOM     39  C   UNL A   1      42.740  27.816  32.977  1.00  0.00     0.031 C 
ATOM     40  C   UNL A   1      37.655  31.345  29.916  1.00  0.00     0.029 A 
ATOM     41  C   UNL A   1      38.095  31.857  31.209  1.00  0.00     0.049 A 
ATOM     42  H   UNL A   1      39.620  31.109  32.416  1.00  0.00     0.167 HD
ATOM     43  C   UNL A   1      42.804  29.395  34.882  1.00  0.00     0.031 A 
ATOM     44  C   UNL A   1      37.567  32.921  31.843  1.00  0.00     0.031 A 
ATOM     45  C   UNL A   1      42.359  30.565  35.593  1.00  0.00     0.049 A 
ATOM     46  C   UNL A   1      38.140  33.339  33.171  1.00  0.00     0.074 A 
ATOM     47  C   UNL A   1      42.847  31.088  36.779  1.00  0.00     0.029 A 
ATOM     48  N   UNL A   1      41.322  31.393  35.189  1.00  0.00    -0.354 N 
ATOM     49  N   UNL A   1      39.130  32.806  33.846  1.00  0.00    -0.248 NA
ATOM     50  C   UNL A   1      37.531  34.509  33.816  1.00  0.00     0.031 C 
ATOM     51  C   UNL A   1      42.067  32.196  37.122  1.00  0.00     0.029 A 
ATOM     52  C   UNL A   1      41.137  32.406  36.116  1.00  0.00     0.049 A 
ATOM     53  H   UNL A   1      40.796  31.278  34.365  1.00  0.00     0.167 HD
ATOM     54  C   UNL A   1      39.280  33.593  34.983  1.00  0.00     0.074 A 
ATOM     55  C   UNL A   1      38.296  34.652  34.889  1.00  0.00     0.031 C 
ATOM     56  C   UNL A   1      40.152  33.452  36.012  1.00  0.00     0.031 A 
BRANCH  43  57
ATOM     57  C   UNL A   1      43.911  28.573  35.490  1.00  0.00    -0.014 A 
ATOM     58  C   UNL A   1      43.629  27.538  36.400  1.00  0.00     0.010 A 
ATOM     59  C   UNL A   1      45.245  28.791  35.097  1.00  0.00     0.010 A 
ATOM     60  C   UNL A   1      44.660  26.754  36.926  1.00  0.00     0.020 A 
ATOM     61  C   UNL A   1      46.276  27.991  35.597  1.00  0.00     0.020 A 
ATOM     62  C   UNL A   1      45.978  26.985  36.519  1.00  0.00     0.054 A 
BRANCH  62  63
ATOM     63  S   UNL A   1      47.288  25.920  37.182  1.00  0.00     0.124 S 
ATOM     64  O   UNL A   1      48.285  25.970  36.115  1.00  0.00    -0.237 OA
ATOM     65  O   UNL A   1      47.657  26.601  38.419  1.00  0.00    -0.237 OA
ATOM     66  O   UNL A   1      46.631  24.627  37.357  1.00  0.00    -0.744 OA
ENDBRANCH  62  63
ENDBRANCH  43  57
BRANCH  44  67
ATOM     67  C   UNL A   1      36.431  33.671  31.234  1.00  0.00    -0.014 A 
ATOM     68  C   UNL A   1      35.493  34.335  32.044  1.00  0.00     0.010 A 
ATOM     69  C   UNL A   1      36.274  33.707  29.837  1.00  0.00     0.010 A 
ATOM     70  C   UNL A   1      34.401  34.991  31.470  1.00  0.00     0.020 A 
ATOM     71  C   UNL A   1      35.203  34.391  29.258  1.00  0.00     0.020 A 
ATOM     72  C   UNL A   1      34.262  35.014  30.079  1.00  0.00     0.054 A 
BRANCH  72  73
ATOM     73  S   UNL A   1      32.848  35.890  29.353  1.00  0.00     0.124 S 
ATOM     74  O   UNL A   1      32.401  34.950  28.330  1.00  0.00    -0.237 OA
ATOM     75  O   UNL A   1      31.956  36.051  30.499  1.00  0.00    -0.237 OA
ATOM     76  O   UNL A   1      33.436  37.131  28.852  1.00  0.00    -0.744 OA
ENDBRANCH  72  73
ENDBRANCH  44  67
BRANCH  56  77
ATOM     77  C   UNL A   1      40.100  34.485  37.106  1.00  0.00    -0.014 A 
ATOM     78  C   UNL A   1      40.888  35.649  37.051  1.00  0.00     0.010 A 
ATOM     79  C   UNL A   1      39.222  34.304  38.192  1.00  0.00     0.010 A 
ATOM     80  C   UNL A   1      40.830  36.591  38.082  1.00  0.00     0.020 A 
ATOM     81  C   UNL A   1      39.137  35.259  39.207  1.00  0.00     0.020 A 
ATOM     82  C   UNL A   1      39.956  36.389  39.154  1.00  0.00     0.054 A 
BRANCH  82  83
ATOM     83  S   UNL A   1      39.879  37.641  40.463  1.00  0.00     0.124 S 
ATOM     84  O   UNL A   1      40.330  36.889  41.630  1.00  0.00    -0.237 OA
ATOM     85  O   UNL A   1      40.800  38.667  39.980  1.00  0.00    -0.237 OA
ATOM     86  O   UNL A   1      38.472  38.036  40.483  1.00  0.00    -0.744 OA
ENDBRANCH  82  83
ENDBRANCH  56  77
ENDBRANCH  30  31
ENDBRANCH  22  25
ENDBRANCH  20  21
ENDBRANCH  19  20
ENDBRANCH  18  19
ENDBRANCH   1  18
TORSDOF 21
ENDMDL
