MODEL 1
REMARK VINA RESULT:     -10.8      0.000      0.000
REMARK SMILES CC(C)Cc1ccc([C@H](C)C(=O)NCCCCCCNC(=O)c2ccc(-c3c4nc(c(-c5ccc(S(=O)(=O)[O-])cc5)c5ccc([nH]5)c(-c5ccc(S(=O)(=O)[O-])cc5)c5nc(c(-c6ccc(S(=O)(=O)[O-])cc6)c6ccc3[nH]6)C=C5)C=C4)cc2)cc1
REMARK SMILES IDX 16 1 15 2 14 3 13 4 11 5 12 6 9 8 10 9 8 10 5 11 6 12 84 13
REMARK SMILES IDX 7 14 83 15 4 16 2 17 1 18 3 19 17 20 18 21 19 22 20 23 21 24
REMARK SMILES IDX 22 26 23 27 24 28 82 29 25 30 81 31 26 32 27 33 28 34 75 35
REMARK SMILES IDX 29 36 80 37 74 38 76 39 30 40 79 41 73 42 72 43 31 45 61 46
REMARK SMILES IDX 42 47 60 48 43 49 46 50 59 51 77 52 44 53 45 54 58 56 78 57
REMARK SMILES IDX 47 58 32 59 33 60 41 61 34 62 40 63 35 64 36 65 37 66 38 67
REMARK SMILES IDX 39 68 62 69 63 70 71 71 64 72 70 73 65 74 66 75 67 76 68 77
REMARK SMILES IDX 69 78 48 79 49 80 57 81 50 82 56 83 51 84 52 85 53 86 54 87
REMARK SMILES IDX 55 88
REMARK H PARENT 13 7 20 25 76 44 46 55
REMARK Flexibility Score: inf
ROOT
ATOM      1  C   UNL A   1      33.953  31.258  27.820  1.00  0.00     0.002 C 
ENDROOT
BRANCH   1   2
ATOM      2  C   UNL A   1      34.941  30.230  27.269  1.00  0.00     0.021 C 
BRANCH   2   3
ATOM      3  C   UNL A   1      34.354  28.849  27.002  1.00  0.00     0.116 C 
BRANCH   3   4
ATOM      4  N   UNL A   1      33.037  28.676  27.579  1.00  0.00    -0.356 N 
ATOM      5  C   UNL A   1      32.015  27.867  27.176  1.00  0.00     0.227 C 
ATOM      6  O   UNL A   1      31.008  27.821  27.890  1.00  0.00    -0.274 OA
ATOM      7  H   UNL A   1      32.853  29.222  28.377  1.00  0.00     0.163 HD
BRANCH   5   8
ATOM      8  C   UNL A   1      32.088  27.051  25.873  1.00  0.00     0.105 C 
ATOM      9  C   UNL A   1      31.911  25.548  26.134  1.00  0.00     0.023 C 
BRANCH   8  10
ATOM     10  C   UNL A   1      31.273  27.680  24.748  1.00  0.00    -0.036 A 
ATOM     11  C   UNL A   1      29.813  29.048  22.740  1.00  0.00    -0.048 A 
ATOM     12  C   UNL A   1      29.221  28.018  23.474  1.00  0.00     0.004 A 
ATOM     13  C   UNL A   1      31.153  29.362  22.985  1.00  0.00     0.004 A 
ATOM     14  C   UNL A   1      29.950  27.327  24.447  1.00  0.00     0.005 A 
ATOM     15  C   UNL A   1      31.866  28.702  23.987  1.00  0.00     0.005 A 
BRANCH  11  16
ATOM     16  C   UNL A   1      29.007  29.832  21.733  1.00  0.00     0.038 C 
BRANCH  16  17
ATOM     17  C   UNL A   1      28.688  31.272  22.189  1.00  0.00    -0.013 C 
ATOM     18  C   UNL A   1      28.088  32.123  21.066  1.00  0.00     0.008 C 
ATOM     19  C   UNL A   1      27.716  31.235  23.372  1.00  0.00     0.008 C 
ENDBRANCH  16  17
ENDBRANCH  11  16
ENDBRANCH   8  10
ENDBRANCH   5   8
ENDBRANCH   3   4
ENDBRANCH   2   3
ENDBRANCH   1   2
BRANCH   1  20
ATOM     20  C   UNL A   1      34.558  32.613  28.201  1.00  0.00     0.002 C 
BRANCH  20  21
ATOM     21  C   UNL A   1      36.085  32.702  28.128  1.00  0.00     0.021 C 
BRANCH  21  22
ATOM     22  C   UNL A   1      36.802  32.672  29.474  1.00  0.00     0.116 C 
BRANCH  22  23
ATOM     23  N   UNL A   1      36.207  31.721  30.397  1.00  0.00    -0.352 N 
ATOM     24  C   UNL A   1      36.623  30.454  30.732  1.00  0.00     0.251 C 
ATOM     25  H   UNL A   1      35.388  32.027  30.848  1.00  0.00     0.163 HD
ATOM     26  O   UNL A   1      35.892  29.727  31.394  1.00  0.00    -0.269 OA
BRANCH  24  27
ATOM     27  C   UNL A   1      37.943  29.967  30.276  1.00  0.00     0.039 A 
ATOM     28  C   UNL A   1      38.167  29.810  28.906  1.00  0.00     0.014 A 
ATOM     29  C   UNL A   1      38.952  29.661  31.193  1.00  0.00     0.014 A 
ATOM     30  C   UNL A   1      39.426  29.404  28.454  1.00  0.00     0.010 A 
ATOM     31  C   UNL A   1      40.226  29.330  30.737  1.00  0.00     0.010 A 
ATOM     32  C   UNL A   1      40.475  29.193  29.362  1.00  0.00    -0.014 A 
BRANCH  32  33
ATOM     33  C   UNL A   1      41.839  28.834  28.894  1.00  0.00     0.031 A 
ATOM     34  C   UNL A   1      42.911  29.887  28.804  1.00  0.00     0.074 A 
ATOM     35  C   UNL A   1      42.096  27.573  28.493  1.00  0.00     0.049 A 
ATOM     36  N   UNL A   1      44.140  29.776  28.368  1.00  0.00    -0.248 NA
ATOM     37  C   UNL A   1      42.551  31.246  29.239  1.00  0.00     0.031 C 
ATOM     38  C   UNL A   1      41.133  26.469  28.499  1.00  0.00     0.029 A 
ATOM     39  N   UNL A   1      43.244  27.005  27.999  1.00  0.00    -0.354 N 
ATOM     40  C   UNL A   1      44.692  31.049  28.460  1.00  0.00     0.074 A 
ATOM     41  C   UNL A   1      43.649  31.927  28.946  1.00  0.00     0.031 C 
ATOM     42  C   UNL A   1      41.736  25.355  28.056  1.00  0.00     0.029 A 
ATOM     43  C   UNL A   1      43.114  25.670  27.692  1.00  0.00     0.049 A 
ATOM     44  H   UNL A   1      44.082  27.506  27.875  1.00  0.00     0.167 HD
ATOM     45  C   UNL A   1      45.957  31.448  28.187  1.00  0.00     0.031 A 
ATOM     46  C   UNL A   1      43.998  24.800  27.167  1.00  0.00     0.031 A 
ATOM     47  C   UNL A   1      46.993  30.570  27.710  1.00  0.00     0.049 A 
ATOM     48  C   UNL A   1      45.391  25.273  26.847  1.00  0.00     0.074 A 
ATOM     49  C   UNL A   1      48.320  30.867  27.452  1.00  0.00     0.029 A 
ATOM     50  N   UNL A   1      46.820  29.227  27.414  1.00  0.00    -0.354 N 
ATOM     51  N   UNL A   1      45.912  26.467  27.006  1.00  0.00    -0.248 NA
ATOM     52  C   UNL A   1      46.318  24.279  26.289  1.00  0.00     0.031 C 
ATOM     53  C   UNL A   1      48.934  29.719  26.942  1.00  0.00     0.029 A 
ATOM     54  C   UNL A   1      48.008  28.688  26.949  1.00  0.00     0.049 A 
ATOM     55  H   UNL A   1      45.978  28.728  27.519  1.00  0.00     0.167 HD
ATOM     56  C   UNL A   1      47.236  26.358  26.598  1.00  0.00     0.074 A 
ATOM     57  C   UNL A   1      47.440  24.980  26.199  1.00  0.00     0.031 C 
ATOM     58  C   UNL A   1      48.198  27.314  26.557  1.00  0.00     0.031 A 
BRANCH  45  59
ATOM     59  C   UNL A   1      46.292  32.904  28.387  1.00  0.00    -0.014 A 
ATOM     60  C   UNL A   1      46.080  33.848  27.365  1.00  0.00     0.010 A 
ATOM     61  C   UNL A   1      46.778  33.345  29.632  1.00  0.00     0.010 A 
ATOM     62  C   UNL A   1      46.385  35.197  27.570  1.00  0.00     0.020 A 
ATOM     63  C   UNL A   1      47.055  34.698  29.852  1.00  0.00     0.020 A 
ATOM     64  C   UNL A   1      46.871  35.612  28.814  1.00  0.00     0.054 A 
BRANCH  64  65
ATOM     65  S   UNL A   1      47.231  37.372  29.059  1.00  0.00     0.124 S 
ATOM     66  O   UNL A   1      48.475  37.533  28.310  1.00  0.00    -0.237 OA
ATOM     67  O   UNL A   1      46.060  38.022  28.477  1.00  0.00    -0.237 OA
ATOM     68  O   UNL A   1      47.357  37.503  30.509  1.00  0.00    -0.744 OA
ENDBRANCH  64  65
ENDBRANCH  45  59
BRANCH  46  69
ATOM     69  C   UNL A   1      43.594  23.388  26.914  1.00  0.00    -0.014 A 
ATOM     70  C   UNL A   1      43.898  22.762  25.691  1.00  0.00     0.010 A 
ATOM     71  C   UNL A   1      42.901  22.659  27.898  1.00  0.00     0.010 A 
ATOM     72  C   UNL A   1      43.497  21.446  25.450  1.00  0.00     0.020 A 
ATOM     73  C   UNL A   1      42.527  21.332  27.674  1.00  0.00     0.020 A 
ATOM     74  C   UNL A   1      42.816  20.737  26.445  1.00  0.00     0.054 A 
BRANCH  74  75
ATOM     75  S   UNL A   1      42.344  19.014  26.124  1.00  0.00     0.124 S 
ATOM     76  O   UNL A   1      42.642  18.375  27.403  1.00  0.00    -0.237 OA
ATOM     77  O   UNL A   1      40.927  19.134  25.790  1.00  0.00    -0.237 OA
ATOM     78  O   UNL A   1      43.208  18.625  25.013  1.00  0.00    -0.744 OA
ENDBRANCH  74  75
ENDBRANCH  46  69
BRANCH  58  79
ATOM     79  C   UNL A   1      49.574  26.897  26.105  1.00  0.00    -0.014 A 
ATOM     80  C   UNL A   1      50.485  26.292  26.988  1.00  0.00     0.010 A 
ATOM     81  C   UNL A   1      49.936  27.063  24.755  1.00  0.00     0.010 A 
ATOM     82  C   UNL A   1      51.745  25.889  26.536  1.00  0.00     0.020 A 
ATOM     83  C   UNL A   1      51.181  26.632  24.292  1.00  0.00     0.020 A 
ATOM     84  C   UNL A   1      52.084  26.059  25.190  1.00  0.00     0.054 A 
BRANCH  84  85
ATOM     85  S   UNL A   1      53.706  25.484  24.620  1.00  0.00     0.124 S 
ATOM     86  O   UNL A   1      53.597  24.039  24.798  1.00  0.00    -0.237 OA
ATOM     87  O   UNL A   1      53.740  25.946  23.234  1.00  0.00    -0.237 OA
ATOM     88  O   UNL A   1      54.647  26.153  25.515  1.00  0.00    -0.744 OA
ENDBRANCH  84  85
ENDBRANCH  58  79
ENDBRANCH  32  33
ENDBRANCH  24  27
ENDBRANCH  22  23
ENDBRANCH  21  22
ENDBRANCH  20  21
ENDBRANCH   1  20
TORSDOF 19
ENDMDL
MODEL 2
REMARK VINA RESULT:     -10.6      5.414      7.561
REMARK SMILES CC(C)Cc1ccc([C@H](C)C(=O)NCCCCCCNC(=O)c2ccc(-c3c4nc(c(-c5ccc(S(=O)(=O)[O-])cc5)c5ccc([nH]5)c(-c5ccc(S(=O)(=O)[O-])cc5)c5nc(c(-c6ccc(S(=O)(=O)[O-])cc6)c6ccc3[nH]6)C=C5)C=C4)cc2)cc1
REMARK SMILES IDX 16 1 15 2 14 3 13 4 11 5 12 6 9 8 10 9 8 10 5 11 6 12 84 13
REMARK SMILES IDX 7 14 83 15 4 16 2 17 1 18 3 19 17 20 18 21 19 22 20 23 21 24
REMARK SMILES IDX 22 26 23 27 24 28 82 29 25 30 81 31 26 32 27 33 28 34 75 35
REMARK SMILES IDX 29 36 80 37 74 38 76 39 30 40 79 41 73 42 72 43 31 45 61 46
REMARK SMILES IDX 42 47 60 48 43 49 46 50 59 51 77 52 44 53 45 54 58 56 78 57
REMARK SMILES IDX 47 58 32 59 33 60 41 61 34 62 40 63 35 64 36 65 37 66 38 67
REMARK SMILES IDX 39 68 62 69 63 70 71 71 64 72 70 73 65 74 66 75 67 76 68 77
REMARK SMILES IDX 69 78 48 79 49 80 57 81 50 82 56 83 51 84 52 85 53 86 54 87
REMARK SMILES IDX 55 88
REMARK H PARENT 13 7 20 25 76 44 46 55
REMARK Flexibility Score: inf
ROOT
ATOM      1  C   UNL A   1      31.220  28.908  24.545  1.00  0.00     0.002 C 
ENDROOT
BRANCH   1   2
ATOM      2  C   UNL A   1      31.407  28.839  23.029  1.00  0.00     0.021 C 
BRANCH   2   3
ATOM      3  C   UNL A   1      30.854  27.583  22.366  1.00  0.00     0.116 C 
BRANCH   3   4
ATOM      4  N   UNL A   1      31.878  26.798  21.708  1.00  0.00    -0.356 N 
ATOM      5  C   UNL A   1      32.381  25.575  22.046  1.00  0.00     0.227 C 
ATOM      6  O   UNL A   1      33.192  25.058  21.271  1.00  0.00    -0.274 OA
ATOM      7  H   UNL A   1      32.268  27.206  20.902  1.00  0.00     0.163 HD
BRANCH   5   8
ATOM      8  C   UNL A   1      31.979  24.861  23.349  1.00  0.00     0.105 C 
ATOM      9  C   UNL A   1      30.581  24.237  23.246  1.00  0.00     0.023 C 
BRANCH   8  10
ATOM     10  C   UNL A   1      33.106  23.999  23.908  1.00  0.00    -0.036 A 
ATOM     11  C   UNL A   1      35.045  22.276  25.051  1.00  0.00    -0.048 A 
ATOM     12  C   UNL A   1      35.178  23.662  25.149  1.00  0.00     0.004 A 
ATOM     13  C   UNL A   1      33.960  21.754  24.341  1.00  0.00     0.004 A 
ATOM     14  C   UNL A   1      34.235  24.512  24.563  1.00  0.00     0.005 A 
ATOM     15  C   UNL A   1      32.995  22.602  23.794  1.00  0.00     0.005 A 
BRANCH  11  16
ATOM     16  C   UNL A   1      36.032  21.361  25.735  1.00  0.00     0.038 C 
BRANCH  16  17
ATOM     17  C   UNL A   1      37.368  21.221  24.975  1.00  0.00    -0.013 C 
ATOM     18  C   UNL A   1      38.515  21.967  25.664  1.00  0.00     0.008 C 
ATOM     19  C   UNL A   1      37.734  19.740  24.841  1.00  0.00     0.008 C 
ENDBRANCH  16  17
ENDBRANCH  11  16
ENDBRANCH   8  10
ENDBRANCH   5   8
ENDBRANCH   3   4
ENDBRANCH   2   3
ENDBRANCH   1   2
BRANCH   1  20
ATOM     20  C   UNL A   1      32.051  27.909  25.356  1.00  0.00     0.002 C 
BRANCH  20  21
ATOM     21  C   UNL A   1      33.569  28.022  25.192  1.00  0.00     0.021 C 
BRANCH  21  22
ATOM     22  C   UNL A   1      34.304  28.651  26.372  1.00  0.00     0.116 C 
BRANCH  22  23
ATOM     23  N   UNL A   1      33.905  30.029  26.601  1.00  0.00    -0.352 N 
ATOM     24  C   UNL A   1      34.399  30.942  27.503  1.00  0.00     0.251 C 
ATOM     25  H   UNL A   1      33.174  30.357  26.029  1.00  0.00     0.163 HD
ATOM     26  O   UNL A   1      33.814  32.004  27.679  1.00  0.00    -0.269 OA
BRANCH  24  27
ATOM     27  C   UNL A   1      35.624  30.630  28.271  1.00  0.00     0.039 A 
ATOM     28  C   UNL A   1      35.550  29.698  29.309  1.00  0.00     0.014 A 
ATOM     29  C   UNL A   1      36.837  31.256  27.973  1.00  0.00     0.014 A 
ATOM     30  C   UNL A   1      36.708  29.351  30.009  1.00  0.00     0.010 A 
ATOM     31  C   UNL A   1      38.002  30.853  28.621  1.00  0.00     0.010 A 
ATOM     32  C   UNL A   1      37.950  29.899  29.649  1.00  0.00    -0.014 A 
BRANCH  32  33
ATOM     33  C   UNL A   1      39.202  29.484  30.333  1.00  0.00     0.031 A 
ATOM     34  C   UNL A   1      39.665  30.207  31.570  1.00  0.00     0.074 A 
ATOM     35  C   UNL A   1      39.955  28.497  29.807  1.00  0.00     0.049 A 
ATOM     36  N   UNL A   1      40.755  30.025  32.271  1.00  0.00    -0.248 NA
ATOM     37  C   UNL A   1      38.803  31.288  32.074  1.00  0.00     0.031 C 
ATOM     38  C   UNL A   1      39.634  27.743  28.592  1.00  0.00     0.029 A 
ATOM     39  N   UNL A   1      41.147  27.959  30.223  1.00  0.00    -0.354 N 
ATOM     40  C   UNL A   1      40.718  30.976  33.285  1.00  0.00     0.074 A 
ATOM     41  C   UNL A   1      39.523  31.766  33.078  1.00  0.00     0.031 C 
ATOM     42  C   UNL A   1      40.589  26.825  28.378  1.00  0.00     0.029 A 
ATOM     43  C   UNL A   1      41.614  26.953  29.409  1.00  0.00     0.049 A 
ATOM     44  H   UNL A   1      41.624  28.265  31.028  1.00  0.00     0.167 HD
ATOM     45  C   UNL A   1      41.587  31.163  34.306  1.00  0.00     0.031 A 
ATOM     46  C   UNL A   1      42.744  26.222  29.477  1.00  0.00     0.031 A 
ATOM     47  C   UNL A   1      42.771  30.371  34.511  1.00  0.00     0.049 A 
ATOM     48  C   UNL A   1      43.707  26.465  30.608  1.00  0.00     0.074 A 
ATOM     49  C   UNL A   1      43.688  30.449  35.545  1.00  0.00     0.029 A 
ATOM     50  N   UNL A   1      43.207  29.362  33.666  1.00  0.00    -0.354 N 
ATOM     51  N   UNL A   1      43.619  27.325  31.595  1.00  0.00    -0.248 NA
ATOM     52  C   UNL A   1      44.916  25.631  30.641  1.00  0.00     0.031 C 
ATOM     53  C   UNL A   1      44.710  29.528  35.292  1.00  0.00     0.029 A 
ATOM     54  C   UNL A   1      44.394  28.828  34.139  1.00  0.00     0.049 A 
ATOM     55  H   UNL A   1      42.741  29.067  32.850  1.00  0.00     0.167 HD
ATOM     56  C   UNL A   1      44.744  27.113  32.383  1.00  0.00     0.074 A 
ATOM     57  C   UNL A   1      45.490  26.034  31.767  1.00  0.00     0.031 C 
ATOM     58  C   UNL A   1      45.125  27.753  33.517  1.00  0.00     0.031 A 
BRANCH  45  59
ATOM     59  C   UNL A   1      41.295  32.276  35.280  1.00  0.00    -0.014 A 
ATOM     60  C   UNL A   1      40.525  32.050  36.435  1.00  0.00     0.010 A 
ATOM     61  C   UNL A   1      41.841  33.555  35.064  1.00  0.00     0.010 A 
ATOM     62  C   UNL A   1      40.272  33.091  37.335  1.00  0.00     0.020 A 
ATOM     63  C   UNL A   1      41.617  34.590  35.976  1.00  0.00     0.020 A 
ATOM     64  C   UNL A   1      40.821  34.355  37.099  1.00  0.00     0.054 A 
BRANCH  64  65
ATOM     65  S   UNL A   1      40.500  35.677  38.297  1.00  0.00     0.124 S 
ATOM     66  O   UNL A   1      39.488  35.067  39.156  1.00  0.00    -0.237 OA
ATOM     67  O   UNL A   1      41.810  35.874  38.913  1.00  0.00    -0.237 OA
ATOM     68  O   UNL A   1      40.029  36.787  37.472  1.00  0.00    -0.744 OA
ENDBRANCH  64  65
ENDBRANCH  45  59
BRANCH  46  69
ATOM     69  C   UNL A   1      43.025  25.186  28.443  1.00  0.00    -0.014 A 
ATOM     70  C   UNL A   1      43.695  25.522  27.253  1.00  0.00     0.010 A 
ATOM     71  C   UNL A   1      42.622  23.853  28.645  1.00  0.00     0.010 A 
ATOM     72  C   UNL A   1      43.937  24.551  26.277  1.00  0.00     0.020 A 
ATOM     73  C   UNL A   1      42.891  22.872  27.687  1.00  0.00     0.020 A 
ATOM     74  C   UNL A   1      43.535  23.231  26.501  1.00  0.00     0.054 A 
BRANCH  74  75
ATOM     75  S   UNL A   1      43.897  21.980  25.238  1.00  0.00     0.124 S 
ATOM     76  O   UNL A   1      45.254  21.574  25.593  1.00  0.00    -0.237 OA
ATOM     77  O   UNL A   1      42.855  20.983  25.474  1.00  0.00    -0.237 OA
ATOM     78  O   UNL A   1      43.771  22.716  23.983  1.00  0.00    -0.744 OA
ENDBRANCH  74  75
ENDBRANCH  46  69
BRANCH  58  79
ATOM     79  C   UNL A   1      46.385  27.279  34.193  1.00  0.00    -0.014 A 
ATOM     80  C   UNL A   1      47.635  27.855  33.905  1.00  0.00     0.010 A 
ATOM     81  C   UNL A   1      46.304  26.278  35.180  1.00  0.00     0.010 A 
ATOM     82  C   UNL A   1      48.784  27.416  34.568  1.00  0.00     0.020 A 
ATOM     83  C   UNL A   1      47.445  25.860  35.869  1.00  0.00     0.020 A 
ATOM     84  C   UNL A   1      48.681  26.423  35.548  1.00  0.00     0.054 A 
BRANCH  84  85
ATOM     85  S   UNL A   1      50.181  25.907  36.427  1.00  0.00     0.124 S 
ATOM     86  O   UNL A   1      49.976  24.467  36.560  1.00  0.00    -0.237 OA
ATOM     87  O   UNL A   1      51.243  26.309  35.507  1.00  0.00    -0.237 OA
ATOM     88  O   UNL A   1      50.130  26.662  37.676  1.00  0.00    -0.744 OA
ENDBRANCH  84  85
ENDBRANCH  58  79
ENDBRANCH  32  33
ENDBRANCH  24  27
ENDBRANCH  22  23
ENDBRANCH  21  22
ENDBRANCH  20  21
ENDBRANCH   1  20
TORSDOF 19
ENDMDL
MODEL 3
REMARK VINA RESULT:     -10.5      3.685      9.932
REMARK SMILES CC(C)Cc1ccc([C@H](C)C(=O)NCCCCCCNC(=O)c2ccc(-c3c4nc(c(-c5ccc(S(=O)(=O)[O-])cc5)c5ccc([nH]5)c(-c5ccc(S(=O)(=O)[O-])cc5)c5nc(c(-c6ccc(S(=O)(=O)[O-])cc6)c6ccc3[nH]6)C=C5)C=C4)cc2)cc1
REMARK SMILES IDX 16 1 15 2 14 3 13 4 11 5 12 6 9 8 10 9 8 10 5 11 6 12 84 13
REMARK SMILES IDX 7 14 83 15 4 16 2 17 1 18 3 19 17 20 18 21 19 22 20 23 21 24
REMARK SMILES IDX 22 26 23 27 24 28 82 29 25 30 81 31 26 32 27 33 28 34 75 35
REMARK SMILES IDX 29 36 80 37 74 38 76 39 30 40 79 41 73 42 72 43 31 45 61 46
REMARK SMILES IDX 42 47 60 48 43 49 46 50 59 51 77 52 44 53 45 54 58 56 78 57
REMARK SMILES IDX 47 58 32 59 33 60 41 61 34 62 40 63 35 64 36 65 37 66 38 67
REMARK SMILES IDX 39 68 62 69 63 70 71 71 64 72 70 73 65 74 66 75 67 76 68 77
REMARK SMILES IDX 69 78 48 79 49 80 57 81 50 82 56 83 51 84 52 85 53 86 54 87
REMARK SMILES IDX 55 88
REMARK H PARENT 13 7 20 25 76 44 46 55
REMARK Flexibility Score: inf
ROOT
ATOM      1  C   UNL A   1      37.282  21.945  24.460  1.00  0.00     0.002 C 
ENDROOT
BRANCH   1   2
ATOM      2  C   UNL A   1      36.118  22.451  23.609  1.00  0.00     0.021 C 
BRANCH   2   3
ATOM      3  C   UNL A   1      35.287  23.560  24.243  1.00  0.00     0.116 C 
BRANCH   3   4
ATOM      4  N   UNL A   1      34.073  23.844  23.508  1.00  0.00    -0.356 N 
ATOM      5  C   UNL A   1      32.793  23.444  23.763  1.00  0.00     0.227 C 
ATOM      6  O   UNL A   1      31.899  23.894  23.039  1.00  0.00    -0.274 OA
ATOM      7  H   UNL A   1      34.187  24.406  22.708  1.00  0.00     0.163 HD
BRANCH   5   8
ATOM      8  C   UNL A   1      32.459  22.454  24.893  1.00  0.00     0.105 C 
ATOM      9  C   UNL A   1      31.125  22.794  25.570  1.00  0.00     0.023 C 
BRANCH   8  10
ATOM     10  C   UNL A   1      32.703  21.005  24.485  1.00  0.00    -0.036 A 
ATOM     11  C   UNL A   1      33.372  18.352  23.742  1.00  0.00    -0.048 A 
ATOM     12  C   UNL A   1      32.476  19.101  22.977  1.00  0.00     0.004 A 
ATOM     13  C   UNL A   1      33.899  18.920  24.906  1.00  0.00     0.004 A 
ATOM     14  C   UNL A   1      32.127  20.400  23.358  1.00  0.00     0.005 A 
ATOM     15  C   UNL A   1      33.584  20.233  25.261  1.00  0.00     0.005 A 
BRANCH  11  16
ATOM     16  C   UNL A   1      33.793  16.972  23.296  1.00  0.00     0.038 C 
BRANCH  16  17
ATOM     17  C   UNL A   1      33.764  15.925  24.430  1.00  0.00    -0.013 C 
ATOM     18  C   UNL A   1      35.067  15.896  25.234  1.00  0.00     0.008 C 
ATOM     19  C   UNL A   1      32.593  16.216  25.372  1.00  0.00     0.008 C 
ENDBRANCH  16  17
ENDBRANCH  11  16
ENDBRANCH   8  10
ENDBRANCH   5   8
ENDBRANCH   3   4
ENDBRANCH   2   3
ENDBRANCH   1   2
BRANCH   1  20
ATOM     20  C   UNL A   1      37.120  20.530  25.024  1.00  0.00     0.002 C 
BRANCH  20  21
ATOM     21  C   UNL A   1      38.407  19.709  25.136  1.00  0.00     0.021 C 
BRANCH  21  22
ATOM     22  C   UNL A   1      39.492  20.320  26.017  1.00  0.00     0.116 C 
BRANCH  22  23
ATOM     23  N   UNL A   1      40.662  19.465  26.127  1.00  0.00    -0.352 N 
ATOM     24  C   UNL A   1      41.985  19.811  26.258  1.00  0.00     0.251 C 
ATOM     25  H   UNL A   1      40.480  18.498  26.104  1.00  0.00     0.163 HD
ATOM     26  O   UNL A   1      42.854  18.953  26.153  1.00  0.00    -0.269 OA
BRANCH  24  27
ATOM     27  C   UNL A   1      42.358  21.221  26.506  1.00  0.00     0.039 A 
ATOM     28  C   UNL A   1      42.576  21.640  27.821  1.00  0.00     0.014 A 
ATOM     29  C   UNL A   1      42.487  22.127  25.450  1.00  0.00     0.014 A 
ATOM     30  C   UNL A   1      42.982  22.954  28.070  1.00  0.00     0.010 A 
ATOM     31  C   UNL A   1      42.964  23.413  25.694  1.00  0.00     0.010 A 
ATOM     32  C   UNL A   1      43.213  23.841  27.007  1.00  0.00    -0.014 A 
BRANCH  32  33
ATOM     33  C   UNL A   1      43.717  25.218  27.248  1.00  0.00     0.031 A 
ATOM     34  C   UNL A   1      45.161  25.553  26.985  1.00  0.00     0.074 A 
ATOM     35  C   UNL A   1      42.890  26.151  27.761  1.00  0.00     0.049 A 
ATOM     36  N   UNL A   1      45.795  26.681  27.187  1.00  0.00    -0.248 NA
ATOM     37  C   UNL A   1      46.008  24.478  26.445  1.00  0.00     0.031 C 
ATOM     38  C   UNL A   1      41.478  25.942  28.093  1.00  0.00     0.029 A 
ATOM     39  N   UNL A   1      43.116  27.463  28.097  1.00  0.00    -0.354 N 
ATOM     40  C   UNL A   1      47.114  26.446  26.815  1.00  0.00     0.074 A 
ATOM     41  C   UNL A   1      47.201  25.055  26.424  1.00  0.00     0.031 C 
ATOM     42  C   UNL A   1      40.960  27.089  28.559  1.00  0.00     0.029 A 
ATOM     43  C   UNL A   1      42.008  28.103  28.604  1.00  0.00     0.049 A 
ATOM     44  H   UNL A   1      43.989  27.904  27.988  1.00  0.00     0.167 HD
ATOM     45  C   UNL A   1      48.154  27.313  26.783  1.00  0.00     0.031 A 
ATOM     46  C   UNL A   1      41.854  29.360  29.064  1.00  0.00     0.031 A 
ATOM     47  C   UNL A   1      48.061  28.697  27.167  1.00  0.00     0.049 A 
ATOM     48  C   UNL A   1      43.032  30.298  29.041  1.00  0.00     0.074 A 
ATOM     49  C   UNL A   1      49.045  29.669  27.121  1.00  0.00     0.029 A 
ATOM     50  N   UNL A   1      46.922  29.305  27.672  1.00  0.00    -0.354 N 
ATOM     51  N   UNL A   1      44.255  30.074  28.622  1.00  0.00    -0.248 NA
ATOM     52  C   UNL A   1      42.805  31.661  29.540  1.00  0.00     0.031 C 
ATOM     53  C   UNL A   1      48.519  30.849  27.655  1.00  0.00     0.029 A 
ATOM     54  C   UNL A   1      47.187  30.632  27.968  1.00  0.00     0.049 A 
ATOM     55  H   UNL A   1      46.053  28.861  27.801  1.00  0.00     0.167 HD
ATOM     56  C   UNL A   1      44.934  31.277  28.778  1.00  0.00     0.074 A 
ATOM     57  C   UNL A   1      43.982  32.228  29.315  1.00  0.00     0.031 C 
ATOM     58  C   UNL A   1      46.229  31.569  28.501  1.00  0.00     0.031 A 
BRANCH  45  59
ATOM     59  C   UNL A   1      49.491  26.787  26.324  1.00  0.00    -0.014 A 
ATOM     60  C   UNL A   1      50.240  25.906  27.124  1.00  0.00     0.010 A 
ATOM     61  C   UNL A   1      49.981  27.139  25.053  1.00  0.00     0.010 A 
ATOM     62  C   UNL A   1      51.473  25.419  26.679  1.00  0.00     0.020 A 
ATOM     63  C   UNL A   1      51.198  26.630  24.591  1.00  0.00     0.020 A 
ATOM     64  C   UNL A   1      51.944  25.784  25.414  1.00  0.00     0.054 A 
BRANCH  64  65
ATOM     65  S   UNL A   1      53.533  25.115  24.853  1.00  0.00     0.124 S 
ATOM     66  O   UNL A   1      53.423  23.711  25.243  1.00  0.00    -0.237 OA
ATOM     67  O   UNL A   1      53.496  25.371  23.416  1.00  0.00    -0.237 OA
ATOM     68  O   UNL A   1      54.521  25.892  25.598  1.00  0.00    -0.744 OA
ENDBRANCH  64  65
ENDBRANCH  45  59
BRANCH  46  69
ATOM     69  C   UNL A   1      40.531  29.808  29.581  1.00  0.00    -0.014 A 
ATOM     70  C   UNL A   1      39.476  30.098  28.697  1.00  0.00     0.010 A 
ATOM     71  C   UNL A   1      40.318  29.947  30.965  1.00  0.00     0.010 A 
ATOM     72  C   UNL A   1      38.243  30.539  29.185  1.00  0.00     0.020 A 
ATOM     73  C   UNL A   1      39.077  30.357  31.459  1.00  0.00     0.020 A 
ATOM     74  C   UNL A   1      38.050  30.664  30.565  1.00  0.00     0.054 A 
BRANCH  74  75
ATOM     75  S   UNL A   1      36.428  31.198  31.177  1.00  0.00     0.124 S 
ATOM     76  O   UNL A   1      35.651  31.283  29.943  1.00  0.00    -0.237 OA
ATOM     77  O   UNL A   1      36.061  30.114  32.084  1.00  0.00    -0.237 OA
ATOM     78  O   UNL A   1      36.712  32.475  31.827  1.00  0.00    -0.744 OA
ENDBRANCH  74  75
ENDBRANCH  46  69
BRANCH  58  79
ATOM     79  C   UNL A   1      46.689  32.985  28.732  1.00  0.00    -0.014 A 
ATOM     80  C   UNL A   1      47.398  33.347  29.890  1.00  0.00     0.010 A 
ATOM     81  C   UNL A   1      46.455  33.957  27.740  1.00  0.00     0.010 A 
ATOM     82  C   UNL A   1      47.838  34.662  30.066  1.00  0.00     0.020 A 
ATOM     83  C   UNL A   1      46.922  35.264  27.897  1.00  0.00     0.020 A 
ATOM     84  C   UNL A   1      47.600  35.611  29.067  1.00  0.00     0.054 A 
BRANCH  84  85
ATOM     85  S   UNL A   1      48.223  37.298  29.300  1.00  0.00     0.124 S 
ATOM     86  O   UNL A   1      47.594  38.012  28.193  1.00  0.00    -0.237 OA
ATOM     87  O   UNL A   1      47.728  37.640  30.631  1.00  0.00    -0.237 OA
ATOM     88  O   UNL A   1      49.673  37.149  29.201  1.00  0.00    -0.744 OA
ENDBRANCH  84  85
ENDBRANCH  58  79
ENDBRANCH  32  33
ENDBRANCH  24  27
ENDBRANCH  22  23
ENDBRANCH  21  22
ENDBRANCH  20  21
ENDBRANCH   1  20
TORSDOF 19
ENDMDL
