MODEL 1
REMARK VINA RESULT:     -11.6      0.000      0.000
REMARK SMILES O=C(NCCCCCCNC(=O)[C@@H]1[C@@H](C(=O)Nc2cccc(C(F)(F)F)c2)[C@@H]2C=C[C@H]1O2)c1ccc(-c2c3nc(c(-c4ccc(S(=O)(=O)[O-])cc4)c4ccc([nH]4)c(-c4ccc(S(=O)(=O)[O-])cc4)c4nc(c(-c5ccc(S(=O)(=O)[O-])cc5)c5ccc2[nH]5)C=C4)C=C3)cc1
REMARK SMILES IDX 6 1 5 2 4 3 3 4 1 5 2 6 33 8 34 9 92 10 35 11 91 12 36 13
REMARK SMILES IDX 37 14 38 15 85 16 39 17 90 18 84 19 86 20 40 21 89 22 83 23
REMARK SMILES IDX 82 24 41 26 71 27 52 28 70 29 53 30 56 31 69 32 87 33 54 34
REMARK SMILES IDX 55 35 68 37 88 38 57 39 42 40 43 41 51 42 44 43 50 44 45 45
REMARK SMILES IDX 46 46 47 47 48 48 49 49 72 50 73 51 81 52 74 53 80 54 75 55
REMARK SMILES IDX 76 56 77 57 78 58 79 59 58 60 59 61 67 62 60 63 66 64 61 65
REMARK SMILES IDX 62 66 63 67 64 68 65 69 7 70 8 71 9 72 10 73 11 74 12 76
REMARK SMILES IDX 13 77 14 78 31 79 28 80 30 81 32 82 29 83 15 84 16 85 17 86
REMARK SMILES IDX 18 88 19 89 27 90 20 91 22 92 21 93 23 94 24 95 25 96 26 97
REMARK H PARENT 3 7 86 25 56 36 10 75 17 87
REMARK Flexibility Score: inf
ROOT
ATOM      1  C   UNL A   1      37.121  21.094  24.791  1.00  0.00     0.002 C 
ENDROOT
BRANCH   1   2
ATOM      2  C   UNL A   1      38.154  19.984  24.998  1.00  0.00     0.021 C 
BRANCH   2   3
ATOM      3  C   UNL A   1      39.341  20.373  25.864  1.00  0.00     0.116 C 
BRANCH   3   4
ATOM      4  N   UNL A   1      40.289  19.284  26.000  1.00  0.00    -0.352 N 
ATOM      5  O   UNL A   1      42.340  18.349  26.027  1.00  0.00    -0.269 OA
ATOM      6  C   UNL A   1      41.647  19.357  26.150  1.00  0.00     0.251 C 
ATOM      7  H   UNL A   1      39.906  18.377  25.981  1.00  0.00     0.163 HD
BRANCH   6   8
ATOM      8  C   UNL A   1      42.264  20.662  26.456  1.00  0.00     0.039 A 
ATOM      9  C   UNL A   1      42.790  21.447  25.425  1.00  0.00     0.014 A 
ATOM     10  C   UNL A   1      42.301  21.108  27.778  1.00  0.00     0.014 A 
ATOM     11  C   UNL A   1      43.436  22.638  25.724  1.00  0.00     0.010 A 
ATOM     12  C   UNL A   1      42.871  22.349  28.068  1.00  0.00     0.010 A 
ATOM     13  C   UNL A   1      43.436  23.124  27.041  1.00  0.00    -0.014 A 
BRANCH  13  14
ATOM     14  C   UNL A   1      43.877  24.515  27.294  1.00  0.00     0.031 A 
ATOM     15  C   UNL A   1      42.903  25.595  27.662  1.00  0.00     0.074 A 
ATOM     16  C   UNL A   1      45.190  24.787  27.154  1.00  0.00     0.049 A 
ATOM     17  N   UNL A   1      43.138  26.865  27.872  1.00  0.00    -0.248 NA
ATOM     18  C   UNL A   1      41.489  25.213  27.808  1.00  0.00     0.031 C 
ATOM     19  C   UNL A   1      46.219  23.807  26.780  1.00  0.00     0.029 A 
ATOM     20  N   UNL A   1      45.892  25.954  27.306  1.00  0.00    -0.354 N 
ATOM     21  C   UNL A   1      41.904  27.441  28.149  1.00  0.00     0.074 A 
ATOM     22  C   UNL A   1      40.918  26.383  28.075  1.00  0.00     0.031 C 
ATOM     23  C   UNL A   1      47.416  24.407  26.759  1.00  0.00     0.029 A 
ATOM     24  C   UNL A   1      47.234  25.824  27.037  1.00  0.00     0.049 A 
ATOM     25  H   UNL A   1      45.476  26.803  27.581  1.00  0.00     0.167 HD
ATOM     26  C   UNL A   1      41.629  28.736  28.430  1.00  0.00     0.031 A 
ATOM     27  C   UNL A   1      48.210  26.749  26.973  1.00  0.00     0.031 A 
ATOM     28  C   UNL A   1      42.626  29.773  28.502  1.00  0.00     0.049 A 
ATOM     29  C   UNL A   1      47.858  28.182  27.246  1.00  0.00     0.074 A 
ATOM     30  C   UNL A   1      42.456  31.102  28.849  1.00  0.00     0.029 A 
ATOM     31  N   UNL A   1      43.971  29.609  28.204  1.00  0.00    -0.354 N 
ATOM     32  N   UNL A   1      46.701  28.691  27.593  1.00  0.00    -0.248 NA
ATOM     33  C   UNL A   1      48.939  29.167  27.114  1.00  0.00     0.031 C 
ATOM     34  C   UNL A   1      43.679  31.757  28.686  1.00  0.00     0.029 A 
ATOM     35  C   UNL A   1      44.630  30.823  28.306  1.00  0.00     0.049 A 
ATOM     36  H   UNL A   1      44.395  28.755  27.956  1.00  0.00     0.167 HD
ATOM     37  C   UNL A   1      46.916  30.056  27.729  1.00  0.00     0.074 A 
ATOM     38  C   UNL A   1      48.321  30.287  27.463  1.00  0.00     0.031 C 
ATOM     39  C   UNL A   1      46.029  31.033  28.034  1.00  0.00     0.031 A 
BRANCH  26  40
ATOM     40  C   UNL A   1      40.194  29.137  28.653  1.00  0.00    -0.014 A 
ATOM     41  C   UNL A   1      39.717  29.469  29.932  1.00  0.00     0.010 A 
ATOM     42  C   UNL A   1      39.348  29.307  27.540  1.00  0.00     0.010 A 
ATOM     43  C   UNL A   1      38.417  29.961  30.094  1.00  0.00     0.020 A 
ATOM     44  C   UNL A   1      38.057  29.819  27.696  1.00  0.00     0.020 A 
ATOM     45  C   UNL A   1      37.598  30.141  28.973  1.00  0.00     0.054 A 
BRANCH  45  46
ATOM     46  S   UNL A   1      35.948  30.858  29.207  1.00  0.00     0.124 S 
ATOM     47  O   UNL A   1      35.097  29.882  28.531  1.00  0.00    -0.237 OA
ATOM     48  O   UNL A   1      35.821  30.898  30.662  1.00  0.00    -0.237 OA
ATOM     49  O   UNL A   1      36.038  32.162  28.556  1.00  0.00    -0.744 OA
ENDBRANCH  45  46
ENDBRANCH  26  40
BRANCH  27  50
ATOM     50  C   UNL A   1      49.586  26.358  26.564  1.00  0.00    -0.014 A 
ATOM     51  C   UNL A   1      50.004  26.473  25.228  1.00  0.00     0.010 A 
ATOM     52  C   UNL A   1      50.485  25.847  27.521  1.00  0.00     0.010 A 
ATOM     53  C   UNL A   1      51.281  26.045  24.849  1.00  0.00     0.020 A 
ATOM     54  C   UNL A   1      51.773  25.456  27.153  1.00  0.00     0.020 A 
ATOM     55  C   UNL A   1      52.155  25.536  25.814  1.00  0.00     0.054 A 
BRANCH  55  56
ATOM     56  S   UNL A   1      53.804  24.988  25.299  1.00  0.00     0.124 S 
ATOM     57  O   UNL A   1      53.673  23.536  25.363  1.00  0.00    -0.237 OA
ATOM     58  O   UNL A   1      53.921  25.556  23.958  1.00  0.00    -0.237 OA
ATOM     59  O   UNL A   1      54.689  25.581  26.298  1.00  0.00    -0.744 OA
ENDBRANCH  55  56
ENDBRANCH  27  50
BRANCH  39  60
ATOM     60  C   UNL A   1      46.554  32.441  28.105  1.00  0.00    -0.014 A 
ATOM     61  C   UNL A   1      46.553  33.270  26.969  1.00  0.00     0.010 A 
ATOM     62  C   UNL A   1      46.999  32.958  29.334  1.00  0.00     0.010 A 
ATOM     63  C   UNL A   1      47.009  34.586  27.058  1.00  0.00     0.020 A 
ATOM     64  C   UNL A   1      47.426  34.285  29.434  1.00  0.00     0.020 A 
ATOM     65  C   UNL A   1      47.438  35.087  28.291  1.00  0.00     0.054 A 
BRANCH  65  66
ATOM     66  S   UNL A   1      47.963  36.819  28.389  1.00  0.00     0.124 S 
ATOM     67  O   UNL A   1      47.687  37.298  27.037  1.00  0.00    -0.237 OA
ATOM     68  O   UNL A   1      47.097  37.356  29.435  1.00  0.00    -0.237 OA
ATOM     69  O   UNL A   1      49.379  36.733  28.742  1.00  0.00    -0.744 OA
ENDBRANCH  65  66
ENDBRANCH  39  60
ENDBRANCH  13  14
ENDBRANCH   6   8
ENDBRANCH   3   4
ENDBRANCH   2   3
ENDBRANCH   1   2
BRANCH   1  70
ATOM     70  C   UNL A   1      37.128  22.212  25.837  1.00  0.00     0.002 C 
BRANCH  70  71
ATOM     71  C   UNL A   1      37.013  23.625  25.279  1.00  0.00     0.021 C 
BRANCH  71  72
ATOM     72  C   UNL A   1      35.613  24.218  25.320  1.00  0.00     0.116 C 
BRANCH  72  73
ATOM     73  N   UNL A   1      34.968  24.265  24.026  1.00  0.00    -0.356 N 
ATOM     74  C   UNL A   1      33.956  25.011  23.523  1.00  0.00     0.227 C 
ATOM     75  H   UNL A   1      35.339  23.622  23.380  1.00  0.00     0.163 HD
ATOM     76  O   UNL A   1      33.732  24.861  22.313  1.00  0.00    -0.275 OA
BRANCH  74  77
ATOM     77  C   UNL A   1      33.019  25.903  24.322  1.00  0.00     0.127 C 
ATOM     78  C   UNL A   1      31.568  26.196  23.873  1.00  0.00     0.127 C 
ATOM     79  C   UNL A   1      33.619  27.320  24.417  1.00  0.00     0.155 C 
ATOM     80  C   UNL A   1      31.572  27.731  23.783  1.00  0.00     0.155 C 
ATOM     81  C   UNL A   1      33.733  28.004  23.093  1.00  0.00     0.004 C 
ATOM     82  O   UNL A   1      32.464  28.057  24.880  1.00  0.00    -0.365 OA
ATOM     83  C   UNL A   1      32.474  28.248  22.694  1.00  0.00     0.004 C 
BRANCH  78  84
ATOM     84  C   UNL A   1      30.411  25.564  24.665  1.00  0.00     0.231 C 
ATOM     85  O   UNL A   1      29.348  26.200  24.739  1.00  0.00    -0.274 OA
ATOM     86  N   UNL A   1      30.390  24.312  25.200  1.00  0.00    -0.326 N 
ATOM     87  H   UNL A   1      29.490  23.948  25.361  1.00  0.00     0.169 HD
BRANCH  86  88
ATOM     88  C   UNL A   1      31.432  23.461  25.556  1.00  0.00     0.041 A 
ATOM     89  C   UNL A   1      32.086  23.660  26.769  1.00  0.00     0.026 A 
ATOM     90  C   UNL A   1      31.821  22.419  24.728  1.00  0.00     0.039 A 
ATOM     91  C   UNL A   1      32.990  22.700  27.227  1.00  0.00     0.003 A 
ATOM     92  C   UNL A   1      32.661  21.406  25.203  1.00  0.00     0.058 A 
ATOM     93  C   UNL A   1      33.244  21.556  26.466  1.00  0.00     0.013 A 
BRANCH  92  94
ATOM     94  C   UNL A   1      32.820  20.126  24.416  1.00  0.00     0.416 C 
ATOM     95  F   UNL A   1      32.280  20.216  23.167  1.00  0.00    -0.166 F 
ATOM     96  F   UNL A   1      34.131  19.799  24.224  1.00  0.00    -0.166 F 
ATOM     97  F   UNL A   1      32.238  19.038  24.989  1.00  0.00    -0.166 F 
ENDBRANCH  92  94
ENDBRANCH  86  88
ENDBRANCH  78  84
ENDBRANCH  74  77
ENDBRANCH  72  73
ENDBRANCH  71  72
ENDBRANCH  70  71
ENDBRANCH   1  70
TORSDOF 19
ENDMDL
MODEL 2
REMARK VINA RESULT:     -11.6      6.465     10.942
REMARK SMILES O=C(NCCCCCCNC(=O)[C@@H]1[C@@H](C(=O)Nc2cccc(C(F)(F)F)c2)[C@@H]2C=C[C@H]1O2)c1ccc(-c2c3nc(c(-c4ccc(S(=O)(=O)[O-])cc4)c4ccc([nH]4)c(-c4ccc(S(=O)(=O)[O-])cc4)c4nc(c(-c5ccc(S(=O)(=O)[O-])cc5)c5ccc2[nH]5)C=C4)C=C3)cc1
REMARK SMILES IDX 6 1 5 2 4 3 3 4 1 5 2 6 33 8 34 9 92 10 35 11 91 12 36 13
REMARK SMILES IDX 37 14 38 15 85 16 39 17 90 18 84 19 86 20 40 21 89 22 83 23
REMARK SMILES IDX 82 24 41 26 71 27 52 28 70 29 53 30 56 31 69 32 87 33 54 34
REMARK SMILES IDX 55 35 68 37 88 38 57 39 42 40 43 41 51 42 44 43 50 44 45 45
REMARK SMILES IDX 46 46 47 47 48 48 49 49 72 50 73 51 81 52 74 53 80 54 75 55
REMARK SMILES IDX 76 56 77 57 78 58 79 59 58 60 59 61 67 62 60 63 66 64 61 65
REMARK SMILES IDX 62 66 63 67 64 68 65 69 7 70 8 71 9 72 10 73 11 74 12 76
REMARK SMILES IDX 13 77 14 78 31 79 28 80 30 81 32 82 29 83 15 84 16 85 17 86
REMARK SMILES IDX 18 88 19 89 27 90 20 91 22 92 21 93 23 94 24 95 25 96 26 97
REMARK H PARENT 3 7 86 25 56 36 10 75 17 87
REMARK Flexibility Score: inf
ROOT
ATOM      1  C   UNL A   1      39.313  22.717  26.609  1.00  0.00     0.002 C 
ENDROOT
BRANCH   1   2
ATOM      2  C   UNL A   1      40.567  22.150  27.278  1.00  0.00     0.021 C 
BRANCH   2   3
ATOM      3  C   UNL A   1      41.731  23.121  27.375  1.00  0.00     0.116 C 
BRANCH   3   4
ATOM      4  N   UNL A   1      41.835  23.958  26.195  1.00  0.00    -0.352 N 
ATOM      5  O   UNL A   1      41.549  25.843  24.992  1.00  0.00    -0.269 OA
ATOM      6  C   UNL A   1      41.647  25.310  26.095  1.00  0.00     0.251 C 
ATOM      7  H   UNL A   1      42.070  23.493  25.359  1.00  0.00     0.163 HD
BRANCH   6   8
ATOM      8  C   UNL A   1      41.561  26.113  27.331  1.00  0.00     0.039 A 
ATOM      9  C   UNL A   1      42.596  26.989  27.670  1.00  0.00     0.014 A 
ATOM     10  C   UNL A   1      40.433  25.998  28.144  1.00  0.00     0.014 A 
ATOM     11  C   UNL A   1      42.547  27.685  28.870  1.00  0.00     0.010 A 
ATOM     12  C   UNL A   1      40.342  26.766  29.306  1.00  0.00     0.010 A 
ATOM     13  C   UNL A   1      41.397  27.620  29.672  1.00  0.00    -0.014 A 
BRANCH  13  14
ATOM     14  C   UNL A   1      41.246  28.576  30.792  1.00  0.00     0.031 A 
ATOM     15  C   UNL A   1      42.087  28.478  32.030  1.00  0.00     0.074 A 
ATOM     16  C   UNL A   1      40.301  29.531  30.673  1.00  0.00     0.049 A 
ATOM     17  N   UNL A   1      42.039  29.219  33.107  1.00  0.00    -0.248 NA
ATOM     18  C   UNL A   1      43.106  27.416  32.076  1.00  0.00     0.031 C 
ATOM     19  C   UNL A   1      39.416  29.701  29.513  1.00  0.00     0.029 A 
ATOM     20  N   UNL A   1      39.921  30.536  31.522  1.00  0.00    -0.354 N 
ATOM     21  C   UNL A   1      42.998  28.701  33.969  1.00  0.00     0.074 A 
ATOM     22  C   UNL A   1      43.611  27.577  33.294  1.00  0.00     0.031 C 
ATOM     23  C   UNL A   1      38.620  30.758  29.713  1.00  0.00     0.029 A 
ATOM     24  C   UNL A   1      38.877  31.293  31.042  1.00  0.00     0.049 A 
ATOM     25  H   UNL A   1      40.352  30.700  32.392  1.00  0.00     0.167 HD
ATOM     26  C   UNL A   1      43.323  29.127  35.213  1.00  0.00     0.031 A 
ATOM     27  C   UNL A   1      38.170  32.280  31.622  1.00  0.00     0.031 A 
ATOM     28  C   UNL A   1      42.701  30.251  35.866  1.00  0.00     0.049 A 
ATOM     29  C   UNL A   1      38.529  32.695  33.019  1.00  0.00     0.074 A 
ATOM     30  C   UNL A   1      43.010  30.805  37.096  1.00  0.00     0.029 A 
ATOM     31  N   UNL A   1      41.636  30.980  35.358  1.00  0.00    -0.354 N 
ATOM     32  N   UNL A   1      39.499  32.251  33.782  1.00  0.00    -0.248 NA
ATOM     33  C   UNL A   1      37.700  33.738  33.635  1.00  0.00     0.031 C 
ATOM     34  C   UNL A   1      42.084  31.815  37.367  1.00  0.00     0.029 A 
ATOM     35  C   UNL A   1      41.241  31.941  36.274  1.00  0.00     0.049 A 
ATOM     36  H   UNL A   1      41.221  30.836  34.477  1.00  0.00     0.167 HD
ATOM     37  C   UNL A   1      39.400  32.967  34.969  1.00  0.00     0.074 A 
ATOM     38  C   UNL A   1      38.302  33.897  34.805  1.00  0.00     0.031 C 
ATOM     39  C   UNL A   1      40.143  32.856  36.095  1.00  0.00     0.031 A 
BRANCH  26  40
ATOM     40  C   UNL A   1      44.374  28.372  35.983  1.00  0.00    -0.014 A 
ATOM     41  C   UNL A   1      45.731  28.733  35.917  1.00  0.00     0.010 A 
ATOM     42  C   UNL A   1      43.975  27.368  36.885  1.00  0.00     0.010 A 
ATOM     43  C   UNL A   1      46.669  28.099  36.738  1.00  0.00     0.020 A 
ATOM     44  C   UNL A   1      44.907  26.749  37.723  1.00  0.00     0.020 A 
ATOM     45  C   UNL A   1      46.250  27.117  37.643  1.00  0.00     0.054 A 
BRANCH  45  46
ATOM     46  S   UNL A   1      47.478  26.373  38.752  1.00  0.00     0.124 S 
ATOM     47  O   UNL A   1      46.691  25.344  39.426  1.00  0.00    -0.237 OA
ATOM     48  O   UNL A   1      48.490  25.879  37.821  1.00  0.00    -0.237 OA
ATOM     49  O   UNL A   1      47.904  27.485  39.598  1.00  0.00    -0.744 OA
ENDBRANCH  45  46
ENDBRANCH  26  40
BRANCH  27  50
ATOM     50  C   UNL A   1      37.010  32.885  30.913  1.00  0.00    -0.014 A 
ATOM     51  C   UNL A   1      37.198  33.878  29.937  1.00  0.00     0.010 A 
ATOM     52  C   UNL A   1      35.701  32.476  31.230  1.00  0.00     0.010 A 
ATOM     53  C   UNL A   1      36.096  34.480  29.321  1.00  0.00     0.020 A 
ATOM     54  C   UNL A   1      34.599  33.046  30.589  1.00  0.00     0.020 A 
ATOM     55  C   UNL A   1      34.803  34.062  29.655  1.00  0.00     0.054 A 
BRANCH  55  56
ATOM     56  S   UNL A   1      33.390  34.856  28.845  1.00  0.00     0.124 S 
ATOM     57  O   UNL A   1      33.999  36.059  28.287  1.00  0.00    -0.237 OA
ATOM     58  O   UNL A   1      32.976  33.847  27.873  1.00  0.00    -0.237 OA
ATOM     59  O   UNL A   1      32.449  35.080  29.940  1.00  0.00    -0.744 OA
ENDBRANCH  55  56
ENDBRANCH  27  50
BRANCH  39  60
ATOM     60  C   UNL A   1      39.797  33.771  37.239  1.00  0.00    -0.014 A 
ATOM     61  C   UNL A   1      38.967  33.334  38.286  1.00  0.00     0.010 A 
ATOM     62  C   UNL A   1      40.357  35.060  37.295  1.00  0.00     0.010 A 
ATOM     63  C   UNL A   1      38.685  34.181  39.360  1.00  0.00     0.020 A 
ATOM     64  C   UNL A   1      40.102  35.897  38.383  1.00  0.00     0.020 A 
ATOM     65  C   UNL A   1      39.259  35.455  39.405  1.00  0.00     0.054 A 
BRANCH  65  66
ATOM     66  S   UNL A   1      38.926  36.507  40.842  1.00  0.00     0.124 S 
ATOM     67  O   UNL A   1      40.239  36.579  41.478  1.00  0.00    -0.237 OA
ATOM     68  O   UNL A   1      38.456  37.746  40.229  1.00  0.00    -0.237 OA
ATOM     69  O   UNL A   1      37.912  35.764  41.589  1.00  0.00    -0.744 OA
ENDBRANCH  65  66
ENDBRANCH  39  60
ENDBRANCH  13  14
ENDBRANCH   6   8
ENDBRANCH   3   4
ENDBRANCH   2   3
ENDBRANCH   1   2
BRANCH   1  70
ATOM     70  C   UNL A   1      38.543  21.747  25.708  1.00  0.00     0.002 C 
BRANCH  70  71
ATOM     71  C   UNL A   1      37.081  22.103  25.471  1.00  0.00     0.021 C 
BRANCH  71  72
ATOM     72  C   UNL A   1      36.854  23.360  24.644  1.00  0.00     0.116 C 
BRANCH  72  73
ATOM     73  N   UNL A   1      35.920  24.287  25.248  1.00  0.00    -0.356 N 
ATOM     74  C   UNL A   1      34.670  24.687  24.918  1.00  0.00     0.227 C 
ATOM     75  H   UNL A   1      36.266  24.715  26.064  1.00  0.00     0.163 HD
ATOM     76  O   UNL A   1      34.112  25.427  25.741  1.00  0.00    -0.275 OA
BRANCH  74  77
ATOM     77  C   UNL A   1      33.959  24.410  23.602  1.00  0.00     0.127 C 
ATOM     78  C   UNL A   1      32.723  25.218  23.141  1.00  0.00     0.127 C 
ATOM     79  C   UNL A   1      33.418  22.967  23.607  1.00  0.00     0.155 C 
ATOM     80  C   UNL A   1      31.675  24.108  22.957  1.00  0.00     0.155 C 
ATOM     81  C   UNL A   1      32.368  22.733  24.645  1.00  0.00     0.004 C 
ATOM     82  O   UNL A   1      32.517  23.027  22.478  1.00  0.00    -0.365 OA
ATOM     83  C   UNL A   1      31.298  23.443  24.254  1.00  0.00     0.004 C 
BRANCH  78  84
ATOM     84  C   UNL A   1      32.883  26.203  21.971  1.00  0.00     0.231 C 
ATOM     85  O   UNL A   1      33.357  25.767  20.911  1.00  0.00    -0.274 OA
ATOM     86  N   UNL A   1      32.444  27.492  21.938  1.00  0.00    -0.326 N 
ATOM     87  H   UNL A   1      32.316  27.859  21.034  1.00  0.00     0.169 HD
BRANCH  86  88
ATOM     88  C   UNL A   1      32.148  28.375  22.972  1.00  0.00     0.041 A 
ATOM     89  C   UNL A   1      30.907  29.005  22.993  1.00  0.00     0.026 A 
ATOM     90  C   UNL A   1      33.065  28.629  23.981  1.00  0.00     0.039 A 
ATOM     91  C   UNL A   1      30.524  29.730  24.122  1.00  0.00     0.003 A 
ATOM     92  C   UNL A   1      32.673  29.284  25.154  1.00  0.00     0.058 A 
ATOM     93  C   UNL A   1      31.387  29.834  25.216  1.00  0.00     0.013 A 
BRANCH  92  94
ATOM     94  C   UNL A   1      33.578  29.273  26.364  1.00  0.00     0.416 C 
ATOM     95  F   UNL A   1      33.748  30.518  26.893  1.00  0.00    -0.166 F 
ATOM     96  F   UNL A   1      33.075  28.510  27.377  1.00  0.00    -0.166 F 
ATOM     97  F   UNL A   1      34.833  28.804  26.123  1.00  0.00    -0.166 F 
ENDBRANCH  92  94
ENDBRANCH  86  88
ENDBRANCH  78  84
ENDBRANCH  74  77
ENDBRANCH  72  73
ENDBRANCH  71  72
ENDBRANCH  70  71
ENDBRANCH   1  70
TORSDOF 19
ENDMDL
MODEL 3
REMARK VINA RESULT:     -11.1      6.492      8.444
REMARK SMILES O=C(NCCCCCCNC(=O)[C@@H]1[C@@H](C(=O)Nc2cccc(C(F)(F)F)c2)[C@@H]2C=C[C@H]1O2)c1ccc(-c2c3nc(c(-c4ccc(S(=O)(=O)[O-])cc4)c4ccc([nH]4)c(-c4ccc(S(=O)(=O)[O-])cc4)c4nc(c(-c5ccc(S(=O)(=O)[O-])cc5)c5ccc2[nH]5)C=C4)C=C3)cc1
REMARK SMILES IDX 6 1 5 2 4 3 3 4 1 5 2 6 33 8 34 9 92 10 35 11 91 12 36 13
REMARK SMILES IDX 37 14 38 15 85 16 39 17 90 18 84 19 86 20 40 21 89 22 83 23
REMARK SMILES IDX 82 24 41 26 71 27 52 28 70 29 53 30 56 31 69 32 87 33 54 34
REMARK SMILES IDX 55 35 68 37 88 38 57 39 42 40 43 41 51 42 44 43 50 44 45 45
REMARK SMILES IDX 46 46 47 47 48 48 49 49 72 50 73 51 81 52 74 53 80 54 75 55
REMARK SMILES IDX 76 56 77 57 78 58 79 59 58 60 59 61 67 62 60 63 66 64 61 65
REMARK SMILES IDX 62 66 63 67 64 68 65 69 7 70 8 71 9 72 10 73 11 74 12 76
REMARK SMILES IDX 13 77 14 78 31 79 28 80 30 81 32 82 29 83 15 84 16 85 17 86
REMARK SMILES IDX 18 88 19 89 27 90 20 91 22 92 21 93 23 94 24 95 25 96 26 97
REMARK H PARENT 3 7 86 25 56 36 10 75 17 87
REMARK Flexibility Score: inf
ROOT
ATOM      1  C   UNL A   1      36.915  23.749  26.117  1.00  0.00     0.002 C 
ENDROOT
BRANCH   1   2
ATOM      2  C   UNL A   1      38.413  23.554  26.363  1.00  0.00     0.021 C 
BRANCH   2   3
ATOM      3  C   UNL A   1      39.106  24.731  27.030  1.00  0.00     0.116 C 
BRANCH   3   4
ATOM      4  N   UNL A   1      40.123  25.312  26.175  1.00  0.00    -0.352 N 
ATOM      5  O   UNL A   1      41.405  26.980  25.363  1.00  0.00    -0.269 OA
ATOM      6  C   UNL A   1      40.727  26.536  26.287  1.00  0.00     0.251 C 
ATOM      7  H   UNL A   1      40.416  24.756  25.416  1.00  0.00     0.163 HD
BRANCH   6   8
ATOM      8  C   UNL A   1      40.548  27.310  27.531  1.00  0.00     0.039 A 
ATOM      9  C   UNL A   1      39.822  26.765  28.595  1.00  0.00     0.014 A 
ATOM     10  C   UNL A   1      41.120  28.578  27.637  1.00  0.00     0.014 A 
ATOM     11  C   UNL A   1      39.590  27.525  29.734  1.00  0.00     0.010 A 
ATOM     12  C   UNL A   1      40.962  29.306  28.817  1.00  0.00     0.010 A 
ATOM     13  C   UNL A   1      40.202  28.780  29.875  1.00  0.00    -0.014 A 
BRANCH  13  14
ATOM     14  C   UNL A   1      40.176  29.447  31.197  1.00  0.00     0.031 A 
ATOM     15  C   UNL A   1      39.092  30.415  31.569  1.00  0.00     0.074 A 
ATOM     16  C   UNL A   1      41.182  29.174  32.052  1.00  0.00     0.049 A 
ATOM     17  N   UNL A   1      38.961  31.105  32.673  1.00  0.00    -0.248 NA
ATOM     18  C   UNL A   1      38.023  30.648  30.585  1.00  0.00     0.031 C 
ATOM     19  C   UNL A   1      42.297  28.259  31.777  1.00  0.00     0.029 A 
ATOM     20  N   UNL A   1      41.440  29.629  33.319  1.00  0.00    -0.354 N 
ATOM     21  C   UNL A   1      37.815  31.872  32.510  1.00  0.00     0.074 A 
ATOM     22  C   UNL A   1      37.287  31.569  31.197  1.00  0.00     0.031 C 
ATOM     23  C   UNL A   1      43.098  28.201  32.848  1.00  0.00     0.029 A 
ATOM     24  C   UNL A   1      42.604  29.131  33.853  1.00  0.00     0.049 A 
ATOM     25  H   UNL A   1      40.848  30.253  33.799  1.00  0.00     0.167 HD
ATOM     26  C   UNL A   1      37.266  32.753  33.380  1.00  0.00     0.031 A 
ATOM     27  C   UNL A   1      43.236  29.421  35.005  1.00  0.00     0.031 A 
ATOM     28  C   UNL A   1      37.807  33.037  34.685  1.00  0.00     0.049 A 
ATOM     29  C   UNL A   1      42.621  30.436  35.924  1.00  0.00     0.074 A 
ATOM     30  C   UNL A   1      37.284  33.861  35.667  1.00  0.00     0.029 A 
ATOM     31  N   UNL A   1      38.997  32.529  35.183  1.00  0.00    -0.354 N 
ATOM     32  N   UNL A   1      41.489  31.084  35.790  1.00  0.00    -0.248 NA
ATOM     33  C   UNL A   1      43.367  30.763  37.145  1.00  0.00     0.031 C 
ATOM     34  C   UNL A   1      38.194  33.911  36.726  1.00  0.00     0.029 A 
ATOM     35  C   UNL A   1      39.252  33.064  36.436  1.00  0.00     0.049 A 
ATOM     36  H   UNL A   1      39.576  31.884  34.717  1.00  0.00     0.167 HD
ATOM     37  C   UNL A   1      41.383  31.892  36.915  1.00  0.00     0.074 A 
ATOM     38  C   UNL A   1      42.547  31.622  37.735  1.00  0.00     0.031 C 
ATOM     39  C   UNL A   1      40.418  32.786  37.235  1.00  0.00     0.031 A 
BRANCH  26  40
ATOM     40  C   UNL A   1      36.033  33.509  32.960  1.00  0.00    -0.014 A 
ATOM     41  C   UNL A   1      34.745  32.992  33.180  1.00  0.00     0.010 A 
ATOM     42  C   UNL A   1      36.169  34.817  32.455  1.00  0.00     0.010 A 
ATOM     43  C   UNL A   1      33.616  33.767  32.898  1.00  0.00     0.020 A 
ATOM     44  C   UNL A   1      35.043  35.603  32.193  1.00  0.00     0.020 A 
ATOM     45  C   UNL A   1      33.772  35.072  32.414  1.00  0.00     0.054 A 
BRANCH  45  46
ATOM     46  S   UNL A   1      32.290  36.081  32.137  1.00  0.00     0.124 S 
ATOM     47  O   UNL A   1      31.225  35.171  32.550  1.00  0.00    -0.237 OA
ATOM     48  O   UNL A   1      32.514  37.225  33.018  1.00  0.00    -0.237 OA
ATOM     49  O   UNL A   1      32.334  36.381  30.709  1.00  0.00    -0.744 OA
ENDBRANCH  45  46
ENDBRANCH  26  40
BRANCH  27  50
ATOM     50  C   UNL A   1      44.552  28.800  35.314  1.00  0.00    -0.014 A 
ATOM     51  C   UNL A   1      44.632  27.581  36.007  1.00  0.00     0.010 A 
ATOM     52  C   UNL A   1      45.743  29.444  34.925  1.00  0.00     0.010 A 
ATOM     53  C   UNL A   1      45.877  27.040  36.342  1.00  0.00     0.020 A 
ATOM     54  C   UNL A   1      46.987  28.887  35.223  1.00  0.00     0.020 A 
ATOM     55  C   UNL A   1      47.046  27.699  35.951  1.00  0.00     0.054 A 
BRANCH  55  56
ATOM     56  S   UNL A   1      48.649  26.979  36.396  1.00  0.00     0.124 S 
ATOM     57  O   UNL A   1      48.765  25.885  35.437  1.00  0.00    -0.237 OA
ATOM     58  O   UNL A   1      49.565  28.099  36.193  1.00  0.00    -0.237 OA
ATOM     59  O   UNL A   1      48.468  26.575  37.788  1.00  0.00    -0.744 OA
ENDBRANCH  55  56
ENDBRANCH  27  50
BRANCH  39  60
ATOM     60  C   UNL A   1      40.574  33.532  38.532  1.00  0.00    -0.014 A 
ATOM     61  C   UNL A   1      41.280  34.747  38.585  1.00  0.00     0.010 A 
ATOM     62  C   UNL A   1      39.959  33.042  39.698  1.00  0.00     0.010 A 
ATOM     63  C   UNL A   1      41.386  35.448  39.787  1.00  0.00     0.020 A 
ATOM     64  C   UNL A   1      40.036  33.757  40.895  1.00  0.00     0.020 A 
ATOM     65  C   UNL A   1      40.759  34.951  40.934  1.00  0.00     0.054 A 
BRANCH  65  66
ATOM     66  S   UNL A   1      40.859  35.915  42.465  1.00  0.00     0.124 S 
ATOM     67  O   UNL A   1      39.531  36.520  42.533  1.00  0.00    -0.237 OA
ATOM     68  O   UNL A   1      41.136  34.891  43.469  1.00  0.00    -0.237 OA
ATOM     69  O   UNL A   1      41.956  36.849  42.217  1.00  0.00    -0.744 OA
ENDBRANCH  65  66
ENDBRANCH  39  60
ENDBRANCH  13  14
ENDBRANCH   6   8
ENDBRANCH   3   4
ENDBRANCH   2   3
ENDBRANCH   1   2
BRANCH   1  70
ATOM     70  C   UNL A   1      36.478  23.753  24.649  1.00  0.00     0.002 C 
BRANCH  70  71
ATOM     71  C   UNL A   1      35.028  23.356  24.402  1.00  0.00     0.021 C 
BRANCH  71  72
ATOM     72  C   UNL A   1      34.095  24.511  24.074  1.00  0.00     0.116 C 
BRANCH  72  73
ATOM     73  N   UNL A   1      34.372  25.711  24.835  1.00  0.00    -0.356 N 
ATOM     74  C   UNL A   1      33.582  26.587  25.500  1.00  0.00     0.227 C 
ATOM     75  H   UNL A   1      35.329  25.936  24.875  1.00  0.00     0.163 HD
ATOM     76  O   UNL A   1      34.181  27.458  26.148  1.00  0.00    -0.275 OA
BRANCH  74  77
ATOM     77  C   UNL A   1      32.066  26.663  25.423  1.00  0.00     0.127 C 
ATOM     78  C   UNL A   1      31.198  25.474  24.951  1.00  0.00     0.127 C 
ATOM     79  C   UNL A   1      31.659  27.773  24.433  1.00  0.00     0.155 C 
ATOM     80  C   UNL A   1      30.436  26.093  23.767  1.00  0.00     0.155 C 
ATOM     81  C   UNL A   1      32.082  27.494  23.027  1.00  0.00     0.004 C 
ATOM     82  O   UNL A   1      30.262  27.452  24.247  1.00  0.00    -0.365 OA
ATOM     83  C   UNL A   1      31.339  26.453  22.618  1.00  0.00     0.004 C 
BRANCH  78  84
ATOM     84  C   UNL A   1      30.347  24.725  25.990  1.00  0.00     0.231 C 
ATOM     85  O   UNL A   1      29.293  25.261  26.366  1.00  0.00    -0.274 OA
ATOM     86  N   UNL A   1      30.572  23.467  26.460  1.00  0.00    -0.326 N 
ATOM     87  H   UNL A   1      29.779  23.020  26.835  1.00  0.00     0.169 HD
BRANCH  86  88
ATOM     88  C   UNL A   1      31.738  22.708  26.496  1.00  0.00     0.041 A 
ATOM     89  C   UNL A   1      32.714  23.007  27.443  1.00  0.00     0.026 A 
ATOM     90  C   UNL A   1      31.936  21.658  25.612  1.00  0.00     0.039 A 
ATOM     91  C   UNL A   1      33.788  22.134  27.621  1.00  0.00     0.003 A 
ATOM     92  C   UNL A   1      32.960  20.728  25.827  1.00  0.00     0.058 A 
ATOM     93  C   UNL A   1      33.888  20.977  26.845  1.00  0.00     0.013 A 
BRANCH  92  94
ATOM     94  C   UNL A   1      32.973  19.428  25.059  1.00  0.00     0.416 C 
ATOM     95  F   UNL A   1      32.004  19.383  24.100  1.00  0.00    -0.166 F 
ATOM     96  F   UNL A   1      34.151  19.231  24.398  1.00  0.00    -0.166 F 
ATOM     97  F   UNL A   1      32.779  18.320  25.826  1.00  0.00    -0.166 F 
ENDBRANCH  92  94
ENDBRANCH  86  88
ENDBRANCH  78  84
ENDBRANCH  74  77
ENDBRANCH  72  73
ENDBRANCH  71  72
ENDBRANCH  70  71
ENDBRANCH   1  70
TORSDOF 19
ENDMDL
