MODEL 1
REMARK VINA RESULT:      -7.6      0.000      0.000
REMARK SMILES CCCCCCCNC(=O)Oc1cccc(-c2ccc([C@@H](C)C(=O)NCCCCCCNC(=O)c3ccc(-c4c5nc(c(-c6ccc(S(=O)(=O)[O-])cc6)c6ccc([nH]6)c(-c6ccc(S(=O)(=O)[O-])cc6)c6nc(c(-c7ccc(S(=O)(=O)[O-])cc7)c7ccc4[nH]7)C=C6)C=C5)cc3)cc2F)c1
REMARK SMILES IDX 23 1 24 2 25 3 21 5 22 6 20 7 17 8 18 9 96 10 19 11 95 12
REMARK SMILES IDX 97 13 16 14 12 15 13 16 98 17 14 18 15 19 11 20 9 21 8 22
REMARK SMILES IDX 10 24 7 25 6 26 5 27 4 28 3 29 2 30 1 31 26 32 27 33 28 34
REMARK SMILES IDX 29 35 30 36 31 37 32 38 33 39 34 41 35 42 36 43 94 44 37 45
REMARK SMILES IDX 93 46 38 47 39 48 40 49 87 50 41 51 92 52 86 53 88 54 42 55
REMARK SMILES IDX 91 56 85 57 84 58 43 60 73 61 54 62 72 63 55 64 58 65 71 66
REMARK SMILES IDX 89 67 56 68 57 69 70 71 90 72 59 73 44 74 45 75 53 76 46 77
REMARK SMILES IDX 52 78 47 79 48 80 49 81 50 82 51 83 74 84 75 85 83 86 76 87
REMARK SMILES IDX 82 88 77 89 78 90 79 91 80 92 81 93 60 94 61 95 69 96 62 97
REMARK SMILES IDX 68 98 63 99 64 100 65 101 66 102 67 103
REMARK H PARENT 25 4 8 23 32 40 88 59 58 70
REMARK Flexibility Score: inf
ROOT
ATOM      1  C   UNL A   1      39.840  27.629  28.820  1.00  0.00     0.227 C 
ATOM      2  O   UNL A   1      39.315  26.591  29.243  1.00  0.00    -0.274 OA
ATOM      3  N   UNL A   1      40.253  27.613  27.523  1.00  0.00    -0.356 N 
ATOM      4  H   UNL A   1      40.023  26.789  27.036  1.00  0.00     0.163 HD
ENDROOT
BRANCH   1   5
ATOM      5  C   UNL A   1      39.975  28.848  29.745  1.00  0.00     0.105 C 
ATOM      6  C   UNL A   1      40.256  28.491  31.205  1.00  0.00     0.023 C 
BRANCH   5   7
ATOM      7  C   UNL A   1      38.911  29.910  29.516  1.00  0.00    -0.033 A 
ATOM      8  C   UNL A   1      36.810  31.838  29.224  1.00  0.00     0.018 A 
ATOM      9  C   UNL A   1      38.118  32.213  29.569  1.00  0.00     0.012 A 
ATOM     10  C   UNL A   1      36.597  30.470  28.993  1.00  0.00     0.131 A 
ATOM     11  C   UNL A   1      39.152  31.277  29.674  1.00  0.00     0.005 A 
ATOM     12  C   UNL A   1      37.613  29.522  29.154  1.00  0.00     0.044 A 
ATOM     13  F   UNL A   1      35.395  30.022  28.596  1.00  0.00    -0.206 F 
BRANCH   8  14
ATOM     14  C   UNL A   1      35.737  32.852  29.134  1.00  0.00    -0.012 A 
ATOM     15  C   UNL A   1      34.038  34.255  30.161  1.00  0.00     0.133 A 
ATOM     16  C   UNL A   1      33.730  34.844  28.940  1.00  0.00     0.047 A 
ATOM     17  C   UNL A   1      35.023  33.273  30.268  1.00  0.00     0.056 A 
ATOM     18  C   UNL A   1      34.423  34.448  27.806  1.00  0.00     0.004 A 
ATOM     19  C   UNL A   1      35.405  33.456  27.902  1.00  0.00     0.009 A 
BRANCH  15  20
ATOM     20  O   UNL A   1      33.209  34.591  31.243  1.00  0.00    -0.410 OA
BRANCH  20  21
ATOM     21  C   UNL A   1      33.547  35.650  32.069  1.00  0.00     0.412 C 
ATOM     22  N   UNL A   1      34.102  35.235  33.248  1.00  0.00    -0.321 N 
ATOM     23  H   UNL A   1      34.330  35.933  33.904  1.00  0.00     0.167 HD
ATOM     24  O   UNL A   1      33.386  36.840  31.830  1.00  0.00    -0.224 OA
BRANCH  22  25
ATOM     25  C   UNL A   1      34.385  33.864  33.626  1.00  0.00     0.119 C 
BRANCH  25  26
ATOM     26  C   UNL A   1      35.604  33.770  34.543  1.00  0.00     0.021 C 
BRANCH  26  27
ATOM     27  C   UNL A   1      36.864  33.209  33.871  1.00  0.00     0.002 C 
BRANCH  27  28
ATOM     28  C   UNL A   1      37.841  34.264  33.340  1.00  0.00     0.000 C 
BRANCH  28  29
ATOM     29  C   UNL A   1      39.081  33.705  32.634  1.00  0.00    -0.000 C 
BRANCH  29  30
ATOM     30  C   UNL A   1      40.331  34.583  32.724  1.00  0.00    -0.003 C 
ATOM     31  C   UNL A   1      40.887  34.695  34.135  1.00  0.00     0.004 C 
ENDBRANCH  29  30
ENDBRANCH  28  29
ENDBRANCH  27  28
ENDBRANCH  26  27
ENDBRANCH  25  26
ENDBRANCH  22  25
ENDBRANCH  20  21
ENDBRANCH  15  20
ENDBRANCH   8  14
ENDBRANCH   5   7
ENDBRANCH   1   5
BRANCH   3  32
ATOM     32  C   UNL A   1      40.970  28.590  26.731  1.00  0.00     0.116 C 
BRANCH  32  33
ATOM     33  C   UNL A   1      41.967  27.925  25.780  1.00  0.00     0.021 C 
BRANCH  33  34
ATOM     34  C   UNL A   1      43.153  27.266  26.492  1.00  0.00     0.002 C 
BRANCH  34  35
ATOM     35  C   UNL A   1      43.902  26.213  25.664  1.00  0.00     0.002 C 
BRANCH  35  36
ATOM     36  C   UNL A   1      43.020  25.164  24.981  1.00  0.00     0.021 C 
BRANCH  36  37
ATOM     37  C   UNL A   1      43.736  23.863  24.629  1.00  0.00     0.116 C 
BRANCH  37  38
ATOM     38  N   UNL A   1      43.023  22.702  25.139  1.00  0.00    -0.352 N 
ATOM     39  C   UNL A   1      42.869  22.269  26.432  1.00  0.00     0.251 C 
ATOM     40  H   UNL A   1      42.587  22.144  24.454  1.00  0.00     0.163 HD
ATOM     41  O   UNL A   1      42.453  21.135  26.652  1.00  0.00    -0.269 OA
BRANCH  39  42
ATOM     42  C   UNL A   1      43.207  23.167  27.558  1.00  0.00     0.039 A 
ATOM     43  C   UNL A   1      42.179  23.837  28.225  1.00  0.00     0.014 A 
ATOM     44  C   UNL A   1      44.538  23.369  27.935  1.00  0.00     0.014 A 
ATOM     45  C   UNL A   1      42.483  24.669  29.305  1.00  0.00     0.010 A 
ATOM     46  C   UNL A   1      44.832  24.144  29.053  1.00  0.00     0.010 A 
ATOM     47  C   UNL A   1      43.808  24.807  29.746  1.00  0.00    -0.014 A 
BRANCH  47  48
ATOM     48  C   UNL A   1      44.145  25.641  30.928  1.00  0.00     0.031 A 
ATOM     49  C   UNL A   1      44.046  27.142  30.849  1.00  0.00     0.074 A 
ATOM     50  C   UNL A   1      44.599  25.051  32.052  1.00  0.00     0.049 A 
ATOM     51  N   UNL A   1      44.350  28.035  31.755  1.00  0.00    -0.248 NA
ATOM     52  C   UNL A   1      43.563  27.712  29.581  1.00  0.00     0.031 C 
ATOM     53  C   UNL A   1      44.777  23.609  32.238  1.00  0.00     0.029 A 
ATOM     54  N   UNL A   1      45.001  25.591  33.247  1.00  0.00    -0.354 N 
ATOM     55  C   UNL A   1      44.113  29.271  31.162  1.00  0.00     0.074 A 
ATOM     56  C   UNL A   1      43.687  29.012  29.805  1.00  0.00     0.031 C 
ATOM     57  C   UNL A   1      45.226  23.379  33.482  1.00  0.00     0.029 A 
ATOM     58  C   UNL A   1      45.409  24.655  34.167  1.00  0.00     0.049 A 
ATOM     59  H   UNL A   1      44.998  26.559  33.429  1.00  0.00     0.167 HD
ATOM     60  C   UNL A   1      44.223  30.508  31.703  1.00  0.00     0.031 A 
ATOM     61  C   UNL A   1      45.885  24.803  35.418  1.00  0.00     0.031 A 
ATOM     62  C   UNL A   1      44.639  30.759  33.058  1.00  0.00     0.049 A 
ATOM     63  C   UNL A   1      46.008  26.187  35.995  1.00  0.00     0.074 A 
ATOM     64  C   UNL A   1      44.730  31.973  33.718  1.00  0.00     0.029 A 
ATOM     65  N   UNL A   1      45.035  29.783  33.960  1.00  0.00    -0.354 N 
ATOM     66  N   UNL A   1      45.719  27.340  35.439  1.00  0.00    -0.248 NA
ATOM     67  C   UNL A   1      46.511  26.290  37.372  1.00  0.00     0.031 C 
ATOM     68  C   UNL A   1      45.233  31.733  35.002  1.00  0.00     0.029 A 
ATOM     69  C   UNL A   1      45.395  30.367  35.163  1.00  0.00     0.049 A 
ATOM     70  H   UNL A   1      45.057  28.816  33.773  1.00  0.00     0.167 HD
ATOM     71  C   UNL A   1      45.978  28.303  36.408  1.00  0.00     0.074 A 
ATOM     72  C   UNL A   1      46.433  27.597  37.588  1.00  0.00     0.031 C 
ATOM     73  C   UNL A   1      45.848  29.651  36.329  1.00  0.00     0.031 A 
BRANCH  60  74
ATOM     74  C   UNL A   1      43.893  31.686  30.825  1.00  0.00    -0.014 A 
ATOM     75  C   UNL A   1      44.886  32.325  30.061  1.00  0.00     0.010 A 
ATOM     76  C   UNL A   1      42.564  32.139  30.732  1.00  0.00     0.010 A 
ATOM     77  C   UNL A   1      44.566  33.420  29.253  1.00  0.00     0.020 A 
ATOM     78  C   UNL A   1      42.232  33.214  29.903  1.00  0.00     0.020 A 
ATOM     79  C   UNL A   1      43.240  33.859  29.182  1.00  0.00     0.054 A 
BRANCH  79  80
ATOM     80  S   UNL A   1      42.849  35.269  28.110  1.00  0.00     0.124 S 
ATOM     81  O   UNL A   1      43.368  34.820  26.821  1.00  0.00    -0.237 OA
ATOM     82  O   UNL A   1      41.394  35.352  28.206  1.00  0.00    -0.237 OA
ATOM     83  O   UNL A   1      43.575  36.381  28.719  1.00  0.00    -0.744 OA
ENDBRANCH  79  80
ENDBRANCH  60  74
BRANCH  61  84
ATOM     84  C   UNL A   1      46.267  23.606  36.216  1.00  0.00    -0.014 A 
ATOM     85  C   UNL A   1      47.546  23.038  36.086  1.00  0.00     0.010 A 
ATOM     86  C   UNL A   1      45.354  23.035  37.123  1.00  0.00     0.010 A 
ATOM     87  C   UNL A   1      47.901  21.912  36.834  1.00  0.00     0.020 A 
ATOM     88  C   UNL A   1      45.714  21.926  37.893  1.00  0.00     0.020 A 
ATOM     89  C   UNL A   1      46.983  21.364  37.735  1.00  0.00     0.054 A 
BRANCH  89  90
ATOM     90  S   UNL A   1      47.482  19.933  38.733  1.00  0.00     0.124 S 
ATOM     91  O   UNL A   1      46.655  18.869  38.172  1.00  0.00    -0.237 OA
ATOM     92  O   UNL A   1      48.913  19.838  38.454  1.00  0.00    -0.237 OA
ATOM     93  O   UNL A   1      47.147  20.335  40.097  1.00  0.00    -0.744 OA
ENDBRANCH  89  90
ENDBRANCH  61  84
BRANCH  73  94
ATOM     94  C   UNL A   1      46.170  30.452  37.562  1.00  0.00    -0.014 A 
ATOM     95  C   UNL A   1      47.457  30.975  37.778  1.00  0.00     0.010 A 
ATOM     96  C   UNL A   1      45.151  30.731  38.491  1.00  0.00     0.010 A 
ATOM     97  C   UNL A   1      47.727  31.737  38.918  1.00  0.00     0.020 A 
ATOM     98  C   UNL A   1      45.409  31.517  39.616  1.00  0.00     0.020 A 
ATOM     99  C   UNL A   1      46.700  32.004  39.829  1.00  0.00     0.054 A 
BRANCH  99 100
ATOM    100  S   UNL A   1      47.066  33.034  41.277  1.00  0.00     0.124 S 
ATOM    101  O   UNL A   1      45.773  33.076  41.954  1.00  0.00    -0.237 OA
ATOM    102  O   UNL A   1      48.108  32.270  41.958  1.00  0.00    -0.237 OA
ATOM    103  O   UNL A   1      47.508  34.301  40.699  1.00  0.00    -0.744 OA
ENDBRANCH  99 100
ENDBRANCH  73  94
ENDBRANCH  47  48
ENDBRANCH  39  42
ENDBRANCH  37  38
ENDBRANCH  36  37
ENDBRANCH  35  36
ENDBRANCH  34  35
ENDBRANCH  33  34
ENDBRANCH  32  33
ENDBRANCH   3  32
TORSDOF 26
ENDMDL
MODEL 2
REMARK VINA RESULT:      -7.5      1.397      7.758
REMARK SMILES CCCCCCCNC(=O)Oc1cccc(-c2ccc([C@@H](C)C(=O)NCCCCCCNC(=O)c3ccc(-c4c5nc(c(-c6ccc(S(=O)(=O)[O-])cc6)c6ccc([nH]6)c(-c6ccc(S(=O)(=O)[O-])cc6)c6nc(c(-c7ccc(S(=O)(=O)[O-])cc7)c7ccc4[nH]7)C=C6)C=C5)cc3)cc2F)c1
REMARK SMILES IDX 23 1 24 2 25 3 21 5 22 6 20 7 17 8 18 9 96 10 19 11 95 12
REMARK SMILES IDX 97 13 16 14 12 15 13 16 98 17 14 18 15 19 11 20 9 21 8 22
REMARK SMILES IDX 10 24 7 25 6 26 5 27 4 28 3 29 2 30 1 31 26 32 27 33 28 34
REMARK SMILES IDX 29 35 30 36 31 37 32 38 33 39 34 41 35 42 36 43 94 44 37 45
REMARK SMILES IDX 93 46 38 47 39 48 40 49 87 50 41 51 92 52 86 53 88 54 42 55
REMARK SMILES IDX 91 56 85 57 84 58 43 60 73 61 54 62 72 63 55 64 58 65 71 66
REMARK SMILES IDX 89 67 56 68 57 69 70 71 90 72 59 73 44 74 45 75 53 76 46 77
REMARK SMILES IDX 52 78 47 79 48 80 49 81 50 82 51 83 74 84 75 85 83 86 76 87
REMARK SMILES IDX 82 88 77 89 78 90 79 91 80 92 81 93 60 94 61 95 69 96 62 97
REMARK SMILES IDX 68 98 63 99 64 100 65 101 66 102 67 103
REMARK H PARENT 25 4 8 23 32 40 88 59 58 70
REMARK Flexibility Score: inf
ROOT
ATOM      1  C   UNL A   1      40.240  27.647  28.543  1.00  0.00     0.227 C 
ATOM      2  O   UNL A   1      39.572  26.733  29.044  1.00  0.00    -0.274 OA
ATOM      3  N   UNL A   1      40.675  27.451  27.269  1.00  0.00    -0.356 N 
ATOM      4  H   UNL A   1      40.346  26.620  26.854  1.00  0.00     0.163 HD
ENDROOT
BRANCH   1   5
ATOM      5  C   UNL A   1      40.516  28.923  29.354  1.00  0.00     0.105 C 
ATOM      6  C   UNL A   1      41.063  28.660  30.757  1.00  0.00     0.023 C 
BRANCH   5   7
ATOM      7  C   UNL A   1      39.409  29.961  29.257  1.00  0.00    -0.033 A 
ATOM      8  C   UNL A   1      37.208  31.794  29.155  1.00  0.00     0.018 A 
ATOM      9  C   UNL A   1      38.363  32.063  29.907  1.00  0.00     0.012 A 
ATOM     10  C   UNL A   1      37.208  30.594  28.426  1.00  0.00     0.131 A 
ATOM     11  C   UNL A   1      39.453  31.186  29.926  1.00  0.00     0.005 A 
ATOM     12  C   UNL A   1      38.269  29.686  28.489  1.00  0.00     0.044 A 
ATOM     13  F   UNL A   1      36.174  30.280  27.628  1.00  0.00    -0.206 F 
BRANCH   8  14
ATOM     14  C   UNL A   1      36.068  32.736  29.167  1.00  0.00    -0.012 A 
ATOM     15  C   UNL A   1      34.380  34.026  30.348  1.00  0.00     0.133 A 
ATOM     16  C   UNL A   1      33.928  34.594  29.163  1.00  0.00     0.047 A 
ATOM     17  C   UNL A   1      35.432  33.110  30.362  1.00  0.00     0.056 A 
ATOM     18  C   UNL A   1      34.542  34.244  27.969  1.00  0.00     0.004 A 
ATOM     19  C   UNL A   1      35.590  33.318  27.973  1.00  0.00     0.009 A 
BRANCH  15  20
ATOM     20  O   UNL A   1      33.630  34.308  31.501  1.00  0.00    -0.410 OA
BRANCH  20  21
ATOM     21  C   UNL A   1      33.924  35.430  32.258  1.00  0.00     0.412 C 
ATOM     22  N   UNL A   1      34.435  35.111  33.487  1.00  0.00    -0.321 N 
ATOM     23  H   UNL A   1      34.628  35.859  34.097  1.00  0.00     0.167 HD
ATOM     24  O   UNL A   1      33.761  36.596  31.925  1.00  0.00    -0.224 OA
BRANCH  22  25
ATOM     25  C   UNL A   1      34.717  33.776  33.977  1.00  0.00     0.119 C 
BRANCH  25  26
ATOM     26  C   UNL A   1      35.988  33.741  34.824  1.00  0.00     0.021 C 
BRANCH  26  27
ATOM     27  C   UNL A   1      37.266  34.128  34.070  1.00  0.00     0.002 C 
BRANCH  27  28
ATOM     28  C   UNL A   1      38.104  32.949  33.565  1.00  0.00     0.000 C 
BRANCH  28  29
ATOM     29  C   UNL A   1      39.535  33.302  33.144  1.00  0.00    -0.000 C 
BRANCH  29  30
ATOM     30  C   UNL A   1      40.441  33.797  34.274  1.00  0.00    -0.003 C 
ATOM     31  C   UNL A   1      41.227  35.048  33.911  1.00  0.00     0.004 C 
ENDBRANCH  29  30
ENDBRANCH  28  29
ENDBRANCH  27  28
ENDBRANCH  26  27
ENDBRANCH  25  26
ENDBRANCH  22  25
ENDBRANCH  20  21
ENDBRANCH  15  20
ENDBRANCH   8  14
ENDBRANCH   5   7
ENDBRANCH   1   5
BRANCH   3  32
ATOM     32  C   UNL A   1      41.532  28.244  26.413  1.00  0.00     0.116 C 
BRANCH  32  33
ATOM     33  C   UNL A   1      42.286  27.373  25.406  1.00  0.00     0.021 C 
BRANCH  33  34
ATOM     34  C   UNL A   1      43.665  26.916  25.895  1.00  0.00     0.002 C 
BRANCH  34  35
ATOM     35  C   UNL A   1      44.136  25.567  25.336  1.00  0.00     0.002 C 
BRANCH  35  36
ATOM     36  C   UNL A   1      43.044  24.505  25.174  1.00  0.00     0.021 C 
BRANCH  36  37
ATOM     37  C   UNL A   1      43.564  23.083  24.982  1.00  0.00     0.116 C 
BRANCH  37  38
ATOM     38  N   UNL A   1      42.816  22.125  25.782  1.00  0.00    -0.352 N 
ATOM     39  C   UNL A   1      42.735  22.001  27.146  1.00  0.00     0.251 C 
ATOM     40  H   UNL A   1      42.292  21.469  25.268  1.00  0.00     0.163 HD
ATOM     41  O   UNL A   1      42.262  20.981  27.640  1.00  0.00    -0.269 OA
BRANCH  39  42
ATOM     42  C   UNL A   1      43.220  23.091  28.019  1.00  0.00     0.039 A 
ATOM     43  C   UNL A   1      42.294  23.974  28.582  1.00  0.00     0.014 A 
ATOM     44  C   UNL A   1      44.587  23.261  28.258  1.00  0.00     0.014 A 
ATOM     45  C   UNL A   1      42.737  24.994  29.426  1.00  0.00     0.010 A 
ATOM     46  C   UNL A   1      45.019  24.235  29.154  1.00  0.00     0.010 A 
ATOM     47  C   UNL A   1      44.099  25.115  29.743  1.00  0.00    -0.014 A 
BRANCH  47  48
ATOM     48  C   UNL A   1      44.582  26.157  30.684  1.00  0.00     0.031 A 
ATOM     49  C   UNL A   1      44.946  25.791  32.099  1.00  0.00     0.074 A 
ATOM     50  C   UNL A   1      44.635  27.443  30.284  1.00  0.00     0.049 A 
ATOM     51  N   UNL A   1      45.331  26.569  33.078  1.00  0.00    -0.248 NA
ATOM     52  C   UNL A   1      44.842  24.369  32.466  1.00  0.00     0.031 C 
ATOM     53  C   UNL A   1      44.271  27.931  28.951  1.00  0.00     0.029 A 
ATOM     54  N   UNL A   1      45.007  28.578  30.961  1.00  0.00    -0.354 N 
ATOM     55  C   UNL A   1      45.498  25.736  34.179  1.00  0.00     0.074 A 
ATOM     56  C   UNL A   1      45.126  24.403  33.760  1.00  0.00     0.031 C 
ATOM     57  C   UNL A   1      44.464  29.259  28.901  1.00  0.00     0.029 A 
ATOM     58  C   UNL A   1      44.923  29.724  30.206  1.00  0.00     0.049 A 
ATOM     59  H   UNL A   1      45.306  28.571  31.899  1.00  0.00     0.167 HD
ATOM     60  C   UNL A   1      45.939  26.049  35.421  1.00  0.00     0.031 A 
ATOM     61  C   UNL A   1      45.177  31.007  30.528  1.00  0.00     0.031 A 
ATOM     62  C   UNL A   1      46.318  27.376  35.830  1.00  0.00     0.049 A 
ATOM     63  C   UNL A   1      45.656  31.332  31.917  1.00  0.00     0.074 A 
ATOM     64  C   UNL A   1      46.828  27.787  37.050  1.00  0.00     0.029 A 
ATOM     65  N   UNL A   1      46.226  28.507  35.034  1.00  0.00    -0.354 N 
ATOM     66  N   UNL A   1      45.867  30.521  32.926  1.00  0.00    -0.248 NA
ATOM     67  C   UNL A   1      45.941  32.744  32.207  1.00  0.00     0.031 C 
ATOM     68  C   UNL A   1      46.994  29.176  37.007  1.00  0.00     0.029 A 
ATOM     69  C   UNL A   1      46.647  29.621  35.742  1.00  0.00     0.049 A 
ATOM     70  H   UNL A   1      45.908  28.518  34.101  1.00  0.00     0.167 HD
ATOM     71  C   UNL A   1      46.337  31.320  33.963  1.00  0.00     0.074 A 
ATOM     72  C   UNL A   1      46.392  32.675  33.453  1.00  0.00     0.031 C 
ATOM     73  C   UNL A   1      46.694  30.964  35.221  1.00  0.00     0.031 A 
BRANCH  60  74
ATOM     74  C   UNL A   1      46.030  24.935  36.431  1.00  0.00    -0.014 A 
ATOM     75  C   UNL A   1      45.012  24.727  37.379  1.00  0.00     0.010 A 
ATOM     76  C   UNL A   1      47.130  24.058  36.408  1.00  0.00     0.010 A 
ATOM     77  C   UNL A   1      45.112  23.692  38.313  1.00  0.00     0.020 A 
ATOM     78  C   UNL A   1      47.221  23.002  37.320  1.00  0.00     0.020 A 
ATOM     79  C   UNL A   1      46.219  22.837  38.279  1.00  0.00     0.054 A 
BRANCH  79  80
ATOM     80  S   UNL A   1      46.312  21.489  39.488  1.00  0.00     0.124 S 
ATOM     81  O   UNL A   1      47.717  21.538  39.886  1.00  0.00    -0.237 OA
ATOM     82  O   UNL A   1      45.355  21.907  40.510  1.00  0.00    -0.237 OA
ATOM     83  O   UNL A   1      45.924  20.307  38.722  1.00  0.00    -0.744 OA
ENDBRANCH  79  80
ENDBRANCH  60  74
BRANCH  61  84
ATOM     84  C   UNL A   1      44.999  32.079  29.511  1.00  0.00    -0.014 A 
ATOM     85  C   UNL A   1      46.047  32.415  28.636  1.00  0.00     0.010 A 
ATOM     86  C   UNL A   1      43.772  32.759  29.401  1.00  0.00     0.010 A 
ATOM     87  C   UNL A   1      45.879  33.424  27.683  1.00  0.00     0.020 A 
ATOM     88  C   UNL A   1      43.590  33.748  28.432  1.00  0.00     0.020 A 
ATOM     89  C   UNL A   1      44.650  34.083  27.586  1.00  0.00     0.054 A 
BRANCH  89  90
ATOM     90  S   UNL A   1      44.436  35.353  26.308  1.00  0.00     0.124 S 
ATOM     91  O   UNL A   1      45.278  34.844  25.230  1.00  0.00    -0.237 OA
ATOM     92  O   UNL A   1      42.997  35.313  26.060  1.00  0.00    -0.237 OA
ATOM     93  O   UNL A   1      44.914  36.572  26.955  1.00  0.00    -0.744 OA
ENDBRANCH  89  90
ENDBRANCH  61  84
BRANCH  73  94
ATOM     94  C   UNL A   1      47.209  32.049  36.129  1.00  0.00    -0.014 A 
ATOM     95  C   UNL A   1      48.569  32.407  36.141  1.00  0.00     0.010 A 
ATOM     96  C   UNL A   1      46.306  32.757  36.943  1.00  0.00     0.010 A 
ATOM     97  C   UNL A   1      49.021  33.433  36.975  1.00  0.00     0.020 A 
ATOM     98  C   UNL A   1      46.749  33.803  37.755  1.00  0.00     0.020 A 
ATOM     99  C   UNL A   1      48.107  34.126  37.776  1.00  0.00     0.054 A 
BRANCH  99 100
ATOM    100  S   UNL A   1      48.713  35.484  38.814  1.00  0.00     0.124 S 
ATOM    101  O   UNL A   1      50.129  35.156  38.949  1.00  0.00    -0.237 OA
ATOM    102  O   UNL A   1      48.413  36.663  38.006  1.00  0.00    -0.237 OA
ATOM    103  O   UNL A   1      47.925  35.361  40.040  1.00  0.00    -0.744 OA
ENDBRANCH  99 100
ENDBRANCH  73  94
ENDBRANCH  47  48
ENDBRANCH  39  42
ENDBRANCH  37  38
ENDBRANCH  36  37
ENDBRANCH  35  36
ENDBRANCH  34  35
ENDBRANCH  33  34
ENDBRANCH  32  33
ENDBRANCH   3  32
TORSDOF 26
ENDMDL
MODEL 3
REMARK VINA RESULT:      -7.4      4.576     13.410
REMARK SMILES CCCCCCCNC(=O)Oc1cccc(-c2ccc([C@@H](C)C(=O)NCCCCCCNC(=O)c3ccc(-c4c5nc(c(-c6ccc(S(=O)(=O)[O-])cc6)c6ccc([nH]6)c(-c6ccc(S(=O)(=O)[O-])cc6)c6nc(c(-c7ccc(S(=O)(=O)[O-])cc7)c7ccc4[nH]7)C=C6)C=C5)cc3)cc2F)c1
REMARK SMILES IDX 23 1 24 2 25 3 21 5 22 6 20 7 17 8 18 9 96 10 19 11 95 12
REMARK SMILES IDX 97 13 16 14 12 15 13 16 98 17 14 18 15 19 11 20 9 21 8 22
REMARK SMILES IDX 10 24 7 25 6 26 5 27 4 28 3 29 2 30 1 31 26 32 27 33 28 34
REMARK SMILES IDX 29 35 30 36 31 37 32 38 33 39 34 41 35 42 36 43 94 44 37 45
REMARK SMILES IDX 93 46 38 47 39 48 40 49 87 50 41 51 92 52 86 53 88 54 42 55
REMARK SMILES IDX 91 56 85 57 84 58 43 60 73 61 54 62 72 63 55 64 58 65 71 66
REMARK SMILES IDX 89 67 56 68 57 69 70 71 90 72 59 73 44 74 45 75 53 76 46 77
REMARK SMILES IDX 52 78 47 79 48 80 49 81 50 82 51 83 74 84 75 85 83 86 76 87
REMARK SMILES IDX 82 88 77 89 78 90 79 91 80 92 81 93 60 94 61 95 69 96 62 97
REMARK SMILES IDX 68 98 63 99 64 100 65 101 66 102 67 103
REMARK H PARENT 25 4 8 23 32 40 88 59 58 70
REMARK Flexibility Score: inf
ROOT
ATOM      1  C   UNL A   1      45.130  24.865  34.374  1.00  0.00     0.227 C 
ATOM      2  O   UNL A   1      44.344  25.475  35.110  1.00  0.00    -0.274 OA
ATOM      3  N   UNL A   1      46.164  25.586  33.862  1.00  0.00    -0.356 N 
ATOM      4  H   UNL A   1      46.214  26.512  34.194  1.00  0.00     0.163 HD
ENDROOT
BRANCH   1   5
ATOM      5  C   UNL A   1      44.914  23.368  34.103  1.00  0.00     0.105 C 
ATOM      6  C   UNL A   1      43.499  23.018  33.640  1.00  0.00     0.023 C 
BRANCH   5   7
ATOM      7  C   UNL A   1      45.506  22.462  35.171  1.00  0.00    -0.033 A 
ATOM      8  C   UNL A   1      46.782  20.762  37.094  1.00  0.00     0.018 A 
ATOM      9  C   UNL A   1      46.256  22.016  37.446  1.00  0.00     0.012 A 
ATOM     10  C   UNL A   1      46.614  20.372  35.757  1.00  0.00     0.131 A 
ATOM     11  C   UNL A   1      45.599  22.829  36.516  1.00  0.00     0.005 A 
ATOM     12  C   UNL A   1      46.011  21.205  34.809  1.00  0.00     0.044 A 
ATOM     13  F   UNL A   1      47.026  19.163  35.340  1.00  0.00    -0.206 F 
BRANCH   8  14
ATOM     14  C   UNL A   1      47.482  19.933  38.099  1.00  0.00    -0.012 A 
ATOM     15  C   UNL A   1      47.465  18.345  39.940  1.00  0.00     0.133 A 
ATOM     16  C   UNL A   1      48.854  18.306  39.971  1.00  0.00     0.047 A 
ATOM     17  C   UNL A   1      46.779  19.144  39.024  1.00  0.00     0.056 A 
ATOM     18  C   UNL A   1      49.571  19.075  39.066  1.00  0.00     0.004 A 
ATOM     19  C   UNL A   1      48.892  19.886  38.151  1.00  0.00     0.009 A 
BRANCH  15  20
ATOM     20  O   UNL A   1      46.798  17.661  40.968  1.00  0.00    -0.410 OA
BRANCH  20  21
ATOM     21  C   UNL A   1      46.668  18.248  42.216  1.00  0.00     0.412 C 
ATOM     22  N   UNL A   1      45.360  18.435  42.571  1.00  0.00    -0.321 N 
ATOM     23  H   UNL A   1      45.192  18.887  43.429  1.00  0.00     0.167 HD
ATOM     24  O   UNL A   1      47.580  18.591  42.958  1.00  0.00    -0.224 OA
BRANCH  22  25
ATOM     25  C   UNL A   1      44.198  18.032  41.803  1.00  0.00     0.119 C 
BRANCH  25  26
ATOM     26  C   UNL A   1      43.624  16.706  42.300  1.00  0.00     0.021 C 
BRANCH  26  27
ATOM     27  C   UNL A   1      43.720  15.554  41.292  1.00  0.00     0.002 C 
BRANCH  27  28
ATOM     28  C   UNL A   1      42.495  15.379  40.387  1.00  0.00     0.000 C 
BRANCH  28  29
ATOM     29  C   UNL A   1      41.432  14.408  40.913  1.00  0.00    -0.000 C 
BRANCH  29  30
ATOM     30  C   UNL A   1      41.717  12.927  40.648  1.00  0.00    -0.003 C 
ATOM     31  C   UNL A   1      41.861  12.106  41.920  1.00  0.00     0.004 C 
ENDBRANCH  29  30
ENDBRANCH  28  29
ENDBRANCH  27  28
ENDBRANCH  26  27
ENDBRANCH  25  26
ENDBRANCH  22  25
ENDBRANCH  20  21
ENDBRANCH  15  20
ENDBRANCH   8  14
ENDBRANCH   5   7
ENDBRANCH   1   5
BRANCH   3  32
ATOM     32  C   UNL A   1      47.205  25.236  32.918  1.00  0.00     0.116 C 
BRANCH  32  33
ATOM     33  C   UNL A   1      47.112  26.073  31.640  1.00  0.00     0.021 C 
BRANCH  33  34
ATOM     34  C   UNL A   1      46.214  25.455  30.562  1.00  0.00     0.002 C 
BRANCH  34  35
ATOM     35  C   UNL A   1      46.445  25.991  29.143  1.00  0.00     0.002 C 
BRANCH  35  36
ATOM     36  C   UNL A   1      46.102  25.019  28.009  1.00  0.00     0.021 C 
BRANCH  36  37
ATOM     37  C   UNL A   1      46.104  25.643  26.616  1.00  0.00     0.116 C 
BRANCH  37  38
ATOM     38  N   UNL A   1      44.876  25.346  25.894  1.00  0.00    -0.352 N 
ATOM     39  C   UNL A   1      43.573  25.578  26.254  1.00  0.00     0.251 C 
ATOM     40  H   UNL A   1      44.999  24.915  25.017  1.00  0.00     0.163 HD
ATOM     41  O   UNL A   1      42.661  25.032  25.638  1.00  0.00    -0.269 OA
BRANCH  39  42
ATOM     42  C   UNL A   1      43.267  26.479  27.386  1.00  0.00     0.039 A 
ATOM     43  C   UNL A   1      43.670  27.815  27.319  1.00  0.00     0.014 A 
ATOM     44  C   UNL A   1      42.610  26.000  28.524  1.00  0.00     0.014 A 
ATOM     45  C   UNL A   1      43.367  28.682  28.370  1.00  0.00     0.010 A 
ATOM     46  C   UNL A   1      42.248  26.881  29.539  1.00  0.00     0.010 A 
ATOM     47  C   UNL A   1      42.629  28.230  29.476  1.00  0.00    -0.014 A 
BRANCH  47  48
ATOM     48  C   UNL A   1      42.247  29.151  30.577  1.00  0.00     0.031 A 
ATOM     49  C   UNL A   1      43.071  29.210  31.836  1.00  0.00     0.074 A 
ATOM     50  C   UNL A   1      41.124  29.888  30.469  1.00  0.00     0.049 A 
ATOM     51  N   UNL A   1      42.863  29.907  32.924  1.00  0.00    -0.248 NA
ATOM     52  C   UNL A   1      44.270  28.359  31.887  1.00  0.00     0.031 C 
ATOM     53  C   UNL A   1      40.219  29.889  29.315  1.00  0.00     0.029 A 
ATOM     54  N   UNL A   1      40.545  30.774  31.343  1.00  0.00    -0.354 N 
ATOM     55  C   UNL A   1      43.894  29.566  33.793  1.00  0.00     0.074 A 
ATOM     56  C   UNL A   1      44.696  28.565  33.125  1.00  0.00     0.031 C 
ATOM     57  C   UNL A   1      39.218  30.754  29.544  1.00  0.00     0.029 A 
ATOM     58  C   UNL A   1      39.382  31.336  30.872  1.00  0.00     0.049 A 
ATOM     59  H   UNL A   1      40.927  30.986  32.225  1.00  0.00     0.167 HD
ATOM     60  C   UNL A   1      44.159  30.055  35.028  1.00  0.00     0.031 A 
ATOM     61  C   UNL A   1      38.537  32.213  31.446  1.00  0.00     0.031 A 
ATOM     62  C   UNL A   1      43.363  31.058  35.685  1.00  0.00     0.049 A 
ATOM     63  C   UNL A   1      38.847  32.735  32.823  1.00  0.00     0.074 A 
ATOM     64  C   UNL A   1      43.578  31.658  36.914  1.00  0.00     0.029 A 
ATOM     65  N   UNL A   1      42.198  31.608  35.171  1.00  0.00    -0.354 N 
ATOM     66  N   UNL A   1      39.861  32.447  33.603  1.00  0.00    -0.248 NA
ATOM     67  C   UNL A   1      37.904  33.708  33.391  1.00  0.00     0.031 C 
ATOM     68  C   UNL A   1      42.514  32.531  37.165  1.00  0.00     0.029 A 
ATOM     69  C   UNL A   1      41.670  32.522  36.067  1.00  0.00     0.049 A 
ATOM     70  H   UNL A   1      41.804  31.381  34.296  1.00  0.00     0.167 HD
ATOM     71  C   UNL A   1      39.693  33.225  34.744  1.00  0.00     0.074 A 
ATOM     72  C   UNL A   1      38.489  34.004  34.544  1.00  0.00     0.031 C 
ATOM     73  C   UNL A   1      40.468  33.289  35.855  1.00  0.00     0.031 A 
BRANCH  60  74
ATOM     74  C   UNL A   1      45.359  29.506  35.753  1.00  0.00    -0.014 A 
ATOM     75  C   UNL A   1      45.230  28.462  36.688  1.00  0.00     0.010 A 
ATOM     76  C   UNL A   1      46.641  30.012  35.470  1.00  0.00     0.010 A 
ATOM     77  C   UNL A   1      46.353  27.965  37.356  1.00  0.00     0.020 A 
ATOM     78  C   UNL A   1      47.771  29.498  36.113  1.00  0.00     0.020 A 
ATOM     79  C   UNL A   1      47.616  28.489  37.066  1.00  0.00     0.054 A 
BRANCH  79  80
ATOM     80  S   UNL A   1      49.058  27.810  37.933  1.00  0.00     0.124 S 
ATOM     81  O   UNL A   1      49.293  28.820  38.962  1.00  0.00    -0.237 OA
ATOM     82  O   UNL A   1      48.565  26.523  38.416  1.00  0.00    -0.237 OA
ATOM     83  O   UNL A   1      50.082  27.732  36.895  1.00  0.00    -0.744 OA
ENDBRANCH  79  80
ENDBRANCH  60  74
BRANCH  61  84
ATOM     84  C   UNL A   1      37.324  32.667  30.711  1.00  0.00    -0.014 A 
ATOM     85  C   UNL A   1      37.340  33.864  29.975  1.00  0.00     0.010 A 
ATOM     86  C   UNL A   1      36.149  31.893  30.733  1.00  0.00     0.010 A 
ATOM     87  C   UNL A   1      36.199  34.290  29.288  1.00  0.00     0.020 A 
ATOM     88  C   UNL A   1      35.015  32.301  30.025  1.00  0.00     0.020 A 
ATOM     89  C   UNL A   1      35.044  33.504  29.316  1.00  0.00     0.054 A 
BRANCH  89  90
ATOM     90  S   UNL A   1      33.591  34.048  28.376  1.00  0.00     0.124 S 
ATOM     91  O   UNL A   1      34.181  34.979  27.419  1.00  0.00    -0.237 OA
ATOM     92  O   UNL A   1      33.090  32.796  27.815  1.00  0.00    -0.237 OA
ATOM     93  O   UNL A   1      32.734  34.652  29.393  1.00  0.00    -0.744 OA
ENDBRANCH  89  90
ENDBRANCH  61  84
BRANCH  73  94
ATOM     94  C   UNL A   1      40.059  34.261  36.930  1.00  0.00    -0.014 A 
ATOM     95  C   UNL A   1      39.309  33.844  38.044  1.00  0.00     0.010 A 
ATOM     96  C   UNL A   1      40.481  35.600  36.850  1.00  0.00     0.010 A 
ATOM     97  C   UNL A   1      38.961  34.757  39.042  1.00  0.00     0.020 A 
ATOM     98  C   UNL A   1      40.161  36.510  37.860  1.00  0.00     0.020 A 
ATOM     99  C   UNL A   1      39.391  36.085  38.944  1.00  0.00     0.054 A 
BRANCH  99 100
ATOM    100  S   UNL A   1      38.964  37.240  40.276  1.00  0.00     0.124 S 
ATOM    101  O   UNL A   1      38.273  38.300  39.549  1.00  0.00    -0.237 OA
ATOM    102  O   UNL A   1      38.125  36.425  41.150  1.00  0.00    -0.237 OA
ATOM    103  O   UNL A   1      40.261  37.613  40.840  1.00  0.00    -0.744 OA
ENDBRANCH  99 100
ENDBRANCH  73  94
ENDBRANCH  47  48
ENDBRANCH  39  42
ENDBRANCH  37  38
ENDBRANCH  36  37
ENDBRANCH  35  36
ENDBRANCH  34  35
ENDBRANCH  33  34
ENDBRANCH  32  33
ENDBRANCH   3  32
TORSDOF 26
ENDMDL
