MODEL 1
REMARK VINA RESULT:     -10.3      0.000      0.000
REMARK SMILES O=C(NCCCCCCNC(=O)c1sc2ccccc2c1CSC[C@H](O)CO)c1ccc(-c2c3nc(c(-c4ccc(S(=O)(=O)[O-])cc4)c4ccc([nH]4)c(-c4ccc(S(=O)(=O)[O-])cc4)c4nc(c(-c5ccc(S(=O)(=O)[O-])cc5)c5ccc2[nH]5)C=C4)C=C3)cc1
REMARK SMILES IDX 8 1 7 2 6 3 5 4 4 5 3 6 1 7 2 8 29 10 30 11 88 12 31 13
REMARK SMILES IDX 87 14 32 15 33 16 34 17 81 18 35 19 86 20 80 21 82 22 36 23
REMARK SMILES IDX 85 24 79 25 78 26 37 28 67 29 48 30 66 31 49 32 52 33 65 34
REMARK SMILES IDX 83 35 50 36 51 37 64 39 84 40 53 41 38 42 39 43 47 44 40 45
REMARK SMILES IDX 46 46 41 47 42 48 43 49 44 50 45 51 68 52 69 53 77 54 70 55
REMARK SMILES IDX 76 56 71 57 72 58 73 59 74 60 75 61 54 62 55 63 63 64 56 65
REMARK SMILES IDX 62 66 57 67 58 68 59 69 60 70 61 71 9 72 10 73 11 74 12 76
REMARK SMILES IDX 13 77 14 78 21 79 15 80 20 81 16 82 19 83 17 84 18 85 22 86
REMARK SMILES IDX 23 87 24 88 25 89 27 90 28 91 26 93
REMARK H PARENT 3 9 82 27 52 38 10 75 28 92 26 94
REMARK Flexibility Score: inf
ROOT
ATOM      1  C   UNL A   1      31.237  25.713  23.910  1.00  0.00     0.021 C 
ENDROOT
BRANCH   1   2
ATOM      2  C   UNL A   1      30.447  26.429  25.008  1.00  0.00     0.002 C 
BRANCH   2   3
ATOM      3  C   UNL A   1      31.255  27.094  26.123  1.00  0.00     0.002 C 
BRANCH   3   4
ATOM      4  C   UNL A   1      32.695  27.496  25.792  1.00  0.00     0.021 C 
BRANCH   4   5
ATOM      5  C   UNL A   1      33.558  27.977  26.956  1.00  0.00     0.116 C 
BRANCH   5   6
ATOM      6  N   UNL A   1      33.325  29.365  27.308  1.00  0.00    -0.352 N 
ATOM      7  O   UNL A   1      33.748  31.396  28.168  1.00  0.00    -0.269 OA
ATOM      8  C   UNL A   1      34.179  30.284  27.868  1.00  0.00     0.251 C 
ATOM      9  H   UNL A   1      32.419  29.699  27.116  1.00  0.00     0.163 HD
BRANCH   8  10
ATOM     10  C   UNL A   1      35.598  29.949  28.145  1.00  0.00     0.039 A 
ATOM     11  C   UNL A   1      36.599  30.091  27.177  1.00  0.00     0.014 A 
ATOM     12  C   UNL A   1      35.940  29.531  29.436  1.00  0.00     0.014 A 
ATOM     13  C   UNL A   1      37.914  29.728  27.474  1.00  0.00     0.010 A 
ATOM     14  C   UNL A   1      37.264  29.200  29.743  1.00  0.00     0.010 A 
ATOM     15  C   UNL A   1      38.256  29.272  28.756  1.00  0.00    -0.014 A 
BRANCH  15  16
ATOM     16  C   UNL A   1      39.658  28.893  29.056  1.00  0.00     0.031 A 
ATOM     17  C   UNL A   1      40.552  29.815  29.836  1.00  0.00     0.074 A 
ATOM     18  C   UNL A   1      40.123  27.697  28.652  1.00  0.00     0.049 A 
ATOM     19  N   UNL A   1      41.783  29.623  30.234  1.00  0.00    -0.248 NA
ATOM     20  C   UNL A   1      39.988  31.118  30.217  1.00  0.00     0.031 C 
ATOM     21  C   UNL A   1      39.365  26.713  27.879  1.00  0.00     0.029 A 
ATOM     22  N   UNL A   1      41.342  27.102  28.855  1.00  0.00    -0.354 N 
ATOM     23  C   UNL A   1      42.151  30.783  30.900  1.00  0.00     0.074 A 
ATOM     24  C   UNL A   1      41.010  31.676  30.852  1.00  0.00     0.031 C 
ATOM     25  C   UNL A   1      40.123  25.617  27.708  1.00  0.00     0.029 A 
ATOM     26  C   UNL A   1      41.419  25.829  28.346  1.00  0.00     0.049 A 
ATOM     27  H   UNL A   1      42.087  27.544  29.321  1.00  0.00     0.167 HD
ATOM     28  C   UNL A   1      43.328  31.084  31.502  1.00  0.00     0.031 A 
ATOM     29  C   UNL A   1      42.416  24.926  28.397  1.00  0.00     0.031 A 
ATOM     30  C   UNL A   1      44.461  30.204  31.577  1.00  0.00     0.049 A 
ATOM     31  C   UNL A   1      43.700  25.267  29.091  1.00  0.00     0.074 A 
ATOM     32  C   UNL A   1      45.690  30.425  32.176  1.00  0.00     0.029 A 
ATOM     33  N   UNL A   1      44.503  28.928  31.039  1.00  0.00    -0.354 N 
ATOM     34  N   UNL A   1      44.027  26.373  29.714  1.00  0.00    -0.248 NA
ATOM     35  C   UNL A   1      44.749  24.238  29.085  1.00  0.00     0.031 C 
ATOM     36  C   UNL A   1      46.476  29.277  32.000  1.00  0.00     0.029 A 
ATOM     37  C   UNL A   1      45.734  28.346  31.292  1.00  0.00     0.049 A 
ATOM     38  H   UNL A   1      43.767  28.499  30.548  1.00  0.00     0.167 HD
ATOM     39  C   UNL A   1      45.322  26.173  30.176  1.00  0.00     0.074 A 
ATOM     40  C   UNL A   1      45.717  24.840  29.765  1.00  0.00     0.031 C 
ATOM     41  C   UNL A   1      46.112  27.022  30.877  1.00  0.00     0.031 A 
BRANCH  28  42
ATOM     42  C   UNL A   1      43.427  32.444  32.126  1.00  0.00    -0.014 A 
ATOM     43  C   UNL A   1      43.534  32.580  33.521  1.00  0.00     0.010 A 
ATOM     44  C   UNL A   1      43.376  33.594  31.319  1.00  0.00     0.010 A 
ATOM     45  C   UNL A   1      43.544  33.848  34.105  1.00  0.00     0.020 A 
ATOM     46  C   UNL A   1      43.389  34.864  31.900  1.00  0.00     0.020 A 
ATOM     47  C   UNL A   1      43.449  34.981  33.292  1.00  0.00     0.054 A 
BRANCH  47  48
ATOM     48  S   UNL A   1      43.417  36.630  34.050  1.00  0.00     0.124 S 
ATOM     49  O   UNL A   1      44.221  36.420  35.251  1.00  0.00    -0.237 OA
ATOM     50  O   UNL A   1      44.027  37.481  33.032  1.00  0.00    -0.237 OA
ATOM     51  O   UNL A   1      41.994  36.864  34.281  1.00  0.00    -0.744 OA
ENDBRANCH  47  48
ENDBRANCH  28  42
BRANCH  29  52
ATOM     52  C   UNL A   1      42.209  23.592  27.789  1.00  0.00    -0.014 A 
ATOM     53  C   UNL A   1      42.493  23.392  26.428  1.00  0.00     0.010 A 
ATOM     54  C   UNL A   1      41.799  22.506  28.580  1.00  0.00     0.010 A 
ATOM     55  C   UNL A   1      42.384  22.117  25.865  1.00  0.00     0.020 A 
ATOM     56  C   UNL A   1      41.691  21.230  28.021  1.00  0.00     0.020 A 
ATOM     57  C   UNL A   1      41.986  21.044  26.667  1.00  0.00     0.054 A 
BRANCH  57  58
ATOM     58  S   UNL A   1      41.938  19.369  25.971  1.00  0.00     0.124 S 
ATOM     59  O   UNL A   1      42.407  18.561  27.092  1.00  0.00    -0.237 OA
ATOM     60  O   UNL A   1      40.531  19.194  25.614  1.00  0.00    -0.237 OA
ATOM     61  O   UNL A   1      42.851  19.464  24.834  1.00  0.00    -0.744 OA
ENDBRANCH  57  58
ENDBRANCH  29  52
BRANCH  41  62
ATOM     62  C   UNL A   1      47.481  26.527  31.240  1.00  0.00    -0.014 A 
ATOM     63  C   UNL A   1      47.688  25.836  32.446  1.00  0.00     0.010 A 
ATOM     64  C   UNL A   1      48.562  26.736  30.367  1.00  0.00     0.010 A 
ATOM     65  C   UNL A   1      48.963  25.377  32.786  1.00  0.00     0.020 A 
ATOM     66  C   UNL A   1      49.838  26.277  30.703  1.00  0.00     0.020 A 
ATOM     67  C   UNL A   1      50.033  25.611  31.918  1.00  0.00     0.054 A 
BRANCH  67  68
ATOM     68  S   UNL A   1      51.688  24.997  32.341  1.00  0.00     0.124 S 
ATOM     69  O   UNL A   1      51.929  25.641  33.628  1.00  0.00    -0.237 OA
ATOM     70  O   UNL A   1      51.508  23.548  32.389  1.00  0.00    -0.237 OA
ATOM     71  O   UNL A   1      52.513  25.478  31.234  1.00  0.00    -0.744 OA
ENDBRANCH  67  68
ENDBRANCH  41  62
ENDBRANCH  15  16
ENDBRANCH   8  10
ENDBRANCH   5   6
ENDBRANCH   4   5
ENDBRANCH   3   4
ENDBRANCH   2   3
ENDBRANCH   1   2
BRANCH   1  72
ATOM     72  C   UNL A   1      31.516  24.227  24.122  1.00  0.00     0.116 C 
BRANCH  72  73
ATOM     73  N   UNL A   1      30.972  23.705  25.362  1.00  0.00    -0.351 N 
ATOM     74  C   UNL A   1      31.665  23.124  26.401  1.00  0.00     0.261 C 
ATOM     75  H   UNL A   1      29.996  23.776  25.474  1.00  0.00     0.163 HD
ATOM     76  O   UNL A   1      31.087  22.955  27.474  1.00  0.00    -0.268 OA
BRANCH  74  77
ATOM     77  C   UNL A   1      33.040  22.741  26.164  1.00  0.00     0.097 A 
ATOM     78  S   UNL A   1      34.255  23.898  26.460  1.00  0.00    -0.130 S 
ATOM     79  C   UNL A   1      33.551  21.516  25.757  1.00  0.00    -0.007 A 
ATOM     80  C   UNL A   1      35.492  22.861  25.881  1.00  0.00     0.035 A 
ATOM     81  C   UNL A   1      34.986  21.607  25.527  1.00  0.00    -0.003 A 
ATOM     82  C   UNL A   1      36.860  23.176  25.752  1.00  0.00     0.019 A 
ATOM     83  C   UNL A   1      35.909  20.654  25.016  1.00  0.00     0.010 A 
ATOM     84  C   UNL A   1      37.735  22.214  25.247  1.00  0.00     0.001 A 
ATOM     85  C   UNL A   1      37.266  20.963  24.883  1.00  0.00     0.001 A 
BRANCH  79  86
ATOM     86  C   UNL A   1      32.741  20.274  25.489  1.00  0.00     0.107 C 
BRANCH  86  87
ATOM     87  S   UNL A   1      32.542  19.816  23.738  1.00  0.00    -0.154 SA
BRANCH  87  88
ATOM     88  C   UNL A   1      32.428  17.990  23.823  1.00  0.00     0.104 C 
BRANCH  88  89
ATOM     89  C   UNL A   1      33.755  17.220  23.824  1.00  0.00     0.149 C 
BRANCH  89  90
ATOM     90  C   UNL A   1      33.833  16.106  24.872  1.00  0.00     0.188 C 
BRANCH  90  91
ATOM     91  O   UNL A   1      33.647  16.679  26.171  1.00  0.00    -0.394 OA
ATOM     92  H   UNL A   1      32.795  16.388  26.533  1.00  0.00     0.210 HD
ENDBRANCH  90  91
ENDBRANCH  89  90
BRANCH  89  93
ATOM     93  O   UNL A   1      34.045  16.648  22.541  1.00  0.00    -0.390 OA
ATOM     94  H   UNL A   1      33.329  16.864  21.923  1.00  0.00     0.211 HD
ENDBRANCH  89  93
ENDBRANCH  88  89
ENDBRANCH  87  88
ENDBRANCH  86  87
ENDBRANCH  79  86
ENDBRANCH  74  77
ENDBRANCH  72  73
ENDBRANCH   1  72
TORSDOF 23
ENDMDL
MODEL 2
REMARK VINA RESULT:      -9.8      0.853      8.098
REMARK SMILES O=C(NCCCCCCNC(=O)c1sc2ccccc2c1CSC[C@H](O)CO)c1ccc(-c2c3nc(c(-c4ccc(S(=O)(=O)[O-])cc4)c4ccc([nH]4)c(-c4ccc(S(=O)(=O)[O-])cc4)c4nc(c(-c5ccc(S(=O)(=O)[O-])cc5)c5ccc2[nH]5)C=C4)C=C3)cc1
REMARK SMILES IDX 8 1 7 2 6 3 5 4 4 5 3 6 1 7 2 8 29 10 30 11 88 12 31 13
REMARK SMILES IDX 87 14 32 15 33 16 34 17 81 18 35 19 86 20 80 21 82 22 36 23
REMARK SMILES IDX 85 24 79 25 78 26 37 28 67 29 48 30 66 31 49 32 52 33 65 34
REMARK SMILES IDX 83 35 50 36 51 37 64 39 84 40 53 41 38 42 39 43 47 44 40 45
REMARK SMILES IDX 46 46 41 47 42 48 43 49 44 50 45 51 68 52 69 53 77 54 70 55
REMARK SMILES IDX 76 56 71 57 72 58 73 59 74 60 75 61 54 62 55 63 63 64 56 65
REMARK SMILES IDX 62 66 57 67 58 68 59 69 60 70 61 71 9 72 10 73 11 74 12 76
REMARK SMILES IDX 13 77 14 78 21 79 15 80 20 81 16 82 19 83 17 84 18 85 22 86
REMARK SMILES IDX 23 87 24 88 25 89 27 90 28 91 26 93
REMARK H PARENT 3 9 82 27 52 38 10 75 28 92 26 94
REMARK Flexibility Score: inf
ROOT
ATOM      1  C   UNL A   1      31.097  25.834  23.668  1.00  0.00     0.021 C 
ENDROOT
BRANCH   1   2
ATOM      2  C   UNL A   1      30.413  26.609  24.798  1.00  0.00     0.002 C 
BRANCH   2   3
ATOM      3  C   UNL A   1      31.322  27.251  25.848  1.00  0.00     0.002 C 
BRANCH   3   4
ATOM      4  C   UNL A   1      32.785  27.473  25.456  1.00  0.00     0.021 C 
BRANCH   4   5
ATOM      5  C   UNL A   1      33.716  27.995  26.548  1.00  0.00     0.116 C 
BRANCH   5   6
ATOM      6  N   UNL A   1      33.427  29.361  26.944  1.00  0.00    -0.352 N 
ATOM      7  O   UNL A   1      33.730  31.348  27.946  1.00  0.00    -0.269 OA
ATOM      8  C   UNL A   1      34.207  30.258  27.634  1.00  0.00     0.251 C 
ATOM      9  H   UNL A   1      32.540  29.694  26.680  1.00  0.00     0.163 HD
BRANCH   8  10
ATOM     10  C   UNL A   1      35.596  29.925  28.035  1.00  0.00     0.039 A 
ATOM     11  C   UNL A   1      35.906  29.436  29.308  1.00  0.00     0.014 A 
ATOM     12  C   UNL A   1      36.611  30.058  27.080  1.00  0.00     0.014 A 
ATOM     13  C   UNL A   1      37.233  29.171  29.651  1.00  0.00     0.010 A 
ATOM     14  C   UNL A   1      37.937  29.760  27.413  1.00  0.00     0.010 A 
ATOM     15  C   UNL A   1      38.260  29.338  28.709  1.00  0.00    -0.014 A 
BRANCH  15  16
ATOM     16  C   UNL A   1      39.665  29.050  29.088  1.00  0.00     0.031 A 
ATOM     17  C   UNL A   1      40.296  27.731  28.744  1.00  0.00     0.074 A 
ATOM     18  C   UNL A   1      40.388  29.992  29.718  1.00  0.00     0.049 A 
ATOM     19  N   UNL A   1      41.525  27.330  28.949  1.00  0.00    -0.248 NA
ATOM     20  C   UNL A   1      39.437  26.737  28.084  1.00  0.00     0.031 C 
ATOM     21  C   UNL A   1      39.894  31.310  30.120  1.00  0.00     0.029 A 
ATOM     22  N   UNL A   1      41.702  29.989  30.113  1.00  0.00    -0.354 N 
ATOM     23  C   UNL A   1      41.586  26.033  28.459  1.00  0.00     0.074 A 
ATOM     24  C   UNL A   1      40.269  25.713  27.946  1.00  0.00     0.031 C 
ATOM     25  C   UNL A   1      40.905  32.004  30.668  1.00  0.00     0.029 A 
ATOM     26  C   UNL A   1      42.108  31.177  30.668  1.00  0.00     0.049 A 
ATOM     27  H   UNL A   1      42.295  29.210  30.008  1.00  0.00     0.167 HD
ATOM     28  C   UNL A   1      42.641  25.182  28.433  1.00  0.00     0.031 A 
ATOM     29  C   UNL A   1      43.317  31.565  31.114  1.00  0.00     0.031 A 
ATOM     30  C   UNL A   1      43.958  25.489  28.918  1.00  0.00     0.049 A 
ATOM     31  C   UNL A   1      44.478  30.618  31.051  1.00  0.00     0.074 A 
ATOM     32  C   UNL A   1      45.088  24.688  28.922  1.00  0.00     0.029 A 
ATOM     33  N   UNL A   1      44.326  26.699  29.483  1.00  0.00    -0.354 N 
ATOM     34  N   UNL A   1      44.514  29.394  30.584  1.00  0.00    -0.248 NA
ATOM     35  C   UNL A   1      45.759  31.107  31.579  1.00  0.00     0.031 C 
ATOM     36  C   UNL A   1      46.141  25.418  29.489  1.00  0.00     0.029 A 
ATOM     37  C   UNL A   1      45.664  26.671  29.838  1.00  0.00     0.049 A 
ATOM     38  H   UNL A   1      43.724  27.466  29.615  1.00  0.00     0.167 HD
ATOM     39  C   UNL A   1      45.823  28.964  30.762  1.00  0.00     0.074 A 
ATOM     40  C   UNL A   1      46.548  30.060  31.374  1.00  0.00     0.031 C 
ATOM     41  C   UNL A   1      46.372  27.766  30.445  1.00  0.00     0.031 A 
BRANCH  28  42
ATOM     42  C   UNL A   1      42.384  23.824  27.851  1.00  0.00    -0.014 A 
ATOM     43  C   UNL A   1      41.988  22.759  28.679  1.00  0.00     0.010 A 
ATOM     44  C   UNL A   1      42.576  23.599  26.477  1.00  0.00     0.010 A 
ATOM     45  C   UNL A   1      41.829  21.477  28.149  1.00  0.00     0.020 A 
ATOM     46  C   UNL A   1      42.414  22.318  25.943  1.00  0.00     0.020 A 
ATOM     47  C   UNL A   1      42.065  21.261  26.788  1.00  0.00     0.054 A 
BRANCH  47  48
ATOM     48  S   UNL A   1      41.903  19.589  26.104  1.00  0.00     0.124 S 
ATOM     49  O   UNL A   1      42.394  18.767  27.208  1.00  0.00    -0.237 OA
ATOM     50  O   UNL A   1      40.473  19.474  25.829  1.00  0.00    -0.237 OA
ATOM     51  O   UNL A   1      42.759  19.626  24.922  1.00  0.00    -0.744 OA
ENDBRANCH  47  48
ENDBRANCH  28  42
BRANCH  29  52
ATOM     52  C   UNL A   1      43.483  32.942  31.633  1.00  0.00    -0.014 A 
ATOM     53  C   UNL A   1      43.433  33.179  33.017  1.00  0.00     0.010 A 
ATOM     54  C   UNL A   1      43.763  34.003  30.756  1.00  0.00     0.010 A 
ATOM     55  C   UNL A   1      43.675  34.459  33.522  1.00  0.00     0.020 A 
ATOM     56  C   UNL A   1      44.008  35.284  31.258  1.00  0.00     0.020 A 
ATOM     57  C   UNL A   1      43.964  35.503  32.638  1.00  0.00     0.054 A 
BRANCH  57  58
ATOM     58  S   UNL A   1      44.377  37.146  33.289  1.00  0.00     0.124 S 
ATOM     59  O   UNL A   1      44.469  37.941  32.069  1.00  0.00    -0.237 OA
ATOM     60  O   UNL A   1      43.246  37.456  34.160  1.00  0.00    -0.237 OA
ATOM     61  O   UNL A   1      45.640  36.909  33.986  1.00  0.00    -0.744 OA
ENDBRANCH  57  58
ENDBRANCH  29  52
BRANCH  41  62
ATOM     62  C   UNL A   1      47.827  27.586  30.759  1.00  0.00    -0.014 A 
ATOM     63  C   UNL A   1      48.225  27.059  32.000  1.00  0.00     0.010 A 
ATOM     64  C   UNL A   1      48.802  27.927  29.807  1.00  0.00     0.010 A 
ATOM     65  C   UNL A   1      49.581  26.894  32.294  1.00  0.00     0.020 A 
ATOM     66  C   UNL A   1      50.159  27.761  30.097  1.00  0.00     0.020 A 
ATOM     67  C   UNL A   1      50.540  27.258  31.344  1.00  0.00     0.054 A 
BRANCH  67  68
ATOM     68  S   UNL A   1      52.303  27.023  31.709  1.00  0.00     0.124 S 
ATOM     69  O   UNL A   1      52.429  27.666  33.014  1.00  0.00    -0.237 OA
ATOM     70  O   UNL A   1      52.456  25.570  31.709  1.00  0.00    -0.237 OA
ATOM     71  O   UNL A   1      52.964  27.712  30.603  1.00  0.00    -0.744 OA
ENDBRANCH  67  68
ENDBRANCH  41  62
ENDBRANCH  15  16
ENDBRANCH   8  10
ENDBRANCH   5   6
ENDBRANCH   4   5
ENDBRANCH   3   4
ENDBRANCH   2   3
ENDBRANCH   1   2
BRANCH   1  72
ATOM     72  C   UNL A   1      31.159  24.316  23.817  1.00  0.00     0.116 C 
BRANCH  72  73
ATOM     73  N   UNL A   1      30.653  23.835  25.089  1.00  0.00    -0.351 N 
ATOM     74  C   UNL A   1      31.383  23.350  26.151  1.00  0.00     0.261 C 
ATOM     75  H   UNL A   1      29.675  23.860  25.206  1.00  0.00     0.163 HD
ATOM     76  O   UNL A   1      30.824  23.210  27.237  1.00  0.00    -0.268 OA
BRANCH  74  77
ATOM     77  C   UNL A   1      32.776  23.028  25.921  1.00  0.00     0.097 A 
ATOM     78  S   UNL A   1      33.935  24.243  26.206  1.00  0.00    -0.130 S 
ATOM     79  C   UNL A   1      33.343  21.823  25.528  1.00  0.00    -0.007 A 
ATOM     80  C   UNL A   1      35.220  23.258  25.641  1.00  0.00     0.035 A 
ATOM     81  C   UNL A   1      34.774  21.978  25.300  1.00  0.00    -0.003 A 
ATOM     82  C   UNL A   1      36.572  23.634  25.511  1.00  0.00     0.019 A 
ATOM     83  C   UNL A   1      35.740  21.063  24.802  1.00  0.00     0.010 A 
ATOM     84  C   UNL A   1      37.492  22.708  25.019  1.00  0.00     0.001 A 
ATOM     85  C   UNL A   1      37.082  21.433  24.667  1.00  0.00     0.001 A 
BRANCH  79  86
ATOM     86  C   UNL A   1      32.592  20.543  25.272  1.00  0.00     0.107 C 
BRANCH  86  87
ATOM     87  S   UNL A   1      32.359  20.092  23.524  1.00  0.00    -0.154 SA
BRANCH  87  88
ATOM     88  C   UNL A   1      32.719  18.296  23.533  1.00  0.00     0.104 C 
BRANCH  88  89
ATOM     89  C   UNL A   1      33.174  17.695  24.870  1.00  0.00     0.149 C 
BRANCH  89  90
ATOM     90  C   UNL A   1      32.778  16.229  25.066  1.00  0.00     0.188 C 
BRANCH  90  91
ATOM     91  O   UNL A   1      32.361  16.040  26.422  1.00  0.00    -0.394 OA
ATOM     92  H   UNL A   1      31.450  15.709  26.438  1.00  0.00     0.210 HD
ENDBRANCH  90  91
ENDBRANCH  89  90
BRANCH  89  93
ATOM     93  O   UNL A   1      34.593  17.803  25.051  1.00  0.00    -0.390 OA
ATOM     94  H   UNL A   1      34.954  16.938  25.300  1.00  0.00     0.211 HD
ENDBRANCH  89  93
ENDBRANCH  88  89
ENDBRANCH  87  88
ENDBRANCH  86  87
ENDBRANCH  79  86
ENDBRANCH  74  77
ENDBRANCH  72  73
ENDBRANCH   1  72
TORSDOF 23
ENDMDL
MODEL 3
REMARK VINA RESULT:      -9.4      2.304      2.911
REMARK SMILES O=C(NCCCCCCNC(=O)c1sc2ccccc2c1CSC[C@H](O)CO)c1ccc(-c2c3nc(c(-c4ccc(S(=O)(=O)[O-])cc4)c4ccc([nH]4)c(-c4ccc(S(=O)(=O)[O-])cc4)c4nc(c(-c5ccc(S(=O)(=O)[O-])cc5)c5ccc2[nH]5)C=C4)C=C3)cc1
REMARK SMILES IDX 8 1 7 2 6 3 5 4 4 5 3 6 1 7 2 8 29 10 30 11 88 12 31 13
REMARK SMILES IDX 87 14 32 15 33 16 34 17 81 18 35 19 86 20 80 21 82 22 36 23
REMARK SMILES IDX 85 24 79 25 78 26 37 28 67 29 48 30 66 31 49 32 52 33 65 34
REMARK SMILES IDX 83 35 50 36 51 37 64 39 84 40 53 41 38 42 39 43 47 44 40 45
REMARK SMILES IDX 46 46 41 47 42 48 43 49 44 50 45 51 68 52 69 53 77 54 70 55
REMARK SMILES IDX 76 56 71 57 72 58 73 59 74 60 75 61 54 62 55 63 63 64 56 65
REMARK SMILES IDX 62 66 57 67 58 68 59 69 60 70 61 71 9 72 10 73 11 74 12 76
REMARK SMILES IDX 13 77 14 78 21 79 15 80 20 81 16 82 19 83 17 84 18 85 22 86
REMARK SMILES IDX 23 87 24 88 25 89 27 90 28 91 26 93
REMARK H PARENT 3 9 82 27 52 38 10 75 28 92 26 94
REMARK Flexibility Score: inf
ROOT
ATOM      1  C   UNL A   1      31.552  26.252  23.751  1.00  0.00     0.021 C 
ENDROOT
BRANCH   1   2
ATOM      2  C   UNL A   1      31.033  27.082  24.928  1.00  0.00     0.002 C 
BRANCH   2   3
ATOM      3  C   UNL A   1      32.074  27.614  25.914  1.00  0.00     0.002 C 
BRANCH   3   4
ATOM      4  C   UNL A   1      33.411  28.080  25.329  1.00  0.00     0.021 C 
BRANCH   4   5
ATOM      5  C   UNL A   1      34.375  28.772  26.288  1.00  0.00     0.116 C 
BRANCH   5   6
ATOM      6  N   UNL A   1      33.920  30.083  26.714  1.00  0.00    -0.352 N 
ATOM      7  O   UNL A   1      33.869  31.985  27.906  1.00  0.00    -0.269 OA
ATOM      8  C   UNL A   1      34.471  30.950  27.626  1.00  0.00     0.251 C 
ATOM      9  H   UNL A   1      33.092  30.397  26.285  1.00  0.00     0.163 HD
BRANCH   8  10
ATOM     10  C   UNL A   1      35.759  30.647  28.298  1.00  0.00     0.039 A 
ATOM     11  C   UNL A   1      36.911  31.409  28.079  1.00  0.00     0.014 A 
ATOM     12  C   UNL A   1      35.792  29.594  29.221  1.00  0.00     0.014 A 
ATOM     13  C   UNL A   1      38.109  31.061  28.707  1.00  0.00     0.010 A 
ATOM     14  C   UNL A   1      36.984  29.267  29.876  1.00  0.00     0.010 A 
ATOM     15  C   UNL A   1      38.157  29.983  29.604  1.00  0.00    -0.014 A 
BRANCH  15  16
ATOM     16  C   UNL A   1      39.437  29.629  30.266  1.00  0.00     0.031 A 
ATOM     17  C   UNL A   1      39.857  30.311  31.537  1.00  0.00     0.074 A 
ATOM     18  C   UNL A   1      40.211  28.665  29.737  1.00  0.00     0.049 A 
ATOM     19  N   UNL A   1      40.912  30.089  32.277  1.00  0.00    -0.248 NA
ATOM     20  C   UNL A   1      38.978  31.376  32.039  1.00  0.00     0.031 C 
ATOM     21  C   UNL A   1      39.925  27.932  28.504  1.00  0.00     0.029 A 
ATOM     22  N   UNL A   1      41.389  28.125  30.187  1.00  0.00    -0.354 N 
ATOM     23  C   UNL A   1      40.836  30.995  33.325  1.00  0.00     0.074 A 
ATOM     24  C   UNL A   1      39.629  31.771  33.125  1.00  0.00     0.031 C 
ATOM     25  C   UNL A   1      40.882  27.008  28.316  1.00  0.00     0.029 A 
ATOM     26  C   UNL A   1      41.850  27.094  29.406  1.00  0.00     0.049 A 
ATOM     27  H   UNL A   1      41.857  28.445  30.991  1.00  0.00     0.167 HD
ATOM     28  C   UNL A   1      41.689  31.167  34.366  1.00  0.00     0.031 A 
ATOM     29  C   UNL A   1      42.924  26.297  29.556  1.00  0.00     0.031 A 
ATOM     30  C   UNL A   1      42.878  30.395  34.591  1.00  0.00     0.049 A 
ATOM     31  C   UNL A   1      43.840  26.486  30.727  1.00  0.00     0.074 A 
ATOM     32  C   UNL A   1      43.794  30.497  35.625  1.00  0.00     0.029 A 
ATOM     33  N   UNL A   1      43.316  29.368  33.770  1.00  0.00    -0.354 N 
ATOM     34  N   UNL A   1      43.750  27.351  31.707  1.00  0.00    -0.248 NA
ATOM     35  C   UNL A   1      45.003  25.592  30.808  1.00  0.00     0.031 C 
ATOM     36  C   UNL A   1      44.788  29.527  35.428  1.00  0.00     0.029 A 
ATOM     37  C   UNL A   1      44.487  28.825  34.273  1.00  0.00     0.049 A 
ATOM     38  H   UNL A   1      42.863  29.069  32.950  1.00  0.00     0.167 HD
ATOM     39  C   UNL A   1      44.845  27.106  32.525  1.00  0.00     0.074 A 
ATOM     40  C   UNL A   1      45.582  26.010  31.927  1.00  0.00     0.031 C 
ATOM     41  C   UNL A   1      45.208  27.736  33.668  1.00  0.00     0.031 A 
BRANCH  28  42
ATOM     42  C   UNL A   1      41.340  32.257  35.336  1.00  0.00    -0.014 A 
ATOM     43  C   UNL A   1      40.440  32.010  36.387  1.00  0.00     0.010 A 
ATOM     44  C   UNL A   1      41.886  33.542  35.177  1.00  0.00     0.010 A 
ATOM     45  C   UNL A   1      40.054  33.046  37.240  1.00  0.00     0.020 A 
ATOM     46  C   UNL A   1      41.504  34.580  36.031  1.00  0.00     0.020 A 
ATOM     47  C   UNL A   1      40.572  34.330  37.042  1.00  0.00     0.054 A 
BRANCH  47  48
ATOM     48  S   UNL A   1      40.040  35.688  38.120  1.00  0.00     0.124 S 
ATOM     49  O   UNL A   1      39.730  36.734  37.149  1.00  0.00    -0.237 OA
ATOM     50  O   UNL A   1      38.888  35.129  38.824  1.00  0.00    -0.237 OA
ATOM     51  O   UNL A   1      41.214  35.934  38.953  1.00  0.00    -0.744 OA
ENDBRANCH  47  48
ENDBRANCH  28  42
BRANCH  29  52
ATOM     52  C   UNL A   1      43.162  25.220  28.567  1.00  0.00    -0.014 A 
ATOM     53  C   UNL A   1      42.402  24.039  28.622  1.00  0.00     0.010 A 
ATOM     54  C   UNL A   1      44.092  25.400  27.530  1.00  0.00     0.010 A 
ATOM     55  C   UNL A   1      42.558  23.055  27.643  1.00  0.00     0.020 A 
ATOM     56  C   UNL A   1      44.248  24.418  26.548  1.00  0.00     0.020 A 
ATOM     57  C   UNL A   1      43.479  23.253  26.611  1.00  0.00     0.054 A 
BRANCH  57  58
ATOM     58  S   UNL A   1      43.618  22.027  25.280  1.00  0.00     0.124 S 
ATOM     59  O   UNL A   1      45.020  21.635  25.373  1.00  0.00    -0.237 OA
ATOM     60  O   UNL A   1      42.650  21.002  25.666  1.00  0.00    -0.237 OA
ATOM     61  O   UNL A   1      43.254  22.796  24.092  1.00  0.00    -0.744 OA
ENDBRANCH  57  58
ENDBRANCH  29  52
BRANCH  41  62
ATOM     62  C   UNL A   1      46.457  27.250  34.342  1.00  0.00    -0.014 A 
ATOM     63  C   UNL A   1      47.695  27.850  34.057  1.00  0.00     0.010 A 
ATOM     64  C   UNL A   1      46.393  26.201  35.274  1.00  0.00     0.010 A 
ATOM     65  C   UNL A   1      48.859  27.395  34.682  1.00  0.00     0.020 A 
ATOM     66  C   UNL A   1      47.555  25.745  35.902  1.00  0.00     0.020 A 
ATOM     67  C   UNL A   1      48.784  26.337  35.591  1.00  0.00     0.054 A 
BRANCH  67  68
ATOM     68  S   UNL A   1      50.288  25.756  36.425  1.00  0.00     0.124 S 
ATOM     69  O   UNL A   1      50.192  26.422  37.721  1.00  0.00    -0.237 OA
ATOM     70  O   UNL A   1      50.119  24.305  36.452  1.00  0.00    -0.237 OA
ATOM     71  O   UNL A   1      51.357  26.234  35.551  1.00  0.00    -0.744 OA
ENDBRANCH  67  68
ENDBRANCH  41  62
ENDBRANCH  15  16
ENDBRANCH   8  10
ENDBRANCH   5   6
ENDBRANCH   4   5
ENDBRANCH   3   4
ENDBRANCH   2   3
ENDBRANCH   1   2
BRANCH   1  72
ATOM     72  C   UNL A   1      31.632  24.742  23.960  1.00  0.00     0.116 C 
BRANCH  72  73
ATOM     73  N   UNL A   1      31.049  24.296  25.211  1.00  0.00    -0.351 N 
ATOM     74  C   UNL A   1      31.698  23.718  26.279  1.00  0.00     0.261 C 
ATOM     75  H   UNL A   1      30.076  24.422  25.308  1.00  0.00     0.163 HD
ATOM     76  O   UNL A   1      31.101  23.620  27.350  1.00  0.00    -0.268 OA
BRANCH  74  77
ATOM     77  C   UNL A   1      33.054  23.254  26.074  1.00  0.00     0.097 A 
ATOM     78  S   UNL A   1      34.302  24.412  26.061  1.00  0.00    -0.130 S 
ATOM     79  C   UNL A   1      33.521  21.956  25.920  1.00  0.00    -0.007 A 
ATOM     80  C   UNL A   1      35.491  23.241  25.669  1.00  0.00     0.035 A 
ATOM     81  C   UNL A   1      34.946  21.954  25.616  1.00  0.00    -0.003 A 
ATOM     82  C   UNL A   1      36.857  23.482  25.418  1.00  0.00     0.019 A 
ATOM     83  C   UNL A   1      35.826  20.889  25.286  1.00  0.00     0.010 A 
ATOM     84  C   UNL A   1      37.689  22.409  25.098  1.00  0.00     0.001 A 
ATOM     85  C   UNL A   1      37.181  21.123  25.032  1.00  0.00     0.001 A 
BRANCH  79  86
ATOM     86  C   UNL A   1      32.677  20.709  25.961  1.00  0.00     0.107 C 
BRANCH  86  87
ATOM     87  S   UNL A   1      32.654  19.712  24.438  1.00  0.00    -0.154 SA
BRANCH  87  88
ATOM     88  C   UNL A   1      32.742  18.002  25.090  1.00  0.00     0.104 C 
BRANCH  88  89
ATOM     89  C   UNL A   1      33.835  17.100  24.502  1.00  0.00     0.149 C 
BRANCH  89  90
ATOM     90  C   UNL A   1      33.782  16.962  22.978  1.00  0.00     0.188 C 
BRANCH  90  91
ATOM     91  O   UNL A   1      32.456  17.267  22.532  1.00  0.00    -0.394 OA
ATOM     92  H   UNL A   1      31.851  16.562  22.812  1.00  0.00     0.210 HD
ENDBRANCH  90  91
ENDBRANCH  89  90
BRANCH  89  93
ATOM     93  O   UNL A   1      35.150  17.544  24.865  1.00  0.00    -0.390 OA
ATOM     94  H   UNL A   1      35.167  18.513  24.893  1.00  0.00     0.211 HD
ENDBRANCH  89  93
ENDBRANCH  88  89
ENDBRANCH  87  88
ENDBRANCH  86  87
ENDBRANCH  79  86
ENDBRANCH  74  77
ENDBRANCH  72  73
ENDBRANCH   1  72
TORSDOF 23
ENDMDL
