MODEL 1
REMARK VINA RESULT:     -12.3      0.000      0.000
REMARK SMILES Cc1ccccc1NC(=O)CSc1nc(C(=O)NCCCCCCNC(=O)c2ccc(-c3c4nc(c(-c5ccc(S(=O)(=O)[O-])cc5)c5ccc([nH]5)c(-c5ccc(S(=O)(=O)[O-])cc5)c5nc(c(-c6ccc(S(=O)(=O)[O-])cc6)c6ccc3[nH]6)C=C5)C=C4)cc2)c2ccccc2n1
REMARK SMILES IDX 21 1 20 2 19 3 18 4 16 5 17 6 15 8 13 9 14 10 94 11 93 12
REMARK SMILES IDX 88 13 92 14 89 15 91 16 90 17 12 18 11 19 9 20 8 21 10 23
REMARK SMILES IDX 7 24 1 25 2 26 3 27 4 28 6 29 5 30 22 31 23 32 24 33 25 34
REMARK SMILES IDX 26 35 27 37 28 38 29 39 87 40 30 41 86 42 31 43 32 44 33 45
REMARK SMILES IDX 80 46 34 47 85 48 79 49 81 50 35 51 84 52 78 53 77 54 36 56
REMARK SMILES IDX 66 57 47 58 65 59 48 60 51 61 64 62 82 63 49 64 50 65 63 67
REMARK SMILES IDX 83 68 52 69 37 70 38 71 46 72 39 73 45 74 40 75 41 76 42 77
REMARK SMILES IDX 43 78 44 79 67 80 68 81 76 82 69 83 75 84 70 85 71 86 72 87
REMARK SMILES IDX 73 88 74 89 53 90 54 91 62 92 55 93 61 94 56 95 57 96 58 97
REMARK SMILES IDX 59 98 60 99
REMARK H PARENT 18 7 8 22 25 36 81 55 51 66
REMARK Flexibility Score: inf
ROOT
ATOM      1  C   UNL A   1      34.231  21.095  24.819  1.00  0.00     0.002 C 
ENDROOT
BRANCH   1   2
ATOM      2  C   UNL A   1      33.780  22.217  23.872  1.00  0.00     0.021 C 
BRANCH   2   3
ATOM      3  C   UNL A   1      33.313  23.543  24.466  1.00  0.00     0.116 C 
BRANCH   3   4
ATOM      4  N   UNL A   1      32.519  23.474  25.677  1.00  0.00    -0.351 N 
ATOM      5  C   UNL A   1      31.719  24.442  26.263  1.00  0.00     0.270 C 
ATOM      6  O   UNL A   1      31.050  24.129  27.249  1.00  0.00    -0.267 OA
ATOM      7  H   UNL A   1      32.555  22.613  26.154  1.00  0.00     0.163 HD
BRANCH   5   8
ATOM      8  C   UNL A   1      31.706  25.871  25.790  1.00  0.00     0.140 A 
ATOM      9  C   UNL A   1      32.952  27.772  25.629  1.00  0.00     0.189 A 
ATOM     10  N   UNL A   1      32.838  26.542  26.121  1.00  0.00    -0.217 NA
ATOM     11  N   UNL A   1      32.098  28.339  24.769  1.00  0.00    -0.222 NA
ATOM     12  C   UNL A   1      30.981  27.671  24.473  1.00  0.00     0.076 A 
ATOM     13  C   UNL A   1      30.663  26.434  25.040  1.00  0.00     0.032 A 
ATOM     14  C   UNL A   1      30.105  28.231  23.552  1.00  0.00     0.029 A 
ATOM     15  C   UNL A   1      29.376  25.885  24.804  1.00  0.00     0.013 A 
ATOM     16  C   UNL A   1      28.892  27.623  23.223  1.00  0.00     0.002 A 
ATOM     17  C   UNL A   1      28.510  26.461  23.878  1.00  0.00     0.001 A 
BRANCH   9  18
ATOM     18  S   UNL A   1      34.388  28.717  26.037  1.00  0.00    -0.076 SA
BRANCH  18  19
ATOM     19  C   UNL A   1      33.811  29.535  27.550  1.00  0.00     0.178 C 
BRANCH  19  20
ATOM     20  C   UNL A   1      33.030  30.809  27.311  1.00  0.00     0.234 C 
ATOM     21  N   UNL A   1      33.443  32.067  27.630  1.00  0.00    -0.325 N 
ATOM     22  H   UNL A   1      32.757  32.740  27.420  1.00  0.00     0.169 HD
ATOM     23  O   UNL A   1      31.893  30.739  26.822  1.00  0.00    -0.274 OA
BRANCH  21  24
ATOM     24  C   UNL A   1      34.599  32.653  28.183  1.00  0.00     0.044 A 
ATOM     25  C   UNL A   1      33.195  34.654  29.060  1.00  0.00     0.046 C 
ATOM     26  C   UNL A   1      34.487  33.915  28.817  1.00  0.00    -0.027 A 
ATOM     27  C   UNL A   1      35.655  34.588  29.236  1.00  0.00     0.005 A 
ATOM     28  C   UNL A   1      36.910  34.012  29.087  1.00  0.00     0.000 A 
ATOM     29  C   UNL A   1      35.864  32.062  28.121  1.00  0.00     0.026 A 
ATOM     30  C   UNL A   1      37.011  32.737  28.553  1.00  0.00     0.002 A 
ENDBRANCH  21  24
ENDBRANCH  19  20
ENDBRANCH  18  19
ENDBRANCH   9  18
ENDBRANCH   5   8
ENDBRANCH   3   4
ENDBRANCH   2   3
ENDBRANCH   1   2
BRANCH   1  31
ATOM     31  C   UNL A   1      35.614  21.167  25.484  1.00  0.00     0.002 C 
BRANCH  31  32
ATOM     32  C   UNL A   1      36.786  21.675  24.647  1.00  0.00     0.021 C 
BRANCH  32  33
ATOM     33  C   UNL A   1      37.658  22.734  25.314  1.00  0.00     0.116 C 
BRANCH  33  34
ATOM     34  N   UNL A   1      38.903  22.184  25.848  1.00  0.00    -0.352 N 
ATOM     35  C   UNL A   1      39.950  22.855  26.467  1.00  0.00     0.251 C 
ATOM     36  H   UNL A   1      39.013  21.210  25.758  1.00  0.00     0.163 HD
ATOM     37  O   UNL A   1      41.001  22.340  26.772  1.00  0.00    -0.269 OA
BRANCH  35  38
ATOM     38  C   UNL A   1      39.673  24.255  26.843  1.00  0.00     0.039 A 
ATOM     39  C   UNL A   1      40.319  25.238  26.083  1.00  0.00     0.014 A 
ATOM     40  C   UNL A   1      39.152  24.520  28.106  1.00  0.00     0.014 A 
ATOM     41  C   UNL A   1      40.648  26.440  26.692  1.00  0.00     0.010 A 
ATOM     42  C   UNL A   1      39.554  25.683  28.734  1.00  0.00     0.010 A 
ATOM     43  C   UNL A   1      40.367  26.599  28.048  1.00  0.00    -0.014 A 
BRANCH  43  44
ATOM     44  C   UNL A   1      40.981  27.642  28.856  1.00  0.00     0.031 A 
ATOM     45  C   UNL A   1      40.197  28.837  29.214  1.00  0.00     0.074 A 
ATOM     46  C   UNL A   1      42.265  27.537  29.261  1.00  0.00     0.049 A 
ATOM     47  N   UNL A   1      40.707  29.962  29.580  1.00  0.00    -0.248 NA
ATOM     48  C   UNL A   1      38.745  28.874  29.089  1.00  0.00     0.031 C 
ATOM     49  C   UNL A   1      42.957  28.355  30.253  1.00  0.00     0.029 A 
ATOM     50  N   UNL A   1      43.283  26.808  28.671  1.00  0.00    -0.354 N 
ATOM     51  C   UNL A   1      39.679  30.754  30.028  1.00  0.00     0.074 A 
ATOM     52  C   UNL A   1      38.479  30.083  29.587  1.00  0.00     0.031 C 
ATOM     53  C   UNL A   1      44.280  28.266  30.041  1.00  0.00     0.029 A 
ATOM     54  C   UNL A   1      44.482  27.511  28.815  1.00  0.00     0.049 A 
ATOM     55  H   UNL A   1      43.180  25.937  28.223  1.00  0.00     0.167 HD
ATOM     56  C   UNL A   1      39.962  31.805  30.850  1.00  0.00     0.031 A 
ATOM     57  C   UNL A   1      45.147  27.983  27.717  1.00  0.00     0.031 A 
ATOM     58  C   UNL A   1      41.403  32.078  30.905  1.00  0.00     0.049 A 
ATOM     59  C   UNL A   1      45.200  29.502  27.617  1.00  0.00     0.074 A 
ATOM     60  C   UNL A   1      42.402  31.915  31.852  1.00  0.00     0.029 A 
ATOM     61  N   UNL A   1      42.060  32.355  29.713  1.00  0.00    -0.354 N 
ATOM     62  N   UNL A   1      44.656  30.326  28.473  1.00  0.00    -0.248 NA
ATOM     63  C   UNL A   1      45.817  30.214  26.497  1.00  0.00     0.031 C 
ATOM     64  C   UNL A   1      43.666  32.080  31.204  1.00  0.00     0.029 A 
ATOM     65  C   UNL A   1      43.433  32.365  29.872  1.00  0.00     0.049 A 
ATOM     66  H   UNL A   1      41.603  32.525  28.858  1.00  0.00     0.167 HD
ATOM     67  C   UNL A   1      44.797  31.621  28.040  1.00  0.00     0.074 A 
ATOM     68  C   UNL A   1      45.539  31.497  26.797  1.00  0.00     0.031 C 
ATOM     69  C   UNL A   1      44.260  32.686  28.713  1.00  0.00     0.031 A 
BRANCH  56  70
ATOM     70  C   UNL A   1      38.930  32.389  31.798  1.00  0.00    -0.014 A 
ATOM     71  C   UNL A   1      37.891  31.582  32.300  1.00  0.00     0.010 A 
ATOM     72  C   UNL A   1      38.867  33.752  32.152  1.00  0.00     0.010 A 
ATOM     73  C   UNL A   1      36.799  32.124  33.005  1.00  0.00     0.020 A 
ATOM     74  C   UNL A   1      37.771  34.315  32.818  1.00  0.00     0.020 A 
ATOM     75  C   UNL A   1      36.729  33.498  33.227  1.00  0.00     0.054 A 
BRANCH  75  76
ATOM     76  S   UNL A   1      35.273  34.212  34.033  1.00  0.00     0.124 S 
ATOM     77  O   UNL A   1      35.489  33.866  35.436  1.00  0.00    -0.237 OA
ATOM     78  O   UNL A   1      35.395  35.627  33.703  1.00  0.00    -0.237 OA
ATOM     79  O   UNL A   1      34.151  33.521  33.398  1.00  0.00    -0.744 OA
ENDBRANCH  75  76
ENDBRANCH  56  70
BRANCH  57  80
ATOM     80  C   UNL A   1      45.155  27.018  26.578  1.00  0.00    -0.014 A 
ATOM     81  C   UNL A   1      46.147  26.011  26.594  1.00  0.00     0.010 A 
ATOM     82  C   UNL A   1      44.028  26.833  25.760  1.00  0.00     0.010 A 
ATOM     83  C   UNL A   1      45.946  24.792  25.939  1.00  0.00     0.020 A 
ATOM     84  C   UNL A   1      43.826  25.610  25.096  1.00  0.00     0.020 A 
ATOM     85  C   UNL A   1      44.758  24.579  25.244  1.00  0.00     0.054 A 
BRANCH  85  86
ATOM     86  S   UNL A   1      44.399  22.897  24.651  1.00  0.00     0.124 S 
ATOM     87  O   UNL A   1      42.982  22.980  24.306  1.00  0.00    -0.237 OA
ATOM     88  O   UNL A   1      45.311  22.774  23.514  1.00  0.00    -0.237 OA
ATOM     89  O   UNL A   1      44.716  22.059  25.803  1.00  0.00    -0.744 OA
ENDBRANCH  85  86
ENDBRANCH  57  80
BRANCH  69  90
ATOM     90  C   UNL A   1      44.389  34.147  28.323  1.00  0.00    -0.014 A 
ATOM     91  C   UNL A   1      44.292  34.633  27.010  1.00  0.00     0.010 A 
ATOM     92  C   UNL A   1      44.726  35.097  29.321  1.00  0.00     0.010 A 
ATOM     93  C   UNL A   1      44.433  36.003  26.726  1.00  0.00     0.020 A 
ATOM     94  C   UNL A   1      44.887  36.458  29.051  1.00  0.00     0.020 A 
ATOM     95  C   UNL A   1      44.717  36.909  27.751  1.00  0.00     0.054 A 
BRANCH  95  96
ATOM     96  S   UNL A   1      44.891  38.668  27.364  1.00  0.00     0.124 S 
ATOM     97  O   UNL A   1      45.275  39.237  28.654  1.00  0.00    -0.237 OA
ATOM     98  O   UNL A   1      45.940  38.654  26.346  1.00  0.00    -0.237 OA
ATOM     99  O   UNL A   1      43.567  39.057  26.884  1.00  0.00    -0.744 OA
ENDBRANCH  95  96
ENDBRANCH  69  90
ENDBRANCH  43  44
ENDBRANCH  35  38
ENDBRANCH  33  34
ENDBRANCH  32  33
ENDBRANCH  31  32
ENDBRANCH   1  31
TORSDOF 20
ENDMDL
MODEL 2
REMARK VINA RESULT:     -12.0      3.871      6.280
REMARK SMILES Cc1ccccc1NC(=O)CSc1nc(C(=O)NCCCCCCNC(=O)c2ccc(-c3c4nc(c(-c5ccc(S(=O)(=O)[O-])cc5)c5ccc([nH]5)c(-c5ccc(S(=O)(=O)[O-])cc5)c5nc(c(-c6ccc(S(=O)(=O)[O-])cc6)c6ccc3[nH]6)C=C5)C=C4)cc2)c2ccccc2n1
REMARK SMILES IDX 21 1 20 2 19 3 18 4 16 5 17 6 15 8 13 9 14 10 94 11 93 12
REMARK SMILES IDX 88 13 92 14 89 15 91 16 90 17 12 18 11 19 9 20 8 21 10 23
REMARK SMILES IDX 7 24 1 25 2 26 3 27 4 28 6 29 5 30 22 31 23 32 24 33 25 34
REMARK SMILES IDX 26 35 27 37 28 38 29 39 87 40 30 41 86 42 31 43 32 44 33 45
REMARK SMILES IDX 80 46 34 47 85 48 79 49 81 50 35 51 84 52 78 53 77 54 36 56
REMARK SMILES IDX 66 57 47 58 65 59 48 60 51 61 64 62 82 63 49 64 50 65 63 67
REMARK SMILES IDX 83 68 52 69 37 70 38 71 46 72 39 73 45 74 40 75 41 76 42 77
REMARK SMILES IDX 43 78 44 79 67 80 68 81 76 82 69 83 75 84 70 85 71 86 72 87
REMARK SMILES IDX 73 88 74 89 53 90 54 91 62 92 55 93 61 94 56 95 57 96 58 97
REMARK SMILES IDX 59 98 60 99
REMARK H PARENT 18 7 8 22 25 36 81 55 51 66
REMARK Flexibility Score: inf
ROOT
ATOM      1  C   UNL A   1      38.860  22.619  26.427  1.00  0.00     0.002 C 
ENDROOT
BRANCH   1   2
ATOM      2  C   UNL A   1      37.647  23.109  25.623  1.00  0.00     0.021 C 
BRANCH   2   3
ATOM      3  C   UNL A   1      36.448  22.181  25.452  1.00  0.00     0.116 C 
BRANCH   3   4
ATOM      4  N   UNL A   1      35.596  21.994  26.611  1.00  0.00    -0.351 N 
ATOM      5  C   UNL A   1      34.253  21.658  26.673  1.00  0.00     0.270 C 
ATOM      6  O   UNL A   1      33.751  21.453  27.779  1.00  0.00    -0.267 OA
ATOM      7  H   UNL A   1      36.037  22.125  27.482  1.00  0.00     0.163 HD
BRANCH   5   8
ATOM      8  C   UNL A   1      33.375  21.621  25.450  1.00  0.00     0.140 A 
ATOM      9  C   UNL A   1      32.350  22.910  23.875  1.00  0.00     0.189 A 
ATOM     10  N   UNL A   1      33.021  22.859  25.022  1.00  0.00    -0.217 NA
ATOM     11  N   UNL A   1      32.096  21.860  23.085  1.00  0.00    -0.222 NA
ATOM     12  C   UNL A   1      32.434  20.650  23.534  1.00  0.00     0.076 A 
ATOM     13  C   UNL A   1      33.007  20.439  24.791  1.00  0.00     0.032 A 
ATOM     14  C   UNL A   1      32.211  19.556  22.707  1.00  0.00     0.029 A 
ATOM     15  C   UNL A   1      33.165  19.107  25.255  1.00  0.00     0.013 A 
ATOM     16  C   UNL A   1      32.489  18.251  23.119  1.00  0.00     0.002 A 
ATOM     17  C   UNL A   1      32.936  18.023  24.412  1.00  0.00     0.001 A 
BRANCH   9  18
ATOM     18  S   UNL A   1      31.835  24.486  23.266  1.00  0.00    -0.076 SA
BRANCH  18  19
ATOM     19  C   UNL A   1      30.584  24.914  24.509  1.00  0.00     0.178 C 
BRANCH  19  20
ATOM     20  C   UNL A   1      29.930  26.262  24.298  1.00  0.00     0.234 C 
ATOM     21  N   UNL A   1      30.425  27.460  24.713  1.00  0.00    -0.325 N 
ATOM     22  H   UNL A   1      29.813  28.201  24.502  1.00  0.00     0.169 HD
ATOM     23  O   UNL A   1      28.824  26.316  23.740  1.00  0.00    -0.274 OA
BRANCH  21  24
ATOM     24  C   UNL A   1      31.589  27.913  25.365  1.00  0.00     0.044 A 
ATOM     25  C   UNL A   1      32.751  28.300  23.075  1.00  0.00     0.046 C 
ATOM     26  C   UNL A   1      32.718  28.262  24.582  1.00  0.00    -0.027 A 
ATOM     27  C   UNL A   1      33.939  28.567  25.221  1.00  0.00     0.005 A 
ATOM     28  C   UNL A   1      34.041  28.585  26.607  1.00  0.00     0.000 A 
ATOM     29  C   UNL A   1      31.699  28.019  26.754  1.00  0.00     0.026 A 
ATOM     30  C   UNL A   1      32.913  28.336  27.372  1.00  0.00     0.002 A 
ENDBRANCH  21  24
ENDBRANCH  19  20
ENDBRANCH  18  19
ENDBRANCH   9  18
ENDBRANCH   5   8
ENDBRANCH   3   4
ENDBRANCH   2   3
ENDBRANCH   1   2
BRANCH   1  31
ATOM     31  C   UNL A   1      39.699  23.623  27.232  1.00  0.00     0.002 C 
BRANCH  31  32
ATOM     32  C   UNL A   1      39.665  25.089  26.806  1.00  0.00     0.021 C 
BRANCH  32  33
ATOM     33  C   UNL A   1      40.866  25.925  27.238  1.00  0.00     0.116 C 
BRANCH  33  34
ATOM     34  N   UNL A   1      41.706  26.328  26.111  1.00  0.00    -0.352 N 
ATOM     35  C   UNL A   1      41.908  27.602  25.596  1.00  0.00     0.251 C 
ATOM     36  H   UNL A   1      42.194  25.602  25.660  1.00  0.00     0.163 HD
ATOM     37  O   UNL A   1      42.528  27.834  24.583  1.00  0.00    -0.269 OA
BRANCH  35  38
ATOM     38  C   UNL A   1      41.401  28.712  26.426  1.00  0.00     0.039 A 
ATOM     39  C   UNL A   1      42.335  29.331  27.265  1.00  0.00     0.014 A 
ATOM     40  C   UNL A   1      40.030  28.820  26.637  1.00  0.00     0.014 A 
ATOM     41  C   UNL A   1      41.894  29.875  28.463  1.00  0.00     0.010 A 
ATOM     42  C   UNL A   1      39.606  29.287  27.866  1.00  0.00     0.010 A 
ATOM     43  C   UNL A   1      40.549  29.737  28.803  1.00  0.00    -0.014 A 
BRANCH  43  44
ATOM     44  C   UNL A   1      40.062  29.937  30.159  1.00  0.00     0.031 A 
ATOM     45  C   UNL A   1      39.296  31.152  30.482  1.00  0.00     0.074 A 
ATOM     46  C   UNL A   1      40.324  29.032  31.127  1.00  0.00     0.049 A 
ATOM     47  N   UNL A   1      39.142  31.624  31.672  1.00  0.00    -0.248 NA
ATOM     48  C   UNL A   1      38.714  31.997  29.446  1.00  0.00     0.031 C 
ATOM     49  C   UNL A   1      39.727  28.953  32.458  1.00  0.00     0.029 A 
ATOM     50  N   UNL A   1      41.374  28.132  31.186  1.00  0.00    -0.354 N 
ATOM     51  C   UNL A   1      38.207  32.627  31.599  1.00  0.00     0.074 A 
ATOM     52  C   UNL A   1      38.069  32.899  30.188  1.00  0.00     0.031 C 
ATOM     53  C   UNL A   1      40.547  28.253  33.259  1.00  0.00     0.029 A 
ATOM     54  C   UNL A   1      41.770  27.988  32.518  1.00  0.00     0.049 A 
ATOM     55  H   UNL A   1      41.776  27.669  30.416  1.00  0.00     0.167 HD
ATOM     56  C   UNL A   1      37.551  33.004  32.734  1.00  0.00     0.031 A 
ATOM     57  C   UNL A   1      43.018  28.379  32.919  1.00  0.00     0.031 A 
ATOM     58  C   UNL A   1      38.168  32.429  33.934  1.00  0.00     0.049 A 
ATOM     59  C   UNL A   1      43.029  29.560  33.881  1.00  0.00     0.074 A 
ATOM     60  C   UNL A   1      37.823  31.444  34.846  1.00  0.00     0.029 A 
ATOM     61  N   UNL A   1      39.508  32.708  34.175  1.00  0.00    -0.354 N 
ATOM     62  N   UNL A   1      41.964  30.189  34.304  1.00  0.00    -0.248 NA
ATOM     63  C   UNL A   1      44.257  30.170  34.393  1.00  0.00     0.031 C 
ATOM     64  C   UNL A   1      38.980  31.124  35.622  1.00  0.00     0.029 A 
ATOM     65  C   UNL A   1      40.019  31.930  35.197  1.00  0.00     0.049 A 
ATOM     66  H   UNL A   1      40.030  33.378  33.678  1.00  0.00     0.167 HD
ATOM     67  C   UNL A   1      42.325  31.265  35.077  1.00  0.00     0.074 A 
ATOM     68  C   UNL A   1      43.776  31.206  35.107  1.00  0.00     0.031 C 
ATOM     69  C   UNL A   1      41.408  32.139  35.595  1.00  0.00     0.031 A 
BRANCH  56  70
ATOM     70  C   UNL A   1      36.189  33.675  32.693  1.00  0.00    -0.014 A 
ATOM     71  C   UNL A   1      35.374  33.556  31.551  1.00  0.00     0.010 A 
ATOM     72  C   UNL A   1      35.698  34.524  33.705  1.00  0.00     0.010 A 
ATOM     73  C   UNL A   1      34.208  34.328  31.383  1.00  0.00     0.020 A 
ATOM     74  C   UNL A   1      34.563  35.328  33.540  1.00  0.00     0.020 A 
ATOM     75  C   UNL A   1      33.831  35.239  32.367  1.00  0.00     0.054 A 
BRANCH  75  76
ATOM     76  S   UNL A   1      32.397  36.313  32.105  1.00  0.00     0.124 S 
ATOM     77  O   UNL A   1      32.709  37.466  32.946  1.00  0.00    -0.237 OA
ATOM     78  O   UNL A   1      32.441  36.549  30.666  1.00  0.00    -0.237 OA
ATOM     79  O   UNL A   1      31.269  35.505  32.567  1.00  0.00    -0.744 OA
ENDBRANCH  75  76
ENDBRANCH  56  70
BRANCH  57  80
ATOM     80  C   UNL A   1      44.085  28.024  31.937  1.00  0.00    -0.014 A 
ATOM     81  C   UNL A   1      44.280  26.651  31.666  1.00  0.00     0.010 A 
ATOM     82  C   UNL A   1      44.589  28.964  31.023  1.00  0.00     0.010 A 
ATOM     83  C   UNL A   1      44.817  26.226  30.447  1.00  0.00     0.020 A 
ATOM     84  C   UNL A   1      45.134  28.540  29.799  1.00  0.00     0.020 A 
ATOM     85  C   UNL A   1      45.185  27.177  29.497  1.00  0.00     0.054 A 
BRANCH  85  86
ATOM     86  S   UNL A   1      45.606  26.600  27.824  1.00  0.00     0.124 S 
ATOM     87  O   UNL A   1      44.452  25.775  27.475  1.00  0.00    -0.237 OA
ATOM     88  O   UNL A   1      45.717  27.859  27.086  1.00  0.00    -0.237 OA
ATOM     89  O   UNL A   1      46.857  25.876  28.022  1.00  0.00    -0.744 OA
ENDBRANCH  85  86
ENDBRANCH  57  80
BRANCH  69  90
ATOM     90  C   UNL A   1      41.714  33.336  36.479  1.00  0.00    -0.014 A 
ATOM     91  C   UNL A   1      41.180  33.538  37.761  1.00  0.00     0.010 A 
ATOM     92  C   UNL A   1      42.515  34.385  35.959  1.00  0.00     0.010 A 
ATOM     93  C   UNL A   1      41.504  34.679  38.515  1.00  0.00     0.020 A 
ATOM     94  C   UNL A   1      42.830  35.533  36.690  1.00  0.00     0.020 A 
ATOM     95  C   UNL A   1      42.338  35.664  37.980  1.00  0.00     0.054 A 
BRANCH  95  96
ATOM     96  S   UNL A   1      42.745  37.124  38.969  1.00  0.00     0.124 S 
ATOM     97  O   UNL A   1      41.425  37.667  39.284  1.00  0.00    -0.237 OA
ATOM     98  O   UNL A   1      43.468  36.537  40.095  1.00  0.00    -0.237 OA
ATOM     99  O   UNL A   1      43.554  37.944  38.071  1.00  0.00    -0.744 OA
ENDBRANCH  95  96
ENDBRANCH  69  90
ENDBRANCH  43  44
ENDBRANCH  35  38
ENDBRANCH  33  34
ENDBRANCH  32  33
ENDBRANCH  31  32
ENDBRANCH   1  31
TORSDOF 20
ENDMDL
MODEL 3
REMARK VINA RESULT:     -12.0      2.096      4.091
REMARK SMILES Cc1ccccc1NC(=O)CSc1nc(C(=O)NCCCCCCNC(=O)c2ccc(-c3c4nc(c(-c5ccc(S(=O)(=O)[O-])cc5)c5ccc([nH]5)c(-c5ccc(S(=O)(=O)[O-])cc5)c5nc(c(-c6ccc(S(=O)(=O)[O-])cc6)c6ccc3[nH]6)C=C5)C=C4)cc2)c2ccccc2n1
REMARK SMILES IDX 21 1 20 2 19 3 18 4 16 5 17 6 15 8 13 9 14 10 94 11 93 12
REMARK SMILES IDX 88 13 92 14 89 15 91 16 90 17 12 18 11 19 9 20 8 21 10 23
REMARK SMILES IDX 7 24 1 25 2 26 3 27 4 28 6 29 5 30 22 31 23 32 24 33 25 34
REMARK SMILES IDX 26 35 27 37 28 38 29 39 87 40 30 41 86 42 31 43 32 44 33 45
REMARK SMILES IDX 80 46 34 47 85 48 79 49 81 50 35 51 84 52 78 53 77 54 36 56
REMARK SMILES IDX 66 57 47 58 65 59 48 60 51 61 64 62 82 63 49 64 50 65 63 67
REMARK SMILES IDX 83 68 52 69 37 70 38 71 46 72 39 73 45 74 40 75 41 76 42 77
REMARK SMILES IDX 43 78 44 79 67 80 68 81 76 82 69 83 75 84 70 85 71 86 72 87
REMARK SMILES IDX 73 88 74 89 53 90 54 91 62 92 55 93 61 94 56 95 57 96 58 97
REMARK SMILES IDX 59 98 60 99
REMARK H PARENT 18 7 8 22 25 36 81 55 51 66
REMARK Flexibility Score: inf
ROOT
ATOM      1  C   UNL A   1      37.163  21.592  25.236  1.00  0.00     0.002 C 
ENDROOT
BRANCH   1   2
ATOM      2  C   UNL A   1      35.924  22.480  25.047  1.00  0.00     0.021 C 
BRANCH   2   3
ATOM      3  C   UNL A   1      35.564  23.489  26.135  1.00  0.00     0.116 C 
BRANCH   3   4
ATOM      4  N   UNL A   1      34.819  22.985  27.273  1.00  0.00    -0.351 N 
ATOM      5  C   UNL A   1      33.475  22.662  27.372  1.00  0.00     0.270 C 
ATOM      6  O   UNL A   1      33.072  22.152  28.418  1.00  0.00    -0.267 OA
ATOM      7  H   UNL A   1      35.344  22.855  28.094  1.00  0.00     0.163 HD
BRANCH   5   8
ATOM      8  C   UNL A   1      32.484  22.989  26.286  1.00  0.00     0.140 A 
ATOM      9  C   UNL A   1      31.036  24.575  25.527  1.00  0.00     0.189 A 
ATOM     10  N   UNL A   1      31.835  24.159  26.505  1.00  0.00    -0.217 NA
ATOM     11  N   UNL A   1      30.913  23.986  24.332  1.00  0.00    -0.222 NA
ATOM     12  C   UNL A   1      31.544  22.826  24.144  1.00  0.00     0.076 A 
ATOM     13  C   UNL A   1      32.294  22.199  25.143  1.00  0.00     0.032 A 
ATOM     14  C   UNL A   1      31.455  22.224  22.895  1.00  0.00     0.029 A 
ATOM     15  C   UNL A   1      32.777  20.885  24.911  1.00  0.00     0.013 A 
ATOM     16  C   UNL A   1      32.043  20.986  22.629  1.00  0.00     0.002 A 
ATOM     17  C   UNL A   1      32.679  20.297  23.652  1.00  0.00     0.001 A 
BRANCH   9  18
ATOM     18  S   UNL A   1      30.137  26.080  25.751  1.00  0.00    -0.076 SA
BRANCH  18  19
ATOM     19  C   UNL A   1      31.382  27.067  26.627  1.00  0.00     0.178 C 
BRANCH  19  20
ATOM     20  C   UNL A   1      31.848  28.295  25.875  1.00  0.00     0.234 C 
ATOM     21  N   UNL A   1      32.341  28.312  24.607  1.00  0.00    -0.325 N 
ATOM     22  H   UNL A   1      32.618  29.216  24.335  1.00  0.00     0.169 HD
ATOM     23  O   UNL A   1      31.833  29.395  26.447  1.00  0.00    -0.274 OA
BRANCH  21  24
ATOM     24  C   UNL A   1      32.556  27.369  23.582  1.00  0.00     0.044 A 
ATOM     25  C   UNL A   1      30.454  28.226  22.320  1.00  0.00     0.046 C 
ATOM     26  C   UNL A   1      31.622  27.293  22.518  1.00  0.00    -0.027 A 
ATOM     27  C   UNL A   1      31.734  26.254  21.569  1.00  0.00     0.005 A 
ATOM     28  C   UNL A   1      32.775  25.336  21.626  1.00  0.00     0.000 A 
ATOM     29  C   UNL A   1      33.637  26.484  23.567  1.00  0.00     0.026 A 
ATOM     30  C   UNL A   1      33.741  25.468  22.611  1.00  0.00     0.002 A 
ENDBRANCH  21  24
ENDBRANCH  19  20
ENDBRANCH  18  19
ENDBRANCH   9  18
ENDBRANCH   5   8
ENDBRANCH   3   4
ENDBRANCH   2   3
ENDBRANCH   1   2
BRANCH   1  31
ATOM     31  C   UNL A   1      38.453  22.194  25.813  1.00  0.00     0.002 C 
BRANCH  31  32
ATOM     32  C   UNL A   1      39.603  21.245  26.142  1.00  0.00     0.021 C 
BRANCH  32  33
ATOM     33  C   UNL A   1      40.686  21.817  27.051  1.00  0.00     0.116 C 
BRANCH  33  34
ATOM     34  N   UNL A   1      41.841  22.316  26.306  1.00  0.00    -0.352 N 
ATOM     35  C   UNL A   1      42.128  23.621  25.928  1.00  0.00     0.251 C 
ATOM     36  H   UNL A   1      42.502  21.638  26.039  1.00  0.00     0.163 HD
ATOM     37  O   UNL A   1      43.048  23.932  25.207  1.00  0.00    -0.269 OA
BRANCH  35  38
ATOM     38  C   UNL A   1      41.290  24.663  26.552  1.00  0.00     0.039 A 
ATOM     39  C   UNL A   1      41.202  25.879  25.864  1.00  0.00     0.014 A 
ATOM     40  C   UNL A   1      40.980  24.554  27.905  1.00  0.00     0.014 A 
ATOM     41  C   UNL A   1      41.022  27.045  26.595  1.00  0.00     0.010 A 
ATOM     42  C   UNL A   1      40.885  25.722  28.636  1.00  0.00     0.010 A 
ATOM     43  C   UNL A   1      40.987  26.961  27.985  1.00  0.00    -0.014 A 
BRANCH  43  44
ATOM     44  C   UNL A   1      41.168  28.124  28.842  1.00  0.00     0.031 A 
ATOM     45  C   UNL A   1      40.092  29.124  28.941  1.00  0.00     0.074 A 
ATOM     46  C   UNL A   1      42.318  28.305  29.527  1.00  0.00     0.049 A 
ATOM     47  N   UNL A   1      40.258  30.339  29.340  1.00  0.00    -0.248 NA
ATOM     48  C   UNL A   1      38.733  28.845  28.495  1.00  0.00     0.031 C 
ATOM     49  C   UNL A   1      42.577  29.267  30.595  1.00  0.00     0.029 A 
ATOM     50  N   UNL A   1      43.573  27.806  29.226  1.00  0.00    -0.354 N 
ATOM     51  C   UNL A   1      39.013  30.894  29.498  1.00  0.00     0.074 A 
ATOM     52  C   UNL A   1      38.114  29.974  28.845  1.00  0.00     0.031 C 
ATOM     53  C   UNL A   1      43.902  29.464  30.688  1.00  0.00     0.029 A 
ATOM     54  C   UNL A   1      44.533  28.754  29.588  1.00  0.00     0.049 A 
ATOM     55  H   UNL A   1      43.759  26.928  28.821  1.00  0.00     0.167 HD
ATOM     56  C   UNL A   1      38.875  31.993  30.295  1.00  0.00     0.031 A 
ATOM     57  C   UNL A   1      45.320  29.345  28.637  1.00  0.00     0.031 A 
ATOM     58  C   UNL A   1      40.175  32.573  30.652  1.00  0.00     0.049 A 
ATOM     59  C   UNL A   1      45.077  30.838  28.456  1.00  0.00     0.074 A 
ATOM     60  C   UNL A   1      40.941  32.644  31.804  1.00  0.00     0.029 A 
ATOM     61  N   UNL A   1      41.017  32.970  29.620  1.00  0.00    -0.354 N 
ATOM     62  N   UNL A   1      44.192  31.536  29.117  1.00  0.00    -0.248 NA
ATOM     63  C   UNL A   1      45.774  31.651  27.459  1.00  0.00     0.031 C 
ATOM     64  C   UNL A   1      42.257  33.070  31.445  1.00  0.00     0.029 A 
ATOM     65  C   UNL A   1      42.283  33.280  30.079  1.00  0.00     0.049 A 
ATOM     66  H   UNL A   1      40.744  33.025  28.675  1.00  0.00     0.167 HD
ATOM     67  C   UNL A   1      44.156  32.824  28.645  1.00  0.00     0.074 A 
ATOM     68  C   UNL A   1      45.174  32.847  27.608  1.00  0.00     0.031 C 
ATOM     69  C   UNL A   1      43.269  33.756  29.114  1.00  0.00     0.031 A 
BRANCH  56  70
ATOM     70  C   UNL A   1      37.554  32.353  30.952  1.00  0.00    -0.014 A 
ATOM     71  C   UNL A   1      36.436  32.685  30.162  1.00  0.00     0.010 A 
ATOM     72  C   UNL A   1      37.376  32.483  32.344  1.00  0.00     0.010 A 
ATOM     73  C   UNL A   1      35.263  33.227  30.722  1.00  0.00     0.020 A 
ATOM     74  C   UNL A   1      36.233  33.056  32.915  1.00  0.00     0.020 A 
ATOM     75  C   UNL A   1      35.184  33.444  32.095  1.00  0.00     0.054 A 
BRANCH  75  76
ATOM     76  S   UNL A   1      33.722  34.244  32.804  1.00  0.00     0.124 S 
ATOM     77  O   UNL A   1      33.125  34.895  31.641  1.00  0.00    -0.237 OA
ATOM     78  O   UNL A   1      32.979  33.113  33.348  1.00  0.00    -0.237 OA
ATOM     79  O   UNL A   1      34.276  35.159  33.801  1.00  0.00    -0.744 OA
ENDBRANCH  75  76
ENDBRANCH  56  70
BRANCH  57  80
ATOM     80  C   UNL A   1      45.791  28.389  27.591  1.00  0.00    -0.014 A 
ATOM     81  C   UNL A   1      45.293  28.572  26.281  1.00  0.00     0.010 A 
ATOM     82  C   UNL A   1      46.954  27.620  27.763  1.00  0.00     0.010 A 
ATOM     83  C   UNL A   1      46.019  28.138  25.167  1.00  0.00     0.020 A 
ATOM     84  C   UNL A   1      47.684  27.178  26.646  1.00  0.00     0.020 A 
ATOM     85  C   UNL A   1      47.241  27.497  25.359  1.00  0.00     0.054 A 
BRANCH  85  86
ATOM     86  S   UNL A   1      48.294  27.204  23.904  1.00  0.00     0.124 S 
ATOM     87  O   UNL A   1      49.468  28.023  24.195  1.00  0.00    -0.237 OA
ATOM     88  O   UNL A   1      48.511  25.758  23.971  1.00  0.00    -0.237 OA
ATOM     89  O   UNL A   1      47.468  27.663  22.793  1.00  0.00    -0.744 OA
ENDBRANCH  85  86
ENDBRANCH  57  80
BRANCH  69  90
ATOM     90  C   UNL A   1      43.178  35.205  28.671  1.00  0.00    -0.014 A 
ATOM     91  C   UNL A   1      43.703  36.292  29.386  1.00  0.00     0.010 A 
ATOM     92  C   UNL A   1      42.431  35.520  27.506  1.00  0.00     0.010 A 
ATOM     93  C   UNL A   1      43.568  37.610  28.914  1.00  0.00     0.020 A 
ATOM     94  C   UNL A   1      42.273  36.826  27.036  1.00  0.00     0.020 A 
ATOM     95  C   UNL A   1      42.865  37.868  27.734  1.00  0.00     0.054 A 
BRANCH  95  96
ATOM     96  S   UNL A   1      42.706  39.571  27.143  1.00  0.00     0.124 S 
ATOM     97  O   UNL A   1      42.470  40.311  28.380  1.00  0.00    -0.237 OA
ATOM     98  O   UNL A   1      44.005  39.797  26.513  1.00  0.00    -0.237 OA
ATOM     99  O   UNL A   1      41.571  39.520  26.224  1.00  0.00    -0.744 OA
ENDBRANCH  95  96
ENDBRANCH  69  90
ENDBRANCH  43  44
ENDBRANCH  35  38
ENDBRANCH  33  34
ENDBRANCH  32  33
ENDBRANCH  31  32
ENDBRANCH   1  31
TORSDOF 20
ENDMDL
