MODEL 1
REMARK VINA RESULT:     -12.1      0.000      0.000
REMARK SMILES COc1ccc(NC(=O)N[C@@H]2C=C[C@H](C(=O)NCCCCCCNC(=O)c3ccc(-c4c5nc(c(-c6ccc(S(=O)(=O)[O-])cc6)c6ccc([nH]6)c(-c6ccc(S(=O)(=O)[O-])cc6)c6nc(c(-c7ccc(S(=O)(=O)[O-])cc7)c7ccc4[nH]7)C=C6)C=C5)cc3)C2)c(C)c1
REMARK SMILES IDX 20 1 19 2 18 3 17 4 15 5 16 6 14 8 11 9 12 10 87 11 13 12
REMARK SMILES IDX 10 13 7 14 8 15 9 17 6 19 3 20 4 21 90 22 5 23 88 24 89 25
REMARK SMILES IDX 2 26 1 27 21 28 22 29 23 30 24 31 25 32 26 34 27 35 28 36
REMARK SMILES IDX 86 37 29 38 85 39 30 40 31 41 32 42 79 43 33 44 84 45 78 46
REMARK SMILES IDX 80 47 34 48 83 49 77 50 76 51 35 53 65 54 46 55 64 56 47 57
REMARK SMILES IDX 50 58 63 59 81 60 48 61 49 62 62 64 82 65 51 66 36 67 37 68
REMARK SMILES IDX 45 69 38 70 44 71 39 72 40 73 41 74 42 75 43 76 66 77 67 78
REMARK SMILES IDX 75 79 68 80 74 81 69 82 70 83 71 84 72 85 73 86 52 87 53 88
REMARK SMILES IDX 61 89 54 90 60 91 55 92 56 93 57 94 58 95 59 96
REMARK H PARENT 17 7 7 16 10 18 24 33 80 52 50 63
REMARK Flexibility Score: inf
ROOT
ATOM      1  C   UNL A   1      38.308  19.964  25.160  1.00  0.00     0.002 C 
ENDROOT
BRANCH   1   2
ATOM      2  C   UNL A   1      36.879  20.281  24.783  1.00  0.00     0.021 C 
BRANCH   2   3
ATOM      3  C   UNL A   1      35.993  18.993  24.625  1.00  0.00     0.116 C 
BRANCH   3   4
ATOM      4  N   UNL A   1      34.388  18.864  24.918  1.00  0.00    -0.356 N 
ATOM      5  C   UNL A   1      33.258  19.595  25.538  1.00  0.00     0.227 C 
ATOM      6  O   UNL A   1      32.147  19.070  25.338  1.00  0.00    -0.274 OA
ATOM      7  H   UNL A   1      34.060  18.007  24.559  1.00  0.00     0.163 HD
BRANCH   5   8
ATOM      8  C   UNL A   1      33.278  21.165  26.640  1.00  0.00     0.103 C 
ATOM      9  C   UNL A   1      32.425  23.842  25.177  1.00  0.00     0.107 C 
ATOM     10  C   UNL A   1      34.145  24.224  26.132  1.00  0.00    -0.006 C 
ATOM     11  C   UNL A   1      31.709  22.090  25.750  1.00  0.00     0.047 C 
ATOM     12  C   UNL A   1      34.738  22.803  26.827  1.00  0.00    -0.016 C 
BRANCH   9  13
ATOM     13  N   UNL A   1      32.723  23.356  23.545  1.00  0.00    -0.332 N 
ATOM     14  N   UNL A   1      32.654  25.542  22.150  1.00  0.00    -0.308 N 
ATOM     15  C   UNL A   1      32.994  24.111  22.322  1.00  0.00     0.319 C 
ATOM     16  H   UNL A   1      32.879  25.930  21.273  1.00  0.00     0.171 HD
ATOM     17  O   UNL A   1      33.550  23.518  21.392  1.00  0.00    -0.248 OA
ATOM     18  H   UNL A   1      32.707  22.381  23.413  1.00  0.00     0.165 HD
BRANCH  14  19
ATOM     19  C   UNL A   1      31.996  26.508  23.149  1.00  0.00     0.046 A 
ATOM     20  C   UNL A   1      32.465  29.662  24.990  1.00  0.00     0.119 A 
ATOM     21  C   UNL A   1      33.783  28.684  24.494  1.00  0.00     0.048 A 
ATOM     22  C   UNL A   1      30.973  29.156  24.538  1.00  0.00     0.052 A 
ATOM     23  C   UNL A   1      33.336  26.958  23.568  1.00  0.00     0.030 A 
ATOM     24  C   UNL A   1      30.693  27.728  23.548  1.00  0.00    -0.024 A 
ATOM     25  C   UNL A   1      29.640  28.593  22.553  1.00  0.00     0.047 C 
BRANCH  20  26
ATOM     26  O   UNL A   1      32.534  30.463  26.089  1.00  0.00    -0.497 OA
ATOM     27  C   UNL A   1      32.732  29.685  27.247  1.00  0.00     0.278 C 
ENDBRANCH  20  26
ENDBRANCH  14  19
ENDBRANCH   9  13
ENDBRANCH   5   8
ENDBRANCH   3   4
ENDBRANCH   2   3
ENDBRANCH   1   2
BRANCH   1  28
ATOM     28  C   UNL A   1      38.905  21.085  26.010  1.00  0.00     0.002 C 
BRANCH  28  29
ATOM     29  C   UNL A   1      40.375  20.860  26.401  1.00  0.00     0.021 C 
BRANCH  29  30
ATOM     30  C   UNL A   1      41.178  22.124  26.250  1.00  0.00     0.116 C 
BRANCH  30  31
ATOM     31  N   UNL A   1      40.283  23.247  26.159  1.00  0.00    -0.352 N 
ATOM     32  C   UNL A   1      40.128  24.148  27.188  1.00  0.00     0.251 C 
ATOM     33  H   UNL A   1      39.763  23.375  25.332  1.00  0.00     0.163 HD
ATOM     34  O   UNL A   1      39.168  24.190  27.939  1.00  0.00    -0.269 OA
BRANCH  32  35
ATOM     35  C   UNL A   1      41.263  25.080  27.298  1.00  0.00     0.039 A 
ATOM     36  C   UNL A   1      42.051  24.982  28.449  1.00  0.00     0.014 A 
ATOM     37  C   UNL A   1      41.119  26.272  26.594  1.00  0.00     0.014 A 
ATOM     38  C   UNL A   1      42.505  26.146  29.031  1.00  0.00     0.010 A 
ATOM     39  C   UNL A   1      41.354  27.419  27.281  1.00  0.00     0.010 A 
ATOM     40  C   UNL A   1      42.033  27.339  28.503  1.00  0.00    -0.014 A 
BRANCH  40  41
ATOM     41  C   UNL A   1      42.469  28.644  28.921  1.00  0.00     0.031 A 
ATOM     42  C   UNL A   1      41.316  29.446  29.398  1.00  0.00     0.074 A 
ATOM     43  C   UNL A   1      43.805  28.733  29.128  1.00  0.00     0.049 A 
ATOM     44  N   UNL A   1      41.337  30.691  29.663  1.00  0.00    -0.248 NA
ATOM     45  C   UNL A   1      39.954  28.890  29.593  1.00  0.00     0.031 C 
ATOM     46  C   UNL A   1      44.622  29.630  29.935  1.00  0.00     0.029 A 
ATOM     47  N   UNL A   1      44.762  28.058  28.359  1.00  0.00    -0.354 N 
ATOM     48  C   UNL A   1      40.264  30.921  30.509  1.00  0.00     0.074 A 
ATOM     49  C   UNL A   1      39.337  29.858  30.274  1.00  0.00     0.031 C 
ATOM     50  C   UNL A   1      45.844  29.736  29.369  1.00  0.00     0.029 A 
ATOM     51  C   UNL A   1      45.809  28.970  28.130  1.00  0.00     0.049 A 
ATOM     52  H   UNL A   1      44.713  27.127  28.041  1.00  0.00     0.167 HD
ATOM     53  C   UNL A   1      40.432  31.863  31.473  1.00  0.00     0.031 A 
ATOM     54  C   UNL A   1      45.906  29.511  26.876  1.00  0.00     0.031 A 
ATOM     55  C   UNL A   1      41.745  32.481  31.286  1.00  0.00     0.049 A 
ATOM     56  C   UNL A   1      45.431  30.953  26.899  1.00  0.00     0.074 A 
ATOM     57  C   UNL A   1      42.974  32.253  31.880  1.00  0.00     0.029 A 
ATOM     58  N   UNL A   1      42.001  33.086  30.063  1.00  0.00    -0.354 N 
ATOM     59  N   UNL A   1      44.510  31.423  27.705  1.00  0.00    -0.248 NA
ATOM     60  C   UNL A   1      46.106  32.000  26.141  1.00  0.00     0.031 C 
ATOM     61  C   UNL A   1      43.977  32.646  30.941  1.00  0.00     0.029 A 
ATOM     62  C   UNL A   1      43.353  33.079  29.779  1.00  0.00     0.049 A 
ATOM     63  H   UNL A   1      41.310  33.467  29.475  1.00  0.00     0.167 HD
ATOM     64  C   UNL A   1      44.540  32.795  27.676  1.00  0.00     0.074 A 
ATOM     65  C   UNL A   1      45.547  33.100  26.671  1.00  0.00     0.031 C 
ATOM     66  C   UNL A   1      43.809  33.612  28.500  1.00  0.00     0.031 A 
BRANCH  53  67
ATOM     67  C   UNL A   1      39.600  32.076  32.712  1.00  0.00    -0.014 A 
ATOM     68  C   UNL A   1      39.566  33.385  33.237  1.00  0.00     0.010 A 
ATOM     69  C   UNL A   1      38.877  31.098  33.427  1.00  0.00     0.010 A 
ATOM     70  C   UNL A   1      38.873  33.710  34.405  1.00  0.00     0.020 A 
ATOM     71  C   UNL A   1      38.166  31.415  34.604  1.00  0.00     0.020 A 
ATOM     72  C   UNL A   1      38.172  32.722  35.085  1.00  0.00     0.054 A 
BRANCH  72  73
ATOM     73  S   UNL A   1      37.270  33.200  36.582  1.00  0.00     0.124 S 
ATOM     74  O   UNL A   1      37.179  31.937  37.310  1.00  0.00    -0.237 OA
ATOM     75  O   UNL A   1      38.153  34.203  37.174  1.00  0.00    -0.237 OA
ATOM     76  O   UNL A   1      36.000  33.716  36.075  1.00  0.00    -0.744 OA
ENDBRANCH  72  73
ENDBRANCH  53  67
BRANCH  54  77
ATOM     77  C   UNL A   1      45.651  28.461  25.825  1.00  0.00    -0.014 A 
ATOM     78  C   UNL A   1      46.762  27.641  25.492  1.00  0.00     0.010 A 
ATOM     79  C   UNL A   1      44.361  27.954  25.595  1.00  0.00     0.010 A 
ATOM     80  C   UNL A   1      46.589  26.287  25.180  1.00  0.00     0.020 A 
ATOM     81  C   UNL A   1      44.190  26.604  25.230  1.00  0.00     0.020 A 
ATOM     82  C   UNL A   1      45.301  25.765  25.100  1.00  0.00     0.054 A 
BRANCH  82  83
ATOM     83  S   UNL A   1      45.118  23.959  24.999  1.00  0.00     0.124 S 
ATOM     84  O   UNL A   1      45.381  23.546  26.373  1.00  0.00    -0.237 OA
ATOM     85  O   UNL A   1      43.732  23.813  24.545  1.00  0.00    -0.237 OA
ATOM     86  O   UNL A   1      46.127  23.565  24.023  1.00  0.00    -0.744 OA
ENDBRANCH  82  83
ENDBRANCH  54  77
BRANCH  66  87
ATOM     87  C   UNL A   1      43.475  35.060  28.192  1.00  0.00    -0.014 A 
ATOM     88  C   UNL A   1      44.149  36.153  28.748  1.00  0.00     0.010 A 
ATOM     89  C   UNL A   1      42.518  35.361  27.187  1.00  0.00     0.010 A 
ATOM     90  C   UNL A   1      43.812  37.465  28.415  1.00  0.00     0.020 A 
ATOM     91  C   UNL A   1      42.245  36.661  26.769  1.00  0.00     0.020 A 
ATOM     92  C   UNL A   1      42.863  37.710  27.426  1.00  0.00     0.054 A 
BRANCH  92  93
ATOM     93  S   UNL A   1      42.466  39.416  27.014  1.00  0.00     0.124 S 
ATOM     94  O   UNL A   1      42.362  40.022  28.339  1.00  0.00    -0.237 OA
ATOM     95  O   UNL A   1      43.625  39.825  26.224  1.00  0.00    -0.237 OA
ATOM     96  O   UNL A   1      41.213  39.315  26.271  1.00  0.00    -0.744 OA
ENDBRANCH  92  93
ENDBRANCH  66  87
ENDBRANCH  40  41
ENDBRANCH  32  35
ENDBRANCH  30  31
ENDBRANCH  29  30
ENDBRANCH  28  29
ENDBRANCH   1  28
TORSDOF 19
ENDMDL
MODEL 2
REMARK VINA RESULT:     -11.7      4.156     11.124
REMARK SMILES COc1ccc(NC(=O)N[C@@H]2C=C[C@H](C(=O)NCCCCCCNC(=O)c3ccc(-c4c5nc(c(-c6ccc(S(=O)(=O)[O-])cc6)c6ccc([nH]6)c(-c6ccc(S(=O)(=O)[O-])cc6)c6nc(c(-c7ccc(S(=O)(=O)[O-])cc7)c7ccc4[nH]7)C=C6)C=C5)cc3)C2)c(C)c1
REMARK SMILES IDX 20 1 19 2 18 3 17 4 15 5 16 6 14 8 11 9 12 10 87 11 13 12
REMARK SMILES IDX 10 13 7 14 8 15 9 17 6 19 3 20 4 21 90 22 5 23 88 24 89 25
REMARK SMILES IDX 2 26 1 27 21 28 22 29 23 30 24 31 25 32 26 34 27 35 28 36
REMARK SMILES IDX 86 37 29 38 85 39 30 40 31 41 32 42 79 43 33 44 84 45 78 46
REMARK SMILES IDX 80 47 34 48 83 49 77 50 76 51 35 53 65 54 46 55 64 56 47 57
REMARK SMILES IDX 50 58 63 59 81 60 48 61 49 62 62 64 82 65 51 66 36 67 37 68
REMARK SMILES IDX 45 69 38 70 44 71 39 72 40 73 41 74 42 75 43 76 66 77 67 78
REMARK SMILES IDX 75 79 68 80 74 81 69 82 70 83 71 84 72 85 73 86 52 87 53 88
REMARK SMILES IDX 61 89 54 90 60 91 55 92 56 93 57 94 58 95 59 96
REMARK H PARENT 17 7 7 16 10 18 24 33 80 52 50 63
REMARK Flexibility Score: inf
ROOT
ATOM      1  C   UNL A   1      33.334  29.700  27.353  1.00  0.00     0.002 C 
ENDROOT
BRANCH   1   2
ATOM      2  C   UNL A   1      32.730  29.740  25.968  1.00  0.00     0.021 C 
BRANCH   2   3
ATOM      3  C   UNL A   1      31.499  30.712  25.871  1.00  0.00     0.116 C 
BRANCH   3   4
ATOM      4  N   UNL A   1      30.465  30.862  24.611  1.00  0.00    -0.356 N 
ATOM      5  C   UNL A   1      30.142  30.263  23.296  1.00  0.00     0.227 C 
ATOM      6  O   UNL A   1      29.093  30.700  22.786  1.00  0.00    -0.274 OA
ATOM      7  H   UNL A   1      29.845  31.607  24.788  1.00  0.00     0.163 HD
BRANCH   5   8
ATOM      8  C   UNL A   1      31.130  28.985  22.262  1.00  0.00     0.103 C 
ATOM      9  C   UNL A   1      31.318  26.089  23.534  1.00  0.00     0.107 C 
ATOM     10  C   UNL A   1      33.181  26.623  23.023  1.00  0.00    -0.006 C 
ATOM     11  C   UNL A   1      30.017  27.368  22.772  1.00  0.00     0.047 C 
ATOM     12  C   UNL A   1      33.184  28.215  22.460  1.00  0.00    -0.016 C 
BRANCH   9  13
ATOM     13  N   UNL A   1      30.991  26.503  25.179  1.00  0.00    -0.332 N 
ATOM     14  N   UNL A   1      32.619  25.060  26.592  1.00  0.00    -0.308 N 
ATOM     15  C   UNL A   1      31.676  26.191  26.434  1.00  0.00     0.319 C 
ATOM     16  H   UNL A   1      33.005  24.951  27.492  1.00  0.00     0.171 HD
ATOM     17  O   UNL A   1      31.460  26.924  27.404  1.00  0.00    -0.248 OA
ATOM     18  H   UNL A   1      30.186  27.057  25.295  1.00  0.00     0.165 HD
BRANCH  14  19
ATOM     19  C   UNL A   1      33.080  24.030  25.548  1.00  0.00     0.046 A 
ATOM     20  C   UNL A   1      33.986  20.496  25.051  1.00  0.00     0.119 A 
ATOM     21  C   UNL A   1      34.170  21.286  26.561  1.00  0.00     0.048 A 
ATOM     22  C   UNL A   1      33.313  21.378  23.844  1.00  0.00     0.052 A 
ATOM     23  C   UNL A   1      33.697  23.238  26.628  1.00  0.00     0.030 A 
ATOM     24  C   UNL A   1      32.741  23.029  24.055  1.00  0.00    -0.024 A 
ATOM     25  C   UNL A   1      31.292  22.654  23.276  1.00  0.00     0.047 C 
BRANCH  20  26
ATOM     26  O   UNL A   1      34.782  19.455  24.680  1.00  0.00    -0.497 OA
ATOM     27  C   UNL A   1      33.995  18.329  24.364  1.00  0.00     0.278 C 
ENDBRANCH  20  26
ENDBRANCH  14  19
ENDBRANCH   9  13
ENDBRANCH   5   8
ENDBRANCH   3   4
ENDBRANCH   2   3
ENDBRANCH   1   2
BRANCH   1  28
ATOM     28  C   UNL A   1      34.713  30.361  27.362  1.00  0.00     0.002 C 
BRANCH  28  29
ATOM     29  C   UNL A   1      35.880  29.372  27.514  1.00  0.00     0.021 C 
BRANCH  29  30
ATOM     30  C   UNL A   1      36.918  29.898  28.469  1.00  0.00     0.116 C 
BRANCH  30  31
ATOM     31  N   UNL A   1      36.660  31.289  28.731  1.00  0.00    -0.352 N 
ATOM     32  C   UNL A   1      36.557  31.789  30.010  1.00  0.00     0.251 C 
ATOM     33  H   UNL A   1      36.553  31.905  27.970  1.00  0.00     0.163 HD
ATOM     34  O   UNL A   1      35.511  32.093  30.556  1.00  0.00    -0.269 OA
BRANCH  32  35
ATOM     35  C   UNL A   1      37.866  31.922  30.671  1.00  0.00     0.039 A 
ATOM     36  C   UNL A   1      38.944  32.299  29.865  1.00  0.00     0.014 A 
ATOM     37  C   UNL A   1      38.029  31.153  31.820  1.00  0.00     0.014 A 
ATOM     38  C   UNL A   1      40.166  31.697  30.085  1.00  0.00     0.010 A 
ATOM     39  C   UNL A   1      39.149  30.388  31.890  1.00  0.00     0.010 A 
ATOM     40  C   UNL A   1      40.200  30.662  31.008  1.00  0.00    -0.014 A 
BRANCH  40  41
ATOM     41  C   UNL A   1      41.398  29.986  31.429  1.00  0.00     0.031 A 
ATOM     42  C   UNL A   1      41.505  28.663  30.767  1.00  0.00     0.074 A 
ATOM     43  C   UNL A   1      42.306  30.801  32.018  1.00  0.00     0.049 A 
ATOM     44  N   UNL A   1      42.345  27.753  31.060  1.00  0.00    -0.248 NA
ATOM     45  C   UNL A   1      40.599  28.214  29.681  1.00  0.00     0.031 C 
ATOM     46  C   UNL A   1      43.749  30.708  32.192  1.00  0.00     0.029 A 
ATOM     47  N   UNL A   1      41.968  31.880  32.845  1.00  0.00    -0.354 N 
ATOM     48  C   UNL A   1      42.436  26.941  29.941  1.00  0.00     0.074 A 
ATOM     49  C   UNL A   1      41.219  27.127  29.214  1.00  0.00     0.031 C 
ATOM     50  C   UNL A   1      44.099  31.382  33.309  1.00  0.00     0.029 A 
ATOM     51  C   UNL A   1      42.867  31.854  33.927  1.00  0.00     0.049 A 
ATOM     52  H   UNL A   1      41.243  32.530  32.699  1.00  0.00     0.167 HD
ATOM     53  C   UNL A   1      43.654  26.404  29.668  1.00  0.00     0.031 A 
ATOM     54  C   UNL A   1      42.384  31.420  35.133  1.00  0.00     0.031 A 
ATOM     55  C   UNL A   1      44.570  26.776  30.747  1.00  0.00     0.049 A 
ATOM     56  C   UNL A   1      42.901  30.021  35.421  1.00  0.00     0.074 A 
ATOM     57  C   UNL A   1      45.506  27.788  30.865  1.00  0.00     0.029 A 
ATOM     58  N   UNL A   1      44.228  26.399  32.038  1.00  0.00    -0.354 N 
ATOM     59  N   UNL A   1      43.174  29.123  34.506  1.00  0.00    -0.248 NA
ATOM     60  C   UNL A   1      43.323  29.614  36.755  1.00  0.00     0.031 C 
ATOM     61  C   UNL A   1      45.645  28.076  32.258  1.00  0.00     0.029 A 
ATOM     62  C   UNL A   1      44.774  27.262  32.969  1.00  0.00     0.049 A 
ATOM     63  H   UNL A   1      43.669  25.620  32.261  1.00  0.00     0.167 HD
ATOM     64  C   UNL A   1      43.894  28.101  35.074  1.00  0.00     0.074 A 
ATOM     65  C   UNL A   1      43.945  28.454  36.485  1.00  0.00     0.031 C 
ATOM     66  C   UNL A   1      44.466  27.066  34.381  1.00  0.00     0.031 A 
BRANCH  53  67
ATOM     67  C   UNL A   1      44.124  25.789  28.375  1.00  0.00    -0.014 A 
ATOM     68  C   UNL A   1      44.722  24.514  28.458  1.00  0.00     0.010 A 
ATOM     69  C   UNL A   1      44.062  26.366  27.090  1.00  0.00     0.010 A 
ATOM     70  C   UNL A   1      45.242  23.851  27.344  1.00  0.00     0.020 A 
ATOM     71  C   UNL A   1      44.577  25.704  25.954  1.00  0.00     0.020 A 
ATOM     72  C   UNL A   1      45.166  24.449  26.093  1.00  0.00     0.054 A 
BRANCH  72  73
ATOM     73  S   UNL A   1      45.835  23.539  24.676  1.00  0.00     0.124 S 
ATOM     74  O   UNL A   1      46.800  24.486  24.123  1.00  0.00    -0.237 OA
ATOM     75  O   UNL A   1      46.411  22.353  25.308  1.00  0.00    -0.237 OA
ATOM     76  O   UNL A   1      44.664  23.287  23.839  1.00  0.00    -0.744 OA
ENDBRANCH  72  73
ENDBRANCH  53  67
BRANCH  54  77
ATOM     77  C   UNL A   1      41.007  31.976  35.383  1.00  0.00    -0.014 A 
ATOM     78  C   UNL A   1      39.942  31.038  35.314  1.00  0.00     0.010 A 
ATOM     79  C   UNL A   1      40.815  33.139  36.147  1.00  0.00     0.010 A 
ATOM     80  C   UNL A   1      38.837  31.139  36.167  1.00  0.00     0.020 A 
ATOM     81  C   UNL A   1      39.675  33.264  36.967  1.00  0.00     0.020 A 
ATOM     82  C   UNL A   1      38.736  32.230  37.026  1.00  0.00     0.054 A 
BRANCH  82  83
ATOM     83  S   UNL A   1      37.465  32.179  38.325  1.00  0.00     0.124 S 
ATOM     84  O   UNL A   1      36.446  33.078  37.794  1.00  0.00    -0.237 OA
ATOM     85  O   UNL A   1      37.106  30.758  38.352  1.00  0.00    -0.237 OA
ATOM     86  O   UNL A   1      38.165  32.657  39.511  1.00  0.00    -0.744 OA
ENDBRANCH  82  83
ENDBRANCH  54  77
BRANCH  66  87
ATOM     87  C   UNL A   1      44.845  25.731  34.996  1.00  0.00    -0.014 A 
ATOM     88  C   UNL A   1      43.928  24.714  35.281  1.00  0.00     0.010 A 
ATOM     89  C   UNL A   1      46.214  25.409  35.186  1.00  0.00     0.010 A 
ATOM     90  C   UNL A   1      44.333  23.498  35.831  1.00  0.00     0.020 A 
ATOM     91  C   UNL A   1      46.642  24.162  35.636  1.00  0.00     0.020 A 
ATOM     92  C   UNL A   1      45.688  23.229  36.003  1.00  0.00     0.054 A 
BRANCH  92  93
ATOM     93  S   UNL A   1      46.173  21.644  36.702  1.00  0.00     0.124 S 
ATOM     94  O   UNL A   1      45.721  21.781  38.084  1.00  0.00    -0.237 OA
ATOM     95  O   UNL A   1      45.417  20.697  35.885  1.00  0.00    -0.237 OA
ATOM     96  O   UNL A   1      47.620  21.606  36.515  1.00  0.00    -0.744 OA
ENDBRANCH  92  93
ENDBRANCH  66  87
ENDBRANCH  40  41
ENDBRANCH  32  35
ENDBRANCH  30  31
ENDBRANCH  29  30
ENDBRANCH  28  29
ENDBRANCH   1  28
TORSDOF 19
ENDMDL
MODEL 3
REMARK VINA RESULT:     -11.2      4.663      8.723
REMARK SMILES COc1ccc(NC(=O)N[C@@H]2C=C[C@H](C(=O)NCCCCCCNC(=O)c3ccc(-c4c5nc(c(-c6ccc(S(=O)(=O)[O-])cc6)c6ccc([nH]6)c(-c6ccc(S(=O)(=O)[O-])cc6)c6nc(c(-c7ccc(S(=O)(=O)[O-])cc7)c7ccc4[nH]7)C=C6)C=C5)cc3)C2)c(C)c1
REMARK SMILES IDX 20 1 19 2 18 3 17 4 15 5 16 6 14 8 11 9 12 10 87 11 13 12
REMARK SMILES IDX 10 13 7 14 8 15 9 17 6 19 3 20 4 21 90 22 5 23 88 24 89 25
REMARK SMILES IDX 2 26 1 27 21 28 22 29 23 30 24 31 25 32 26 34 27 35 28 36
REMARK SMILES IDX 86 37 29 38 85 39 30 40 31 41 32 42 79 43 33 44 84 45 78 46
REMARK SMILES IDX 80 47 34 48 83 49 77 50 76 51 35 53 65 54 46 55 64 56 47 57
REMARK SMILES IDX 50 58 63 59 81 60 48 61 49 62 62 64 82 65 51 66 36 67 37 68
REMARK SMILES IDX 45 69 38 70 44 71 39 72 40 73 41 74 42 75 43 76 66 77 67 78
REMARK SMILES IDX 75 79 68 80 74 81 69 82 70 83 71 84 72 85 73 86 52 87 53 88
REMARK SMILES IDX 61 89 54 90 60 91 55 92 56 93 57 94 58 95 59 96
REMARK H PARENT 17 7 7 16 10 18 24 33 80 52 50 63
REMARK Flexibility Score: inf
ROOT
ATOM      1  C   UNL A   1      37.168  22.525  25.607  1.00  0.00     0.002 C 
ENDROOT
BRANCH   1   2
ATOM      2  C   UNL A   1      36.187  23.048  26.631  1.00  0.00     0.021 C 
BRANCH   2   3
ATOM      3  C   UNL A   1      35.032  22.029  26.940  1.00  0.00     0.116 C 
BRANCH   3   4
ATOM      4  N   UNL A   1      34.667  20.674  26.097  1.00  0.00    -0.356 N 
ATOM      5  C   UNL A   1      34.245  20.222  24.751  1.00  0.00     0.227 C 
ATOM      6  O   UNL A   1      34.257  18.985  24.608  1.00  0.00    -0.274 OA
ATOM      7  H   UNL A   1      34.761  19.891  26.687  1.00  0.00     0.163 HD
BRANCH   5   8
ATOM      8  C   UNL A   1      33.630  21.253  23.255  1.00  0.00     0.103 C 
ATOM      9  C   UNL A   1      32.357  24.059  23.993  1.00  0.00     0.107 C 
ATOM     10  C   UNL A   1      31.069  23.140  22.762  1.00  0.00    -0.006 C 
ATOM     11  C   UNL A   1      34.070  23.073  24.034  1.00  0.00     0.047 C 
ATOM     12  C   UNL A   1      31.614  21.577  22.431  1.00  0.00    -0.016 C 
BRANCH   9  13
ATOM     13  N   UNL A   1      31.960  23.742  25.644  1.00  0.00    -0.332 N 
ATOM     14  N   UNL A   1      30.460  25.723  26.388  1.00  0.00    -0.308 N 
ATOM     15  C   UNL A   1      31.014  24.362  26.572  1.00  0.00     0.319 C 
ATOM     16  H   UNL A   1      29.841  26.029  27.091  1.00  0.00     0.171 HD
ATOM     17  O   UNL A   1      30.653  23.702  27.552  1.00  0.00    -0.248 OA
ATOM     18  H   UNL A   1      32.470  22.997  26.038  1.00  0.00     0.165 HD
BRANCH  14  19
ATOM     19  C   UNL A   1      30.717  26.728  25.253  1.00  0.00     0.046 A 
ATOM     20  C   UNL A   1      29.080  28.987  22.850  1.00  0.00     0.119 A 
ATOM     21  C   UNL A   1      28.305  27.589  23.469  1.00  0.00     0.048 A 
ATOM     22  C   UNL A   1      30.574  29.313  23.441  1.00  0.00     0.052 A 
ATOM     23  C   UNL A   1      29.378  26.430  24.711  1.00  0.00     0.030 A 
ATOM     24  C   UNL A   1      31.356  28.344  24.684  1.00  0.00    -0.024 A 
ATOM     25  C   UNL A   1      31.774  29.736  25.542  1.00  0.00     0.047 C 
BRANCH  20  26
ATOM     26  O   UNL A   1      28.782  29.493  21.622  1.00  0.00    -0.497 OA
ATOM     27  C   UNL A   1      28.753  30.901  21.669  1.00  0.00     0.278 C 
ENDBRANCH  20  26
ENDBRANCH  14  19
ENDBRANCH   9  13
ENDBRANCH   5   8
ENDBRANCH   3   4
ENDBRANCH   2   3
ENDBRANCH   1   2
BRANCH   1  28
ATOM     28  C   UNL A   1      38.570  23.075  25.869  1.00  0.00     0.002 C 
BRANCH  28  29
ATOM     29  C   UNL A   1      38.584  24.453  26.551  1.00  0.00     0.021 C 
BRANCH  29  30
ATOM     30  C   UNL A   1      39.692  24.546  27.567  1.00  0.00     0.116 C 
BRANCH  30  31
ATOM     31  N   UNL A   1      40.376  25.802  27.407  1.00  0.00    -0.352 N 
ATOM     32  C   UNL A   1      39.875  26.982  27.909  1.00  0.00     0.251 C 
ATOM     33  H   UNL A   1      41.234  25.819  26.922  1.00  0.00     0.163 HD
ATOM     34  O   UNL A   1      39.344  27.853  27.241  1.00  0.00    -0.269 OA
BRANCH  32  35
ATOM     35  C   UNL A   1      40.043  27.091  29.368  1.00  0.00     0.039 A 
ATOM     36  C   UNL A   1      38.904  27.411  30.112  1.00  0.00     0.014 A 
ATOM     37  C   UNL A   1      41.327  27.425  29.791  1.00  0.00     0.014 A 
ATOM     38  C   UNL A   1      39.039  28.283  31.173  1.00  0.00     0.010 A 
ATOM     39  C   UNL A   1      41.432  28.456  30.669  1.00  0.00     0.010 A 
ATOM     40  C   UNL A   1      40.280  28.883  31.339  1.00  0.00    -0.014 A 
BRANCH  40  41
ATOM     41  C   UNL A   1      40.627  29.742  32.438  1.00  0.00     0.031 A 
ATOM     42  C   UNL A   1      40.906  28.938  33.653  1.00  0.00     0.074 A 
ATOM     43  C   UNL A   1      40.967  30.999  32.063  1.00  0.00     0.049 A 
ATOM     44  N   UNL A   1      41.062  29.402  34.829  1.00  0.00    -0.248 NA
ATOM     45  C   UNL A   1      41.001  27.458  33.654  1.00  0.00     0.031 C 
ATOM     46  C   UNL A   1      41.776  32.033  32.695  1.00  0.00     0.029 A 
ATOM     47  N   UNL A   1      40.367  31.687  31.000  1.00  0.00    -0.354 N 
ATOM     48  C   UNL A   1      41.765  28.436  35.531  1.00  0.00     0.074 A 
ATOM     49  C   UNL A   1      41.525  27.199  34.854  1.00  0.00     0.031 C 
ATOM     50  C   UNL A   1      41.337  33.243  32.284  1.00  0.00     0.029 A 
ATOM     51  C   UNL A   1      40.173  33.010  31.438  1.00  0.00     0.049 A 
ATOM     52  H   UNL A   1      40.128  31.318  30.120  1.00  0.00     0.167 HD
ATOM     53  C   UNL A   1      42.656  28.875  36.458  1.00  0.00     0.031 A 
ATOM     54  C   UNL A   1      38.894  33.385  31.752  1.00  0.00     0.031 A 
ATOM     55  C   UNL A   1      42.557  30.333  36.532  1.00  0.00     0.049 A 
ATOM     56  C   UNL A   1      38.740  33.478  33.260  1.00  0.00     0.074 A 
ATOM     57  C   UNL A   1      43.297  31.347  35.949  1.00  0.00     0.029 A 
ATOM     58  N   UNL A   1      41.321  30.877  36.852  1.00  0.00    -0.354 N 
ATOM     59  N   UNL A   1      39.399  32.744  34.124  1.00  0.00    -0.248 NA
ATOM     60  C   UNL A   1      37.971  34.542  33.893  1.00  0.00     0.031 C 
ATOM     61  C   UNL A   1      42.440  32.485  35.838  1.00  0.00     0.029 A 
ATOM     62  C   UNL A   1      41.185  32.146  36.324  1.00  0.00     0.049 A 
ATOM     63  H   UNL A   1      40.631  30.418  37.384  1.00  0.00     0.167 HD
ATOM     64  C   UNL A   1      39.254  33.282  35.379  1.00  0.00     0.074 A 
ATOM     65  C   UNL A   1      38.340  34.397  35.177  1.00  0.00     0.031 C 
ATOM     66  C   UNL A   1      39.921  32.853  36.498  1.00  0.00     0.031 A 
BRANCH  53  67
ATOM     67  C   UNL A   1      43.775  28.099  37.104  1.00  0.00    -0.014 A 
ATOM     68  C   UNL A   1      43.538  26.732  37.355  1.00  0.00     0.010 A 
ATOM     69  C   UNL A   1      45.025  28.602  37.519  1.00  0.00     0.010 A 
ATOM     70  C   UNL A   1      44.472  25.909  37.990  1.00  0.00     0.020 A 
ATOM     71  C   UNL A   1      45.981  27.780  38.155  1.00  0.00     0.020 A 
ATOM     72  C   UNL A   1      45.693  26.438  38.387  1.00  0.00     0.054 A 
BRANCH  72  73
ATOM     73  S   UNL A   1      46.879  25.324  39.186  1.00  0.00     0.124 S 
ATOM     74  O   UNL A   1      46.005  24.349  39.833  1.00  0.00    -0.237 OA
ATOM     75  O   UNL A   1      47.651  24.821  38.052  1.00  0.00    -0.237 OA
ATOM     76  O   UNL A   1      47.616  26.196  40.099  1.00  0.00    -0.744 OA
ENDBRANCH  72  73
ENDBRANCH  53  67
BRANCH  54  77
ATOM     77  C   UNL A   1      37.918  32.832  30.747  1.00  0.00    -0.014 A 
ATOM     78  C   UNL A   1      36.652  32.446  31.265  1.00  0.00     0.010 A 
ATOM     79  C   UNL A   1      38.000  33.167  29.385  1.00  0.00     0.010 A 
ATOM     80  C   UNL A   1      35.483  32.627  30.519  1.00  0.00     0.020 A 
ATOM     81  C   UNL A   1      36.825  33.299  28.619  1.00  0.00     0.020 A 
ATOM     82  C   UNL A   1      35.575  33.101  29.213  1.00  0.00     0.054 A 
BRANCH  82  83
ATOM     83  S   UNL A   1      34.040  33.615  28.383  1.00  0.00     0.124 S 
ATOM     84  O   UNL A   1      33.537  32.351  27.857  1.00  0.00    -0.237 OA
ATOM     85  O   UNL A   1      33.270  34.196  29.485  1.00  0.00    -0.237 OA
ATOM     86  O   UNL A   1      34.495  34.572  27.381  1.00  0.00    -0.744 OA
ENDBRANCH  82  83
ENDBRANCH  54  77
BRANCH  66  87
ATOM     87  C   UNL A   1      39.453  33.101  37.920  1.00  0.00    -0.014 A 
ATOM     88  C   UNL A   1      40.128  33.917  38.833  1.00  0.00     0.010 A 
ATOM     89  C   UNL A   1      38.194  32.598  38.342  1.00  0.00     0.010 A 
ATOM     90  C   UNL A   1      39.643  34.125  40.125  1.00  0.00     0.020 A 
ATOM     91  C   UNL A   1      37.648  32.883  39.592  1.00  0.00     0.020 A 
ATOM     92  C   UNL A   1      38.406  33.607  40.495  1.00  0.00     0.054 A 
BRANCH  92  93
ATOM     93  S   UNL A   1      37.807  33.909  42.165  1.00  0.00     0.124 S 
ATOM     94  O   UNL A   1      38.978  33.559  42.965  1.00  0.00    -0.237 OA
ATOM     95  O   UNL A   1      37.474  35.331  42.126  1.00  0.00    -0.237 OA
ATOM     96  O   UNL A   1      36.666  33.008  42.296  1.00  0.00    -0.744 OA
ENDBRANCH  92  93
ENDBRANCH  66  87
ENDBRANCH  40  41
ENDBRANCH  32  35
ENDBRANCH  30  31
ENDBRANCH  29  30
ENDBRANCH  28  29
ENDBRANCH   1  28
TORSDOF 19
ENDMDL
