MODEL 1
REMARK VINA RESULT:     -12.3      0.000      0.000
REMARK SMILES C=C1C[C@@]23CC[C@H]4[C@@](C)(CCC[C@@]4(C)C(=O)NCCCCCCNC(=O)c4ccc(-c5c6nc(c(-c7ccc(S(=O)(=O)[O-])cc7)c7ccc([nH]7)c(-c7ccc(S(=O)(=O)[O-])cc7)c7nc(c(-c8ccc(S(=O)(=O)[O-])cc8)c8ccc5[nH]8)C=C7)C=C6)cc4)[C@H]2CC[C@]1(O)C3
REMARK SMILES IDX 21 1 20 2 19 3 18 4 17 5 15 6 16 7 13 9 1 10 2 11 3 12 90 13
REMARK SMILES IDX 4 14 89 15 92 16 5 17 87 18 88 19 6 20 8 21 7 22 9 23 10 24
REMARK SMILES IDX 11 25 12 26 14 27 91 28 22 30 23 31 24 32 25 33 26 35 27 36
REMARK SMILES IDX 28 37 86 38 29 39 85 40 30 41 31 42 32 43 79 44 33 45 84 46
REMARK SMILES IDX 78 47 80 48 34 49 83 50 77 51 76 52 35 54 65 55 46 56 64 57
REMARK SMILES IDX 47 58 50 59 63 60 81 61 48 62 49 63 62 65 82 66 51 67 36 68
REMARK SMILES IDX 37 69 45 70 38 71 44 72 39 73 40 74 41 75 42 76 43 77 66 78
REMARK SMILES IDX 67 79 75 80 68 81 74 82 69 83 70 84 71 85 72 86 73 87 52 88
REMARK SMILES IDX 53 89 61 90 54 91 60 92 55 93 56 94 57 95 58 96 59 97
REMARK H PARENT 17 8 91 29 24 34 80 53 50 64
REMARK Flexibility Score: inf
ROOT
ATOM      1  C   UNL A   1      34.282  32.173  28.287  1.00  0.00     0.002 C 
ENDROOT
BRANCH   1   2
ATOM      2  C   UNL A   1      34.111  31.086  27.218  1.00  0.00     0.002 C 
BRANCH   2   3
ATOM      3  C   UNL A   1      34.616  29.681  27.600  1.00  0.00     0.021 C 
BRANCH   3   4
ATOM      4  C   UNL A   1      33.907  28.537  26.881  1.00  0.00     0.116 C 
BRANCH   4   5
ATOM      5  N   UNL A   1      32.722  29.031  26.217  1.00  0.00    -0.356 N 
ATOM      6  C   UNL A   1      32.130  28.779  25.032  1.00  0.00     0.226 C 
ATOM      7  O   UNL A   1      31.091  29.425  24.842  1.00  0.00    -0.274 OA
ATOM      8  H   UNL A   1      32.238  29.703  26.749  1.00  0.00     0.163 HD
BRANCH   6   9
ATOM      9  C   UNL A   1      32.684  27.814  23.968  1.00  0.00     0.050 C 
ATOM     10  C   UNL A   1      33.092  19.764  25.451  1.00  0.00     0.011 C 
ATOM     11  C   UNL A   1      32.953  21.094  25.557  1.00  0.00    -0.045 C 
ATOM     12  C   UNL A   1      32.209  21.977  24.569  1.00  0.00     0.040 C 
ATOM     13  C   UNL A   1      33.740  21.990  26.478  1.00  0.00     0.086 C 
ATOM     14  C   UNL A   1      32.924  23.355  24.721  1.00  0.00    -0.020 C 
ATOM     15  C   UNL A   1      32.865  22.710  27.525  1.00  0.00     0.040 C 
ATOM     16  C   UNL A   1      34.243  22.955  25.428  1.00  0.00     0.047 C 
ATOM     17  C   UNL A   1      33.287  23.998  23.404  1.00  0.00     0.008 C 
ATOM     18  C   UNL A   1      32.205  24.358  25.691  1.00  0.00     0.002 C 
ATOM     19  C   UNL A   1      31.713  23.599  26.953  1.00  0.00     0.008 C 
ATOM     20  C   UNL A   1      33.849  25.404  23.703  1.00  0.00     0.006 C 
ATOM     21  C   UNL A   1      31.521  25.685  25.086  1.00  0.00    -0.025 C 
ATOM     22  C   UNL A   1      32.670  26.287  24.195  1.00  0.00     0.010 C 
ATOM     23  C   UNL A   1      30.970  26.403  26.346  1.00  0.00     0.012 C 
ATOM     24  C   UNL A   1      30.294  25.818  24.086  1.00  0.00     0.007 C 
ATOM     25  C   UNL A   1      30.354  27.055  23.017  1.00  0.00     0.002 C 
ATOM     26  C   UNL A   1      31.677  27.915  22.773  1.00  0.00     0.017 C 
ATOM     27  C   UNL A   1      34.102  28.311  23.617  1.00  0.00     0.022 C 
BRANCH  13  28
ATOM     28  O   UNL A   1      34.838  21.353  27.097  1.00  0.00    -0.386 OA
ATOM     29  H   UNL A   1      34.526  20.840  27.859  1.00  0.00     0.211 HD
ENDBRANCH  13  28
ENDBRANCH   6   9
ENDBRANCH   4   5
ENDBRANCH   3   4
ENDBRANCH   2   3
ENDBRANCH   1   2
BRANCH   1  30
ATOM     30  C   UNL A   1      35.643  32.868  28.288  1.00  0.00     0.021 C 
BRANCH  30  31
ATOM     31  C   UNL A   1      36.419  32.737  29.592  1.00  0.00     0.116 C 
BRANCH  31  32
ATOM     32  N   UNL A   1      35.962  31.622  30.405  1.00  0.00    -0.352 N 
ATOM     33  C   UNL A   1      36.603  30.428  30.661  1.00  0.00     0.251 C 
ATOM     34  H   UNL A   1      35.081  31.734  30.828  1.00  0.00     0.163 HD
ATOM     35  O   UNL A   1      36.036  29.528  31.241  1.00  0.00    -0.269 OA
BRANCH  33  36
ATOM     36  C   UNL A   1      37.994  30.264  30.178  1.00  0.00     0.039 A 
ATOM     37  C   UNL A   1      39.038  30.311  31.103  1.00  0.00     0.014 A 
ATOM     38  C   UNL A   1      38.248  30.005  28.829  1.00  0.00     0.014 A 
ATOM     39  C   UNL A   1      40.338  30.025  30.684  1.00  0.00     0.010 A 
ATOM     40  C   UNL A   1      39.531  29.650  28.428  1.00  0.00     0.010 A 
ATOM     41  C   UNL A   1      40.588  29.652  29.353  1.00  0.00    -0.014 A 
BRANCH  41  42
ATOM     42  C   UNL A   1      41.943  29.240  28.908  1.00  0.00     0.031 A 
ATOM     43  C   UNL A   1      43.050  30.254  28.826  1.00  0.00     0.074 A 
ATOM     44  C   UNL A   1      42.154  27.970  28.508  1.00  0.00     0.049 A 
ATOM     45  N   UNL A   1      44.275  30.102  28.391  1.00  0.00    -0.248 NA
ATOM     46  C   UNL A   1      42.734  31.623  29.268  1.00  0.00     0.031 C 
ATOM     47  C   UNL A   1      41.149  26.903  28.507  1.00  0.00     0.029 A 
ATOM     48  N   UNL A   1      43.282  27.361  28.016  1.00  0.00    -0.354 N 
ATOM     49  C   UNL A   1      44.869  31.355  28.493  1.00  0.00     0.074 A 
ATOM     50  C   UNL A   1      43.857  32.265  28.984  1.00  0.00     0.031 C 
ATOM     51  C   UNL A   1      41.713  25.769  28.062  1.00  0.00     0.029 A 
ATOM     52  C   UNL A   1      43.101  26.035  27.700  1.00  0.00     0.049 A 
ATOM     53  H   UNL A   1      44.140  27.830  27.900  1.00  0.00     0.167 HD
ATOM     54  C   UNL A   1      46.147  31.711  28.221  1.00  0.00     0.031 A 
ATOM     55  C   UNL A   1      43.953  25.137  27.166  1.00  0.00     0.031 A 
ATOM     56  C   UNL A   1      47.149  30.799  27.737  1.00  0.00     0.049 A 
ATOM     57  C   UNL A   1      45.358  25.564  26.842  1.00  0.00     0.074 A 
ATOM     58  C   UNL A   1      48.485  31.050  27.480  1.00  0.00     0.029 A 
ATOM     59  N   UNL A   1      46.926  29.465  27.430  1.00  0.00    -0.354 N 
ATOM     60  N   UNL A   1      45.921  26.737  27.011  1.00  0.00    -0.248 NA
ATOM     61  C   UNL A   1      46.246  24.546  26.264  1.00  0.00     0.031 C 
ATOM     62  C   UNL A   1      49.056  29.884  26.962  1.00  0.00     0.029 A 
ATOM     63  C   UNL A   1      48.093  28.888  26.957  1.00  0.00     0.049 A 
ATOM     64  H   UNL A   1      46.066  28.998  27.533  1.00  0.00     0.167 HD
ATOM     65  C   UNL A   1      47.237  26.590  26.582  1.00  0.00     0.074 A 
ATOM     66  C   UNL A   1      47.389  25.212  26.162  1.00  0.00     0.031 C 
ATOM     67  C   UNL A   1      48.228  27.514  26.542  1.00  0.00     0.031 A 
BRANCH  54  68
ATOM     68  C   UNL A   1      46.530  33.152  28.432  1.00  0.00    -0.014 A 
ATOM     69  C   UNL A   1      47.028  33.599  29.670  1.00  0.00     0.010 A 
ATOM     70  C   UNL A   1      46.432  34.064  27.366  1.00  0.00     0.010 A 
ATOM     71  C   UNL A   1      47.382  34.938  29.848  1.00  0.00     0.020 A 
ATOM     72  C   UNL A   1      46.813  35.399  27.531  1.00  0.00     0.020 A 
ATOM     73  C   UNL A   1      47.270  35.831  28.778  1.00  0.00     0.054 A 
BRANCH  73  74
ATOM     74  S   UNL A   1      47.759  37.558  29.034  1.00  0.00     0.124 S 
ATOM     75  O   UNL A   1      49.116  37.570  28.494  1.00  0.00    -0.237 OA
ATOM     76  O   UNL A   1      46.765  38.290  28.252  1.00  0.00    -0.237 OA
ATOM     77  O   UNL A   1      47.663  37.737  30.481  1.00  0.00    -0.744 OA
ENDBRANCH  73  74
ENDBRANCH  54  68
BRANCH  55  78
ATOM     78  C   UNL A   1      43.499  23.742  26.910  1.00  0.00    -0.014 A 
ATOM     79  C   UNL A   1      43.381  22.823  27.968  1.00  0.00     0.010 A 
ATOM     80  C   UNL A   1      43.168  23.327  25.606  1.00  0.00     0.010 A 
ATOM     81  C   UNL A   1      42.961  21.513  27.726  1.00  0.00     0.020 A 
ATOM     82  C   UNL A   1      42.718  22.025  25.364  1.00  0.00     0.020 A 
ATOM     83  C   UNL A   1      42.629  21.122  26.425  1.00  0.00     0.054 A 
BRANCH  83  84
ATOM     84  S   UNL A   1      42.041  19.428  26.145  1.00  0.00     0.124 S 
ATOM     85  O   UNL A   1      40.630  19.643  25.838  1.00  0.00    -0.237 OA
ATOM     86  O   UNL A   1      42.872  18.987  25.028  1.00  0.00    -0.237 OA
ATOM     87  O   UNL A   1      42.311  18.758  27.416  1.00  0.00    -0.744 OA
ENDBRANCH  83  84
ENDBRANCH  55  78
BRANCH  67  88
ATOM     88  C   UNL A   1      49.580  27.064  26.053  1.00  0.00    -0.014 A 
ATOM     89  C   UNL A   1      50.487  26.418  26.911  1.00  0.00     0.010 A 
ATOM     90  C   UNL A   1      49.915  27.226  24.696  1.00  0.00     0.010 A 
ATOM     91  C   UNL A   1      51.714  25.959  26.423  1.00  0.00     0.020 A 
ATOM     92  C   UNL A   1      51.128  26.742  24.198  1.00  0.00     0.020 A 
ATOM     93  C   UNL A   1      52.024  26.120  25.070  1.00  0.00     0.054 A 
BRANCH  93  94
ATOM     94  S   UNL A   1      53.596  25.458  24.450  1.00  0.00     0.124 S 
ATOM     95  O   UNL A   1      53.555  25.845  23.043  1.00  0.00    -0.237 OA
ATOM     96  O   UNL A   1      54.582  26.162  25.267  1.00  0.00    -0.237 OA
ATOM     97  O   UNL A   1      53.493  24.023  24.705  1.00  0.00    -0.744 OA
ENDBRANCH  93  94
ENDBRANCH  67  88
ENDBRANCH  41  42
ENDBRANCH  33  36
ENDBRANCH  31  32
ENDBRANCH  30  31
ENDBRANCH   1  30
TORSDOF 17
ENDMDL
MODEL 2
REMARK VINA RESULT:     -12.1      6.031     11.531
REMARK SMILES C=C1C[C@@]23CC[C@H]4[C@@](C)(CCC[C@@]4(C)C(=O)NCCCCCCNC(=O)c4ccc(-c5c6nc(c(-c7ccc(S(=O)(=O)[O-])cc7)c7ccc([nH]7)c(-c7ccc(S(=O)(=O)[O-])cc7)c7nc(c(-c8ccc(S(=O)(=O)[O-])cc8)c8ccc5[nH]8)C=C7)C=C6)cc4)[C@H]2CC[C@]1(O)C3
REMARK SMILES IDX 21 1 20 2 19 3 18 4 17 5 15 6 16 7 13 9 1 10 2 11 3 12 90 13
REMARK SMILES IDX 4 14 89 15 92 16 5 17 87 18 88 19 6 20 8 21 7 22 9 23 10 24
REMARK SMILES IDX 11 25 12 26 14 27 91 28 22 30 23 31 24 32 25 33 26 35 27 36
REMARK SMILES IDX 28 37 86 38 29 39 85 40 30 41 31 42 32 43 79 44 33 45 84 46
REMARK SMILES IDX 78 47 80 48 34 49 83 50 77 51 76 52 35 54 65 55 46 56 64 57
REMARK SMILES IDX 47 58 50 59 63 60 81 61 48 62 49 63 62 65 82 66 51 67 36 68
REMARK SMILES IDX 37 69 45 70 38 71 44 72 39 73 40 74 41 75 42 76 43 77 66 78
REMARK SMILES IDX 67 79 75 80 68 81 74 82 69 83 70 84 71 85 72 86 73 87 52 88
REMARK SMILES IDX 53 89 61 90 54 91 60 92 55 93 56 94 57 95 58 96 59 97
REMARK H PARENT 17 8 91 29 24 34 80 53 50 64
REMARK Flexibility Score: inf
ROOT
ATOM      1  C   UNL A   1      40.278  21.882  26.130  1.00  0.00     0.002 C 
ENDROOT
BRANCH   1   2
ATOM      2  C   UNL A   1      38.757  22.074  26.156  1.00  0.00     0.002 C 
BRANCH   2   3
ATOM      3  C   UNL A   1      38.262  23.534  26.139  1.00  0.00     0.021 C 
BRANCH   3   4
ATOM      4  C   UNL A   1      36.829  23.710  25.644  1.00  0.00     0.116 C 
BRANCH   4   5
ATOM      5  N   UNL A   1      36.320  22.451  25.149  1.00  0.00    -0.356 N 
ATOM      6  C   UNL A   1      35.126  21.828  25.206  1.00  0.00     0.226 C 
ATOM      7  O   UNL A   1      35.101  20.734  24.628  1.00  0.00    -0.274 OA
ATOM      8  H   UNL A   1      36.997  21.931  24.660  1.00  0.00     0.163 HD
BRANCH   6   9
ATOM      9  C   UNL A   1      33.892  22.375  25.947  1.00  0.00     0.050 C 
ATOM     10  C   UNL A   1      30.335  29.353  23.536  1.00  0.00     0.011 C 
ATOM     11  C   UNL A   1      31.170  28.317  23.703  1.00  0.00    -0.045 C 
ATOM     12  C   UNL A   1      30.749  26.860  23.788  1.00  0.00     0.040 C 
ATOM     13  C   UNL A   1      32.611  28.409  24.134  1.00  0.00     0.086 C 
ATOM     14  C   UNL A   1      31.874  26.218  24.656  1.00  0.00    -0.020 C 
ATOM     15  C   UNL A   1      33.601  27.886  23.071  1.00  0.00     0.040 C 
ATOM     16  C   UNL A   1      32.522  27.463  25.311  1.00  0.00     0.047 C 
ATOM     17  C   UNL A   1      31.354  25.337  25.767  1.00  0.00     0.008 C 
ATOM     18  C   UNL A   1      33.015  25.523  23.834  1.00  0.00     0.002 C 
ATOM     19  C   UNL A   1      33.390  26.407  22.614  1.00  0.00     0.008 C 
ATOM     20  C   UNL A   1      32.567  24.662  26.443  1.00  0.00     0.006 C 
ATOM     21  C   UNL A   1      33.164  23.919  23.893  1.00  0.00    -0.025 C 
ATOM     22  C   UNL A   1      33.152  23.631  25.440  1.00  0.00     0.010 C 
ATOM     23  C   UNL A   1      34.401  23.647  22.996  1.00  0.00     0.012 C 
ATOM     24  C   UNL A   1      32.158  22.796  23.392  1.00  0.00     0.007 C 
ATOM     25  C   UNL A   1      32.099  21.422  24.277  1.00  0.00     0.002 C 
ATOM     26  C   UNL A   1      32.778  21.298  25.718  1.00  0.00     0.017 C 
ATOM     27  C   UNL A   1      34.299  22.528  27.428  1.00  0.00     0.022 C 
BRANCH  13  28
ATOM     28  O   UNL A   1      32.993  29.690  24.587  1.00  0.00    -0.386 OA
ATOM     29  H   UNL A   1      33.958  29.780  24.527  1.00  0.00     0.211 HD
ENDBRANCH  13  28
ENDBRANCH   6   9
ENDBRANCH   4   5
ENDBRANCH   3   4
ENDBRANCH   2   3
ENDBRANCH   1   2
BRANCH   1  30
ATOM     30  C   UNL A   1      41.006  22.314  27.402  1.00  0.00     0.021 C 
BRANCH  30  31
ATOM     31  C   UNL A   1      42.252  23.155  27.163  1.00  0.00     0.116 C 
BRANCH  31  32
ATOM     32  N   UNL A   1      42.111  24.057  26.032  1.00  0.00    -0.352 N 
ATOM     33  C   UNL A   1      41.763  25.392  26.037  1.00  0.00     0.251 C 
ATOM     34  H   UNL A   1      42.285  23.664  25.148  1.00  0.00     0.163 HD
ATOM     35  O   UNL A   1      41.540  25.982  25.002  1.00  0.00    -0.269 OA
BRANCH  33  36
ATOM     36  C   UNL A   1      41.637  26.075  27.345  1.00  0.00     0.039 A 
ATOM     37  C   UNL A   1      42.650  26.945  27.750  1.00  0.00     0.014 A 
ATOM     38  C   UNL A   1      40.494  25.899  28.129  1.00  0.00     0.014 A 
ATOM     39  C   UNL A   1      42.482  27.698  28.914  1.00  0.00     0.010 A 
ATOM     40  C   UNL A   1      40.297  26.701  29.247  1.00  0.00     0.010 A 
ATOM     41  C   UNL A   1      41.287  27.611  29.648  1.00  0.00    -0.014 A 
BRANCH  41  42
ATOM     42  C   UNL A   1      41.042  28.479  30.827  1.00  0.00     0.031 A 
ATOM     43  C   UNL A   1      39.951  29.513  30.788  1.00  0.00     0.074 A 
ATOM     44  C   UNL A   1      41.849  28.385  31.903  1.00  0.00     0.049 A 
ATOM     45  N   UNL A   1      39.634  30.411  31.685  1.00  0.00    -0.248 NA
ATOM     46  C   UNL A   1      39.122  29.561  29.571  1.00  0.00     0.031 C 
ATOM     47  C   UNL A   1      42.965  27.445  32.046  1.00  0.00     0.029 A 
ATOM     48  N   UNL A   1      41.863  29.094  33.078  1.00  0.00    -0.354 N 
ATOM     49  C   UNL A   1      38.583  31.137  31.138  1.00  0.00     0.074 A 
ATOM     50  C   UNL A   1      38.348  30.609  29.812  1.00  0.00     0.031 C 
ATOM     51  C   UNL A   1      43.536  27.621  33.248  1.00  0.00     0.029 A 
ATOM     52  C   UNL A   1      42.863  28.713  33.942  1.00  0.00     0.049 A 
ATOM     53  H   UNL A   1      41.217  29.809  33.283  1.00  0.00     0.167 HD
ATOM     54  C   UNL A   1      37.865  32.140  31.698  1.00  0.00     0.031 A 
ATOM     55  C   UNL A   1      43.208  29.196  35.152  1.00  0.00     0.031 A 
ATOM     56  C   UNL A   1      38.102  32.658  33.018  1.00  0.00     0.049 A 
ATOM     57  C   UNL A   1      42.416  30.333  35.738  1.00  0.00     0.074 A 
ATOM     58  C   UNL A   1      37.397  33.637  33.696  1.00  0.00     0.029 A 
ATOM     59  N   UNL A   1      39.123  32.245  33.861  1.00  0.00    -0.354 N 
ATOM     60  N   UNL A   1      41.380  30.961  35.234  1.00  0.00    -0.248 NA
ATOM     61  C   UNL A   1      42.832  30.822  37.060  1.00  0.00     0.031 C 
ATOM     62  C   UNL A   1      38.028  33.859  34.923  1.00  0.00     0.029 A 
ATOM     63  C   UNL A   1      39.086  32.972  35.039  1.00  0.00     0.049 A 
ATOM     64  H   UNL A   1      39.777  31.540  33.653  1.00  0.00     0.167 HD
ATOM     65  C   UNL A   1      41.006  31.902  36.188  1.00  0.00     0.074 A 
ATOM     66  C   UNL A   1      41.917  31.749  37.305  1.00  0.00     0.031 C 
ATOM     67  C   UNL A   1      40.000  32.809  36.142  1.00  0.00     0.031 A 
BRANCH  54  68
ATOM     68  C   UNL A   1      36.761  32.751  30.874  1.00  0.00    -0.014 A 
ATOM     69  C   UNL A   1      35.418  32.382  31.071  1.00  0.00     0.010 A 
ATOM     70  C   UNL A   1      37.065  33.740  29.921  1.00  0.00     0.010 A 
ATOM     71  C   UNL A   1      34.405  32.960  30.302  1.00  0.00     0.020 A 
ATOM     72  C   UNL A   1      36.052  34.343  29.170  1.00  0.00     0.020 A 
ATOM     73  C   UNL A   1      34.729  33.935  29.354  1.00  0.00     0.054 A 
BRANCH  73  74
ATOM     74  S   UNL A   1      33.390  34.684  28.387  1.00  0.00     0.124 S 
ATOM     75  O   UNL A   1      32.525  35.221  29.435  1.00  0.00    -0.237 OA
ATOM     76  O   UNL A   1      34.096  35.680  27.583  1.00  0.00    -0.237 OA
ATOM     77  O   UNL A   1      32.834  33.562  27.636  1.00  0.00    -0.744 OA
ENDBRANCH  73  74
ENDBRANCH  54  68
BRANCH  55  78
ATOM     78  C   UNL A   1      44.356  28.603  35.891  1.00  0.00    -0.014 A 
ATOM     79  C   UNL A   1      44.156  27.531  36.780  1.00  0.00     0.010 A 
ATOM     80  C   UNL A   1      45.660  29.097  35.701  1.00  0.00     0.010 A 
ATOM     81  C   UNL A   1      45.233  26.978  37.478  1.00  0.00     0.020 A 
ATOM     82  C   UNL A   1      46.744  28.527  36.374  1.00  0.00     0.020 A 
ATOM     83  C   UNL A   1      46.522  27.478  37.269  1.00  0.00     0.054 A 
BRANCH  83  84
ATOM     84  S   UNL A   1      47.909  26.711  38.152  1.00  0.00     0.124 S 
ATOM     85  O   UNL A   1      49.056  27.412  37.583  1.00  0.00    -0.237 OA
ATOM     86  O   UNL A   1      47.604  27.021  39.546  1.00  0.00    -0.237 OA
ATOM     87  O   UNL A   1      47.801  25.297  37.798  1.00  0.00    -0.744 OA
ENDBRANCH  83  84
ENDBRANCH  55  78
BRANCH  67  88
ATOM     88  C   UNL A   1      39.804  33.694  37.346  1.00  0.00    -0.014 A 
ATOM     89  C   UNL A   1      40.415  34.957  37.429  1.00  0.00     0.010 A 
ATOM     90  C   UNL A   1      38.935  33.282  38.374  1.00  0.00     0.010 A 
ATOM     91  C   UNL A   1      40.175  35.786  38.529  1.00  0.00     0.020 A 
ATOM     92  C   UNL A   1      38.671  34.119  39.461  1.00  0.00     0.020 A 
ATOM     93  C   UNL A   1      39.301  35.363  39.535  1.00  0.00     0.054 A 
BRANCH  93  94
ATOM     94  S   UNL A   1      38.958  36.484  40.920  1.00  0.00     0.124 S 
ATOM     95  O   UNL A   1      38.354  37.628  40.242  1.00  0.00    -0.237 OA
ATOM     96  O   UNL A   1      38.052  35.695  41.751  1.00  0.00    -0.237 OA
ATOM     97  O   UNL A   1      40.275  36.730  41.503  1.00  0.00    -0.744 OA
ENDBRANCH  93  94
ENDBRANCH  67  88
ENDBRANCH  41  42
ENDBRANCH  33  36
ENDBRANCH  31  32
ENDBRANCH  30  31
ENDBRANCH   1  30
TORSDOF 17
ENDMDL
MODEL 3
REMARK VINA RESULT:     -12.1      6.056     11.849
REMARK SMILES C=C1C[C@@]23CC[C@H]4[C@@](C)(CCC[C@@]4(C)C(=O)NCCCCCCNC(=O)c4ccc(-c5c6nc(c(-c7ccc(S(=O)(=O)[O-])cc7)c7ccc([nH]7)c(-c7ccc(S(=O)(=O)[O-])cc7)c7nc(c(-c8ccc(S(=O)(=O)[O-])cc8)c8ccc5[nH]8)C=C7)C=C6)cc4)[C@H]2CC[C@]1(O)C3
REMARK SMILES IDX 21 1 20 2 19 3 18 4 17 5 15 6 16 7 13 9 1 10 2 11 3 12 90 13
REMARK SMILES IDX 4 14 89 15 92 16 5 17 87 18 88 19 6 20 8 21 7 22 9 23 10 24
REMARK SMILES IDX 11 25 12 26 14 27 91 28 22 30 23 31 24 32 25 33 26 35 27 36
REMARK SMILES IDX 28 37 86 38 29 39 85 40 30 41 31 42 32 43 79 44 33 45 84 46
REMARK SMILES IDX 78 47 80 48 34 49 83 50 77 51 76 52 35 54 65 55 46 56 64 57
REMARK SMILES IDX 47 58 50 59 63 60 81 61 48 62 49 63 62 65 82 66 51 67 36 68
REMARK SMILES IDX 37 69 45 70 38 71 44 72 39 73 40 74 41 75 42 76 43 77 66 78
REMARK SMILES IDX 67 79 75 80 68 81 74 82 69 83 70 84 71 85 72 86 73 87 52 88
REMARK SMILES IDX 53 89 61 90 54 91 60 92 55 93 56 94 57 95 58 96 59 97
REMARK H PARENT 17 8 91 29 24 34 80 53 50 64
REMARK Flexibility Score: inf
ROOT
ATOM      1  C   UNL A   1      40.406  21.778  26.456  1.00  0.00     0.002 C 
ENDROOT
BRANCH   1   2
ATOM      2  C   UNL A   1      38.891  22.017  26.442  1.00  0.00     0.002 C 
BRANCH   2   3
ATOM      3  C   UNL A   1      38.439  23.448  26.092  1.00  0.00     0.021 C 
BRANCH   3   4
ATOM      4  C   UNL A   1      36.932  23.609  25.912  1.00  0.00     0.116 C 
BRANCH   4   5
ATOM      5  N   UNL A   1      36.372  22.405  25.341  1.00  0.00    -0.356 N 
ATOM      6  C   UNL A   1      35.145  21.847  25.332  1.00  0.00     0.226 C 
ATOM      7  O   UNL A   1      35.080  20.784  24.701  1.00  0.00    -0.274 OA
ATOM      8  H   UNL A   1      37.036  21.871  24.848  1.00  0.00     0.163 HD
BRANCH   6   9
ATOM      9  C   UNL A   1      33.919  22.426  26.061  1.00  0.00     0.050 C 
ATOM     10  C   UNL A   1      30.462  29.405  23.507  1.00  0.00     0.011 C 
ATOM     11  C   UNL A   1      31.282  28.361  23.696  1.00  0.00    -0.045 C 
ATOM     12  C   UNL A   1      30.840  26.911  23.810  1.00  0.00     0.040 C 
ATOM     13  C   UNL A   1      32.724  28.440  24.126  1.00  0.00     0.086 C 
ATOM     14  C   UNL A   1      31.955  26.271  24.692  1.00  0.00    -0.020 C 
ATOM     15  C   UNL A   1      33.707  27.883  23.074  1.00  0.00     0.040 C 
ATOM     16  C   UNL A   1      32.622  27.520  25.322  1.00  0.00     0.047 C 
ATOM     17  C   UNL A   1      31.423  25.420  25.820  1.00  0.00     0.008 C 
ATOM     18  C   UNL A   1      33.087  25.543  23.884  1.00  0.00     0.002 C 
ATOM     19  C   UNL A   1      33.475  26.397  22.647  1.00  0.00     0.008 C 
ATOM     20  C   UNL A   1      32.626  24.742  26.510  1.00  0.00     0.006 C 
ATOM     21  C   UNL A   1      33.213  23.939  23.976  1.00  0.00    -0.025 C 
ATOM     22  C   UNL A   1      33.196  23.682  25.529  1.00  0.00     0.010 C 
ATOM     23  C   UNL A   1      34.446  23.631  23.086  1.00  0.00     0.012 C 
ATOM     24  C   UNL A   1      32.192  22.821  23.497  1.00  0.00     0.007 C 
ATOM     25  C   UNL A   1      32.113  21.465  24.410  1.00  0.00     0.002 C 
ATOM     26  C   UNL A   1      32.789  21.362  25.853  1.00  0.00     0.017 C 
ATOM     27  C   UNL A   1      34.327  22.604  27.538  1.00  0.00     0.022 C 
BRANCH  13  28
ATOM     28  O   UNL A   1      33.124  29.725  24.552  1.00  0.00    -0.386 OA
ATOM     29  H   UNL A   1      33.207  30.311  23.783  1.00  0.00     0.211 HD
ENDBRANCH  13  28
ENDBRANCH   6   9
ENDBRANCH   4   5
ENDBRANCH   3   4
ENDBRANCH   2   3
ENDBRANCH   1   2
BRANCH   1  30
ATOM     30  C   UNL A   1      41.148  22.406  27.634  1.00  0.00     0.021 C 
BRANCH  30  31
ATOM     31  C   UNL A   1      42.299  23.322  27.241  1.00  0.00     0.116 C 
BRANCH  31  32
ATOM     32  N   UNL A   1      41.995  24.135  26.075  1.00  0.00    -0.352 N 
ATOM     33  C   UNL A   1      41.565  25.444  26.032  1.00  0.00     0.251 C 
ATOM     34  H   UNL A   1      42.111  23.693  25.204  1.00  0.00     0.163 HD
ATOM     35  O   UNL A   1      41.209  25.949  24.989  1.00  0.00    -0.269 OA
BRANCH  33  36
ATOM     36  C   UNL A   1      41.518  26.207  27.300  1.00  0.00     0.039 A 
ATOM     37  C   UNL A   1      42.531  27.128  27.570  1.00  0.00     0.014 A 
ATOM     38  C   UNL A   1      40.445  26.049  28.181  1.00  0.00     0.014 A 
ATOM     39  C   UNL A   1      42.429  27.948  28.695  1.00  0.00     0.010 A 
ATOM     40  C   UNL A   1      40.309  26.916  29.260  1.00  0.00     0.010 A 
ATOM     41  C   UNL A   1      41.298  27.877  29.524  1.00  0.00    -0.014 A 
BRANCH  41  42
ATOM     42  C   UNL A   1      41.116  28.811  30.664  1.00  0.00     0.031 A 
ATOM     43  C   UNL A   1      41.968  28.673  31.895  1.00  0.00     0.074 A 
ATOM     44  C   UNL A   1      40.134  29.734  30.617  1.00  0.00     0.049 A 
ATOM     45  N   UNL A   1      41.907  29.342  33.018  1.00  0.00    -0.248 NA
ATOM     46  C   UNL A   1      43.008  27.631  31.871  1.00  0.00     0.031 C 
ATOM     47  C   UNL A   1      39.218  29.942  29.492  1.00  0.00     0.029 A 
ATOM     48  N   UNL A   1      39.736  30.666  31.543  1.00  0.00    -0.354 N 
ATOM     49  C   UNL A   1      42.888  28.794  33.837  1.00  0.00     0.074 A 
ATOM     50  C   UNL A   1      43.495  27.707  33.102  1.00  0.00     0.031 C 
ATOM     51  C   UNL A   1      38.384  30.952  29.786  1.00  0.00     0.029 A 
ATOM     52  C   UNL A   1      38.670  31.433  31.133  1.00  0.00     0.049 A 
ATOM     53  H   UNL A   1      40.172  30.774  32.420  1.00  0.00     0.167 HD
ATOM     54  C   UNL A   1      43.263  29.176  35.081  1.00  0.00     0.031 A 
ATOM     55  C   UNL A   1      37.991  32.404  31.774  1.00  0.00     0.031 A 
ATOM     56  C   UNL A   1      42.657  30.262  35.805  1.00  0.00     0.049 A 
ATOM     57  C   UNL A   1      38.405  32.789  33.168  1.00  0.00     0.074 A 
ATOM     58  C   UNL A   1      42.998  30.760  37.050  1.00  0.00     0.029 A 
ATOM     59  N   UNL A   1      41.581  31.013  35.355  1.00  0.00    -0.354 N 
ATOM     60  N   UNL A   1      39.381  32.305  33.900  1.00  0.00    -0.248 NA
ATOM     61  C   UNL A   1      37.632  33.855  33.822  1.00  0.00     0.031 C 
ATOM     62  C   UNL A   1      42.092  31.773  37.378  1.00  0.00     0.029 A 
ATOM     63  C   UNL A   1      41.227  31.951  36.311  1.00  0.00     0.049 A 
ATOM     64  H   UNL A   1      41.136  30.897  34.485  1.00  0.00     0.167 HD
ATOM     65  C   UNL A   1      39.354  33.026  35.090  1.00  0.00     0.074 A 
ATOM     66  C   UNL A   1      38.277  33.987  34.973  1.00  0.00     0.031 C 
ATOM     67  C   UNL A   1      40.151  32.901  36.180  1.00  0.00     0.031 A 
BRANCH  54  68
ATOM     68  C   UNL A   1      44.374  28.405  35.742  1.00  0.00    -0.014 A 
ATOM     69  C   UNL A   1      45.718  28.794  35.594  1.00  0.00     0.010 A 
ATOM     70  C   UNL A   1      44.069  27.301  36.560  1.00  0.00     0.010 A 
ATOM     71  C   UNL A   1      46.737  28.069  36.216  1.00  0.00     0.020 A 
ATOM     72  C   UNL A   1      45.083  26.591  37.209  1.00  0.00     0.020 A 
ATOM     73  C   UNL A   1      46.414  26.971  37.019  1.00  0.00     0.054 A 
BRANCH  73  74
ATOM     74  S   UNL A   1      47.757  26.064  37.832  1.00  0.00     0.124 S 
ATOM     75  O   UNL A   1      48.898  26.949  37.606  1.00  0.00    -0.237 OA
ATOM     76  O   UNL A   1      47.293  25.979  39.215  1.00  0.00    -0.237 OA
ATOM     77  O   UNL A   1      47.804  24.793  37.114  1.00  0.00    -0.744 OA
ENDBRANCH  73  74
ENDBRANCH  54  68
BRANCH  55  78
ATOM     78  C   UNL A   1      36.851  33.085  31.099  1.00  0.00    -0.014 A 
ATOM     79  C   UNL A   1      37.064  33.860  29.946  1.00  0.00     0.010 A 
ATOM     80  C   UNL A   1      35.542  32.951  31.599  1.00  0.00     0.010 A 
ATOM     81  C   UNL A   1      35.995  34.504  29.317  1.00  0.00     0.020 A 
ATOM     82  C   UNL A   1      34.466  33.568  30.956  1.00  0.00     0.020 A 
ATOM     83  C   UNL A   1      34.701  34.351  29.824  1.00  0.00     0.054 A 
BRANCH  83  84
ATOM     84  S   UNL A   1      33.324  35.158  28.960  1.00  0.00     0.124 S 
ATOM     85  O   UNL A   1      34.008  36.210  28.215  1.00  0.00    -0.237 OA
ATOM     86  O   UNL A   1      32.774  34.068  28.158  1.00  0.00    -0.237 OA
ATOM     87  O   UNL A   1      32.461  35.620  30.046  1.00  0.00    -0.744 OA
ENDBRANCH  83  84
ENDBRANCH  55  78
BRANCH  67  88
ATOM     88  C   UNL A   1      39.913  33.846  37.329  1.00  0.00    -0.014 A 
ATOM     89  C   UNL A   1      40.443  35.148  37.323  1.00  0.00     0.010 A 
ATOM     90  C   UNL A   1      39.085  33.447  38.394  1.00  0.00     0.010 A 
ATOM     91  C   UNL A   1      40.164  36.028  38.373  1.00  0.00     0.020 A 
ATOM     92  C   UNL A   1      38.780  34.333  39.430  1.00  0.00     0.020 A 
ATOM     93  C   UNL A   1      39.331  35.616  39.417  1.00  0.00     0.054 A 
BRANCH  93  94
ATOM     94  S   UNL A   1      38.933  36.799  40.734  1.00  0.00     0.124 S 
ATOM     95  O   UNL A   1      38.254  37.860  39.995  1.00  0.00    -0.237 OA
ATOM     96  O   UNL A   1      38.084  36.010  41.624  1.00  0.00    -0.237 OA
ATOM     97  O   UNL A   1      40.238  37.159  41.283  1.00  0.00    -0.744 OA
ENDBRANCH  93  94
ENDBRANCH  67  88
ENDBRANCH  41  42
ENDBRANCH  33  36
ENDBRANCH  31  32
ENDBRANCH  30  31
ENDBRANCH   1  30
TORSDOF 17
ENDMDL
