MODEL 1
REMARK VINA RESULT:     -12.0      0.000      0.000
REMARK SMILES CC(=O)Nc1cccc(-c2cc(F)ccc2C(=O)NCCCCCCNC(=O)c2ccc(-c3c4nc(c(-c5ccc(S(=O)(=O)[O-])cc5)c5ccc([nH]5)c(-c5ccc(S(=O)(=O)[O-])cc5)c5nc(c(-c6ccc(S(=O)(=O)[O-])cc6)c6ccc3[nH]6)C=C5)C=C4)cc2)c1
REMARK SMILES IDX 23 1 22 2 21 3 20 4 19 5 17 6 18 7 16 9 10 10 11 11 12 12
REMARK SMILES IDX 15 13 13 14 14 15 9 16 5 17 6 18 89 19 7 20 8 21 4 22 1 23
REMARK SMILES IDX 2 24 3 25 24 27 25 28 26 29 27 30 28 32 29 33 30 34 88 35
REMARK SMILES IDX 31 36 87 37 32 38 33 39 34 40 81 41 35 42 86 43 80 44 82 45
REMARK SMILES IDX 36 46 85 47 79 48 78 49 37 51 67 52 48 53 66 54 49 55 52 56
REMARK SMILES IDX 65 57 83 58 50 59 51 60 64 62 84 63 53 64 38 65 39 66 47 67
REMARK SMILES IDX 40 68 46 69 41 70 42 71 43 72 44 73 45 74 68 75 69 76 77 77
REMARK SMILES IDX 70 78 76 79 71 80 72 81 73 82 74 83 75 84 54 85 55 86 63 87
REMARK SMILES IDX 56 88 62 89 57 90 58 91 59 92 60 93 61 94
REMARK H PARENT 19 8 4 26 26 31 82 50 52 61
REMARK Flexibility Score: inf
ROOT
ATOM      1  C   UNL A   1      34.512  22.593  24.243  1.00  0.00     0.002 C 
ENDROOT
BRANCH   1   2
ATOM      2  C   UNL A   1      33.331  22.704  23.269  1.00  0.00     0.002 C 
BRANCH   2   3
ATOM      3  C   UNL A   1      31.897  22.633  23.811  1.00  0.00     0.021 C 
BRANCH   3   4
ATOM      4  C   UNL A   1      30.921  23.742  23.432  1.00  0.00     0.116 C 
BRANCH   4   5
ATOM      5  N   UNL A   1      31.374  24.698  22.455  1.00  0.00    -0.352 N 
ATOM      6  C   UNL A   1      32.045  25.891  22.583  1.00  0.00     0.251 C 
ATOM      7  O   UNL A   1      32.425  26.401  21.522  1.00  0.00    -0.269 OA
ATOM      8  H   UNL A   1      31.167  24.451  21.524  1.00  0.00     0.163 HD
BRANCH   6   9
ATOM      9  C   UNL A   1      32.292  26.677  23.848  1.00  0.00     0.047 A 
ATOM     10  C   UNL A   1      31.535  27.720  24.443  1.00  0.00    -0.003 A 
ATOM     11  C   UNL A   1      31.952  28.221  25.707  1.00  0.00     0.048 A 
ATOM     12  C   UNL A   1      33.063  27.720  26.368  1.00  0.00     0.123 A 
ATOM     13  C   UNL A   1      33.424  26.193  24.564  1.00  0.00     0.017 A 
ATOM     14  F   UNL A   1      33.406  28.217  27.563  1.00  0.00    -0.207 F 
ATOM     15  C   UNL A   1      33.807  26.704  25.807  1.00  0.00     0.040 A 
BRANCH  10  16
ATOM     16  C   UNL A   1      30.321  28.345  23.898  1.00  0.00    -0.015 A 
ATOM     17  C   UNL A   1      28.977  30.309  23.375  1.00  0.00     0.041 A 
ATOM     18  C   UNL A   1      27.926  29.470  22.979  1.00  0.00     0.026 A 
ATOM     19  C   UNL A   1      30.181  29.740  23.806  1.00  0.00     0.034 A 
ATOM     20  C   UNL A   1      28.069  28.086  23.004  1.00  0.00     0.003 A 
ATOM     21  C   UNL A   1      29.260  27.528  23.457  1.00  0.00     0.009 A 
BRANCH  17  22
ATOM     22  N   UNL A   1      28.682  31.680  23.467  1.00  0.00    -0.326 N 
ATOM     23  C   UNL A   1      28.145  32.283  21.114  1.00  0.00     0.114 C 
ATOM     24  C   UNL A   1      28.515  32.648  22.524  1.00  0.00     0.221 C 
ATOM     25  O   UNL A   1      28.623  33.829  22.860  1.00  0.00    -0.275 OA
ATOM     26  H   UNL A   1      28.578  32.002  24.391  1.00  0.00     0.169 HD
ENDBRANCH  17  22
ENDBRANCH  10  16
ENDBRANCH   6   9
ENDBRANCH   4   5
ENDBRANCH   3   4
ENDBRANCH   2   3
ENDBRANCH   1   2
BRANCH   1  27
ATOM     27  C   UNL A   1      35.780  23.393  23.944  1.00  0.00     0.021 C 
BRANCH  27  28
ATOM     28  C   UNL A   1      36.688  23.743  25.116  1.00  0.00     0.116 C 
BRANCH  28  29
ATOM     29  N   UNL A   1      37.741  22.768  25.335  1.00  0.00    -0.352 N 
ATOM     30  C   UNL A   1      38.946  22.886  25.989  1.00  0.00     0.251 C 
ATOM     31  H   UNL A   1      37.563  21.878  24.955  1.00  0.00     0.163 HD
ATOM     32  O   UNL A   1      39.742  21.952  25.941  1.00  0.00    -0.269 OA
BRANCH  30  33
ATOM     33  C   UNL A   1      39.315  24.119  26.734  1.00  0.00     0.039 A 
ATOM     34  C   UNL A   1      40.109  25.078  26.091  1.00  0.00     0.014 A 
ATOM     35  C   UNL A   1      38.960  24.313  28.070  1.00  0.00     0.014 A 
ATOM     36  C   UNL A   1      40.502  26.243  26.764  1.00  0.00     0.010 A 
ATOM     37  C   UNL A   1      39.299  25.502  28.723  1.00  0.00     0.010 A 
ATOM     38  C   UNL A   1      40.083  26.475  28.082  1.00  0.00    -0.014 A 
BRANCH  38  39
ATOM     39  C   UNL A   1      40.488  27.694  28.837  1.00  0.00     0.031 A 
ATOM     40  C   UNL A   1      41.813  27.720  29.554  1.00  0.00     0.074 A 
ATOM     41  C   UNL A   1      39.648  28.741  28.952  1.00  0.00     0.049 A 
ATOM     42  N   UNL A   1      42.285  28.610  30.391  1.00  0.00    -0.248 NA
ATOM     43  C   UNL A   1      42.716  26.583  29.316  1.00  0.00     0.031 C 
ATOM     44  C   UNL A   1      38.340  28.857  28.305  1.00  0.00     0.029 A 
ATOM     45  N   UNL A   1      39.767  29.907  29.669  1.00  0.00    -0.354 N 
ATOM     46  C   UNL A   1      43.515  28.118  30.812  1.00  0.00     0.074 A 
ATOM     47  C   UNL A   1      43.707  26.843  30.155  1.00  0.00     0.031 C 
ATOM     48  C   UNL A   1      37.785  30.033  28.644  1.00  0.00     0.029 A 
ATOM     49  C   UNL A   1      38.672  30.734  29.569  1.00  0.00     0.049 A 
ATOM     50  H   UNL A   1      40.563  30.131  30.205  1.00  0.00     0.167 HD
ATOM     51  C   UNL A   1      44.408  28.678  31.664  1.00  0.00     0.031 A 
ATOM     52  C   UNL A   1      38.403  31.913  30.165  1.00  0.00     0.031 A 
ATOM     53  C   UNL A   1      44.237  29.961  32.290  1.00  0.00     0.049 A 
ATOM     54  C   UNL A   1      39.402  32.510  31.119  1.00  0.00     0.074 A 
ATOM     55  C   UNL A   1      45.114  30.636  33.121  1.00  0.00     0.029 A 
ATOM     56  N   UNL A   1      43.116  30.765  32.151  1.00  0.00    -0.354 N 
ATOM     57  N   UNL A   1      40.571  32.042  31.484  1.00  0.00    -0.248 NA
ATOM     58  C   UNL A   1      39.045  33.795  31.740  1.00  0.00     0.031 C 
ATOM     59  C   UNL A   1      44.506  31.831  33.519  1.00  0.00     0.029 A 
ATOM     60  C   UNL A   1      43.272  31.922  32.896  1.00  0.00     0.049 A 
ATOM     61  H   UNL A   1      42.328  30.547  31.604  1.00  0.00     0.167 HD
ATOM     62  C   UNL A   1      41.106  32.994  32.346  1.00  0.00     0.074 A 
ATOM     63  C   UNL A   1      40.133  34.060  32.455  1.00  0.00     0.031 C 
ATOM     64  C   UNL A   1      42.304  32.986  32.981  1.00  0.00     0.031 A 
BRANCH  51  65
ATOM     65  C   UNL A   1      45.645  27.884  31.992  1.00  0.00    -0.014 A 
ATOM     66  C   UNL A   1      46.803  27.970  31.201  1.00  0.00     0.010 A 
ATOM     67  C   UNL A   1      45.652  27.053  33.128  1.00  0.00     0.010 A 
ATOM     68  C   UNL A   1      47.926  27.195  31.505  1.00  0.00     0.020 A 
ATOM     69  C   UNL A   1      46.782  26.297  33.452  1.00  0.00     0.020 A 
ATOM     70  C   UNL A   1      47.904  26.356  32.623  1.00  0.00     0.054 A 
BRANCH  70  71
ATOM     71  S   UNL A   1      49.369  25.352  32.992  1.00  0.00     0.124 S 
ATOM     72  O   UNL A   1      49.881  25.068  31.653  1.00  0.00    -0.237 OA
ATOM     73  O   UNL A   1      50.186  26.255  33.798  1.00  0.00    -0.237 OA
ATOM     74  O   UNL A   1      48.827  24.200  33.709  1.00  0.00    -0.744 OA
ENDBRANCH  70  71
ENDBRANCH  51  65
BRANCH  52  75
ATOM     75  C   UNL A   1      37.130  32.621  29.859  1.00  0.00    -0.014 A 
ATOM     76  C   UNL A   1      36.039  32.523  30.739  1.00  0.00     0.010 A 
ATOM     77  C   UNL A   1      37.009  33.413  28.702  1.00  0.00     0.010 A 
ATOM     78  C   UNL A   1      34.846  33.199  30.467  1.00  0.00     0.020 A 
ATOM     79  C   UNL A   1      35.826  34.109  28.438  1.00  0.00     0.020 A 
ATOM     80  C   UNL A   1      34.748  33.992  29.320  1.00  0.00     0.054 A 
BRANCH  80  81
ATOM     81  S   UNL A   1      33.214  34.914  29.022  1.00  0.00     0.124 S 
ATOM     82  O   UNL A   1      32.548  34.082  28.027  1.00  0.00    -0.237 OA
ATOM     83  O   UNL A   1      32.597  34.937  30.346  1.00  0.00    -0.237 OA
ATOM     84  O   UNL A   1      33.685  36.212  28.542  1.00  0.00    -0.744 OA
ENDBRANCH  80  81
ENDBRANCH  52  75
BRANCH  64  85
ATOM     85  C   UNL A   1      42.671  34.186  33.811  1.00  0.00    -0.014 A 
ATOM     86  C   UNL A   1      42.471  34.201  35.201  1.00  0.00     0.010 A 
ATOM     87  C   UNL A   1      43.331  35.268  33.198  1.00  0.00     0.010 A 
ATOM     88  C   UNL A   1      42.923  35.281  35.966  1.00  0.00     0.020 A 
ATOM     89  C   UNL A   1      43.802  36.338  33.962  1.00  0.00     0.020 A 
ATOM     90  C   UNL A   1      43.592  36.340  35.342  1.00  0.00     0.054 A 
BRANCH  90  91
ATOM     91  S   UNL A   1      44.255  37.682  36.368  1.00  0.00     0.124 S 
ATOM     92  O   UNL A   1      43.279  37.747  37.452  1.00  0.00    -0.237 OA
ATOM     93  O   UNL A   1      45.576  37.181  36.740  1.00  0.00    -0.237 OA
ATOM     94  O   UNL A   1      44.264  38.833  35.468  1.00  0.00    -0.744 OA
ENDBRANCH  90  91
ENDBRANCH  64  85
ENDBRANCH  38  39
ENDBRANCH  30  33
ENDBRANCH  28  29
ENDBRANCH  27  28
ENDBRANCH   1  27
TORSDOF 18
ENDMDL
MODEL 2
REMARK VINA RESULT:     -11.6      3.019      9.014
REMARK SMILES CC(=O)Nc1cccc(-c2cc(F)ccc2C(=O)NCCCCCCNC(=O)c2ccc(-c3c4nc(c(-c5ccc(S(=O)(=O)[O-])cc5)c5ccc([nH]5)c(-c5ccc(S(=O)(=O)[O-])cc5)c5nc(c(-c6ccc(S(=O)(=O)[O-])cc6)c6ccc3[nH]6)C=C5)C=C4)cc2)c1
REMARK SMILES IDX 23 1 22 2 21 3 20 4 19 5 17 6 18 7 16 9 10 10 11 11 12 12
REMARK SMILES IDX 15 13 13 14 14 15 9 16 5 17 6 18 89 19 7 20 8 21 4 22 1 23
REMARK SMILES IDX 2 24 3 25 24 27 25 28 26 29 27 30 28 32 29 33 30 34 88 35
REMARK SMILES IDX 31 36 87 37 32 38 33 39 34 40 81 41 35 42 86 43 80 44 82 45
REMARK SMILES IDX 36 46 85 47 79 48 78 49 37 51 67 52 48 53 66 54 49 55 52 56
REMARK SMILES IDX 65 57 83 58 50 59 51 60 64 62 84 63 53 64 38 65 39 66 47 67
REMARK SMILES IDX 40 68 46 69 41 70 42 71 43 72 44 73 45 74 68 75 69 76 77 77
REMARK SMILES IDX 70 78 76 79 71 80 72 81 73 82 74 83 75 84 54 85 55 86 63 87
REMARK SMILES IDX 56 88 62 89 57 90 58 91 59 92 60 93 61 94
REMARK H PARENT 19 8 4 26 26 31 82 50 52 61
REMARK Flexibility Score: inf
ROOT
ATOM      1  C   UNL A   1      31.581  26.855  26.495  1.00  0.00     0.002 C 
ENDROOT
BRANCH   1   2
ATOM      2  C   UNL A   1      31.805  25.338  26.435  1.00  0.00     0.002 C 
BRANCH   2   3
ATOM      3  C   UNL A   1      30.593  24.399  26.375  1.00  0.00     0.021 C 
BRANCH   3   4
ATOM      4  C   UNL A   1      30.814  22.909  26.611  1.00  0.00     0.116 C 
BRANCH   4   5
ATOM      5  N   UNL A   1      31.122  22.109  25.454  1.00  0.00    -0.352 N 
ATOM      6  C   UNL A   1      32.308  21.853  24.808  1.00  0.00     0.251 C 
ATOM      7  O   UNL A   1      32.253  20.990  23.923  1.00  0.00    -0.269 OA
ATOM      8  H   UNL A   1      30.341  21.664  25.052  1.00  0.00     0.163 HD
BRANCH   6   9
ATOM      9  C   UNL A   1      33.632  22.555  24.998  1.00  0.00     0.047 A 
ATOM     10  C   UNL A   1      34.199  23.648  24.294  1.00  0.00    -0.003 A 
ATOM     11  C   UNL A   1      35.434  24.181  24.755  1.00  0.00     0.048 A 
ATOM     12  C   UNL A   1      36.088  23.670  25.866  1.00  0.00     0.123 A 
ATOM     13  C   UNL A   1      34.337  22.064  26.133  1.00  0.00     0.017 A 
ATOM     14  F   UNL A   1      37.243  24.216  26.268  1.00  0.00    -0.207 F 
ATOM     15  C   UNL A   1      35.549  22.611  26.564  1.00  0.00     0.040 A 
BRANCH  10  16
ATOM     16  C   UNL A   1      33.630  24.329  23.120  1.00  0.00    -0.015 A 
ATOM     17  C   UNL A   1      32.605  26.270  22.063  1.00  0.00     0.041 A 
ATOM     18  C   UNL A   1      32.425  25.521  20.891  1.00  0.00     0.026 A 
ATOM     19  C   UNL A   1      33.234  25.675  23.164  1.00  0.00     0.034 A 
ATOM     20  C   UNL A   1      32.868  24.204  20.810  1.00  0.00     0.003 A 
ATOM     21  C   UNL A   1      33.470  23.614  21.916  1.00  0.00     0.009 A 
BRANCH  17  22
ATOM     22  N   UNL A   1      31.983  27.529  22.102  1.00  0.00    -0.326 N 
ATOM     23  C   UNL A   1      29.860  27.055  23.309  1.00  0.00     0.114 C 
ATOM     24  C   UNL A   1      30.722  27.920  22.434  1.00  0.00     0.221 C 
ATOM     25  O   UNL A   1      30.319  29.019  22.045  1.00  0.00    -0.275 OA
ATOM     26  H   UNL A   1      32.574  28.271  21.838  1.00  0.00     0.169 HD
ENDBRANCH  17  22
ENDBRANCH  10  16
ENDBRANCH   6   9
ENDBRANCH   4   5
ENDBRANCH   3   4
ENDBRANCH   2   3
ENDBRANCH   1   2
BRANCH   1  27
ATOM     27  C   UNL A   1      32.687  27.774  25.974  1.00  0.00     0.021 C 
BRANCH  27  28
ATOM     28  C   UNL A   1      33.737  28.253  26.970  1.00  0.00     0.116 C 
BRANCH  28  29
ATOM     29  N   UNL A   1      33.560  29.637  27.366  1.00  0.00    -0.352 N 
ATOM     30  C   UNL A   1      34.413  30.495  28.024  1.00  0.00     0.251 C 
ATOM     31  H   UNL A   1      32.689  30.027  27.125  1.00  0.00     0.163 HD
ATOM     32  O   UNL A   1      33.998  31.598  28.369  1.00  0.00    -0.269 OA
BRANCH  30  33
ATOM     33  C   UNL A   1      35.814  30.112  28.344  1.00  0.00     0.039 A 
ATOM     34  C   UNL A   1      36.770  30.153  27.320  1.00  0.00     0.014 A 
ATOM     35  C   UNL A   1      36.186  29.645  29.607  1.00  0.00     0.014 A 
ATOM     36  C   UNL A   1      38.096  29.775  27.572  1.00  0.00     0.010 A 
ATOM     37  C   UNL A   1      37.520  29.328  29.874  1.00  0.00     0.010 A 
ATOM     38  C   UNL A   1      38.488  29.378  28.858  1.00  0.00    -0.014 A 
BRANCH  38  39
ATOM     39  C   UNL A   1      39.885  28.958  29.165  1.00  0.00     0.031 A 
ATOM     40  C   UNL A   1      40.844  29.947  29.774  1.00  0.00     0.074 A 
ATOM     41  C   UNL A   1      40.321  27.728  28.829  1.00  0.00     0.049 A 
ATOM     42  N   UNL A   1      42.134  29.837  29.971  1.00  0.00    -0.248 NA
ATOM     43  C   UNL A   1      40.282  31.241  30.195  1.00  0.00     0.031 C 
ATOM     44  C   UNL A   1      39.501  26.666  28.243  1.00  0.00     0.029 A 
ATOM     45  N   UNL A   1      41.572  27.168  28.923  1.00  0.00    -0.354 N 
ATOM     46  C   UNL A   1      42.543  31.059  30.494  1.00  0.00     0.074 A 
ATOM     47  C   UNL A   1      41.369  31.902  30.565  1.00  0.00     0.031 C 
ATOM     48  C   UNL A   1      40.268  25.580  28.042  1.00  0.00     0.029 A 
ATOM     49  C   UNL A   1      41.641  25.882  28.438  1.00  0.00     0.049 A 
ATOM     50  H   UNL A   1      42.348  27.642  29.301  1.00  0.00     0.167 HD
ATOM     51  C   UNL A   1      43.781  31.445  30.886  1.00  0.00     0.031 A 
ATOM     52  C   UNL A   1      42.691  25.045  28.311  1.00  0.00     0.031 A 
ATOM     53  C   UNL A   1      44.942  30.597  30.852  1.00  0.00     0.049 A 
ATOM     54  C   UNL A   1      44.061  25.498  28.739  1.00  0.00     0.074 A 
ATOM     55  C   UNL A   1      46.227  30.881  31.285  1.00  0.00     0.029 A 
ATOM     56  N   UNL A   1      44.961  29.301  30.362  1.00  0.00    -0.354 N 
ATOM     57  N   UNL A   1      44.421  26.648  29.255  1.00  0.00    -0.248 NA
ATOM     58  C   UNL A   1      45.164  24.540  28.568  1.00  0.00     0.031 C 
ATOM     59  C   UNL A   1      47.033  29.770  31.017  1.00  0.00     0.029 A 
ATOM     60  C   UNL A   1      46.240  28.777  30.464  1.00  0.00     0.049 A 
ATOM     61  H   UNL A   1      44.183  28.823  29.997  1.00  0.00     0.167 HD
ATOM     62  C   UNL A   1      45.785  26.537  29.508  1.00  0.00     0.074 A 
ATOM     63  C   UNL A   1      46.187  25.214  29.081  1.00  0.00     0.031 C 
ATOM     64  C   UNL A   1      46.624  27.450  30.055  1.00  0.00     0.031 A 
BRANCH  51  65
ATOM     65  C   UNL A   1      43.947  32.864  31.362  1.00  0.00    -0.014 A 
ATOM     66  C   UNL A   1      43.813  33.203  32.719  1.00  0.00     0.010 A 
ATOM     67  C   UNL A   1      44.266  33.872  30.432  1.00  0.00     0.010 A 
ATOM     68  C   UNL A   1      43.935  34.533  33.131  1.00  0.00     0.020 A 
ATOM     69  C   UNL A   1      44.416  35.199  30.844  1.00  0.00     0.020 A 
ATOM     70  C   UNL A   1      44.226  35.524  32.188  1.00  0.00     0.054 A 
BRANCH  70  71
ATOM     71  S   UNL A   1      44.370  37.244  32.744  1.00  0.00     0.124 S 
ATOM     72  O   UNL A   1      43.403  37.287  33.838  1.00  0.00    -0.237 OA
ATOM     73  O   UNL A   1      45.772  37.340  33.141  1.00  0.00    -0.237 OA
ATOM     74  O   UNL A   1      44.007  38.021  31.560  1.00  0.00    -0.744 OA
ENDBRANCH  70  71
ENDBRANCH  51  65
BRANCH  52  75
ATOM     75  C   UNL A   1      42.481  23.676  27.766  1.00  0.00    -0.014 A 
ATOM     76  C   UNL A   1      42.500  23.459  26.378  1.00  0.00     0.010 A 
ATOM     77  C   UNL A   1      42.285  22.582  28.629  1.00  0.00     0.010 A 
ATOM     78  C   UNL A   1      42.322  22.173  25.859  1.00  0.00     0.020 A 
ATOM     79  C   UNL A   1      42.129  21.291  28.115  1.00  0.00     0.020 A 
ATOM     80  C   UNL A   1      42.141  21.096  26.731  1.00  0.00     0.054 A 
BRANCH  80  81
ATOM     81  S   UNL A   1      41.979  19.426  26.039  1.00  0.00     0.124 S 
ATOM     82  O   UNL A   1      40.545  19.341  25.784  1.00  0.00    -0.237 OA
ATOM     83  O   UNL A   1      42.831  19.492  24.854  1.00  0.00    -0.237 OA
ATOM     84  O   UNL A   1      42.479  18.564  27.108  1.00  0.00    -0.744 OA
ENDBRANCH  80  81
ENDBRANCH  52  75
BRANCH  64  85
ATOM     85  C   UNL A   1      48.055  27.047  30.284  1.00  0.00    -0.014 A 
ATOM     86  C   UNL A   1      49.042  27.275  29.312  1.00  0.00     0.010 A 
ATOM     87  C   UNL A   1      48.430  26.536  31.541  1.00  0.00     0.010 A 
ATOM     88  C   UNL A   1      50.384  26.995  29.591  1.00  0.00     0.020 A 
ATOM     89  C   UNL A   1      49.771  26.274  31.830  1.00  0.00     0.020 A 
ATOM     90  C   UNL A   1      50.741  26.503  30.852  1.00  0.00     0.054 A 
BRANCH  90  91
ATOM     91  S   UNL A   1      52.497  26.239  31.223  1.00  0.00     0.124 S 
ATOM     92  O   UNL A   1      52.476  24.937  31.886  1.00  0.00    -0.237 OA
ATOM     93  O   UNL A   1      53.113  26.260  29.899  1.00  0.00    -0.237 OA
ATOM     94  O   UNL A   1      52.842  27.369  32.083  1.00  0.00    -0.744 OA
ENDBRANCH  90  91
ENDBRANCH  64  85
ENDBRANCH  38  39
ENDBRANCH  30  33
ENDBRANCH  28  29
ENDBRANCH  27  28
ENDBRANCH   1  27
TORSDOF 18
ENDMDL
MODEL 3
REMARK VINA RESULT:     -11.3      1.769      3.343
REMARK SMILES CC(=O)Nc1cccc(-c2cc(F)ccc2C(=O)NCCCCCCNC(=O)c2ccc(-c3c4nc(c(-c5ccc(S(=O)(=O)[O-])cc5)c5ccc([nH]5)c(-c5ccc(S(=O)(=O)[O-])cc5)c5nc(c(-c6ccc(S(=O)(=O)[O-])cc6)c6ccc3[nH]6)C=C5)C=C4)cc2)c1
REMARK SMILES IDX 23 1 22 2 21 3 20 4 19 5 17 6 18 7 16 9 10 10 11 11 12 12
REMARK SMILES IDX 15 13 13 14 14 15 9 16 5 17 6 18 89 19 7 20 8 21 4 22 1 23
REMARK SMILES IDX 2 24 3 25 24 27 25 28 26 29 27 30 28 32 29 33 30 34 88 35
REMARK SMILES IDX 31 36 87 37 32 38 33 39 34 40 81 41 35 42 86 43 80 44 82 45
REMARK SMILES IDX 36 46 85 47 79 48 78 49 37 51 67 52 48 53 66 54 49 55 52 56
REMARK SMILES IDX 65 57 83 58 50 59 51 60 64 62 84 63 53 64 38 65 39 66 47 67
REMARK SMILES IDX 40 68 46 69 41 70 42 71 43 72 44 73 45 74 68 75 69 76 77 77
REMARK SMILES IDX 70 78 76 79 71 80 72 81 73 82 74 83 75 84 54 85 55 86 63 87
REMARK SMILES IDX 56 88 62 89 57 90 58 91 59 92 60 93 61 94
REMARK H PARENT 19 8 4 26 26 31 82 50 52 61
REMARK Flexibility Score: inf
ROOT
ATOM      1  C   UNL A   1      35.010  23.249  23.481  1.00  0.00     0.002 C 
ENDROOT
BRANCH   1   2
ATOM      2  C   UNL A   1      34.124  24.467  23.186  1.00  0.00     0.002 C 
BRANCH   2   3
ATOM      3  C   UNL A   1      33.044  24.369  22.100  1.00  0.00     0.021 C 
BRANCH   3   4
ATOM      4  C   UNL A   1      32.497  25.659  21.498  1.00  0.00     0.116 C 
BRANCH   4   5
ATOM      5  N   UNL A   1      31.261  26.155  22.046  1.00  0.00    -0.352 N 
ATOM      6  C   UNL A   1      30.991  26.895  23.172  1.00  0.00     0.251 C 
ATOM      7  O   UNL A   1      29.824  27.292  23.277  1.00  0.00    -0.269 OA
ATOM      8  H   UNL A   1      30.464  25.923  21.517  1.00  0.00     0.163 HD
BRANCH   6   9
ATOM      9  C   UNL A   1      31.925  27.204  24.318  1.00  0.00     0.047 A 
ATOM     10  C   UNL A   1      32.201  26.468  25.500  1.00  0.00    -0.003 A 
ATOM     11  C   UNL A   1      33.214  26.949  26.374  1.00  0.00     0.048 A 
ATOM     12  C   UNL A   1      33.935  28.102  26.103  1.00  0.00     0.123 A 
ATOM     13  C   UNL A   1      32.691  28.380  24.080  1.00  0.00     0.017 A 
ATOM     14  F   UNL A   1      34.889  28.505  26.952  1.00  0.00    -0.207 F 
ATOM     15  C   UNL A   1      33.683  28.826  24.958  1.00  0.00     0.040 A 
BRANCH  10  16
ATOM     16  C   UNL A   1      31.556  25.216  25.927  1.00  0.00    -0.015 A 
ATOM     17  C   UNL A   1      31.603  22.811  26.313  1.00  0.00     0.041 A 
ATOM     18  C   UNL A   1      30.233  22.845  26.613  1.00  0.00     0.026 A 
ATOM     19  C   UNL A   1      32.263  24.005  25.999  1.00  0.00     0.034 A 
ATOM     20  C   UNL A   1      29.530  24.046  26.606  1.00  0.00     0.003 A 
ATOM     21  C   UNL A   1      30.189  25.224  26.269  1.00  0.00     0.009 A 
BRANCH  17  22
ATOM     22  N   UNL A   1      32.185  21.539  26.189  1.00  0.00    -0.326 N 
ATOM     23  C   UNL A   1      32.094  21.132  23.736  1.00  0.00     0.114 C 
ATOM     24  C   UNL A   1      32.252  20.658  25.153  1.00  0.00     0.221 C 
ATOM     25  O   UNL A   1      32.495  19.474  25.396  1.00  0.00    -0.275 OA
ATOM     26  H   UNL A   1      32.628  21.224  27.010  1.00  0.00     0.169 HD
ENDBRANCH  17  22
ENDBRANCH  10  16
ENDBRANCH   6   9
ENDBRANCH   4   5
ENDBRANCH   3   4
ENDBRANCH   2   3
ENDBRANCH   1   2
BRANCH   1  27
ATOM     27  C   UNL A   1      36.520  23.459  23.592  1.00  0.00     0.021 C 
BRANCH  27  28
ATOM     28  C   UNL A   1      37.097  23.736  24.975  1.00  0.00     0.116 C 
BRANCH  28  29
ATOM     29  N   UNL A   1      38.058  22.738  25.405  1.00  0.00    -0.352 N 
ATOM     30  C   UNL A   1      39.187  22.860  26.182  1.00  0.00     0.251 C 
ATOM     31  H   UNL A   1      37.870  21.824  25.091  1.00  0.00     0.163 HD
ATOM     32  O   UNL A   1      39.926  21.888  26.314  1.00  0.00    -0.269 OA
BRANCH  30  33
ATOM     33  C   UNL A   1      39.544  24.141  26.847  1.00  0.00     0.039 A 
ATOM     34  C   UNL A   1      40.409  25.022  26.184  1.00  0.00     0.014 A 
ATOM     35  C   UNL A   1      39.106  24.456  28.135  1.00  0.00     0.014 A 
ATOM     36  C   UNL A   1      40.792  26.229  26.786  1.00  0.00     0.010 A 
ATOM     37  C   UNL A   1      39.437  25.686  28.710  1.00  0.00     0.010 A 
ATOM     38  C   UNL A   1      40.293  26.581  28.048  1.00  0.00    -0.014 A 
BRANCH  38  39
ATOM     39  C   UNL A   1      40.685  27.848  28.727  1.00  0.00     0.031 A 
ATOM     40  C   UNL A   1      42.040  27.958  29.376  1.00  0.00     0.074 A 
ATOM     41  C   UNL A   1      39.810  28.868  28.836  1.00  0.00     0.049 A 
ATOM     42  N   UNL A   1      42.515  28.903  30.149  1.00  0.00    -0.248 NA
ATOM     43  C   UNL A   1      42.975  26.845  29.145  1.00  0.00     0.031 C 
ATOM     44  C   UNL A   1      38.470  28.904  28.249  1.00  0.00     0.029 A 
ATOM     45  N   UNL A   1      39.917  30.069  29.494  1.00  0.00    -0.354 N 
ATOM     46  C   UNL A   1      43.783  28.478  30.531  1.00  0.00     0.074 A 
ATOM     47  C   UNL A   1      43.994  27.182  29.923  1.00  0.00     0.031 C 
ATOM     48  C   UNL A   1      37.885  30.073  28.563  1.00  0.00     0.029 A 
ATOM     49  C   UNL A   1      38.786  30.849  29.411  1.00  0.00     0.049 A 
ATOM     50  H   UNL A   1      40.727  30.347  29.980  1.00  0.00     0.167 HD
ATOM     51  C   UNL A   1      44.692  29.109  31.313  1.00  0.00     0.031 A 
ATOM     52  C   UNL A   1      38.499  32.044  29.966  1.00  0.00     0.031 A 
ATOM     53  C   UNL A   1      44.499  30.413  31.888  1.00  0.00     0.049 A 
ATOM     54  C   UNL A   1      39.517  32.721  30.843  1.00  0.00     0.074 A 
ATOM     55  C   UNL A   1      45.387  31.158  32.644  1.00  0.00     0.029 A 
ATOM     56  N   UNL A   1      43.342  31.167  31.768  1.00  0.00    -0.354 N 
ATOM     57  N   UNL A   1      40.719  32.315  31.171  1.00  0.00    -0.248 NA
ATOM     58  C   UNL A   1      39.139  34.020  31.423  1.00  0.00     0.031 C 
ATOM     59  C   UNL A   1      44.751  32.347  33.018  1.00  0.00     0.029 A 
ATOM     60  C   UNL A   1      43.486  32.362  32.453  1.00  0.00     0.049 A 
ATOM     61  H   UNL A   1      42.538  30.894  31.271  1.00  0.00     0.167 HD
ATOM     62  C   UNL A   1      41.256  33.326  31.962  1.00  0.00     0.074 A 
ATOM     63  C   UNL A   1      40.248  34.357  32.071  1.00  0.00     0.031 C 
ATOM     64  C   UNL A   1      42.482  33.392  32.538  1.00  0.00     0.031 A 
BRANCH  51  65
ATOM     65  C   UNL A   1      45.973  28.378  31.615  1.00  0.00    -0.014 A 
ATOM     66  C   UNL A   1      47.086  28.466  30.761  1.00  0.00     0.010 A 
ATOM     67  C   UNL A   1      46.069  27.607  32.788  1.00  0.00     0.010 A 
ATOM     68  C   UNL A   1      48.252  27.749  31.044  1.00  0.00     0.020 A 
ATOM     69  C   UNL A   1      47.242  26.910  33.090  1.00  0.00     0.020 A 
ATOM     70  C   UNL A   1      48.318  26.967  32.202  1.00  0.00     0.054 A 
BRANCH  70  71
ATOM     71  S   UNL A   1      49.838  26.037  32.543  1.00  0.00     0.124 S 
ATOM     72  O   UNL A   1      49.334  24.670  32.651  1.00  0.00    -0.237 OA
ATOM     73  O   UNL A   1      50.658  26.314  31.367  1.00  0.00    -0.237 OA
ATOM     74  O   UNL A   1      50.327  26.621  33.791  1.00  0.00    -0.744 OA
ENDBRANCH  70  71
ENDBRANCH  51  65
BRANCH  52  75
ATOM     75  C   UNL A   1      37.186  32.688  29.691  1.00  0.00    -0.014 A 
ATOM     76  C   UNL A   1      36.111  32.506  30.578  1.00  0.00     0.010 A 
ATOM     77  C   UNL A   1      37.009  33.503  28.558  1.00  0.00     0.010 A 
ATOM     78  C   UNL A   1      34.880  33.123  30.337  1.00  0.00     0.020 A 
ATOM     79  C   UNL A   1      35.786  34.140  28.325  1.00  0.00     0.020 A 
ATOM     80  C   UNL A   1      34.726  33.939  29.213  1.00  0.00     0.054 A 
BRANCH  80  81
ATOM     81  S   UNL A   1      33.141  34.784  28.954  1.00  0.00     0.124 S 
ATOM     82  O   UNL A   1      32.463  33.881  28.030  1.00  0.00    -0.237 OA
ATOM     83  O   UNL A   1      32.589  34.839  30.306  1.00  0.00    -0.237 OA
ATOM     84  O   UNL A   1      33.531  36.077  28.397  1.00  0.00    -0.744 OA
ENDBRANCH  80  81
ENDBRANCH  52  75
BRANCH  64  85
ATOM     85  C   UNL A   1      42.840  34.641  33.295  1.00  0.00    -0.014 A 
ATOM     86  C   UNL A   1      42.719  34.709  34.692  1.00  0.00     0.010 A 
ATOM     87  C   UNL A   1      43.414  35.724  32.600  1.00  0.00     0.010 A 
ATOM     88  C   UNL A   1      43.163  35.840  35.384  1.00  0.00     0.020 A 
ATOM     89  C   UNL A   1      43.877  36.846  33.290  1.00  0.00     0.020 A 
ATOM     90  C   UNL A   1      43.747  36.899  34.679  1.00  0.00     0.054 A 
BRANCH  90  91
ATOM     91  S   UNL A   1      44.403  38.313  35.607  1.00  0.00     0.124 S 
ATOM     92  O   UNL A   1      43.772  38.139  36.913  1.00  0.00    -0.237 OA
ATOM     93  O   UNL A   1      45.845  38.080  35.570  1.00  0.00    -0.237 OA
ATOM     94  O   UNL A   1      43.946  39.471  34.843  1.00  0.00    -0.744 OA
ENDBRANCH  90  91
ENDBRANCH  64  85
ENDBRANCH  38  39
ENDBRANCH  30  33
ENDBRANCH  28  29
ENDBRANCH  27  28
ENDBRANCH   1  27
TORSDOF 18
ENDMDL
