MODEL 1
REMARK VINA RESULT:     -10.9      0.000      0.000
REMARK SMILES CC(C)[C@@H]1C(=O)Nc2ccccc2N1C(=O)N[C@H](Cc1ccccc1)C(=O)NCCCCCCNC(=O)c1ccc(-c2c3nc(c(-c4ccc(S(=O)(=O)[O-])cc4)c4ccc([nH]4)c(-c4ccc(S(=O)(=O)[O-])cc4)c4nc(c(-c5ccc(S(=O)(=O)[O-])cc5)c5ccc2[nH]5)C=C4)C=C3)cc1
REMARK SMILES IDX 31 1 30 2 29 3 28 4 26 5 27 6 18 8 17 9 15 10 16 11 14 13
REMARK SMILES IDX 4 14 5 15 6 16 7 17 13 18 8 19 12 21 9 22 11 23 10 24 2 25
REMARK SMILES IDX 1 26 3 27 19 28 20 29 21 30 25 31 22 32 24 33 23 34 32 35
REMARK SMILES IDX 33 36 34 37 35 38 36 39 37 41 38 42 39 43 97 44 40 45 96 46
REMARK SMILES IDX 41 47 42 48 43 49 90 50 44 51 95 52 89 53 91 54 45 55 94 56
REMARK SMILES IDX 88 57 87 58 46 60 76 61 57 62 75 63 58 64 61 65 74 66 92 67
REMARK SMILES IDX 59 68 60 69 73 71 93 72 62 73 47 74 48 75 56 76 49 77 55 78
REMARK SMILES IDX 50 79 51 80 52 81 53 82 54 83 77 84 78 85 86 86 79 87 85 88
REMARK SMILES IDX 80 89 81 90 82 91 83 92 84 93 63 94 64 95 72 96 65 97 71 98
REMARK SMILES IDX 66 99 67 100 68 101 69 102 70 103
REMARK H PARENT 28 7 17 12 7 20 35 40 91 59 61 70
REMARK Flexibility Score: inf
ROOT
ATOM      1  C   UNL A   1      34.382  31.278  28.195  1.00  0.00     0.002 C 
ENDROOT
BRANCH   1   2
ATOM      2  C   UNL A   1      33.837  30.451  27.014  1.00  0.00     0.021 C 
BRANCH   2   3
ATOM      3  C   UNL A   1      32.291  30.213  26.815  1.00  0.00     0.116 C 
BRANCH   3   4
ATOM      4  N   UNL A   1      31.851  29.002  26.072  1.00  0.00    -0.354 N 
ATOM      5  C   UNL A   1      31.559  27.760  26.653  1.00  0.00     0.242 C 
ATOM      6  O   UNL A   1      31.198  27.773  27.844  1.00  0.00    -0.273 OA
ATOM      7  H   UNL A   1      31.758  29.078  25.095  1.00  0.00     0.163 HD
BRANCH   5   8
ATOM      8  C   UNL A   1      31.939  26.244  25.989  1.00  0.00     0.177 C 
BRANCH   8   9
ATOM      9  N   UNL A   1      30.564  25.882  25.820  1.00  0.00    -0.326 N 
ATOM     10  C   UNL A   1      29.825  26.304  24.779  1.00  0.00     0.323 C 
ATOM     11  O   UNL A   1      28.609  26.291  25.000  1.00  0.00    -0.248 OA
ATOM     12  H   UNL A   1      30.142  25.301  26.493  1.00  0.00     0.166 HD
BRANCH  10  13
ATOM     13  N   UNL A   1      30.392  26.568  23.539  1.00  0.00    -0.280 N 
ATOM     14  C   UNL A   1      31.618  26.102  22.608  1.00  0.00     0.184 C 
ATOM     15  C   UNL A   1      32.579  27.330  22.615  1.00  0.00     0.247 C 
ATOM     16  O   UNL A   1      33.806  27.242  22.625  1.00  0.00    -0.272 OA
ATOM     17  N   UNL A   1      31.993  28.547  22.358  1.00  0.00    -0.322 N 
ATOM     18  C   UNL A   1      29.802  27.790  23.014  1.00  0.00     0.070 A 
ATOM     19  C   UNL A   1      30.613  28.755  22.425  1.00  0.00     0.065 A 
ATOM     20  H   UNL A   1      32.572  29.306  22.116  1.00  0.00     0.170 HD
ATOM     21  C   UNL A   1      28.409  28.010  23.096  1.00  0.00     0.028 A 
ATOM     22  C   UNL A   1      30.050  29.938  21.944  1.00  0.00     0.028 A 
ATOM     23  C   UNL A   1      27.842  29.168  22.576  1.00  0.00     0.002 A 
ATOM     24  C   UNL A   1      28.665  30.131  22.001  1.00  0.00     0.002 A 
BRANCH  14  25
ATOM     25  C   UNL A   1      32.574  24.732  22.432  1.00  0.00     0.015 C 
ATOM     26  C   UNL A   1      32.365  23.236  22.838  1.00  0.00     0.010 C 
ATOM     27  C   UNL A   1      32.876  24.549  20.912  1.00  0.00     0.010 C 
ENDBRANCH  14  25
ENDBRANCH  10  13
ENDBRANCH   8   9
BRANCH   8  28
ATOM     28  C   UNL A   1      32.512  24.781  26.294  1.00  0.00     0.070 C 
BRANCH  28  29
ATOM     29  C   UNL A   1      33.898  24.186  26.125  1.00  0.00    -0.045 A 
ATOM     30  C   UNL A   1      34.138  22.872  26.592  1.00  0.00     0.004 A 
ATOM     31  C   UNL A   1      34.837  24.743  25.256  1.00  0.00     0.004 A 
ATOM     32  C   UNL A   1      35.303  22.173  26.277  1.00  0.00     0.000 A 
ATOM     33  C   UNL A   1      35.989  24.023  24.903  1.00  0.00     0.000 A 
ATOM     34  C   UNL A   1      36.230  22.751  25.425  1.00  0.00     0.000 A 
ENDBRANCH  28  29
ENDBRANCH   8  28
ENDBRANCH   5   8
ENDBRANCH   3   4
ENDBRANCH   2   3
ENDBRANCH   1   2
BRANCH   1  35
ATOM     35  C   UNL A   1      35.288  32.492  27.776  1.00  0.00     0.002 C 
BRANCH  35  36
ATOM     36  C   UNL A   1      34.623  33.885  27.787  1.00  0.00     0.021 C 
BRANCH  36  37
ATOM     37  C   UNL A   1      33.126  33.933  28.143  1.00  0.00     0.116 C 
BRANCH  37  38
ATOM     38  N   UNL A   1      32.820  34.637  29.376  1.00  0.00    -0.352 N 
ATOM     39  C   UNL A   1      33.400  34.682  30.620  1.00  0.00     0.251 C 
ATOM     40  H   UNL A   1      32.021  35.207  29.304  1.00  0.00     0.163 HD
ATOM     41  O   UNL A   1      32.792  35.298  31.499  1.00  0.00    -0.269 OA
BRANCH  39  42
ATOM     42  C   UNL A   1      34.697  34.041  30.979  1.00  0.00     0.039 A 
ATOM     43  C   UNL A   1      34.644  32.787  31.611  1.00  0.00     0.014 A 
ATOM     44  C   UNL A   1      35.936  34.674  30.872  1.00  0.00     0.014 A 
ATOM     45  C   UNL A   1      35.803  32.178  32.118  1.00  0.00     0.010 A 
ATOM     46  C   UNL A   1      37.107  34.033  31.318  1.00  0.00     0.010 A 
ATOM     47  C   UNL A   1      37.055  32.790  31.972  1.00  0.00    -0.014 A 
BRANCH  47  48
ATOM     48  C   UNL A   1      38.291  32.179  32.557  1.00  0.00     0.031 A 
ATOM     49  C   UNL A   1      38.716  32.516  33.970  1.00  0.00     0.074 A 
ATOM     50  C   UNL A   1      39.057  31.341  31.828  1.00  0.00     0.049 A 
ATOM     51  N   UNL A   1      39.798  32.160  34.620  1.00  0.00    -0.248 NA
ATOM     52  C   UNL A   1      37.817  33.386  34.746  1.00  0.00     0.031 C 
ATOM     53  C   UNL A   1      38.786  30.925  30.451  1.00  0.00     0.029 A 
ATOM     54  N   UNL A   1      40.229  30.690  32.142  1.00  0.00    -0.354 N 
ATOM     55  C   UNL A   1      39.729  32.793  35.858  1.00  0.00     0.074 A 
ATOM     56  C   UNL A   1      38.516  33.582  35.855  1.00  0.00     0.031 C 
ATOM     57  C   UNL A   1      39.748  30.078  30.047  1.00  0.00     0.029 A 
ATOM     58  C   UNL A   1      40.730  29.921  31.116  1.00  0.00     0.049 A 
ATOM     59  H   UNL A   1      40.668  30.768  33.019  1.00  0.00     0.167 HD
ATOM     60  C   UNL A   1      40.582  32.717  36.909  1.00  0.00     0.031 A 
ATOM     61  C   UNL A   1      41.855  29.182  31.032  1.00  0.00     0.031 A 
ATOM     62  C   UNL A   1      41.768  31.900  36.936  1.00  0.00     0.049 A 
ATOM     63  C   UNL A   1      42.786  29.105  32.213  1.00  0.00     0.074 A 
ATOM     64  C   UNL A   1      42.660  31.713  37.980  1.00  0.00     0.029 A 
ATOM     65  N   UNL A   1      42.226  31.130  35.879  1.00  0.00    -0.354 N 
ATOM     66  N   UNL A   1      42.680  29.685  33.385  1.00  0.00    -0.248 NA
ATOM     67  C   UNL A   1      43.986  28.268  32.063  1.00  0.00     0.031 C 
ATOM     68  C   UNL A   1      43.680  30.864  37.539  1.00  0.00     0.029 A 
ATOM     69  C   UNL A   1      43.396  30.479  36.239  1.00  0.00     0.049 A 
ATOM     70  H   UNL A   1      41.785  31.054  35.002  1.00  0.00     0.167 HD
ATOM     71  C   UNL A   1      43.784  29.262  34.119  1.00  0.00     0.074 A 
ATOM     72  C   UNL A   1      44.538  28.367  33.265  1.00  0.00     0.031 C 
ATOM     73  C   UNL A   1      44.138  29.587  35.386  1.00  0.00     0.031 A 
BRANCH  60  74
ATOM     74  C   UNL A   1      40.272  33.553  38.127  1.00  0.00    -0.014 A 
ATOM     75  C   UNL A   1      40.792  34.852  38.273  1.00  0.00     0.010 A 
ATOM     76  C   UNL A   1      39.410  33.049  39.117  1.00  0.00     0.010 A 
ATOM     77  C   UNL A   1      40.497  35.610  39.410  1.00  0.00     0.020 A 
ATOM     78  C   UNL A   1      39.088  33.815  40.243  1.00  0.00     0.020 A 
ATOM     79  C   UNL A   1      39.651  35.084  40.391  1.00  0.00     0.054 A 
BRANCH  79  80
ATOM     80  S   UNL A   1      39.277  36.094  41.851  1.00  0.00     0.124 S 
ATOM     81  O   UNL A   1      37.987  35.552  42.268  1.00  0.00    -0.237 OA
ATOM     82  O   UNL A   1      40.398  35.801  42.741  1.00  0.00    -0.237 OA
ATOM     83  O   UNL A   1      39.240  37.458  41.330  1.00  0.00    -0.744 OA
ENDBRANCH  79  80
ENDBRANCH  60  74
BRANCH  61  84
ATOM     84  C   UNL A   1      42.165  28.443  29.776  1.00  0.00    -0.014 A 
ATOM     85  C   UNL A   1      42.854  29.075  28.727  1.00  0.00     0.010 A 
ATOM     86  C   UNL A   1      41.782  27.096  29.628  1.00  0.00     0.010 A 
ATOM     87  C   UNL A   1      43.148  28.379  27.549  1.00  0.00     0.020 A 
ATOM     88  C   UNL A   1      42.098  26.389  28.464  1.00  0.00     0.020 A 
ATOM     89  C   UNL A   1      42.771  27.038  27.428  1.00  0.00     0.054 A 
BRANCH  89  90
ATOM     90  S   UNL A   1      43.213  26.142  25.912  1.00  0.00     0.124 S 
ATOM     91  O   UNL A   1      44.646  26.028  26.024  1.00  0.00    -0.237 OA
ATOM     92  O   UNL A   1      42.452  24.894  26.056  1.00  0.00    -0.237 OA
ATOM     93  O   UNL A   1      42.722  27.026  24.844  1.00  0.00    -0.744 OA
ENDBRANCH  89  90
ENDBRANCH  61  84
BRANCH  73  94
ATOM     94  C   UNL A   1      45.379  28.947  35.951  1.00  0.00    -0.014 A 
ATOM     95  C   UNL A   1      46.631  29.579  35.862  1.00  0.00     0.010 A 
ATOM     96  C   UNL A   1      45.277  27.724  36.640  1.00  0.00     0.010 A 
ATOM     97  C   UNL A   1      47.764  28.988  36.430  1.00  0.00     0.020 A 
ATOM     98  C   UNL A   1      46.402  27.142  37.231  1.00  0.00     0.020 A 
ATOM     99  C   UNL A   1      47.641  27.772  37.112  1.00  0.00     0.054 A 
BRANCH  99 100
ATOM    100  S   UNL A   1      49.116  27.052  37.886  1.00  0.00     0.124 S 
ATOM    101  O   UNL A   1      48.768  27.098  39.304  1.00  0.00    -0.237 OA
ATOM    102  O   UNL A   1      49.171  25.717  37.294  1.00  0.00    -0.237 OA
ATOM    103  O   UNL A   1      50.194  27.951  37.479  1.00  0.00    -0.744 OA
ENDBRANCH  99 100
ENDBRANCH  73  94
ENDBRANCH  47  48
ENDBRANCH  39  42
ENDBRANCH  37  38
ENDBRANCH  36  37
ENDBRANCH  35  36
ENDBRANCH   1  35
TORSDOF 21
ENDMDL
MODEL 2
REMARK VINA RESULT:     -10.8      0.980      7.737
REMARK SMILES CC(C)[C@@H]1C(=O)Nc2ccccc2N1C(=O)N[C@H](Cc1ccccc1)C(=O)NCCCCCCNC(=O)c1ccc(-c2c3nc(c(-c4ccc(S(=O)(=O)[O-])cc4)c4ccc([nH]4)c(-c4ccc(S(=O)(=O)[O-])cc4)c4nc(c(-c5ccc(S(=O)(=O)[O-])cc5)c5ccc2[nH]5)C=C4)C=C3)cc1
REMARK SMILES IDX 31 1 30 2 29 3 28 4 26 5 27 6 18 8 17 9 15 10 16 11 14 13
REMARK SMILES IDX 4 14 5 15 6 16 7 17 13 18 8 19 12 21 9 22 11 23 10 24 2 25
REMARK SMILES IDX 1 26 3 27 19 28 20 29 21 30 25 31 22 32 24 33 23 34 32 35
REMARK SMILES IDX 33 36 34 37 35 38 36 39 37 41 38 42 39 43 97 44 40 45 96 46
REMARK SMILES IDX 41 47 42 48 43 49 90 50 44 51 95 52 89 53 91 54 45 55 94 56
REMARK SMILES IDX 88 57 87 58 46 60 76 61 57 62 75 63 58 64 61 65 74 66 92 67
REMARK SMILES IDX 59 68 60 69 73 71 93 72 62 73 47 74 48 75 56 76 49 77 55 78
REMARK SMILES IDX 50 79 51 80 52 81 53 82 54 83 77 84 78 85 86 86 79 87 85 88
REMARK SMILES IDX 80 89 81 90 82 91 83 92 84 93 63 94 64 95 72 96 65 97 71 98
REMARK SMILES IDX 66 99 67 100 68 101 69 102 70 103
REMARK H PARENT 28 7 17 12 7 20 35 40 91 59 61 70
REMARK Flexibility Score: inf
ROOT
ATOM      1  C   UNL A   1      34.384  31.934  28.470  1.00  0.00     0.002 C 
ENDROOT
BRANCH   1   2
ATOM      2  C   UNL A   1      33.909  31.062  27.290  1.00  0.00     0.021 C 
BRANCH   2   3
ATOM      3  C   UNL A   1      32.402  30.620  27.145  1.00  0.00     0.116 C 
BRANCH   3   4
ATOM      4  N   UNL A   1      32.091  29.436  26.300  1.00  0.00    -0.354 N 
ATOM      5  C   UNL A   1      32.167  28.101  26.720  1.00  0.00     0.242 C 
ATOM      6  O   UNL A   1      32.032  27.891  27.939  1.00  0.00    -0.273 OA
ATOM      7  H   UNL A   1      31.809  29.603  25.372  1.00  0.00     0.163 HD
BRANCH   5   8
ATOM      8  C   UNL A   1      32.721  26.799  25.781  1.00  0.00     0.177 C 
BRANCH   8   9
ATOM      9  N   UNL A   1      31.535  26.028  26.004  1.00  0.00    -0.326 N 
ATOM     10  C   UNL A   1      30.550  25.932  25.093  1.00  0.00     0.323 C 
ATOM     11  O   UNL A   1      29.455  25.630  25.582  1.00  0.00    -0.248 OA
ATOM     12  H   UNL A   1      31.436  25.549  26.858  1.00  0.00     0.166 HD
BRANCH  10  13
ATOM     13  N   UNL A   1      30.803  26.011  23.730  1.00  0.00    -0.280 N 
ATOM     14  C   UNL A   1      31.705  25.321  22.591  1.00  0.00     0.184 C 
ATOM     15  C   UNL A   1      32.742  26.425  22.217  1.00  0.00     0.247 C 
ATOM     16  O   UNL A   1      33.918  26.196  21.938  1.00  0.00    -0.272 OA
ATOM     17  N   UNL A   1      32.220  27.673  21.967  1.00  0.00    -0.322 N 
ATOM     18  C   UNL A   1      30.210  27.239  23.224  1.00  0.00     0.070 A 
ATOM     19  C   UNL A   1      30.927  28.044  22.343  1.00  0.00     0.065 A 
ATOM     20  H   UNL A   1      32.784  28.333  21.503  1.00  0.00     0.170 HD
ATOM     21  C   UNL A   1      28.909  27.626  23.615  1.00  0.00     0.028 A 
ATOM     22  C   UNL A   1      30.368  29.234  21.876  1.00  0.00     0.028 A 
ATOM     23  C   UNL A   1      28.334  28.788  23.115  1.00  0.00     0.002 A 
ATOM     24  C   UNL A   1      29.066  29.592  22.246  1.00  0.00     0.002 A 
BRANCH  14  25
ATOM     25  C   UNL A   1      32.459  23.839  22.353  1.00  0.00     0.015 C 
ATOM     26  C   UNL A   1      33.926  23.350  22.583  1.00  0.00     0.010 C 
ATOM     27  C   UNL A   1      31.694  22.770  23.196  1.00  0.00     0.010 C 
ENDBRANCH  14  25
ENDBRANCH  10  13
ENDBRANCH   8   9
BRANCH   8  28
ATOM     28  C   UNL A   1      33.758  25.582  25.701  1.00  0.00     0.070 C 
BRANCH  28  29
ATOM     29  C   UNL A   1      33.664  24.146  26.184  1.00  0.00    -0.045 A 
ATOM     30  C   UNL A   1      34.780  23.294  26.008  1.00  0.00     0.004 A 
ATOM     31  C   UNL A   1      32.668  23.729  27.068  1.00  0.00     0.004 A 
ATOM     32  C   UNL A   1      34.863  22.042  26.617  1.00  0.00     0.000 A 
ATOM     33  C   UNL A   1      32.772  22.489  27.717  1.00  0.00     0.000 A 
ATOM     34  C   UNL A   1      33.855  21.641  27.479  1.00  0.00     0.000 A 
ENDBRANCH  28  29
ENDBRANCH   8  28
ENDBRANCH   5   8
ENDBRANCH   3   4
ENDBRANCH   2   3
ENDBRANCH   1   2
BRANCH   1  35
ATOM     35  C   UNL A   1      35.202  33.208  28.048  1.00  0.00     0.002 C 
BRANCH  35  36
ATOM     36  C   UNL A   1      34.509  34.572  28.253  1.00  0.00     0.021 C 
BRANCH  36  37
ATOM     37  C   UNL A   1      33.005  34.540  28.581  1.00  0.00     0.116 C 
BRANCH  37  38
ATOM     38  N   UNL A   1      32.657  35.106  29.873  1.00  0.00    -0.352 N 
ATOM     39  C   UNL A   1      33.204  35.026  31.131  1.00  0.00     0.251 C 
ATOM     40  H   UNL A   1      31.851  35.670  29.840  1.00  0.00     0.163 HD
ATOM     41  O   UNL A   1      32.563  35.538  32.053  1.00  0.00    -0.269 OA
BRANCH  39  42
ATOM     42  C   UNL A   1      34.500  34.367  31.456  1.00  0.00     0.039 A 
ATOM     43  C   UNL A   1      34.446  33.103  32.069  1.00  0.00     0.014 A 
ATOM     44  C   UNL A   1      35.744  34.989  31.335  1.00  0.00     0.014 A 
ATOM     45  C   UNL A   1      35.608  32.475  32.544  1.00  0.00     0.010 A 
ATOM     46  C   UNL A   1      36.916  34.330  31.750  1.00  0.00     0.010 A 
ATOM     47  C   UNL A   1      36.864  33.077  32.385  1.00  0.00    -0.014 A 
BRANCH  47  48
ATOM     48  C   UNL A   1      38.103  32.445  32.937  1.00  0.00     0.031 A 
ATOM     49  C   UNL A   1      38.821  31.363  32.161  1.00  0.00     0.074 A 
ATOM     50  C   UNL A   1      38.585  32.810  34.144  1.00  0.00     0.049 A 
ATOM     51  N   UNL A   1      39.855  30.634  32.510  1.00  0.00    -0.248 NA
ATOM     52  C   UNL A   1      38.293  31.041  30.825  1.00  0.00     0.031 C 
ATOM     53  C   UNL A   1      38.002  33.831  35.017  1.00  0.00     0.029 A 
ATOM     54  N   UNL A   1      39.676  32.358  34.852  1.00  0.00    -0.354 N 
ATOM     55  C   UNL A   1      40.073  29.747  31.460  1.00  0.00     0.074 A 
ATOM     56  C   UNL A   1      39.043  30.004  30.477  1.00  0.00     0.031 C 
ATOM     57  C   UNL A   1      38.749  33.941  36.128  1.00  0.00     0.029 A 
ATOM     58  C   UNL A   1      39.839  32.971  36.074  1.00  0.00     0.049 A 
ATOM     59  H   UNL A   1      40.282  31.660  34.515  1.00  0.00     0.167 HD
ATOM     60  C   UNL A   1      41.045  28.813  31.314  1.00  0.00     0.031 A 
ATOM     61  C   UNL A   1      40.750  32.773  37.049  1.00  0.00     0.031 A 
ATOM     62  C   UNL A   1      42.099  28.581  32.268  1.00  0.00     0.049 A 
ATOM     63  C   UNL A   1      41.826  31.736  36.864  1.00  0.00     0.074 A 
ATOM     64  C   UNL A   1      43.163  27.698  32.176  1.00  0.00     0.029 A 
ATOM     65  N   UNL A   1      42.229  29.235  33.482  1.00  0.00    -0.354 N 
ATOM     66  N   UNL A   1      42.031  30.934  35.846  1.00  0.00    -0.248 NA
ATOM     67  C   UNL A   1      42.798  31.583  37.956  1.00  0.00     0.031 C 
ATOM     68  C   UNL A   1      43.912  27.788  33.353  1.00  0.00     0.029 A 
ATOM     69  C   UNL A   1      43.345  28.765  34.156  1.00  0.00     0.049 A 
ATOM     70  H   UNL A   1      41.620  29.932  33.817  1.00  0.00     0.167 HD
ATOM     71  C   UNL A   1      43.170  30.201  36.165  1.00  0.00     0.074 A 
ATOM     72  C   UNL A   1      43.617  30.663  37.463  1.00  0.00     0.031 C 
ATOM     73  C   UNL A   1      43.787  29.233  35.445  1.00  0.00     0.031 A 
BRANCH  60  74
ATOM     74  C   UNL A   1      41.013  27.955  30.073  1.00  0.00    -0.014 A 
ATOM     75  C   UNL A   1      42.047  28.008  29.120  1.00  0.00     0.010 A 
ATOM     76  C   UNL A   1      39.955  27.047  29.880  1.00  0.00     0.010 A 
ATOM     77  C   UNL A   1      41.998  27.208  27.975  1.00  0.00     0.020 A 
ATOM     78  C   UNL A   1      39.916  26.224  28.750  1.00  0.00     0.020 A 
ATOM     79  C   UNL A   1      40.929  26.325  27.794  1.00  0.00     0.054 A 
BRANCH  79  80
ATOM     80  S   UNL A   1      40.896  25.291  26.303  1.00  0.00     0.124 S 
ATOM     81  O   UNL A   1      39.498  24.873  26.259  1.00  0.00    -0.237 OA
ATOM     82  O   UNL A   1      41.306  26.223  25.256  1.00  0.00    -0.237 OA
ATOM     83  O   UNL A   1      41.854  24.228  26.597  1.00  0.00    -0.744 OA
ENDBRANCH  79  80
ENDBRANCH  60  74
BRANCH  61  84
ATOM     84  C   UNL A   1      40.688  33.585  38.296  1.00  0.00    -0.014 A 
ATOM     85  C   UNL A   1      39.947  33.138  39.404  1.00  0.00     0.010 A 
ATOM     86  C   UNL A   1      41.384  34.806  38.388  1.00  0.00     0.010 A 
ATOM     87  C   UNL A   1      39.894  33.899  40.576  1.00  0.00     0.020 A 
ATOM     88  C   UNL A   1      41.356  35.555  39.568  1.00  0.00     0.020 A 
ATOM     89  C   UNL A   1      40.602  35.101  40.652  1.00  0.00     0.054 A 
BRANCH  89  90
ATOM     90  S   UNL A   1      40.560  36.042  42.203  1.00  0.00     0.124 S 
ATOM     91  O   UNL A   1      39.186  36.475  42.268  1.00  0.00    -0.237 OA
ATOM     92  O   UNL A   1      40.967  35.034  43.190  1.00  0.00    -0.237 OA
ATOM     93  O   UNL A   1      41.555  37.102  41.982  1.00  0.00    -0.744 OA
ENDBRANCH  89  90
ENDBRANCH  61  84
BRANCH  73  94
ATOM     94  C   UNL A   1      45.039  28.624  36.020  1.00  0.00    -0.014 A 
ATOM     95  C   UNL A   1      44.987  27.471  36.823  1.00  0.00     0.010 A 
ATOM     96  C   UNL A   1      46.292  29.178  35.698  1.00  0.00     0.010 A 
ATOM     97  C   UNL A   1      46.164  26.897  37.313  1.00  0.00     0.020 A 
ATOM     98  C   UNL A   1      47.472  28.593  36.164  1.00  0.00     0.020 A 
ATOM     99  C   UNL A   1      47.400  27.462  36.980  1.00  0.00     0.054 A 
BRANCH  99 100
ATOM    100  S   UNL A   1      48.916  26.669  37.584  1.00  0.00     0.124 S 
ATOM    101  O   UNL A   1      49.425  27.663  38.525  1.00  0.00    -0.237 OA
ATOM    102  O   UNL A   1      48.415  25.433  38.183  1.00  0.00    -0.237 OA
ATOM    103  O   UNL A   1      49.717  26.487  36.375  1.00  0.00    -0.744 OA
ENDBRANCH  99 100
ENDBRANCH  73  94
ENDBRANCH  47  48
ENDBRANCH  39  42
ENDBRANCH  37  38
ENDBRANCH  36  37
ENDBRANCH  35  36
ENDBRANCH   1  35
TORSDOF 21
ENDMDL
MODEL 3
REMARK VINA RESULT:     -10.5      5.969      8.311
REMARK SMILES CC(C)[C@@H]1C(=O)Nc2ccccc2N1C(=O)N[C@H](Cc1ccccc1)C(=O)NCCCCCCNC(=O)c1ccc(-c2c3nc(c(-c4ccc(S(=O)(=O)[O-])cc4)c4ccc([nH]4)c(-c4ccc(S(=O)(=O)[O-])cc4)c4nc(c(-c5ccc(S(=O)(=O)[O-])cc5)c5ccc2[nH]5)C=C4)C=C3)cc1
REMARK SMILES IDX 31 1 30 2 29 3 28 4 26 5 27 6 18 8 17 9 15 10 16 11 14 13
REMARK SMILES IDX 4 14 5 15 6 16 7 17 13 18 8 19 12 21 9 22 11 23 10 24 2 25
REMARK SMILES IDX 1 26 3 27 19 28 20 29 21 30 25 31 22 32 24 33 23 34 32 35
REMARK SMILES IDX 33 36 34 37 35 38 36 39 37 41 38 42 39 43 97 44 40 45 96 46
REMARK SMILES IDX 41 47 42 48 43 49 90 50 44 51 95 52 89 53 91 54 45 55 94 56
REMARK SMILES IDX 88 57 87 58 46 60 76 61 57 62 75 63 58 64 61 65 74 66 92 67
REMARK SMILES IDX 59 68 60 69 73 71 93 72 62 73 47 74 48 75 56 76 49 77 55 78
REMARK SMILES IDX 50 79 51 80 52 81 53 82 54 83 77 84 78 85 86 86 79 87 85 88
REMARK SMILES IDX 80 89 81 90 82 91 83 92 84 93 63 94 64 95 72 96 65 97 71 98
REMARK SMILES IDX 66 99 67 100 68 101 69 102 70 103
REMARK H PARENT 28 7 17 12 7 20 35 40 91 59 61 70
REMARK Flexibility Score: inf
ROOT
ATOM      1  C   UNL A   1      33.424  32.782  27.950  1.00  0.00     0.002 C 
ENDROOT
BRANCH   1   2
ATOM      2  C   UNL A   1      33.274  31.460  27.170  1.00  0.00     0.021 C 
BRANCH   2   3
ATOM      3  C   UNL A   1      31.954  30.602  27.244  1.00  0.00     0.116 C 
BRANCH   3   4
ATOM      4  N   UNL A   1      31.760  29.513  26.249  1.00  0.00    -0.354 N 
ATOM      5  C   UNL A   1      31.838  28.142  26.527  1.00  0.00     0.242 C 
ATOM      6  O   UNL A   1      31.594  27.796  27.698  1.00  0.00    -0.273 OA
ATOM      7  H   UNL A   1      31.563  29.777  25.321  1.00  0.00     0.163 HD
BRANCH   5   8
ATOM      8  C   UNL A   1      32.518  26.964  25.511  1.00  0.00     0.177 C 
BRANCH   8   9
ATOM      9  N   UNL A   1      31.305  26.205  25.442  1.00  0.00    -0.326 N 
ATOM     10  C   UNL A   1      30.374  26.408  24.493  1.00  0.00     0.323 C 
ATOM     11  O   UNL A   1      29.246  26.021  24.818  1.00  0.00    -0.248 OA
ATOM     12  H   UNL A   1      31.146  25.507  26.118  1.00  0.00     0.166 HD
BRANCH  10  13
ATOM     13  N   UNL A   1      30.711  26.863  23.225  1.00  0.00    -0.280 N 
ATOM     14  C   UNL A   1      31.827  26.656  22.086  1.00  0.00     0.184 C 
ATOM     15  C   UNL A   1      32.626  27.996  22.099  1.00  0.00     0.247 C 
ATOM     16  O   UNL A   1      33.842  28.073  21.929  1.00  0.00    -0.272 OA
ATOM     17  N   UNL A   1      31.867  29.143  22.066  1.00  0.00    -0.322 N 
ATOM     18  C   UNL A   1      29.906  28.039  22.930  1.00  0.00     0.070 A 
ATOM     19  C   UNL A   1      30.499  29.156  22.347  1.00  0.00     0.065 A 
ATOM     20  H   UNL A   1      32.308  29.991  21.834  1.00  0.00     0.170 HD
ATOM     21  C   UNL A   1      28.526  28.061  23.228  1.00  0.00     0.028 A 
ATOM     22  C   UNL A   1      29.732  30.292  22.087  1.00  0.00     0.028 A 
ATOM     23  C   UNL A   1      27.753  29.177  22.927  1.00  0.00     0.002 A 
ATOM     24  C   UNL A   1      28.359  30.292  22.357  1.00  0.00     0.002 A 
BRANCH  14  25
ATOM     25  C   UNL A   1      32.901  25.450  21.625  1.00  0.00     0.015 C 
ATOM     26  C   UNL A   1      33.089  23.968  22.085  1.00  0.00     0.010 C 
ATOM     27  C   UNL A   1      32.742  25.226  20.088  1.00  0.00     0.010 C 
ENDBRANCH  14  25
ENDBRANCH  10  13
ENDBRANCH   8   9
BRANCH   8  28
ATOM     28  C   UNL A   1      33.544  25.739  25.421  1.00  0.00     0.070 C 
BRANCH  28  29
ATOM     29  C   UNL A   1      33.489  24.334  25.994  1.00  0.00    -0.045 A 
ATOM     30  C   UNL A   1      34.653  23.531  25.943  1.00  0.00     0.004 A 
ATOM     31  C   UNL A   1      32.460  23.925  26.843  1.00  0.00     0.004 A 
ATOM     32  C   UNL A   1      34.756  22.327  26.640  1.00  0.00     0.000 A 
ATOM     33  C   UNL A   1      32.581  22.737  27.580  1.00  0.00     0.000 A 
ATOM     34  C   UNL A   1      33.716  21.932  27.465  1.00  0.00     0.000 A 
ENDBRANCH  28  29
ENDBRANCH   8  28
ENDBRANCH   5   8
ENDBRANCH   3   4
ENDBRANCH   2   3
ENDBRANCH   1   2
BRANCH   1  35
ATOM     35  C   UNL A   1      34.901  33.308  28.060  1.00  0.00     0.002 C 
BRANCH  35  36
ATOM     36  C   UNL A   1      36.012  32.238  28.105  1.00  0.00     0.021 C 
BRANCH  36  37
ATOM     37  C   UNL A   1      36.791  32.104  29.427  1.00  0.00     0.116 C 
BRANCH  37  38
ATOM     38  N   UNL A   1      36.666  30.809  30.073  1.00  0.00    -0.352 N 
ATOM     39  C   UNL A   1      37.508  29.735  30.233  1.00  0.00     0.251 C 
ATOM     40  H   UNL A   1      35.784  30.670  30.485  1.00  0.00     0.163 HD
ATOM     41  O   UNL A   1      37.025  28.716  30.734  1.00  0.00    -0.269 OA
BRANCH  39  42
ATOM     42  C   UNL A   1      38.946  29.715  29.844  1.00  0.00     0.039 A 
ATOM     43  C   UNL A   1      39.242  29.589  28.476  1.00  0.00     0.014 A 
ATOM     44  C   UNL A   1      40.001  29.654  30.756  1.00  0.00     0.014 A 
ATOM     45  C   UNL A   1      40.562  29.411  28.031  1.00  0.00     0.010 A 
ATOM     46  C   UNL A   1      41.330  29.546  30.306  1.00  0.00     0.010 A 
ATOM     47  C   UNL A   1      41.628  29.394  28.941  1.00  0.00    -0.014 A 
BRANCH  47  48
ATOM     48  C   UNL A   1      43.034  29.149  28.486  1.00  0.00     0.031 A 
ATOM     49  C   UNL A   1      44.072  30.246  28.586  1.00  0.00     0.074 A 
ATOM     50  C   UNL A   1      43.390  27.960  27.956  1.00  0.00     0.049 A 
ATOM     51  N   UNL A   1      45.314  30.256  28.163  1.00  0.00    -0.248 NA
ATOM     52  C   UNL A   1      43.652  31.504  29.224  1.00  0.00     0.031 C 
ATOM     53  C   UNL A   1      42.504  26.808  27.785  1.00  0.00     0.029 A 
ATOM     54  N   UNL A   1      44.596  27.523  27.457  1.00  0.00    -0.354 N 
ATOM     55  C   UNL A   1      45.806  31.528  28.447  1.00  0.00     0.074 A 
ATOM     56  C   UNL A   1      44.718  32.271  29.046  1.00  0.00     0.031 C 
ATOM     57  C   UNL A   1      43.197  25.794  27.241  1.00  0.00     0.029 A 
ATOM     58  C   UNL A   1      44.566  26.232  26.982  1.00  0.00     0.049 A 
ATOM     59  H   UNL A   1      45.405  28.083  27.441  1.00  0.00     0.167 HD
ATOM     60  C   UNL A   1      47.049  32.031  28.246  1.00  0.00     0.031 A 
ATOM     61  C   UNL A   1      45.521  25.482  26.394  1.00  0.00     0.031 A 
ATOM     62  C   UNL A   1      48.148  31.284  27.691  1.00  0.00     0.049 A 
ATOM     63  C   UNL A   1      46.897  26.057  26.185  1.00  0.00     0.074 A 
ATOM     64  C   UNL A   1      49.459  31.693  27.507  1.00  0.00     0.029 A 
ATOM     65  N   UNL A   1      48.072  29.977  27.238  1.00  0.00    -0.354 N 
ATOM     66  N   UNL A   1      47.346  27.250  26.495  1.00  0.00    -0.248 NA
ATOM     67  C   UNL A   1      47.897  25.182  25.555  1.00  0.00     0.031 C 
ATOM     68  C   UNL A   1      50.164  30.647  26.902  1.00  0.00     0.029 A 
ATOM     69  C   UNL A   1      49.307  29.569  26.759  1.00  0.00     0.049 A 
ATOM     70  H   UNL A   1      47.261  29.419  27.255  1.00  0.00     0.167 HD
ATOM     71  C   UNL A   1      48.686  27.259  26.121  1.00  0.00     0.074 A 
ATOM     72  C   UNL A   1      48.979  25.949  25.575  1.00  0.00     0.031 C 
ATOM     73  C   UNL A   1      49.591  28.262  26.222  1.00  0.00     0.031 A 
BRANCH  60  74
ATOM     74  C   UNL A   1      47.291  33.473  28.619  1.00  0.00    -0.014 A 
ATOM     75  C   UNL A   1      47.041  34.516  27.708  1.00  0.00     0.010 A 
ATOM     76  C   UNL A   1      47.731  33.793  29.917  1.00  0.00     0.010 A 
ATOM     77  C   UNL A   1      47.275  35.845  28.071  1.00  0.00     0.020 A 
ATOM     78  C   UNL A   1      47.939  35.124  30.294  1.00  0.00     0.020 A 
ATOM     79  C   UNL A   1      47.729  36.141  29.360  1.00  0.00     0.054 A 
BRANCH  79  80
ATOM     80  S   UNL A   1      48.014  37.876  29.807  1.00  0.00     0.124 S 
ATOM     81  O   UNL A   1      46.809  38.520  29.292  1.00  0.00    -0.237 OA
ATOM     82  O   UNL A   1      48.122  37.819  31.263  1.00  0.00    -0.237 OA
ATOM     83  O   UNL A   1      49.250  38.216  29.107  1.00  0.00    -0.744 OA
ENDBRANCH  79  80
ENDBRANCH  60  74
BRANCH  61  84
ATOM     84  C   UNL A   1      45.210  24.091  25.961  1.00  0.00    -0.014 A 
ATOM     85  C   UNL A   1      44.726  23.836  24.666  1.00  0.00     0.010 A 
ATOM     86  C   UNL A   1      45.408  23.009  26.840  1.00  0.00     0.010 A 
ATOM     87  C   UNL A   1      44.438  22.529  24.259  1.00  0.00     0.020 A 
ATOM     88  C   UNL A   1      45.148  21.699  26.428  1.00  0.00     0.020 A 
ATOM     89  C   UNL A   1      44.655  21.468  25.142  1.00  0.00     0.054 A 
BRANCH  89  90
ATOM     90  S   UNL A   1      44.325  19.777  24.571  1.00  0.00     0.124 S 
ATOM     91  O   UNL A   1      42.983  19.545  25.045  1.00  0.00    -0.237 OA
ATOM     92  O   UNL A   1      44.484  19.904  23.116  1.00  0.00    -0.237 OA
ATOM     93  O   UNL A   1      45.381  18.989  25.224  1.00  0.00    -0.744 OA
ENDBRANCH  89  90
ENDBRANCH  61  84
BRANCH  73  94
ATOM     94  C   UNL A   1      51.000  27.983  25.768  1.00  0.00    -0.014 A 
ATOM     95  C   UNL A   1      51.398  28.216  24.440  1.00  0.00     0.010 A 
ATOM     96  C   UNL A   1      51.956  27.543  26.702  1.00  0.00     0.010 A 
ATOM     97  C   UNL A   1      52.720  27.989  24.048  1.00  0.00     0.020 A 
ATOM     98  C   UNL A   1      53.285  27.341  26.321  1.00  0.00     0.020 A 
ATOM     99  C   UNL A   1      53.657  27.553  24.992  1.00  0.00     0.054 A 
BRANCH  99 100
ATOM    100  S   UNL A   1      55.379  27.318  24.472  1.00  0.00     0.124 S 
ATOM    101  O   UNL A   1      55.387  27.949  23.154  1.00  0.00    -0.237 OA
ATOM    102  O   UNL A   1      56.129  28.020  25.511  1.00  0.00    -0.237 OA
ATOM    103  O   UNL A   1      55.544  25.865  24.467  1.00  0.00    -0.744 OA
ENDBRANCH  99 100
ENDBRANCH  73  94
ENDBRANCH  47  48
ENDBRANCH  39  42
ENDBRANCH  37  38
ENDBRANCH  36  37
ENDBRANCH  35  36
ENDBRANCH   1  35
TORSDOF 21
ENDMDL
