MODEL 1
REMARK VINA RESULT:      -9.2      0.000      0.000
REMARK SMILES O=C(NCc1cccc(F)c1)NCc1ccc(C(=O)NCCCCCCNC(=O)c2ccc(-c3c4nc(c(-c5ccc(S(=O)(=O)[O-])cc5)c5ccc([nH]5)c(-c5ccc(S(=O)(=O)[O-])cc5)c5nc(c(-c6ccc(S(=O)(=O)[O-])cc6)c6ccc3[nH]6)C=C5)C=C4)cc2)o1
REMARK SMILES IDX 23 1 22 2 21 3 20 4 18 5 19 6 17 8 14 9 15 10 90 11 16 12
REMARK SMILES IDX 13 13 12 14 1 15 2 16 3 17 4 20 5 21 6 22 11 23 7 24 9 25
REMARK SMILES IDX 8 26 10 27 24 28 25 29 26 30 27 31 28 32 29 34 30 35 31 36
REMARK SMILES IDX 89 37 32 38 88 39 33 40 34 41 35 42 82 43 36 44 87 45 81 46
REMARK SMILES IDX 83 47 37 48 86 49 80 50 79 51 38 53 68 54 49 55 67 56 50 57
REMARK SMILES IDX 53 58 66 59 84 60 51 61 52 62 65 64 85 65 54 66 39 67 40 68
REMARK SMILES IDX 48 69 41 70 47 71 42 72 43 73 44 74 45 75 46 76 69 77 70 78
REMARK SMILES IDX 78 79 71 80 77 81 72 82 73 83 74 84 75 85 76 86 55 87 56 88
REMARK SMILES IDX 64 89 57 90 63 91 58 92 59 93 60 94 61 95 62 96
REMARK H PARENT 20 7 3 18 12 19 27 33 83 52 53 63
REMARK Flexibility Score: inf
ROOT
ATOM      1  C   UNL A   1      34.503  36.090  28.484  1.00  0.00     0.002 C 
ENDROOT
BRANCH   1   2
ATOM      2  C   UNL A   1      33.241  36.736  29.074  1.00  0.00     0.021 C 
BRANCH   2   3
ATOM      3  C   UNL A   1      32.743  36.038  30.340  1.00  0.00     0.116 C 
BRANCH   3   4
ATOM      4  N   UNL A   1      33.124  36.785  31.519  1.00  0.00    -0.349 N 
ATOM      5  C   UNL A   1      33.916  36.457  32.593  1.00  0.00     0.286 C 
ATOM      6  O   UNL A   1      34.082  37.357  33.421  1.00  0.00    -0.266 OA
ATOM      7  H   UNL A   1      32.747  37.694  31.558  1.00  0.00     0.163 HD
BRANCH   5   8
ATOM      8  C   UNL A   1      34.526  35.145  32.725  1.00  0.00     0.191 A 
ATOM      9  C   UNL A   1      36.209  33.731  32.411  1.00  0.00     0.124 A 
ATOM     10  C   UNL A   1      35.205  33.013  33.019  1.00  0.00     0.048 A 
ATOM     11  O   UNL A   1      35.808  35.021  32.242  1.00  0.00    -0.454 OA
ATOM     12  C   UNL A   1      34.148  33.924  33.254  1.00  0.00     0.056 A 
BRANCH   9  13
ATOM     13  C   UNL A   1      37.580  33.405  31.938  1.00  0.00     0.193 C 
BRANCH  13  14
ATOM     14  N   UNL A   1      38.392  33.058  33.082  1.00  0.00    -0.331 N 
ATOM     15  O   UNL A   1      40.146  34.418  32.571  1.00  0.00    -0.249 OA
ATOM     16  C   UNL A   1      39.655  33.518  33.245  1.00  0.00     0.315 C 
ATOM     17  N   UNL A   1      40.403  32.921  34.202  1.00  0.00    -0.334 N 
ATOM     18  H   UNL A   1      41.265  33.361  34.386  1.00  0.00     0.165 HD
ATOM     19  H   UNL A   1      38.013  32.465  33.770  1.00  0.00     0.165 HD
BRANCH  17  20
ATOM     20  C   UNL A   1      40.142  31.743  34.999  1.00  0.00     0.153 C 
BRANCH  20  21
ATOM     21  C   UNL A   1      40.634  30.504  34.297  1.00  0.00    -0.026 A 
ATOM     22  C   UNL A   1      39.749  29.683  33.581  1.00  0.00     0.006 A 
ATOM     23  C   UNL A   1      41.988  30.146  34.361  1.00  0.00     0.044 A 
ATOM     24  C   UNL A   1      40.212  28.534  32.932  1.00  0.00     0.003 A 
ATOM     25  C   UNL A   1      42.437  29.002  33.709  1.00  0.00     0.123 A 
ATOM     26  C   UNL A   1      41.561  28.194  32.995  1.00  0.00     0.039 A 
ATOM     27  F   UNL A   1      43.735  28.676  33.774  1.00  0.00    -0.207 F 
ENDBRANCH  20  21
ENDBRANCH  17  20
ENDBRANCH  13  14
ENDBRANCH   9  13
ENDBRANCH   5   8
ENDBRANCH   3   4
ENDBRANCH   2   3
ENDBRANCH   1   2
BRANCH   1  28
ATOM     28  C   UNL A   1      34.289  34.699  27.868  1.00  0.00     0.002 C 
BRANCH  28  29
ATOM     29  C   UNL A   1      35.331  33.649  28.262  1.00  0.00     0.021 C 
BRANCH  29  30
ATOM     30  C   UNL A   1      34.831  32.622  29.272  1.00  0.00     0.116 C 
BRANCH  30  31
ATOM     31  N   UNL A   1      34.065  31.566  28.627  1.00  0.00    -0.352 N 
ATOM     32  C   UNL A   1      34.508  30.391  28.072  1.00  0.00     0.251 C 
ATOM     33  H   UNL A   1      33.094  31.716  28.581  1.00  0.00     0.163 HD
ATOM     34  O   UNL A   1      33.760  29.726  27.361  1.00  0.00    -0.269 OA
BRANCH  32  35
ATOM     35  C   UNL A   1      35.890  29.938  28.329  1.00  0.00     0.039 A 
ATOM     36  C   UNL A   1      36.852  30.079  27.325  1.00  0.00     0.014 A 
ATOM     37  C   UNL A   1      36.234  29.370  29.560  1.00  0.00     0.014 A 
ATOM     38  C   UNL A   1      38.172  29.700  27.577  1.00  0.00     0.010 A 
ATOM     39  C   UNL A   1      37.562  29.063  29.832  1.00  0.00     0.010 A 
ATOM     40  C   UNL A   1      38.544  29.216  28.842  1.00  0.00    -0.014 A 
BRANCH  40  41
ATOM     41  C   UNL A   1      39.951  28.859  29.153  1.00  0.00     0.031 A 
ATOM     42  C   UNL A   1      40.864  29.875  29.783  1.00  0.00     0.074 A 
ATOM     43  C   UNL A   1      40.425  27.646  28.805  1.00  0.00     0.049 A 
ATOM     44  N   UNL A   1      42.139  29.780  30.059  1.00  0.00    -0.248 NA
ATOM     45  C   UNL A   1      40.271  31.179  30.125  1.00  0.00     0.031 C 
ATOM     46  C   UNL A   1      39.648  26.585  28.159  1.00  0.00     0.029 A 
ATOM     47  N   UNL A   1      41.679  27.104  28.938  1.00  0.00    -0.354 N 
ATOM     48  C   UNL A   1      42.504  31.014  30.587  1.00  0.00     0.074 A 
ATOM     49  C   UNL A   1      41.330  31.856  30.543  1.00  0.00     0.031 C 
ATOM     50  C   UNL A   1      40.435  25.513  27.978  1.00  0.00     0.029 A 
ATOM     51  C   UNL A   1      41.781  25.823  28.449  1.00  0.00     0.049 A 
ATOM     52  H   UNL A   1      42.434  27.587  29.344  1.00  0.00     0.167 HD
ATOM     53  C   UNL A   1      43.704  31.404  31.081  1.00  0.00     0.031 A 
ATOM     54  C   UNL A   1      42.841  24.994  28.377  1.00  0.00     0.031 A 
ATOM     55  C   UNL A   1      44.868  30.558  31.126  1.00  0.00     0.049 A 
ATOM     56  C   UNL A   1      44.170  25.456  28.910  1.00  0.00     0.074 A 
ATOM     57  C   UNL A   1      46.116  30.841  31.651  1.00  0.00     0.029 A 
ATOM     58  N   UNL A   1      44.928  29.267  30.623  1.00  0.00    -0.354 N 
ATOM     59  N   UNL A   1      44.481  26.607  29.458  1.00  0.00    -0.248 NA
ATOM     60  C   UNL A   1      45.287  24.506  28.822  1.00  0.00     0.031 C 
ATOM     61  C   UNL A   1      46.948  29.743  31.414  1.00  0.00     0.029 A 
ATOM     62  C   UNL A   1      46.200  28.749  30.802  1.00  0.00     0.049 A 
ATOM     63  H   UNL A   1      44.178  28.789  30.201  1.00  0.00     0.167 HD
ATOM     64  C   UNL A   1      45.823  26.506  29.812  1.00  0.00     0.074 A 
ATOM     65  C   UNL A   1      46.259  25.180  29.422  1.00  0.00     0.031 C 
ATOM     66  C   UNL A   1      46.619  27.427  30.409  1.00  0.00     0.031 A 
BRANCH  53  67
ATOM     67  C   UNL A   1      43.817  32.815  31.600  1.00  0.00    -0.014 A 
ATOM     68  C   UNL A   1      44.201  33.873  30.757  1.00  0.00     0.010 A 
ATOM     69  C   UNL A   1      43.511  33.090  32.945  1.00  0.00     0.010 A 
ATOM     70  C   UNL A   1      44.330  35.171  31.260  1.00  0.00     0.020 A 
ATOM     71  C   UNL A   1      43.606  34.393  33.445  1.00  0.00     0.020 A 
ATOM     72  C   UNL A   1      44.036  35.421  32.604  1.00  0.00     0.054 A 
BRANCH  72  73
ATOM     73  S   UNL A   1      44.206  37.115  33.229  1.00  0.00     0.124 S 
ATOM     74  O   UNL A   1      43.328  37.093  34.397  1.00  0.00    -0.237 OA
ATOM     75  O   UNL A   1      45.635  37.207  33.518  1.00  0.00    -0.237 OA
ATOM     76  O   UNL A   1      43.743  37.942  32.118  1.00  0.00    -0.744 OA
ENDBRANCH  72  73
ENDBRANCH  53  67
BRANCH  54  77
ATOM     77  C   UNL A   1      42.679  23.635  27.793  1.00  0.00    -0.014 A 
ATOM     78  C   UNL A   1      43.009  23.394  26.447  1.00  0.00     0.010 A 
ATOM     79  C   UNL A   1      42.219  22.566  28.585  1.00  0.00     0.010 A 
ATOM     80  C   UNL A   1      42.868  22.115  25.901  1.00  0.00     0.020 A 
ATOM     81  C   UNL A   1      42.105  21.280  28.050  1.00  0.00     0.020 A 
ATOM     82  C   UNL A   1      42.421  21.065  26.707  1.00  0.00     0.054 A 
BRANCH  82  83
ATOM     83  S   UNL A   1      42.301  19.402  25.990  1.00  0.00     0.124 S 
ATOM     84  O   UNL A   1      40.861  19.251  25.814  1.00  0.00    -0.237 OA
ATOM     85  O   UNL A   1      43.081  19.534  24.762  1.00  0.00    -0.237 OA
ATOM     86  O   UNL A   1      42.902  18.546  27.011  1.00  0.00    -0.744 OA
ENDBRANCH  82  83
ENDBRANCH  54  77
BRANCH  66  87
ATOM     87  C   UNL A   1      48.038  27.025  30.719  1.00  0.00    -0.014 A 
ATOM     88  C   UNL A   1      49.099  27.361  29.861  1.00  0.00     0.010 A 
ATOM     89  C   UNL A   1      48.317  26.359  31.927  1.00  0.00     0.010 A 
ATOM     90  C   UNL A   1      50.412  27.015  30.194  1.00  0.00     0.020 A 
ATOM     91  C   UNL A   1      49.632  26.039  32.277  1.00  0.00     0.020 A 
ATOM     92  C   UNL A   1      50.670  26.360  31.402  1.00  0.00     0.054 A 
BRANCH  92  93
ATOM     93  S   UNL A   1      52.388  25.976  31.836  1.00  0.00     0.124 S 
ATOM     94  O   UNL A   1      52.221  24.972  32.882  1.00  0.00    -0.237 OA
ATOM     95  O   UNL A   1      52.934  25.483  30.573  1.00  0.00    -0.237 OA
ATOM     96  O   UNL A   1      52.929  27.258  32.283  1.00  0.00    -0.744 OA
ENDBRANCH  92  93
ENDBRANCH  66  87
ENDBRANCH  40  41
ENDBRANCH  32  35
ENDBRANCH  30  31
ENDBRANCH  29  30
ENDBRANCH  28  29
ENDBRANCH   1  28
TORSDOF 20
ENDMDL
MODEL 2
REMARK VINA RESULT:      -8.9      4.430      7.990
REMARK SMILES O=C(NCc1cccc(F)c1)NCc1ccc(C(=O)NCCCCCCNC(=O)c2ccc(-c3c4nc(c(-c5ccc(S(=O)(=O)[O-])cc5)c5ccc([nH]5)c(-c5ccc(S(=O)(=O)[O-])cc5)c5nc(c(-c6ccc(S(=O)(=O)[O-])cc6)c6ccc3[nH]6)C=C5)C=C4)cc2)o1
REMARK SMILES IDX 23 1 22 2 21 3 20 4 18 5 19 6 17 8 14 9 15 10 90 11 16 12
REMARK SMILES IDX 13 13 12 14 1 15 2 16 3 17 4 20 5 21 6 22 11 23 7 24 9 25
REMARK SMILES IDX 8 26 10 27 24 28 25 29 26 30 27 31 28 32 29 34 30 35 31 36
REMARK SMILES IDX 89 37 32 38 88 39 33 40 34 41 35 42 82 43 36 44 87 45 81 46
REMARK SMILES IDX 83 47 37 48 86 49 80 50 79 51 38 53 68 54 49 55 67 56 50 57
REMARK SMILES IDX 53 58 66 59 84 60 51 61 52 62 65 64 85 65 54 66 39 67 40 68
REMARK SMILES IDX 48 69 41 70 47 71 42 72 43 73 44 74 45 75 46 76 69 77 70 78
REMARK SMILES IDX 78 79 71 80 77 81 72 82 73 83 74 84 75 85 76 86 55 87 56 88
REMARK SMILES IDX 64 89 57 90 63 91 58 92 59 93 60 94 61 95 62 96
REMARK H PARENT 20 7 3 18 12 19 27 33 83 52 53 63
REMARK Flexibility Score: inf
ROOT
ATOM      1  C   UNL A   1      33.482  28.198  24.298  1.00  0.00     0.002 C 
ENDROOT
BRANCH   1   2
ATOM      2  C   UNL A   1      33.536  27.083  23.243  1.00  0.00     0.021 C 
BRANCH   2   3
ATOM      3  C   UNL A   1      33.495  25.680  23.849  1.00  0.00     0.116 C 
BRANCH   3   4
ATOM      4  N   UNL A   1      34.509  24.837  23.256  1.00  0.00    -0.349 N 
ATOM      5  C   UNL A   1      34.751  23.487  23.357  1.00  0.00     0.286 C 
ATOM      6  O   UNL A   1      35.685  23.065  22.670  1.00  0.00    -0.266 OA
ATOM      7  H   UNL A   1      35.141  25.317  22.673  1.00  0.00     0.163 HD
BRANCH   5   8
ATOM      8  C   UNL A   1      33.944  22.624  24.202  1.00  0.00     0.191 A 
ATOM      9  C   UNL A   1      32.078  22.170  25.317  1.00  0.00     0.124 A 
ATOM     10  C   UNL A   1      32.937  21.121  25.553  1.00  0.00     0.048 A 
ATOM     11  O   UNL A   1      32.676  23.073  24.493  1.00  0.00    -0.454 OA
ATOM     12  C   UNL A   1      34.112  21.393  24.811  1.00  0.00     0.056 A 
BRANCH   9  13
ATOM     13  C   UNL A   1      30.692  22.494  25.745  1.00  0.00     0.193 C 
BRANCH  13  14
ATOM     14  N   UNL A   1      30.293  23.735  25.121  1.00  0.00    -0.331 N 
ATOM     15  O   UNL A   1      30.768  25.077  26.898  1.00  0.00    -0.249 OA
ATOM     16  C   UNL A   1      30.268  24.911  25.790  1.00  0.00     0.315 C 
ATOM     17  N   UNL A   1      29.630  25.942  25.188  1.00  0.00    -0.334 N 
ATOM     18  H   UNL A   1      29.741  26.813  25.634  1.00  0.00     0.165 HD
ATOM     19  H   UNL A   1      30.031  23.725  24.172  1.00  0.00     0.165 HD
BRANCH  17  20
ATOM     20  C   UNL A   1      28.814  25.973  23.993  1.00  0.00     0.153 C 
BRANCH  20  21
ATOM     21  C   UNL A   1      28.767  27.364  23.417  1.00  0.00    -0.026 A 
ATOM     22  C   UNL A   1      27.578  28.110  23.434  1.00  0.00     0.006 A 
ATOM     23  C   UNL A   1      29.913  27.929  22.840  1.00  0.00     0.044 A 
ATOM     24  C   UNL A   1      27.540  29.400  22.896  1.00  0.00     0.003 A 
ATOM     25  C   UNL A   1      29.864  29.215  22.310  1.00  0.00     0.123 A 
ATOM     26  C   UNL A   1      28.688  29.955  22.334  1.00  0.00     0.039 A 
ATOM     27  F   UNL A   1      30.968  29.744  21.768  1.00  0.00    -0.207 F 
ENDBRANCH  20  21
ENDBRANCH  17  20
ENDBRANCH  13  14
ENDBRANCH   9  13
ENDBRANCH   5   8
ENDBRANCH   3   4
ENDBRANCH   2   3
ENDBRANCH   1   2
BRANCH   1  28
ATOM     28  C   UNL A   1      32.248  28.165  25.211  1.00  0.00     0.002 C 
BRANCH  28  29
ATOM     29  C   UNL A   1      32.549  27.984  26.701  1.00  0.00     0.021 C 
BRANCH  29  30
ATOM     30  C   UNL A   1      33.893  28.556  27.139  1.00  0.00     0.116 C 
BRANCH  30  31
ATOM     31  N   UNL A   1      33.770  29.938  27.578  1.00  0.00    -0.352 N 
ATOM     32  C   UNL A   1      34.642  30.692  28.324  1.00  0.00     0.251 C 
ATOM     33  H   UNL A   1      32.944  30.398  27.301  1.00  0.00     0.163 HD
ATOM     34  O   UNL A   1      34.278  31.760  28.803  1.00  0.00    -0.269 OA
BRANCH  32  35
ATOM     35  C   UNL A   1      36.018  30.202  28.551  1.00  0.00     0.039 A 
ATOM     36  C   UNL A   1      36.946  30.269  27.510  1.00  0.00     0.014 A 
ATOM     37  C   UNL A   1      36.386  29.674  29.792  1.00  0.00     0.014 A 
ATOM     38  C   UNL A   1      38.261  29.855  27.731  1.00  0.00     0.010 A 
ATOM     39  C   UNL A   1      37.713  29.332  30.031  1.00  0.00     0.010 A 
ATOM     40  C   UNL A   1      38.662  29.412  29.001  1.00  0.00    -0.014 A 
BRANCH  40  41
ATOM     41  C   UNL A   1      40.068  29.019  29.278  1.00  0.00     0.031 A 
ATOM     42  C   UNL A   1      41.018  30.009  29.893  1.00  0.00     0.074 A 
ATOM     43  C   UNL A   1      40.505  27.798  28.912  1.00  0.00     0.049 A 
ATOM     44  N   UNL A   1      42.297  29.882  30.139  1.00  0.00    -0.248 NA
ATOM     45  C   UNL A   1      40.465  31.324  30.256  1.00  0.00     0.031 C 
ATOM     46  C   UNL A   1      39.688  26.760  28.277  1.00  0.00     0.029 A 
ATOM     47  N   UNL A   1      41.748  27.225  29.012  1.00  0.00    -0.354 N 
ATOM     48  C   UNL A   1      42.703  31.103  30.666  1.00  0.00     0.074 A 
ATOM     49  C   UNL A   1      41.548  31.973  30.654  1.00  0.00     0.031 C 
ATOM     50  C   UNL A   1      40.446  25.670  28.071  1.00  0.00     0.029 A 
ATOM     51  C   UNL A   1      41.809  25.946  28.512  1.00  0.00     0.049 A 
ATOM     52  H   UNL A   1      42.524  27.688  29.404  1.00  0.00     0.167 HD
ATOM     53  C   UNL A   1      43.923  31.461  31.135  1.00  0.00     0.031 A 
ATOM     54  C   UNL A   1      42.847  25.092  28.412  1.00  0.00     0.031 A 
ATOM     55  C   UNL A   1      45.067  30.588  31.148  1.00  0.00     0.049 A 
ATOM     56  C   UNL A   1      44.198  25.519  28.917  1.00  0.00     0.074 A 
ATOM     57  C   UNL A   1      46.334  30.838  31.646  1.00  0.00     0.029 A 
ATOM     58  N   UNL A   1      45.085  29.300  30.635  1.00  0.00    -0.354 N 
ATOM     59  N   UNL A   1      44.549  26.659  29.465  1.00  0.00    -0.248 NA
ATOM     60  C   UNL A   1      45.290  24.544  28.797  1.00  0.00     0.031 C 
ATOM     61  C   UNL A   1      47.134  29.722  31.383  1.00  0.00     0.029 A 
ATOM     62  C   UNL A   1      46.348  28.751  30.782  1.00  0.00     0.049 A 
ATOM     63  H   UNL A   1      44.315  28.842  30.228  1.00  0.00     0.167 HD
ATOM     64  C   UNL A   1      45.895  26.524  29.787  1.00  0.00     0.074 A 
ATOM     65  C   UNL A   1      46.291  25.191  29.379  1.00  0.00     0.031 C 
ATOM     66  C   UNL A   1      46.727  27.421  30.371  1.00  0.00     0.031 A 
BRANCH  53  67
ATOM     67  C   UNL A   1      44.081  32.865  31.660  1.00  0.00    -0.014 A 
ATOM     68  C   UNL A   1      43.891  33.160  33.022  1.00  0.00     0.010 A 
ATOM     69  C   UNL A   1      44.447  33.902  30.782  1.00  0.00     0.010 A 
ATOM     70  C   UNL A   1      44.012  34.473  33.488  1.00  0.00     0.020 A 
ATOM     71  C   UNL A   1      44.601  35.211  31.250  1.00  0.00     0.020 A 
ATOM     72  C   UNL A   1      44.361  35.491  32.596  1.00  0.00     0.054 A 
BRANCH  72  73
ATOM     73  S   UNL A   1      44.516  37.184  33.228  1.00  0.00     0.124 S 
ATOM     74  O   UNL A   1      45.244  37.843  32.146  1.00  0.00    -0.237 OA
ATOM     75  O   UNL A   1      43.123  37.594  33.388  1.00  0.00    -0.237 OA
ATOM     76  O   UNL A   1      45.263  37.022  34.473  1.00  0.00    -0.744 OA
ENDBRANCH  72  73
ENDBRANCH  53  67
BRANCH  54  77
ATOM     77  C   UNL A   1      42.640  23.741  27.823  1.00  0.00    -0.014 A 
ATOM     78  C   UNL A   1      42.899  23.511  26.459  1.00  0.00     0.010 A 
ATOM     79  C   UNL A   1      42.206  22.669  28.626  1.00  0.00     0.010 A 
ATOM     80  C   UNL A   1      42.716  22.239  25.908  1.00  0.00     0.020 A 
ATOM     81  C   UNL A   1      42.050  21.391  28.085  1.00  0.00     0.020 A 
ATOM     82  C   UNL A   1      42.296  21.186  26.725  1.00  0.00     0.054 A 
BRANCH  82  83
ATOM     83  S   UNL A   1      42.120  19.533  25.999  1.00  0.00     0.124 S 
ATOM     84  O   UNL A   1      40.706  19.507  25.642  1.00  0.00    -0.237 OA
ATOM     85  O   UNL A   1      43.057  19.581  24.880  1.00  0.00    -0.237 OA
ATOM     86  O   UNL A   1      42.509  18.638  27.088  1.00  0.00    -0.744 OA
ENDBRANCH  82  83
ENDBRANCH  54  77
BRANCH  66  87
ATOM     87  C   UNL A   1      48.142  26.984  30.646  1.00  0.00    -0.014 A 
ATOM     88  C   UNL A   1      49.214  27.429  29.853  1.00  0.00     0.010 A 
ATOM     89  C   UNL A   1      48.407  26.168  31.762  1.00  0.00     0.010 A 
ATOM     90  C   UNL A   1      50.523  27.044  30.157  1.00  0.00     0.020 A 
ATOM     91  C   UNL A   1      49.718  25.807  32.086  1.00  0.00     0.020 A 
ATOM     92  C   UNL A   1      50.767  26.239  31.273  1.00  0.00     0.054 A 
BRANCH  92  93
ATOM     93  S   UNL A   1      52.480  25.803  31.677  1.00  0.00     0.124 S 
ATOM     94  O   UNL A   1      53.136  25.907  30.378  1.00  0.00    -0.237 OA
ATOM     95  O   UNL A   1      52.849  26.828  32.651  1.00  0.00    -0.237 OA
ATOM     96  O   UNL A   1      52.376  24.449  32.216  1.00  0.00    -0.744 OA
ENDBRANCH  92  93
ENDBRANCH  66  87
ENDBRANCH  40  41
ENDBRANCH  32  35
ENDBRANCH  30  31
ENDBRANCH  29  30
ENDBRANCH  28  29
ENDBRANCH   1  28
TORSDOF 20
ENDMDL
MODEL 3
REMARK VINA RESULT:      -8.6      4.348      7.107
REMARK SMILES O=C(NCc1cccc(F)c1)NCc1ccc(C(=O)NCCCCCCNC(=O)c2ccc(-c3c4nc(c(-c5ccc(S(=O)(=O)[O-])cc5)c5ccc([nH]5)c(-c5ccc(S(=O)(=O)[O-])cc5)c5nc(c(-c6ccc(S(=O)(=O)[O-])cc6)c6ccc3[nH]6)C=C5)C=C4)cc2)o1
REMARK SMILES IDX 23 1 22 2 21 3 20 4 18 5 19 6 17 8 14 9 15 10 90 11 16 12
REMARK SMILES IDX 13 13 12 14 1 15 2 16 3 17 4 20 5 21 6 22 11 23 7 24 9 25
REMARK SMILES IDX 8 26 10 27 24 28 25 29 26 30 27 31 28 32 29 34 30 35 31 36
REMARK SMILES IDX 89 37 32 38 88 39 33 40 34 41 35 42 82 43 36 44 87 45 81 46
REMARK SMILES IDX 83 47 37 48 86 49 80 50 79 51 38 53 68 54 49 55 67 56 50 57
REMARK SMILES IDX 53 58 66 59 84 60 51 61 52 62 65 64 85 65 54 66 39 67 40 68
REMARK SMILES IDX 48 69 41 70 47 71 42 72 43 73 44 74 45 75 46 76 69 77 70 78
REMARK SMILES IDX 78 79 71 80 77 81 72 82 73 83 74 84 75 85 76 86 55 87 56 88
REMARK SMILES IDX 64 89 57 90 63 91 58 92 59 93 60 94 61 95 62 96
REMARK H PARENT 20 7 3 18 12 19 27 33 83 52 53 63
REMARK Flexibility Score: inf
ROOT
ATOM      1  C   UNL A   1      33.410  31.331  27.388  1.00  0.00     0.002 C 
ENDROOT
BRANCH   1   2
ATOM      2  C   UNL A   1      33.020  29.976  26.780  1.00  0.00     0.021 C 
BRANCH   2   3
ATOM      3  C   UNL A   1      31.949  30.091  25.694  1.00  0.00     0.116 C 
BRANCH   3   4
ATOM      4  N   UNL A   1      32.483  29.701  24.407  1.00  0.00    -0.349 N 
ATOM      5  C   UNL A   1      32.092  28.737  23.509  1.00  0.00     0.286 C 
ATOM      6  O   UNL A   1      32.744  28.695  22.462  1.00  0.00    -0.266 OA
ATOM      7  H   UNL A   1      33.269  30.221  24.123  1.00  0.00     0.163 HD
BRANCH   5   8
ATOM      8  C   UNL A   1      30.975  27.848  23.775  1.00  0.00     0.191 A 
ATOM      9  C   UNL A   1      30.078  26.085  24.785  1.00  0.00     0.124 A 
ATOM     10  C   UNL A   1      29.100  26.604  23.966  1.00  0.00     0.048 A 
ATOM     11  O   UNL A   1      31.206  26.839  24.682  1.00  0.00    -0.454 OA
ATOM     12  C   UNL A   1      29.661  27.750  23.353  1.00  0.00     0.056 A 
BRANCH   9  13
ATOM     13  C   UNL A   1      30.143  24.935  25.724  1.00  0.00     0.193 C 
BRANCH  13  14
ATOM     14  N   UNL A   1      31.359  24.198  25.468  1.00  0.00    -0.331 N 
ATOM     15  O   UNL A   1      31.673  23.475  27.605  1.00  0.00    -0.249 OA
ATOM     16  C   UNL A   1      32.079  23.615  26.456  1.00  0.00     0.315 C 
ATOM     17  N   UNL A   1      33.322  23.189  26.134  1.00  0.00    -0.334 N 
ATOM     18  H   UNL A   1      33.769  22.655  26.831  1.00  0.00     0.165 HD
ATOM     19  H   UNL A   1      31.676  24.115  24.540  1.00  0.00     0.165 HD
BRANCH  17  20
ATOM     20  C   UNL A   1      34.102  23.388  24.931  1.00  0.00     0.153 C 
BRANCH  20  21
ATOM     21  C   UNL A   1      35.532  22.968  25.148  1.00  0.00    -0.026 A 
ATOM     22  C   UNL A   1      35.977  21.696  24.754  1.00  0.00     0.006 A 
ATOM     23  C   UNL A   1      36.440  23.842  25.764  1.00  0.00     0.044 A 
ATOM     24  C   UNL A   1      37.306  21.312  24.960  1.00  0.00     0.003 A 
ATOM     25  C   UNL A   1      37.760  23.450  25.961  1.00  0.00     0.123 A 
ATOM     26  C   UNL A   1      38.201  22.193  25.563  1.00  0.00     0.039 A 
ATOM     27  F   UNL A   1      38.617  24.298  26.543  1.00  0.00    -0.207 F 
ENDBRANCH  20  21
ENDBRANCH  17  20
ENDBRANCH  13  14
ENDBRANCH   9  13
ENDBRANCH   5   8
ENDBRANCH   3   4
ENDBRANCH   2   3
ENDBRANCH   1   2
BRANCH   1  28
ATOM     28  C   UNL A   1      34.672  31.308  28.263  1.00  0.00     0.002 C 
BRANCH  28  29
ATOM     29  C   UNL A   1      35.633  32.480  28.044  1.00  0.00     0.021 C 
BRANCH  29  30
ATOM     30  C   UNL A   1      36.638  32.682  29.172  1.00  0.00     0.116 C 
BRANCH  30  31
ATOM     31  N   UNL A   1      36.245  31.962  30.375  1.00  0.00    -0.352 N 
ATOM     32  C   UNL A   1      36.780  30.817  30.913  1.00  0.00     0.251 C 
ATOM     33  H   UNL A   1      35.490  32.350  30.872  1.00  0.00     0.163 HD
ATOM     34  O   UNL A   1      36.180  30.215  31.796  1.00  0.00    -0.269 OA
BRANCH  32  35
ATOM     35  C   UNL A   1      38.076  30.314  30.414  1.00  0.00     0.039 A 
ATOM     36  C   UNL A   1      38.231  30.065  29.048  1.00  0.00     0.014 A 
ATOM     37  C   UNL A   1      39.135  30.084  31.297  1.00  0.00     0.014 A 
ATOM     38  C   UNL A   1      39.467  29.636  28.561  1.00  0.00     0.010 A 
ATOM     39  C   UNL A   1      40.385  29.729  30.800  1.00  0.00     0.010 A 
ATOM     40  C   UNL A   1      40.562  29.494  29.429  1.00  0.00    -0.014 A 
BRANCH  40  41
ATOM     41  C   UNL A   1      41.902  29.093  28.928  1.00  0.00     0.031 A 
ATOM     42  C   UNL A   1      42.999  30.116  28.814  1.00  0.00     0.074 A 
ATOM     43  C   UNL A   1      42.110  27.829  28.512  1.00  0.00     0.049 A 
ATOM     44  N   UNL A   1      44.206  29.981  28.331  1.00  0.00    -0.248 NA
ATOM     45  C   UNL A   1      42.689  31.478  29.283  1.00  0.00     0.031 C 
ATOM     46  C   UNL A   1      41.116  26.752  28.541  1.00  0.00     0.029 A 
ATOM     47  N   UNL A   1      43.224  27.236  27.972  1.00  0.00    -0.354 N 
ATOM     48  C   UNL A   1      44.792  31.239  28.418  1.00  0.00     0.074 A 
ATOM     49  C   UNL A   1      43.790  32.135  28.951  1.00  0.00     0.031 C 
ATOM     50  C   UNL A   1      41.674  25.626  28.068  1.00  0.00     0.029 A 
ATOM     51  C   UNL A   1      43.046  25.909  27.658  1.00  0.00     0.049 A 
ATOM     52  H   UNL A   1      44.071  27.716  27.824  1.00  0.00     0.167 HD
ATOM     53  C   UNL A   1      46.056  31.611  28.101  1.00  0.00     0.031 A 
ATOM     54  C   UNL A   1      43.888  25.022  27.094  1.00  0.00     0.031 A 
ATOM     55  C   UNL A   1      47.050  30.713  27.576  1.00  0.00     0.049 A 
ATOM     56  C   UNL A   1      45.279  25.462  26.727  1.00  0.00     0.074 A 
ATOM     57  C   UNL A   1      48.373  30.979  27.268  1.00  0.00     0.029 A 
ATOM     58  N   UNL A   1      46.829  29.377  27.274  1.00  0.00    -0.354 N 
ATOM     59  N   UNL A   1      45.833  26.643  26.871  1.00  0.00    -0.248 NA
ATOM     60  C   UNL A   1      46.160  24.450  26.131  1.00  0.00     0.031 C 
ATOM     61  C   UNL A   1      48.936  29.819  26.727  1.00  0.00     0.029 A 
ATOM     62  C   UNL A   1      47.985  28.812  26.760  1.00  0.00     0.049 A 
ATOM     63  H   UNL A   1      45.979  28.901  27.406  1.00  0.00     0.167 HD
ATOM     64  C   UNL A   1      47.139  26.506  26.414  1.00  0.00     0.074 A 
ATOM     65  C   UNL A   1      47.293  25.126  25.997  1.00  0.00     0.031 C 
ATOM     66  C   UNL A   1      48.123  27.437  26.350  1.00  0.00     0.031 A 
BRANCH  53  67
ATOM     67  C   UNL A   1      46.426  33.058  28.304  1.00  0.00    -0.014 A 
ATOM     68  C   UNL A   1      46.645  33.581  29.592  1.00  0.00     0.010 A 
ATOM     69  C   UNL A   1      46.580  33.902  27.190  1.00  0.00     0.010 A 
ATOM     70  C   UNL A   1      46.958  34.932  29.766  1.00  0.00     0.020 A 
ATOM     71  C   UNL A   1      46.926  35.247  27.357  1.00  0.00     0.020 A 
ATOM     72  C   UNL A   1      47.091  35.758  28.645  1.00  0.00     0.054 A 
BRANCH  72  73
ATOM     73  S   UNL A   1      47.503  37.506  28.899  1.00  0.00     0.124 S 
ATOM     74  O   UNL A   1      48.454  37.750  27.817  1.00  0.00    -0.237 OA
ATOM     75  O   UNL A   1      46.207  38.164  28.757  1.00  0.00    -0.237 OA
ATOM     76  O   UNL A   1      48.071  37.536  30.245  1.00  0.00    -0.744 OA
ENDBRANCH  72  73
ENDBRANCH  53  67
BRANCH  54  77
ATOM     77  C   UNL A   1      43.439  23.622  26.859  1.00  0.00    -0.014 A 
ATOM     78  C   UNL A   1      43.308  22.726  27.935  1.00  0.00     0.010 A 
ATOM     79  C   UNL A   1      43.115  23.183  25.561  1.00  0.00     0.010 A 
ATOM     80  C   UNL A   1      42.875  21.414  27.716  1.00  0.00     0.020 A 
ATOM     81  C   UNL A   1      42.655  21.882  25.343  1.00  0.00     0.020 A 
ATOM     82  C   UNL A   1      42.548  21.002  26.422  1.00  0.00     0.054 A 
BRANCH  82  83
ATOM     83  S   UNL A   1      41.934  19.313  26.172  1.00  0.00     0.124 S 
ATOM     84  O   UNL A   1      40.512  19.538  25.940  1.00  0.00    -0.237 OA
ATOM     85  O   UNL A   1      42.703  18.868  25.013  1.00  0.00    -0.237 OA
ATOM     86  O   UNL A   1      42.266  18.639  27.427  1.00  0.00    -0.744 OA
ENDBRANCH  82  83
ENDBRANCH  54  77
BRANCH  66  87
ATOM     87  C   UNL A   1      49.472  26.991  25.847  1.00  0.00    -0.014 A 
ATOM     88  C   UNL A   1      49.871  27.222  24.519  1.00  0.00     0.010 A 
ATOM     89  C   UNL A   1      50.378  26.395  26.743  1.00  0.00     0.010 A 
ATOM     90  C   UNL A   1      51.146  26.839  24.090  1.00  0.00     0.020 A 
ATOM     91  C   UNL A   1      51.664  26.039  26.325  1.00  0.00     0.020 A 
ATOM     92  C   UNL A   1      52.035  26.254  24.997  1.00  0.00     0.054 A 
BRANCH  92  93
ATOM     93  S   UNL A   1      53.701  25.821  24.428  1.00  0.00     0.124 S 
ATOM     94  O   UNL A   1      53.863  24.471  24.958  1.00  0.00    -0.237 OA
ATOM     95  O   UNL A   1      53.577  25.915  22.975  1.00  0.00    -0.237 OA
ATOM     96  O   UNL A   1      54.553  26.838  25.041  1.00  0.00    -0.744 OA
ENDBRANCH  92  93
ENDBRANCH  66  87
ENDBRANCH  40  41
ENDBRANCH  32  35
ENDBRANCH  30  31
ENDBRANCH  29  30
ENDBRANCH  28  29
ENDBRANCH   1  28
TORSDOF 20
ENDMDL
