MODEL 1
REMARK VINA RESULT:     -12.3      0.000      0.000
REMARK SMILES Cc1c(Br)c(C)c2c(c1Br)O[C@H](C(F)(F)F)C(C(=O)NCCCCCCNC(=O)c1ccc(-c3c4nc(c(-c5ccc(S(=O)(=O)[O-])cc5)c5ccc([nH]5)c(-c5ccc(S(=O)(=O)[O-])cc5)c5nc(c(-c6ccc(S(=O)(=O)[O-])cc6)c6ccc3[nH]6)C=C5)C=C4)cc1)=C2
REMARK SMILES IDX 24 1 23 2 22 3 21 4 20 5 18 6 19 7 17 9 1 10 2 11 3 12 9 13
REMARK SMILES IDX 4 14 5 15 8 16 10 17 6 18 7 19 11 20 90 21 12 22 13 23 14 24
REMARK SMILES IDX 15 25 16 26 25 27 26 28 27 29 28 30 29 32 30 33 31 34 89 35
REMARK SMILES IDX 32 36 88 37 33 38 34 39 35 40 82 41 36 42 87 43 81 44 83 45
REMARK SMILES IDX 37 46 86 47 80 48 79 49 38 51 68 52 49 53 67 54 50 55 53 56
REMARK SMILES IDX 66 57 84 58 51 59 52 60 65 62 85 63 54 64 39 65 40 66 48 67
REMARK SMILES IDX 41 68 47 69 42 70 43 71 44 72 45 73 46 74 69 75 70 76 78 77
REMARK SMILES IDX 71 78 77 79 72 80 73 81 74 82 75 83 76 84 55 85 56 86 64 87
REMARK SMILES IDX 57 88 63 89 58 90 59 91 60 92 61 93 62 94
REMARK H PARENT 20 8 27 31 83 50 53 61
REMARK Flexibility Score: inf
ROOT
ATOM      1  C   UNL A   1      37.567  23.911  26.105  1.00  0.00     0.002 C 
ENDROOT
BRANCH   1   2
ATOM      2  C   UNL A   1      36.310  23.263  25.507  1.00  0.00     0.002 C 
BRANCH   2   3
ATOM      3  C   UNL A   1      35.090  23.253  26.431  1.00  0.00     0.021 C 
BRANCH   3   4
ATOM      4  C   UNL A   1      33.769  23.427  25.690  1.00  0.00     0.116 C 
BRANCH   4   5
ATOM      5  N   UNL A   1      33.976  23.729  24.285  1.00  0.00    -0.352 N 
ATOM      6  C   UNL A   1      33.704  24.751  23.441  1.00  0.00     0.251 C 
ATOM      7  O   UNL A   1      34.096  24.596  22.279  1.00  0.00    -0.270 OA
ATOM      8  H   UNL A   1      34.438  22.992  23.823  1.00  0.00     0.163 HD
BRANCH   6   9
ATOM      9  C   UNL A   1      32.984  26.005  23.815  1.00  0.00     0.067 C 
ATOM     10  C   UNL A   1      31.046  31.851  26.094  1.00  0.00     0.047 C 
ATOM     11  C   UNL A   1      31.714  30.537  25.766  1.00  0.00    -0.019 A 
ATOM     12  C   UNL A   1      32.920  30.144  26.402  1.00  0.00     0.025 A 
ATOM     13  C   UNL A   1      31.194  29.697  24.765  1.00  0.00     0.064 A 
ATOM     14  Br  UNL A   1      33.723  31.344  27.670  1.00  0.00    -0.050 Br
ATOM     15  C   UNL A   1      33.563  28.915  26.093  1.00  0.00    -0.026 A 
ATOM     16  C   UNL A   1      31.823  28.483  24.449  1.00  0.00     0.142 A 
ATOM     17  Br  UNL A   1      29.628  30.180  23.769  1.00  0.00    -0.046 Br
ATOM     18  C   UNL A   1      34.837  28.469  26.777  1.00  0.00     0.046 C 
ATOM     19  C   UNL A   1      33.000  28.086  25.094  1.00  0.00     0.022 A 
ATOM     20  O   UNL A   1      31.266  27.748  23.441  1.00  0.00    -0.474 OA
ATOM     21  C   UNL A   1      33.634  26.836  24.650  1.00  0.00     0.026 C 
ATOM     22  C   UNL A   1      31.608  26.351  23.343  1.00  0.00     0.314 C 
BRANCH  22  23
ATOM     23  C   UNL A   1      30.516  25.498  24.012  1.00  0.00     0.429 C 
ATOM     24  F   UNL A   1      30.253  24.393  23.275  1.00  0.00    -0.167 F 
ATOM     25  F   UNL A   1      30.877  25.062  25.242  1.00  0.00    -0.167 F 
ATOM     26  F   UNL A   1      29.355  26.177  24.163  1.00  0.00    -0.167 F 
ENDBRANCH  22  23
ENDBRANCH   6   9
ENDBRANCH   4   5
ENDBRANCH   3   4
ENDBRANCH   2   3
ENDBRANCH   1   2
BRANCH   1  27
ATOM     27  C   UNL A   1      38.708  22.940  26.428  1.00  0.00     0.021 C 
BRANCH  27  28
ATOM     28  C   UNL A   1      39.927  23.595  27.068  1.00  0.00     0.116 C 
BRANCH  28  29
ATOM     29  N   UNL A   1      40.797  24.193  26.068  1.00  0.00    -0.352 N 
ATOM     30  C   UNL A   1      41.220  25.490  25.957  1.00  0.00     0.251 C 
ATOM     31  H   UNL A   1      41.128  23.579  25.374  1.00  0.00     0.163 HD
ATOM     32  O   UNL A   1      41.751  25.876  24.916  1.00  0.00    -0.269 OA
BRANCH  30  33
ATOM     33  C   UNL A   1      41.032  26.421  27.087  1.00  0.00     0.039 A 
ATOM     34  C   UNL A   1      40.102  26.104  28.079  1.00  0.00     0.014 A 
ATOM     35  C   UNL A   1      41.761  27.612  27.153  1.00  0.00     0.014 A 
ATOM     36  C   UNL A   1      39.936  26.965  29.165  1.00  0.00     0.010 A 
ATOM     37  C   UNL A   1      41.642  28.434  28.268  1.00  0.00     0.010 A 
ATOM     38  C   UNL A   1      40.720  28.124  29.278  1.00  0.00    -0.014 A 
BRANCH  38  39
ATOM     39  C   UNL A   1      40.577  29.040  30.435  1.00  0.00     0.031 A 
ATOM     40  C   UNL A   1      41.475  28.878  31.631  1.00  0.00     0.074 A 
ATOM     41  C   UNL A   1      39.613  29.979  30.427  1.00  0.00     0.049 A 
ATOM     42  N   UNL A   1      41.461  29.531  32.765  1.00  0.00    -0.248 NA
ATOM     43  C   UNL A   1      42.513  27.837  31.549  1.00  0.00     0.031 C 
ATOM     44  C   UNL A   1      38.674  30.221  29.329  1.00  0.00     0.029 A 
ATOM     45  N   UNL A   1      39.260  30.906  31.375  1.00  0.00    -0.354 N 
ATOM     46  C   UNL A   1      42.481  28.978  33.531  1.00  0.00     0.074 A 
ATOM     47  C   UNL A   1      43.057  27.901  32.756  1.00  0.00     0.031 C 
ATOM     48  C   UNL A   1      37.874  31.250  29.653  1.00  0.00     0.029 A 
ATOM     49  C   UNL A   1      38.209  31.709  30.997  1.00  0.00     0.049 A 
ATOM     50  H   UNL A   1      39.716  30.989  32.243  1.00  0.00     0.167 HD
ATOM     51  C   UNL A   1      42.912  29.347  34.760  1.00  0.00     0.031 A 
ATOM     52  C   UNL A   1      37.581  32.698  31.662  1.00  0.00     0.031 A 
ATOM     53  C   UNL A   1      42.334  30.421  35.524  1.00  0.00     0.049 A 
ATOM     54  C   UNL A   1      38.050  33.059  33.045  1.00  0.00     0.074 A 
ATOM     55  C   UNL A   1      42.713  30.890  36.769  1.00  0.00     0.029 A 
ATOM     56  N   UNL A   1      41.257  31.195  35.116  1.00  0.00    -0.354 N 
ATOM     57  N   UNL A   1      39.033  32.541  33.743  1.00  0.00    -0.248 NA
ATOM     58  C   UNL A   1      37.331  34.144  33.726  1.00  0.00     0.031 C 
ATOM     59  C   UNL A   1      41.832  31.911  37.138  1.00  0.00     0.029 A 
ATOM     60  C   UNL A   1      40.946  32.124  36.094  1.00  0.00     0.049 A 
ATOM     61  H   UNL A   1      40.784  31.097  34.258  1.00  0.00     0.167 HD
ATOM     62  C   UNL A   1      39.067  33.257  34.936  1.00  0.00     0.074 A 
ATOM     63  C   UNL A   1      38.018  34.254  34.854  1.00  0.00     0.031 C 
ATOM     64  C   UNL A   1      39.893  33.104  36.001  1.00  0.00     0.031 A 
BRANCH  51  65
ATOM     65  C   UNL A   1      44.065  28.585  35.357  1.00  0.00    -0.014 A 
ATOM     66  C   UNL A   1      45.392  29.006  35.154  1.00  0.00     0.010 A 
ATOM     67  C   UNL A   1      43.820  27.471  36.180  1.00  0.00     0.010 A 
ATOM     68  C   UNL A   1      46.453  28.312  35.741  1.00  0.00     0.020 A 
ATOM     69  C   UNL A   1      44.877  26.792  36.793  1.00  0.00     0.020 A 
ATOM     70  C   UNL A   1      46.188  27.211  36.561  1.00  0.00     0.054 A 
BRANCH  70  71
ATOM     71  S   UNL A   1      47.584  26.360  37.344  1.00  0.00     0.124 S 
ATOM     72  O   UNL A   1      47.441  25.002  36.825  1.00  0.00    -0.237 OA
ATOM     73  O   UNL A   1      48.735  27.106  36.840  1.00  0.00    -0.237 OA
ATOM     74  O   UNL A   1      47.325  26.510  38.774  1.00  0.00    -0.744 OA
ENDBRANCH  70  71
ENDBRANCH  51  65
BRANCH  52  75
ATOM     75  C   UNL A   1      36.455  33.429  31.017  1.00  0.00    -0.014 A 
ATOM     76  C   UNL A   1      35.292  33.729  31.746  1.00  0.00     0.010 A 
ATOM     77  C   UNL A   1      36.550  33.847  29.677  1.00  0.00     0.010 A 
ATOM     78  C   UNL A   1      34.237  34.423  31.144  1.00  0.00     0.020 A 
ATOM     79  C   UNL A   1      35.510  34.567  29.080  1.00  0.00     0.020 A 
ATOM     80  C   UNL A   1      34.356  34.843  29.816  1.00  0.00     0.054 A 
BRANCH  80  81
ATOM     81  S   UNL A   1      32.996  35.789  29.077  1.00  0.00     0.124 S 
ATOM     82  O   UNL A   1      33.707  36.870  28.402  1.00  0.00    -0.237 OA
ATOM     83  O   UNL A   1      32.368  34.800  28.203  1.00  0.00    -0.237 OA
ATOM     84  O   UNL A   1      32.192  36.190  30.229  1.00  0.00    -0.744 OA
ENDBRANCH  80  81
ENDBRANCH  52  75
BRANCH  64  85
ATOM     85  C   UNL A   1      39.718  34.055  37.156  1.00  0.00    -0.014 A 
ATOM     86  C   UNL A   1      40.151  35.390  37.074  1.00  0.00     0.010 A 
ATOM     87  C   UNL A   1      39.063  33.617  38.322  1.00  0.00     0.010 A 
ATOM     88  C   UNL A   1      39.966  36.259  38.153  1.00  0.00     0.020 A 
ATOM     89  C   UNL A   1      38.847  34.491  39.390  1.00  0.00     0.020 A 
ATOM     90  C   UNL A   1      39.316  35.803  39.303  1.00  0.00     0.054 A 
BRANCH  90  91
ATOM     91  S   UNL A   1      39.064  36.961  40.677  1.00  0.00     0.124 S 
ATOM     92  O   UNL A   1      40.436  37.309  41.036  1.00  0.00    -0.237 OA
ATOM     93  O   UNL A   1      38.288  38.030  40.053  1.00  0.00    -0.237 OA
ATOM     94  O   UNL A   1      38.341  36.171  41.669  1.00  0.00    -0.744 OA
ENDBRANCH  90  91
ENDBRANCH  64  85
ENDBRANCH  38  39
ENDBRANCH  30  33
ENDBRANCH  28  29
ENDBRANCH  27  28
ENDBRANCH   1  27
TORSDOF 17
ENDMDL
MODEL 2
REMARK VINA RESULT:     -12.1      0.448      8.034
REMARK SMILES Cc1c(Br)c(C)c2c(c1Br)O[C@H](C(F)(F)F)C(C(=O)NCCCCCCNC(=O)c1ccc(-c3c4nc(c(-c5ccc(S(=O)(=O)[O-])cc5)c5ccc([nH]5)c(-c5ccc(S(=O)(=O)[O-])cc5)c5nc(c(-c6ccc(S(=O)(=O)[O-])cc6)c6ccc3[nH]6)C=C5)C=C4)cc1)=C2
REMARK SMILES IDX 24 1 23 2 22 3 21 4 20 5 18 6 19 7 17 9 1 10 2 11 3 12 9 13
REMARK SMILES IDX 4 14 5 15 8 16 10 17 6 18 7 19 11 20 90 21 12 22 13 23 14 24
REMARK SMILES IDX 15 25 16 26 25 27 26 28 27 29 28 30 29 32 30 33 31 34 89 35
REMARK SMILES IDX 32 36 88 37 33 38 34 39 35 40 82 41 36 42 87 43 81 44 83 45
REMARK SMILES IDX 37 46 86 47 80 48 79 49 38 51 68 52 49 53 67 54 50 55 53 56
REMARK SMILES IDX 66 57 84 58 51 59 52 60 65 62 85 63 54 64 39 65 40 66 48 67
REMARK SMILES IDX 41 68 47 69 42 70 43 71 44 72 45 73 46 74 69 75 70 76 78 77
REMARK SMILES IDX 71 78 77 79 72 80 73 81 74 82 75 83 76 84 55 85 56 86 64 87
REMARK SMILES IDX 57 88 63 89 58 90 59 91 60 92 61 93 62 94
REMARK H PARENT 20 8 27 31 83 50 53 61
REMARK Flexibility Score: inf
ROOT
ATOM      1  C   UNL A   1      37.563  23.999  26.102  1.00  0.00     0.002 C 
ENDROOT
BRANCH   1   2
ATOM      2  C   UNL A   1      36.296  23.397  25.477  1.00  0.00     0.002 C 
BRANCH   2   3
ATOM      3  C   UNL A   1      35.010  23.641  26.269  1.00  0.00     0.021 C 
BRANCH   3   4
ATOM      4  C   UNL A   1      33.744  23.405  25.454  1.00  0.00     0.116 C 
BRANCH   4   5
ATOM      5  N   UNL A   1      33.934  23.746  24.055  1.00  0.00    -0.352 N 
ATOM      6  C   UNL A   1      33.653  24.792  23.243  1.00  0.00     0.251 C 
ATOM      7  O   UNL A   1      34.029  24.669  22.073  1.00  0.00    -0.270 OA
ATOM      8  H   UNL A   1      34.388  23.022  23.566  1.00  0.00     0.163 HD
BRANCH   6   9
ATOM      9  C   UNL A   1      32.939  26.036  23.661  1.00  0.00     0.067 C 
ATOM     10  C   UNL A   1      31.041  31.820  26.123  1.00  0.00     0.047 C 
ATOM     11  C   UNL A   1      31.702  30.515  25.750  1.00  0.00    -0.019 A 
ATOM     12  C   UNL A   1      32.919  30.106  26.355  1.00  0.00     0.025 A 
ATOM     13  C   UNL A   1      31.165  29.702  24.737  1.00  0.00     0.064 A 
ATOM     14  Br  UNL A   1      33.744  31.273  27.640  1.00  0.00    -0.050 Br
ATOM     15  C   UNL A   1      33.557  28.886  26.004  1.00  0.00    -0.026 A 
ATOM     16  C   UNL A   1      31.789  28.496  24.379  1.00  0.00     0.142 A 
ATOM     17  Br  UNL A   1      29.583  30.210  23.779  1.00  0.00    -0.046 Br
ATOM     18  C   UNL A   1      34.842  28.423  26.655  1.00  0.00     0.046 C 
ATOM     19  C   UNL A   1      32.977  28.083  24.994  1.00  0.00     0.022 A 
ATOM     20  O   UNL A   1      31.215  27.787  23.362  1.00  0.00    -0.474 OA
ATOM     21  C   UNL A   1      33.603  26.845  24.507  1.00  0.00     0.026 C 
ATOM     22  C   UNL A   1      31.556  26.394  23.222  1.00  0.00     0.314 C 
BRANCH  22  23
ATOM     23  C   UNL A   1      30.474  25.524  23.887  1.00  0.00     0.429 C 
ATOM     24  F   UNL A   1      30.190  24.444  23.119  1.00  0.00    -0.167 F 
ATOM     25  F   UNL A   1      30.861  25.045  25.093  1.00  0.00    -0.167 F 
ATOM     26  F   UNL A   1      29.321  26.201  24.087  1.00  0.00    -0.167 F 
ENDBRANCH  22  23
ENDBRANCH   6   9
ENDBRANCH   4   5
ENDBRANCH   3   4
ENDBRANCH   2   3
ENDBRANCH   1   2
BRANCH   1  27
ATOM     27  C   UNL A   1      38.630  22.982  26.520  1.00  0.00     0.021 C 
BRANCH  27  28
ATOM     28  C   UNL A   1      39.885  23.601  27.123  1.00  0.00     0.116 C 
BRANCH  28  29
ATOM     29  N   UNL A   1      40.674  24.294  26.117  1.00  0.00    -0.352 N 
ATOM     30  C   UNL A   1      41.019  25.617  26.051  1.00  0.00     0.251 C 
ATOM     31  H   UNL A   1      41.007  23.733  25.380  1.00  0.00     0.163 HD
ATOM     32  O   UNL A   1      41.479  26.082  25.009  1.00  0.00    -0.269 OA
BRANCH  30  33
ATOM     33  C   UNL A   1      40.831  26.482  27.232  1.00  0.00     0.039 A 
ATOM     34  C   UNL A   1      39.853  26.146  28.171  1.00  0.00     0.014 A 
ATOM     35  C   UNL A   1      41.609  27.632  27.400  1.00  0.00     0.014 A 
ATOM     36  C   UNL A   1      39.686  26.943  29.304  1.00  0.00     0.010 A 
ATOM     37  C   UNL A   1      41.486  28.385  28.561  1.00  0.00     0.010 A 
ATOM     38  C   UNL A   1      40.516  28.055  29.518  1.00  0.00    -0.014 A 
BRANCH  38  39
ATOM     39  C   UNL A   1      40.372  28.901  30.727  1.00  0.00     0.031 A 
ATOM     40  C   UNL A   1      39.346  30.000  30.752  1.00  0.00     0.074 A 
ATOM     41  C   UNL A   1      41.193  28.710  31.777  1.00  0.00     0.049 A 
ATOM     42  N   UNL A   1      39.113  30.889  31.684  1.00  0.00    -0.248 NA
ATOM     43  C   UNL A   1      38.479  30.129  29.568  1.00  0.00     0.031 C 
ATOM     44  C   UNL A   1      42.234  27.683  31.863  1.00  0.00     0.029 A 
ATOM     45  N   UNL A   1      41.281  29.373  32.975  1.00  0.00    -0.354 N 
ATOM     46  C   UNL A   1      38.080  31.682  31.198  1.00  0.00     0.074 A 
ATOM     47  C   UNL A   1      37.769  31.207  29.868  1.00  0.00     0.031 C 
ATOM     48  C   UNL A   1      42.836  27.765  33.061  1.00  0.00     0.029 A 
ATOM     49  C   UNL A   1      42.257  28.877  33.808  1.00  0.00     0.049 A 
ATOM     50  H   UNL A   1      40.702  30.131  33.215  1.00  0.00     0.167 HD
ATOM     51  C   UNL A   1      37.436  32.703  31.813  1.00  0.00     0.031 A 
ATOM     52  C   UNL A   1      42.647  29.280  35.034  1.00  0.00     0.031 A 
ATOM     53  C   UNL A   1      37.752  33.169  33.137  1.00  0.00     0.049 A 
ATOM     54  C   UNL A   1      41.946  30.445  35.677  1.00  0.00     0.074 A 
ATOM     55  C   UNL A   1      37.142  34.180  33.859  1.00  0.00     0.029 A 
ATOM     56  N   UNL A   1      38.761  32.657  33.939  1.00  0.00    -0.354 N 
ATOM     57  N   UNL A   1      40.954  31.168  35.212  1.00  0.00    -0.248 NA
ATOM     58  C   UNL A   1      42.410  30.843  37.012  1.00  0.00     0.031 C 
ATOM     59  C   UNL A   1      37.818  34.315  35.076  1.00  0.00     0.029 A 
ATOM     60  C   UNL A   1      38.805  33.344  35.140  1.00  0.00     0.049 A 
ATOM     61  H   UNL A   1      39.358  31.914  33.691  1.00  0.00     0.167 HD
ATOM     62  C   UNL A   1      40.657  32.089  36.212  1.00  0.00     0.074 A 
ATOM     63  C   UNL A   1      41.563  31.819  37.310  1.00  0.00     0.031 C 
ATOM     64  C   UNL A   1      39.718  33.068  36.220  1.00  0.00     0.031 A 
BRANCH  51  65
ATOM     65  C   UNL A   1      36.324  33.384  31.061  1.00  0.00    -0.014 A 
ATOM     66  C   UNL A   1      35.068  33.595  31.661  1.00  0.00     0.010 A 
ATOM     67  C   UNL A   1      36.552  33.874  29.762  1.00  0.00     0.010 A 
ATOM     68  C   UNL A   1      34.055  34.260  30.966  1.00  0.00     0.020 A 
ATOM     69  C   UNL A   1      35.548  34.565  29.075  1.00  0.00     0.020 A 
ATOM     70  C   UNL A   1      34.303  34.744  29.679  1.00  0.00     0.054 A 
BRANCH  70  71
ATOM     71  S   UNL A   1      32.980  35.641  28.823  1.00  0.00     0.124 S 
ATOM     72  O   UNL A   1      32.385  34.591  28.001  1.00  0.00    -0.237 OA
ATOM     73  O   UNL A   1      32.153  36.118  29.928  1.00  0.00    -0.237 OA
ATOM     74  O   UNL A   1      33.689  36.683  28.083  1.00  0.00    -0.744 OA
ENDBRANCH  70  71
ENDBRANCH  51  65
BRANCH  52  75
ATOM     75  C   UNL A   1      43.743  28.559  35.738  1.00  0.00    -0.014 A 
ATOM     76  C   UNL A   1      45.077  28.981  35.598  1.00  0.00     0.010 A 
ATOM     77  C   UNL A   1      43.457  27.460  36.569  1.00  0.00     0.010 A 
ATOM     78  C   UNL A   1      46.106  28.310  36.266  1.00  0.00     0.020 A 
ATOM     79  C   UNL A   1      44.480  26.805  37.261  1.00  0.00     0.020 A 
ATOM     80  C   UNL A   1      45.800  27.230  37.099  1.00  0.00     0.054 A 
BRANCH  80  81
ATOM     81  S   UNL A   1      47.148  26.412  37.996  1.00  0.00     0.124 S 
ATOM     82  O   UNL A   1      47.783  25.626  36.943  1.00  0.00    -0.237 OA
ATOM     83  O   UNL A   1      47.923  27.546  38.495  1.00  0.00    -0.237 OA
ATOM     84  O   UNL A   1      46.456  25.640  39.025  1.00  0.00    -0.744 OA
ENDBRANCH  80  81
ENDBRANCH  52  75
BRANCH  64  85
ATOM     85  C   UNL A   1      39.601  33.904  37.467  1.00  0.00    -0.014 A 
ATOM     86  C   UNL A   1      38.811  33.489  38.553  1.00  0.00     0.010 A 
ATOM     87  C   UNL A   1      40.335  35.101  37.572  1.00  0.00     0.010 A 
ATOM     88  C   UNL A   1      38.727  34.274  39.706  1.00  0.00     0.020 A 
ATOM     89  C   UNL A   1      40.279  35.872  38.735  1.00  0.00     0.020 A 
ATOM     90  C   UNL A   1      39.461  35.460  39.789  1.00  0.00     0.054 A 
BRANCH  90  91
ATOM     91  S   UNL A   1      39.356  36.445  41.309  1.00  0.00     0.124 S 
ATOM     92  O   UNL A   1      40.731  36.397  41.797  1.00  0.00    -0.237 OA
ATOM     93  O   UNL A   1      38.910  37.745  40.815  1.00  0.00    -0.237 OA
ATOM     94  O   UNL A   1      38.379  35.725  42.122  1.00  0.00    -0.744 OA
ENDBRANCH  90  91
ENDBRANCH  64  85
ENDBRANCH  38  39
ENDBRANCH  30  33
ENDBRANCH  28  29
ENDBRANCH  27  28
ENDBRANCH   1  27
TORSDOF 17
ENDMDL
MODEL 3
REMARK VINA RESULT:     -12.1      4.648     10.364
REMARK SMILES Cc1c(Br)c(C)c2c(c1Br)O[C@H](C(F)(F)F)C(C(=O)NCCCCCCNC(=O)c1ccc(-c3c4nc(c(-c5ccc(S(=O)(=O)[O-])cc5)c5ccc([nH]5)c(-c5ccc(S(=O)(=O)[O-])cc5)c5nc(c(-c6ccc(S(=O)(=O)[O-])cc6)c6ccc3[nH]6)C=C5)C=C4)cc1)=C2
REMARK SMILES IDX 24 1 23 2 22 3 21 4 20 5 18 6 19 7 17 9 1 10 2 11 3 12 9 13
REMARK SMILES IDX 4 14 5 15 8 16 10 17 6 18 7 19 11 20 90 21 12 22 13 23 14 24
REMARK SMILES IDX 15 25 16 26 25 27 26 28 27 29 28 30 29 32 30 33 31 34 89 35
REMARK SMILES IDX 32 36 88 37 33 38 34 39 35 40 82 41 36 42 87 43 81 44 83 45
REMARK SMILES IDX 37 46 86 47 80 48 79 49 38 51 68 52 49 53 67 54 50 55 53 56
REMARK SMILES IDX 66 57 84 58 51 59 52 60 65 62 85 63 54 64 39 65 40 66 48 67
REMARK SMILES IDX 41 68 47 69 42 70 43 71 44 72 45 73 46 74 69 75 70 76 78 77
REMARK SMILES IDX 71 78 77 79 72 80 73 81 74 82 75 83 76 84 55 85 56 86 64 87
REMARK SMILES IDX 57 88 63 89 58 90 59 91 60 92 61 93 62 94
REMARK H PARENT 20 8 27 31 83 50 53 61
REMARK Flexibility Score: inf
ROOT
ATOM      1  C   UNL A   1      31.908  28.510  25.392  1.00  0.00     0.002 C 
ENDROOT
BRANCH   1   2
ATOM      2  C   UNL A   1      30.937  28.026  24.305  1.00  0.00     0.002 C 
BRANCH   2   3
ATOM      3  C   UNL A   1      31.570  27.155  23.219  1.00  0.00     0.021 C 
BRANCH   3   4
ATOM      4  C   UNL A   1      31.135  25.695  23.285  1.00  0.00     0.116 C 
BRANCH   4   5
ATOM      5  N   UNL A   1      30.764  25.305  24.633  1.00  0.00    -0.352 N 
ATOM      6  C   UNL A   1      31.126  24.353  25.525  1.00  0.00     0.251 C 
ATOM      7  O   UNL A   1      30.546  24.401  26.614  1.00  0.00    -0.270 OA
ATOM      8  H   UNL A   1      30.060  25.890  24.996  1.00  0.00     0.163 HD
BRANCH   6   9
ATOM      9  C   UNL A   1      32.144  23.288  25.278  1.00  0.00     0.067 C 
ATOM     10  C   UNL A   1      37.474  19.468  24.929  1.00  0.00     0.047 C 
ATOM     11  C   UNL A   1      36.442  20.559  25.089  1.00  0.00    -0.019 A 
ATOM     12  C   UNL A   1      36.804  21.860  25.525  1.00  0.00     0.025 A 
ATOM     13  C   UNL A   1      35.077  20.292  24.878  1.00  0.00     0.064 A 
ATOM     14  Br  UNL A   1      38.645  22.203  25.955  1.00  0.00    -0.050 Br
ATOM     15  C   UNL A   1      35.840  22.890  25.690  1.00  0.00    -0.026 A 
ATOM     16  C   UNL A   1      34.116  21.302  25.042  1.00  0.00     0.142 A 
ATOM     17  Br  UNL A   1      34.464  18.542  24.390  1.00  0.00    -0.046 Br
ATOM     18  C   UNL A   1      36.212  24.289  26.132  1.00  0.00     0.046 C 
ATOM     19  C   UNL A   1      34.478  22.591  25.449  1.00  0.00     0.022 A 
ATOM     20  O   UNL A   1      32.812  20.943  24.848  1.00  0.00    -0.474 OA
ATOM     21  C   UNL A   1      33.401  23.567  25.669  1.00  0.00     0.026 C 
ATOM     22  C   UNL A   1      31.844  21.985  24.610  1.00  0.00     0.314 C 
BRANCH  22  23
ATOM     23  C   UNL A   1      31.598  22.131  23.097  1.00  0.00     0.429 C 
ATOM     24  F   UNL A   1      30.386  22.686  22.861  1.00  0.00    -0.167 F 
ATOM     25  F   UNL A   1      32.510  22.933  22.498  1.00  0.00    -0.167 F 
ATOM     26  F   UNL A   1      31.639  20.943  22.453  1.00  0.00    -0.167 F 
ENDBRANCH  22  23
ENDBRANCH   6   9
ENDBRANCH   4   5
ENDBRANCH   3   4
ENDBRANCH   2   3
ENDBRANCH   1   2
BRANCH   1  27
ATOM     27  C   UNL A   1      33.036  27.533  25.739  1.00  0.00     0.021 C 
BRANCH  27  28
ATOM     28  C   UNL A   1      34.136  28.129  26.610  1.00  0.00     0.116 C 
BRANCH  28  29
ATOM     29  N   UNL A   1      33.830  29.497  26.994  1.00  0.00    -0.352 N 
ATOM     30  C   UNL A   1      34.539  30.347  27.799  1.00  0.00     0.251 C 
ATOM     31  H   UNL A   1      32.995  29.864  26.623  1.00  0.00     0.163 HD
ATOM     32  O   UNL A   1      34.015  31.379  28.217  1.00  0.00    -0.269 OA
BRANCH  30  33
ATOM     33  C   UNL A   1      35.930  30.016  28.167  1.00  0.00     0.039 A 
ATOM     34  C   UNL A   1      36.201  29.566  29.460  1.00  0.00     0.014 A 
ATOM     35  C   UNL A   1      36.964  30.169  27.238  1.00  0.00     0.014 A 
ATOM     36  C   UNL A   1      37.509  29.226  29.810  1.00  0.00     0.010 A 
ATOM     37  C   UNL A   1      38.252  29.766  27.567  1.00  0.00     0.010 A 
ATOM     38  C   UNL A   1      38.539  29.302  28.859  1.00  0.00    -0.014 A 
BRANCH  38  39
ATOM     39  C   UNL A   1      39.931  28.923  29.201  1.00  0.00     0.031 A 
ATOM     40  C   UNL A   1      40.825  29.911  29.899  1.00  0.00     0.074 A 
ATOM     41  C   UNL A   1      40.400  27.713  28.842  1.00  0.00     0.049 A 
ATOM     42  N   UNL A   1      42.087  29.795  30.220  1.00  0.00    -0.248 NA
ATOM     43  C   UNL A   1      40.226  31.205  30.269  1.00  0.00     0.031 C 
ATOM     44  C   UNL A   1      39.630  26.676  28.150  1.00  0.00     0.029 A 
ATOM     45  N   UNL A   1      41.639  27.149  29.009  1.00  0.00    -0.354 N 
ATOM     46  C   UNL A   1      42.435  30.998  30.824  1.00  0.00     0.074 A 
ATOM     47  C   UNL A   1      41.268  31.850  30.775  1.00  0.00     0.031 C 
ATOM     48  C   UNL A   1      40.405  25.593  27.980  1.00  0.00     0.029 A 
ATOM     49  C   UNL A   1      41.737  25.873  28.506  1.00  0.00     0.049 A 
ATOM     50  H   UNL A   1      42.388  27.614  29.448  1.00  0.00     0.167 HD
ATOM     51  C   UNL A   1      43.614  31.353  31.386  1.00  0.00     0.031 A 
ATOM     52  C   UNL A   1      42.785  25.027  28.465  1.00  0.00     0.031 A 
ATOM     53  C   UNL A   1      44.772  30.498  31.432  1.00  0.00     0.049 A 
ATOM     54  C   UNL A   1      44.097  25.462  29.056  1.00  0.00     0.074 A 
ATOM     55  C   UNL A   1      46.006  30.755  32.001  1.00  0.00     0.029 A 
ATOM     56  N   UNL A   1      44.837  29.223  30.892  1.00  0.00    -0.354 N 
ATOM     57  N   UNL A   1      44.400  26.595  29.646  1.00  0.00    -0.248 NA
ATOM     58  C   UNL A   1      45.207  24.502  28.985  1.00  0.00     0.031 C 
ATOM     59  C   UNL A   1      46.836  29.656  31.757  1.00  0.00     0.029 A 
ATOM     60  C   UNL A   1      46.097  28.687  31.095  1.00  0.00     0.049 A 
ATOM     61  H   UNL A   1      44.097  28.766  30.431  1.00  0.00     0.167 HD
ATOM     62  C   UNL A   1      45.729  26.473  30.041  1.00  0.00     0.074 A 
ATOM     63  C   UNL A   1      46.162  25.150  29.638  1.00  0.00     0.031 C 
ATOM     64  C   UNL A   1      46.517  27.372  30.681  1.00  0.00     0.031 A 
BRANCH  51  65
ATOM     65  C   UNL A   1      43.714  32.725  32.000  1.00  0.00    -0.014 A 
ATOM     66  C   UNL A   1      44.008  33.851  31.209  1.00  0.00     0.010 A 
ATOM     67  C   UNL A   1      43.451  32.901  33.370  1.00  0.00     0.010 A 
ATOM     68  C   UNL A   1      44.062  35.123  31.782  1.00  0.00     0.020 A 
ATOM     69  C   UNL A   1      43.477  34.178  33.942  1.00  0.00     0.020 A 
ATOM     70  C   UNL A   1      43.793  35.279  33.145  1.00  0.00     0.054 A 
BRANCH  70  71
ATOM     71  S   UNL A   1      43.829  36.950  33.848  1.00  0.00     0.124 S 
ATOM     72  O   UNL A   1      42.465  37.095  34.353  1.00  0.00    -0.237 OA
ATOM     73  O   UNL A   1      44.867  36.843  34.870  1.00  0.00    -0.237 OA
ATOM     74  O   UNL A   1      44.163  37.800  32.709  1.00  0.00    -0.744 OA
ENDBRANCH  70  71
ENDBRANCH  51  65
BRANCH  52  75
ATOM     75  C   UNL A   1      42.626  23.675  27.860  1.00  0.00    -0.014 A 
ATOM     76  C   UNL A   1      42.993  23.448  26.522  1.00  0.00     0.010 A 
ATOM     77  C   UNL A   1      42.126  22.605  28.623  1.00  0.00     0.010 A 
ATOM     78  C   UNL A   1      42.851  22.178  25.954  1.00  0.00     0.020 A 
ATOM     79  C   UNL A   1      42.011  21.327  28.069  1.00  0.00     0.020 A 
ATOM     80  C   UNL A   1      42.367  21.123  26.734  1.00  0.00     0.054 A 
BRANCH  80  81
ATOM     81  S   UNL A   1      42.245  19.474  25.989  1.00  0.00     0.124 S 
ATOM     82  O   UNL A   1      40.817  19.367  25.714  1.00  0.00    -0.237 OA
ATOM     83  O   UNL A   1      43.109  19.597  24.818  1.00  0.00    -0.237 OA
ATOM     84  O   UNL A   1      42.751  18.587  27.036  1.00  0.00    -0.744 OA
ENDBRANCH  80  81
ENDBRANCH  52  75
BRANCH  64  85
ATOM     85  C   UNL A   1      47.923  26.949  31.013  1.00  0.00    -0.014 A 
ATOM     86  C   UNL A   1      48.205  26.198  32.168  1.00  0.00     0.010 A 
ATOM     87  C   UNL A   1      48.971  27.264  30.128  1.00  0.00     0.010 A 
ATOM     88  C   UNL A   1      49.516  25.804  32.450  1.00  0.00     0.020 A 
ATOM     89  C   UNL A   1      50.277  26.844  30.390  1.00  0.00     0.020 A 
ATOM     90  C   UNL A   1      50.543  26.130  31.560  1.00  0.00     0.054 A 
BRANCH  90  91
ATOM     91  S   UNL A   1      52.229  25.581  31.937  1.00  0.00     0.124 S 
ATOM     92  O   UNL A   1      52.581  26.433  33.069  1.00  0.00    -0.237 OA
ATOM     93  O   UNL A   1      52.040  24.166  32.250  1.00  0.00    -0.237 OA
ATOM     94  O   UNL A   1      52.966  25.847  30.704  1.00  0.00    -0.744 OA
ENDBRANCH  90  91
ENDBRANCH  64  85
ENDBRANCH  38  39
ENDBRANCH  30  33
ENDBRANCH  28  29
ENDBRANCH  27  28
ENDBRANCH   1  27
TORSDOF 17
ENDMDL
