MODEL 1
REMARK VINA RESULT:     -11.3      0.000      0.000
REMARK SMILES O=C(NCCCCCCNC(=O)[C@@H]1CN(Cc2ccccc2)c2ccccc2O1)c1ccc(-c2c3nc(c(-c4ccc(S(=O)(=O)[O-])cc4)c4ccc([nH]4)c(-c4ccc(S(=O)(=O)[O-])cc4)c4nc(c(-c5ccc(S(=O)(=O)[O-])cc5)c5ccc2[nH]5)C=C4)C=C3)cc1
REMARK SMILES IDX 6 1 5 2 4 3 3 4 1 5 2 6 30 8 31 9 89 10 32 11 88 12 33 13
REMARK SMILES IDX 34 14 35 15 82 16 36 17 87 18 81 19 83 20 37 21 86 22 80 23
REMARK SMILES IDX 79 24 38 26 68 27 49 28 67 29 50 30 53 31 66 32 84 33 51 34
REMARK SMILES IDX 52 35 65 37 85 38 54 39 39 40 40 41 48 42 41 43 47 44 42 45
REMARK SMILES IDX 43 46 44 47 45 48 46 49 69 50 70 51 78 52 71 53 77 54 72 55
REMARK SMILES IDX 73 56 74 57 75 58 76 59 55 60 56 61 64 62 57 63 63 64 58 65
REMARK SMILES IDX 59 66 60 67 61 68 62 69 7 70 8 71 9 72 10 73 11 74 12 76
REMARK SMILES IDX 13 77 14 78 29 79 15 80 28 81 23 82 27 83 24 84 26 85 25 86
REMARK SMILES IDX 16 87 17 88 18 89 22 90 19 91 21 92 20 93
REMARK H PARENT 3 7 83 25 53 36 10 75
REMARK Flexibility Score: inf
ROOT
ATOM      1  C   UNL A   1      32.129  28.391  25.151  1.00  0.00     0.002 C 
ENDROOT
BRANCH   1   2
ATOM      2  C   UNL A   1      33.487  27.708  25.301  1.00  0.00     0.021 C 
BRANCH   2   3
ATOM      3  C   UNL A   1      34.310  28.190  26.488  1.00  0.00     0.116 C 
BRANCH   3   4
ATOM      4  N   UNL A   1      33.909  29.512  26.943  1.00  0.00    -0.352 N 
ATOM      5  O   UNL A   1      34.033  31.375  28.217  1.00  0.00    -0.269 OA
ATOM      6  C   UNL A   1      34.582  30.365  27.785  1.00  0.00     0.251 C 
ATOM      7  H   UNL A   1      33.043  29.838  26.605  1.00  0.00     0.163 HD
BRANCH   6   8
ATOM      8  C   UNL A   1      35.968  30.037  28.182  1.00  0.00     0.039 A 
ATOM      9  C   UNL A   1      37.015  30.224  27.278  1.00  0.00     0.014 A 
ATOM     10  C   UNL A   1      36.219  29.512  29.453  1.00  0.00     0.014 A 
ATOM     11  C   UNL A   1      38.283  29.753  27.588  1.00  0.00     0.010 A 
ATOM     12  C   UNL A   1      37.519  29.127  29.800  1.00  0.00     0.010 A 
ATOM     13  C   UNL A   1      38.557  29.219  28.860  1.00  0.00    -0.014 A 
BRANCH  13  14
ATOM     14  C   UNL A   1      39.960  28.860  29.189  1.00  0.00     0.031 A 
ATOM     15  C   UNL A   1      40.552  27.533  28.800  1.00  0.00     0.074 A 
ATOM     16  C   UNL A   1      40.724  29.793  29.794  1.00  0.00     0.049 A 
ATOM     17  N   UNL A   1      41.785  27.116  28.941  1.00  0.00    -0.248 NA
ATOM     18  C   UNL A   1      39.654  26.546  28.180  1.00  0.00     0.031 C 
ATOM     19  C   UNL A   1      40.249  31.107  30.239  1.00  0.00     0.029 A 
ATOM     20  N   UNL A   1      42.058  29.802  30.102  1.00  0.00    -0.354 N 
ATOM     21  C   UNL A   1      41.812  25.820  28.439  1.00  0.00     0.074 A 
ATOM     22  C   UNL A   1      40.463  25.508  28.014  1.00  0.00     0.031 C 
ATOM     23  C   UNL A   1      41.288  31.820  30.696  1.00  0.00     0.029 A 
ATOM     24  C   UNL A   1      42.486  30.992  30.641  1.00  0.00     0.049 A 
ATOM     25  H   UNL A   1      42.653  29.032  29.953  1.00  0.00     0.167 HD
ATOM     26  C   UNL A   1      42.865  24.972  28.339  1.00  0.00     0.031 A 
ATOM     27  C   UNL A   1      43.706  31.380  31.057  1.00  0.00     0.031 A 
ATOM     28  C   UNL A   1      44.203  25.287  28.773  1.00  0.00     0.049 A 
ATOM     29  C   UNL A   1      44.851  30.420  30.933  1.00  0.00     0.074 A 
ATOM     30  C   UNL A   1      45.338  24.494  28.712  1.00  0.00     0.029 A 
ATOM     31  N   UNL A   1      44.591  26.490  29.344  1.00  0.00    -0.354 N 
ATOM     32  N   UNL A   1      44.854  29.204  30.441  1.00  0.00    -0.248 NA
ATOM     33  C   UNL A   1      46.157  30.884  31.417  1.00  0.00     0.031 C 
ATOM     34  C   UNL A   1      46.400  25.204  29.282  1.00  0.00     0.029 A 
ATOM     35  C   UNL A   1      45.941  26.457  29.651  1.00  0.00     0.049 A 
ATOM     36  H   UNL A   1      43.992  27.255  29.507  1.00  0.00     0.167 HD
ATOM     37  C   UNL A   1      46.162  28.755  30.560  1.00  0.00     0.074 A 
ATOM     38  C   UNL A   1      46.929  29.845  31.132  1.00  0.00     0.031 C 
ATOM     39  C   UNL A   1      46.681  27.544  30.239  1.00  0.00     0.031 A 
BRANCH  26  40
ATOM     40  C   UNL A   1      42.616  23.609  27.746  1.00  0.00    -0.014 A 
ATOM     41  C   UNL A   1      43.131  23.265  26.482  1.00  0.00     0.010 A 
ATOM     42  C   UNL A   1      41.921  22.635  28.487  1.00  0.00     0.010 A 
ATOM     43  C   UNL A   1      42.934  21.983  25.962  1.00  0.00     0.020 A 
ATOM     44  C   UNL A   1      41.741  21.344  27.980  1.00  0.00     0.020 A 
ATOM     45  C   UNL A   1      42.239  21.030  26.714  1.00  0.00     0.054 A 
BRANCH  45  46
ATOM     46  S   UNL A   1      42.033  19.363  26.029  1.00  0.00     0.124 S 
ATOM     47  O   UNL A   1      42.876  19.423  24.836  1.00  0.00    -0.237 OA
ATOM     48  O   UNL A   1      42.530  18.509  27.105  1.00  0.00    -0.237 OA
ATOM     49  O   UNL A   1      40.597  19.267  25.773  1.00  0.00    -0.744 OA
ENDBRANCH  45  46
ENDBRANCH  26  40
BRANCH  27  50
ATOM     50  C   UNL A   1      43.887  32.729  31.655  1.00  0.00    -0.014 A 
ATOM     51  C   UNL A   1      43.714  32.939  33.033  1.00  0.00     0.010 A 
ATOM     52  C   UNL A   1      44.261  33.813  30.837  1.00  0.00     0.010 A 
ATOM     53  C   UNL A   1      43.890  34.213  33.580  1.00  0.00     0.020 A 
ATOM     54  C   UNL A   1      44.469  35.079  31.385  1.00  0.00     0.020 A 
ATOM     55  C   UNL A   1      44.267  35.276  32.752  1.00  0.00     0.054 A 
BRANCH  55  56
ATOM     56  S   UNL A   1      44.539  36.912  33.484  1.00  0.00     0.124 S 
ATOM     57  O   UNL A   1      45.631  36.647  34.415  1.00  0.00    -0.237 OA
ATOM     58  O   UNL A   1      44.880  37.729  32.323  1.00  0.00    -0.237 OA
ATOM     59  O   UNL A   1      43.252  37.225  34.100  1.00  0.00    -0.744 OA
ENDBRANCH  55  56
ENDBRANCH  27  50
BRANCH  39  60
ATOM     60  C   UNL A   1      48.150  27.351  30.496  1.00  0.00    -0.014 A 
ATOM     61  C   UNL A   1      48.607  26.845  31.728  1.00  0.00     0.010 A 
ATOM     62  C   UNL A   1      49.084  27.679  29.498  1.00  0.00     0.010 A 
ATOM     63  C   UNL A   1      49.975  26.720  31.974  1.00  0.00     0.020 A 
ATOM     64  C   UNL A   1      50.453  27.529  29.731  1.00  0.00     0.020 A 
ATOM     65  C   UNL A   1      50.890  27.072  30.976  1.00  0.00     0.054 A 
BRANCH  65  66
ATOM     66  S   UNL A   1      52.664  26.898  31.316  1.00  0.00     0.124 S 
ATOM     67  O   UNL A   1      53.238  26.990  29.976  1.00  0.00    -0.237 OA
ATOM     68  O   UNL A   1      52.936  28.031  32.197  1.00  0.00    -0.237 OA
ATOM     69  O   UNL A   1      52.766  25.585  31.950  1.00  0.00    -0.744 OA
ENDBRANCH  65  66
ENDBRANCH  39  60
ENDBRANCH  13  14
ENDBRANCH   6   8
ENDBRANCH   3   4
ENDBRANCH   2   3
ENDBRANCH   1   2
BRANCH   1  70
ATOM     70  C   UNL A   1      30.955  27.437  24.925  1.00  0.00     0.002 C 
BRANCH  70  71
ATOM     71  C   UNL A   1      30.678  26.462  26.078  1.00  0.00     0.021 C 
BRANCH  71  72
ATOM     72  C   UNL A   1      30.934  24.994  25.742  1.00  0.00     0.116 C 
BRANCH  72  73
ATOM     73  N   UNL A   1      31.961  24.469  26.613  1.00  0.00    -0.353 N 
ATOM     74  C   UNL A   1      33.163  23.887  26.336  1.00  0.00     0.262 C 
ATOM     75  H   UNL A   1      31.757  24.543  27.573  1.00  0.00     0.163 HD
ATOM     76  O   UNL A   1      33.752  23.402  27.308  1.00  0.00    -0.271 OA
BRANCH  74  77
ATOM     77  C   UNL A   1      33.792  23.966  24.928  1.00  0.00     0.281 C 
ATOM     78  C   UNL A   1      33.756  22.710  24.050  1.00  0.00     0.172 C 
ATOM     79  O   UNL A   1      35.133  24.472  25.023  1.00  0.00    -0.477 OA
ATOM     80  N   UNL A   1      34.616  21.637  24.561  1.00  0.00    -0.360 N 
ATOM     81  C   UNL A   1      36.069  23.491  25.267  1.00  0.00     0.143 A 
ATOM     82  C   UNL A   1      35.853  22.117  25.018  1.00  0.00     0.080 A 
ATOM     83  C   UNL A   1      37.282  23.958  25.787  1.00  0.00     0.049 A 
ATOM     84  C   UNL A   1      36.941  21.262  25.228  1.00  0.00     0.030 A 
ATOM     85  C   UNL A   1      38.318  23.068  26.052  1.00  0.00     0.004 A 
ATOM     86  C   UNL A   1      38.154  21.721  25.753  1.00  0.00     0.002 A 
BRANCH  80  87
ATOM     87  C   UNL A   1      33.965  20.529  25.273  1.00  0.00     0.152 C 
BRANCH  87  88
ATOM     88  C   UNL A   1      33.762  19.263  24.474  1.00  0.00    -0.029 A 
ATOM     89  C   UNL A   1      34.702  18.221  24.524  1.00  0.00     0.005 A 
ATOM     90  C   UNL A   1      32.661  19.135  23.613  1.00  0.00     0.005 A 
ATOM     91  C   UNL A   1      34.536  17.079  23.739  1.00  0.00     0.000 A 
ATOM     92  C   UNL A   1      32.478  17.978  22.855  1.00  0.00     0.000 A 
ATOM     93  C   UNL A   1      33.418  16.953  22.914  1.00  0.00     0.000 A 
ENDBRANCH  87  88
ENDBRANCH  80  87
ENDBRANCH  74  77
ENDBRANCH  72  73
ENDBRANCH  71  72
ENDBRANCH  70  71
ENDBRANCH   1  70
TORSDOF 18
ENDMDL
MODEL 2
REMARK VINA RESULT:     -11.0      0.960      2.681
REMARK SMILES O=C(NCCCCCCNC(=O)[C@@H]1CN(Cc2ccccc2)c2ccccc2O1)c1ccc(-c2c3nc(c(-c4ccc(S(=O)(=O)[O-])cc4)c4ccc([nH]4)c(-c4ccc(S(=O)(=O)[O-])cc4)c4nc(c(-c5ccc(S(=O)(=O)[O-])cc5)c5ccc2[nH]5)C=C4)C=C3)cc1
REMARK SMILES IDX 6 1 5 2 4 3 3 4 1 5 2 6 30 8 31 9 89 10 32 11 88 12 33 13
REMARK SMILES IDX 34 14 35 15 82 16 36 17 87 18 81 19 83 20 37 21 86 22 80 23
REMARK SMILES IDX 79 24 38 26 68 27 49 28 67 29 50 30 53 31 66 32 84 33 51 34
REMARK SMILES IDX 52 35 65 37 85 38 54 39 39 40 40 41 48 42 41 43 47 44 42 45
REMARK SMILES IDX 43 46 44 47 45 48 46 49 69 50 70 51 78 52 71 53 77 54 72 55
REMARK SMILES IDX 73 56 74 57 75 58 76 59 55 60 56 61 64 62 57 63 63 64 58 65
REMARK SMILES IDX 59 66 60 67 61 68 62 69 7 70 8 71 9 72 10 73 11 74 12 76
REMARK SMILES IDX 13 77 14 78 29 79 15 80 28 81 23 82 27 83 24 84 26 85 25 86
REMARK SMILES IDX 16 87 17 88 18 89 22 90 19 91 21 92 20 93
REMARK H PARENT 3 7 83 25 53 36 10 75
REMARK Flexibility Score: inf
ROOT
ATOM      1  C   UNL A   1      31.982  27.672  26.201  1.00  0.00     0.002 C 
ENDROOT
BRANCH   1   2
ATOM      2  C   UNL A   1      33.413  27.140  26.274  1.00  0.00     0.021 C 
BRANCH   2   3
ATOM      3  C   UNL A   1      34.490  28.216  26.254  1.00  0.00     0.116 C 
BRANCH   3   4
ATOM      4  N   UNL A   1      34.026  29.477  26.809  1.00  0.00    -0.352 N 
ATOM      5  O   UNL A   1      34.047  31.227  28.240  1.00  0.00    -0.269 OA
ATOM      6  C   UNL A   1      34.645  30.280  27.739  1.00  0.00     0.251 C 
ATOM      7  H   UNL A   1      33.156  29.798  26.478  1.00  0.00     0.163 HD
BRANCH   6   8
ATOM      8  C   UNL A   1      36.034  29.971  28.142  1.00  0.00     0.039 A 
ATOM      9  C   UNL A   1      37.082  30.171  27.242  1.00  0.00     0.014 A 
ATOM     10  C   UNL A   1      36.286  29.452  29.415  1.00  0.00     0.014 A 
ATOM     11  C   UNL A   1      38.355  29.717  27.559  1.00  0.00     0.010 A 
ATOM     12  C   UNL A   1      37.590  29.086  29.769  1.00  0.00     0.010 A 
ATOM     13  C   UNL A   1      38.631  29.190  28.833  1.00  0.00    -0.014 A 
BRANCH  13  14
ATOM     14  C   UNL A   1      40.037  28.850  29.169  1.00  0.00     0.031 A 
ATOM     15  C   UNL A   1      40.647  27.530  28.788  1.00  0.00     0.074 A 
ATOM     16  C   UNL A   1      40.787  29.795  29.772  1.00  0.00     0.049 A 
ATOM     17  N   UNL A   1      41.886  27.129  28.935  1.00  0.00    -0.248 NA
ATOM     18  C   UNL A   1      39.765  26.529  28.169  1.00  0.00     0.031 C 
ATOM     19  C   UNL A   1      40.293  31.106  30.210  1.00  0.00     0.029 A 
ATOM     20  N   UNL A   1      42.120  29.823  30.086  1.00  0.00    -0.354 N 
ATOM     21  C   UNL A   1      41.931  25.831  28.439  1.00  0.00     0.074 A 
ATOM     22  C   UNL A   1      40.588  25.500  28.010  1.00  0.00     0.031 C 
ATOM     23  C   UNL A   1      41.321  31.833  30.668  1.00  0.00     0.029 A 
ATOM     24  C   UNL A   1      42.530  31.022  30.621  1.00  0.00     0.049 A 
ATOM     25  H   UNL A   1      42.725  29.060  29.942  1.00  0.00     0.167 HD
ATOM     26  C   UNL A   1      42.996  24.996  28.346  1.00  0.00     0.031 A 
ATOM     27  C   UNL A   1      43.743  31.427  31.040  1.00  0.00     0.031 A 
ATOM     28  C   UNL A   1      44.328  25.331  28.784  1.00  0.00     0.049 A 
ATOM     29  C   UNL A   1      44.901  30.481  30.924  1.00  0.00     0.074 A 
ATOM     30  C   UNL A   1      45.473  24.553  28.731  1.00  0.00     0.029 A 
ATOM     31  N   UNL A   1      44.697  26.541  29.351  1.00  0.00    -0.354 N 
ATOM     32  N   UNL A   1      44.921  29.263  30.438  1.00  0.00    -0.248 NA
ATOM     33  C   UNL A   1      46.199  30.964  31.412  1.00  0.00     0.031 C 
ATOM     34  C   UNL A   1      46.524  25.279  29.301  1.00  0.00     0.029 A 
ATOM     35  C   UNL A   1      46.047  26.527  29.664  1.00  0.00     0.049 A 
ATOM     36  H   UNL A   1      44.089  27.299  29.508  1.00  0.00     0.167 HD
ATOM     37  C   UNL A   1      46.234  28.832  30.564  1.00  0.00     0.074 A 
ATOM     38  C   UNL A   1      46.985  29.935  31.133  1.00  0.00     0.031 C 
ATOM     39  C   UNL A   1      46.771  27.627  30.249  1.00  0.00     0.031 A 
BRANCH  26  40
ATOM     40  C   UNL A   1      42.767  23.628  27.758  1.00  0.00    -0.014 A 
ATOM     41  C   UNL A   1      43.099  23.352  26.419  1.00  0.00     0.010 A 
ATOM     42  C   UNL A   1      42.282  22.586  28.570  1.00  0.00     0.010 A 
ATOM     43  C   UNL A   1      42.926  22.068  25.897  1.00  0.00     0.020 A 
ATOM     44  C   UNL A   1      42.128  21.293  28.057  1.00  0.00     0.020 A 
ATOM     45  C   UNL A   1      42.440  21.045  26.719  1.00  0.00     0.054 A 
BRANCH  45  46
ATOM     46  S   UNL A   1      42.264  19.379  26.024  1.00  0.00     0.124 S 
ATOM     47  O   UNL A   1      42.798  18.547  27.100  1.00  0.00    -0.237 OA
ATOM     48  O   UNL A   1      40.823  19.272  25.806  1.00  0.00    -0.237 OA
ATOM     49  O   UNL A   1      43.074  19.422  24.809  1.00  0.00    -0.744 OA
ENDBRANCH  45  46
ENDBRANCH  26  40
BRANCH  27  50
ATOM     50  C   UNL A   1      43.904  32.781  31.633  1.00  0.00    -0.014 A 
ATOM     51  C   UNL A   1      43.730  32.993  33.011  1.00  0.00     0.010 A 
ATOM     52  C   UNL A   1      44.259  33.867  30.810  1.00  0.00     0.010 A 
ATOM     53  C   UNL A   1      43.888  34.272  33.553  1.00  0.00     0.020 A 
ATOM     54  C   UNL A   1      44.449  35.138  31.354  1.00  0.00     0.020 A 
ATOM     55  C   UNL A   1      44.246  35.337  32.720  1.00  0.00     0.054 A 
BRANCH  55  56
ATOM     56  S   UNL A   1      44.495  36.979  33.446  1.00  0.00     0.124 S 
ATOM     57  O   UNL A   1      45.039  37.728  32.319  1.00  0.00    -0.237 OA
ATOM     58  O   UNL A   1      43.145  37.352  33.862  1.00  0.00    -0.237 OA
ATOM     59  O   UNL A   1      45.427  36.727  34.542  1.00  0.00    -0.744 OA
ENDBRANCH  55  56
ENDBRANCH  27  50
BRANCH  39  60
ATOM     60  C   UNL A   1      48.241  27.454  30.513  1.00  0.00    -0.014 A 
ATOM     61  C   UNL A   1      48.713  27.161  31.806  1.00  0.00     0.010 A 
ATOM     62  C   UNL A   1      49.161  27.585  29.458  1.00  0.00     0.010 A 
ATOM     63  C   UNL A   1      50.084  27.055  32.049  1.00  0.00     0.020 A 
ATOM     64  C   UNL A   1      50.532  27.452  29.692  1.00  0.00     0.020 A 
ATOM     65  C   UNL A   1      50.985  27.210  30.991  1.00  0.00     0.054 A 
BRANCH  65  66
ATOM     66  S   UNL A   1      52.762  27.065  31.328  1.00  0.00     0.124 S 
ATOM     67  O   UNL A   1      52.941  25.617  31.387  1.00  0.00    -0.237 OA
ATOM     68  O   UNL A   1      53.364  27.727  30.173  1.00  0.00    -0.237 OA
ATOM     69  O   UNL A   1      52.930  27.767  32.598  1.00  0.00    -0.744 OA
ENDBRANCH  65  66
ENDBRANCH  39  60
ENDBRANCH  13  14
ENDBRANCH   6   8
ENDBRANCH   3   4
ENDBRANCH   2   3
ENDBRANCH   1   2
BRANCH   1  70
ATOM     70  C   UNL A   1      30.956  26.675  25.662  1.00  0.00     0.002 C 
BRANCH  70  71
ATOM     71  C   UNL A   1      31.542  25.501  24.867  1.00  0.00     0.021 C 
BRANCH  71  72
ATOM     72  C   UNL A   1      30.573  24.344  24.636  1.00  0.00     0.116 C 
BRANCH  72  73
ATOM     73  N   UNL A   1      31.141  23.416  23.683  1.00  0.00    -0.353 N 
ATOM     74  C   UNL A   1      31.922  22.312  23.860  1.00  0.00     0.262 C 
ATOM     75  H   UNL A   1      30.928  23.617  22.744  1.00  0.00     0.163 HD
ATOM     76  O   UNL A   1      32.374  21.814  22.824  1.00  0.00    -0.271 OA
BRANCH  74  77
ATOM     77  C   UNL A   1      32.099  21.663  25.250  1.00  0.00     0.281 C 
ATOM     78  C   UNL A   1      33.456  21.810  25.947  1.00  0.00     0.172 C 
ATOM     79  O   UNL A   1      31.711  20.282  25.194  1.00  0.00    -0.477 OA
ATOM     80  N   UNL A   1      34.523  21.060  25.272  1.00  0.00    -0.360 N 
ATOM     81  C   UNL A   1      32.731  19.446  24.794  1.00  0.00     0.143 A 
ATOM     82  C   UNL A   1      34.099  19.788  24.856  1.00  0.00     0.080 A 
ATOM     83  C   UNL A   1      32.310  18.200  24.315  1.00  0.00     0.049 A 
ATOM     84  C   UNL A   1      35.014  18.789  24.505  1.00  0.00     0.030 A 
ATOM     85  C   UNL A   1      33.245  17.256  23.905  1.00  0.00     0.004 A 
ATOM     86  C   UNL A   1      34.600  17.543  24.019  1.00  0.00     0.002 A 
BRANCH  80  87
ATOM     87  C   UNL A   1      35.455  21.822  24.430  1.00  0.00     0.152 C 
BRANCH  87  88
ATOM     88  C   UNL A   1      36.744  22.247  25.094  1.00  0.00    -0.029 A 
ATOM     89  C   UNL A   1      37.789  21.331  25.291  1.00  0.00     0.005 A 
ATOM     90  C   UNL A   1      36.891  23.552  25.587  1.00  0.00     0.005 A 
ATOM     91  C   UNL A   1      38.954  21.717  25.956  1.00  0.00     0.000 A 
ATOM     92  C   UNL A   1      38.069  23.947  26.221  1.00  0.00     0.000 A 
ATOM     93  C   UNL A   1      39.098  23.028  26.411  1.00  0.00     0.000 A 
ENDBRANCH  87  88
ENDBRANCH  80  87
ENDBRANCH  74  77
ENDBRANCH  72  73
ENDBRANCH  71  72
ENDBRANCH  70  71
ENDBRANCH   1  70
TORSDOF 18
ENDMDL
MODEL 3
REMARK VINA RESULT:     -10.9      2.768      8.612
REMARK SMILES O=C(NCCCCCCNC(=O)[C@@H]1CN(Cc2ccccc2)c2ccccc2O1)c1ccc(-c2c3nc(c(-c4ccc(S(=O)(=O)[O-])cc4)c4ccc([nH]4)c(-c4ccc(S(=O)(=O)[O-])cc4)c4nc(c(-c5ccc(S(=O)(=O)[O-])cc5)c5ccc2[nH]5)C=C4)C=C3)cc1
REMARK SMILES IDX 6 1 5 2 4 3 3 4 1 5 2 6 30 8 31 9 89 10 32 11 88 12 33 13
REMARK SMILES IDX 34 14 35 15 82 16 36 17 87 18 81 19 83 20 37 21 86 22 80 23
REMARK SMILES IDX 79 24 38 26 68 27 49 28 67 29 50 30 53 31 66 32 84 33 51 34
REMARK SMILES IDX 52 35 65 37 85 38 54 39 39 40 40 41 48 42 41 43 47 44 42 45
REMARK SMILES IDX 43 46 44 47 45 48 46 49 69 50 70 51 78 52 71 53 77 54 72 55
REMARK SMILES IDX 73 56 74 57 75 58 76 59 55 60 56 61 64 62 57 63 63 64 58 65
REMARK SMILES IDX 59 66 60 67 61 68 62 69 7 70 8 71 9 72 10 73 11 74 12 76
REMARK SMILES IDX 13 77 14 78 29 79 15 80 28 81 23 82 27 83 24 84 26 85 25 86
REMARK SMILES IDX 16 87 17 88 18 89 22 90 19 91 21 92 20 93
REMARK H PARENT 3 7 83 25 53 36 10 75
REMARK Flexibility Score: inf
ROOT
ATOM      1  C   UNL A   1      31.846  28.121  25.950  1.00  0.00     0.002 C 
ENDROOT
BRANCH   1   2
ATOM      2  C   UNL A   1      33.253  27.585  26.208  1.00  0.00     0.021 C 
BRANCH   2   3
ATOM      3  C   UNL A   1      34.344  28.647  26.214  1.00  0.00     0.116 C 
BRANCH   3   4
ATOM      4  N   UNL A   1      33.828  29.972  26.522  1.00  0.00    -0.352 N 
ATOM      5  O   UNL A   1      33.622  31.869  27.733  1.00  0.00    -0.269 OA
ATOM      6  C   UNL A   1      34.271  30.860  27.474  1.00  0.00     0.251 C 
ATOM      7  H   UNL A   1      33.064  30.272  25.978  1.00  0.00     0.163 HD
BRANCH   6   8
ATOM      8  C   UNL A   1      35.527  30.570  28.198  1.00  0.00     0.039 A 
ATOM      9  C   UNL A   1      36.710  31.210  27.825  1.00  0.00     0.014 A 
ATOM     10  C   UNL A   1      35.529  29.632  29.233  1.00  0.00     0.014 A 
ATOM     11  C   UNL A   1      37.914  30.808  28.386  1.00  0.00     0.010 A 
ATOM     12  C   UNL A   1      36.732  29.299  29.866  1.00  0.00     0.010 A 
ATOM     13  C   UNL A   1      37.939  29.864  29.428  1.00  0.00    -0.014 A 
BRANCH  13  14
ATOM     14  C   UNL A   1      39.238  29.573  30.088  1.00  0.00     0.031 A 
ATOM     15  C   UNL A   1      39.665  30.279  31.345  1.00  0.00     0.074 A 
ATOM     16  C   UNL A   1      40.005  28.596  29.564  1.00  0.00     0.049 A 
ATOM     17  N   UNL A   1      40.728  30.066  32.081  1.00  0.00    -0.248 NA
ATOM     18  C   UNL A   1      38.802  31.362  31.842  1.00  0.00     0.031 C 
ATOM     19  C   UNL A   1      39.701  27.858  28.333  1.00  0.00     0.029 A 
ATOM     20  N   UNL A   1      41.168  28.026  30.011  1.00  0.00    -0.354 N 
ATOM     21  C   UNL A   1      40.669  30.990  33.118  1.00  0.00     0.074 A 
ATOM     22  C   UNL A   1      39.478  31.785  32.902  1.00  0.00     0.031 C 
ATOM     23  C   UNL A   1      40.612  26.890  28.162  1.00  0.00     0.029 A 
ATOM     24  C   UNL A   1      41.599  26.980  29.230  1.00  0.00     0.049 A 
ATOM     25  H   UNL A   1      41.647  28.335  30.813  1.00  0.00     0.167 HD
ATOM     26  C   UNL A   1      41.526  31.155  34.155  1.00  0.00     0.031 A 
ATOM     27  C   UNL A   1      42.677  26.182  29.348  1.00  0.00     0.031 A 
ATOM     28  C   UNL A   1      42.714  30.364  34.358  1.00  0.00     0.049 A 
ATOM     29  C   UNL A   1      43.606  26.388  30.507  1.00  0.00     0.074 A 
ATOM     30  C   UNL A   1      43.645  30.454  35.380  1.00  0.00     0.029 A 
ATOM     31  N   UNL A   1      43.136  29.336  33.528  1.00  0.00    -0.354 N 
ATOM     32  N   UNL A   1      43.520  27.260  31.483  1.00  0.00    -0.248 NA
ATOM     33  C   UNL A   1      44.775  25.504  30.580  1.00  0.00     0.031 C 
ATOM     34  C   UNL A   1      44.648  29.508  35.145  1.00  0.00     0.029 A 
ATOM     35  C   UNL A   1      44.317  28.793  34.006  1.00  0.00     0.049 A 
ATOM     36  H   UNL A   1      42.663  29.036  32.718  1.00  0.00     0.167 HD
ATOM     37  C   UNL A   1      44.628  27.031  32.287  1.00  0.00     0.074 A 
ATOM     38  C   UNL A   1      45.344  25.912  31.705  1.00  0.00     0.031 C 
ATOM     39  C   UNL A   1      45.026  27.694  33.401  1.00  0.00     0.031 A 
BRANCH  26  40
ATOM     40  C   UNL A   1      41.221  32.242  35.153  1.00  0.00    -0.014 A 
ATOM     41  C   UNL A   1      41.629  33.569  34.924  1.00  0.00     0.010 A 
ATOM     42  C   UNL A   1      40.456  31.951  36.298  1.00  0.00     0.010 A 
ATOM     43  C   UNL A   1      41.301  34.578  35.833  1.00  0.00     0.020 A 
ATOM     44  C   UNL A   1      40.106  32.962  37.199  1.00  0.00     0.020 A 
ATOM     45  C   UNL A   1      40.542  34.268  36.967  1.00  0.00     0.054 A 
BRANCH  45  46
ATOM     46  S   UNL A   1      40.097  35.606  38.108  1.00  0.00     0.124 S 
ATOM     47  O   UNL A   1      40.010  36.754  37.207  1.00  0.00    -0.237 OA
ATOM     48  O   UNL A   1      38.826  35.147  38.663  1.00  0.00    -0.237 OA
ATOM     49  O   UNL A   1      41.211  35.640  39.054  1.00  0.00    -0.744 OA
ENDBRANCH  45  46
ENDBRANCH  26  40
BRANCH  27  50
ATOM     50  C   UNL A   1      42.939  25.140  28.320  1.00  0.00    -0.014 A 
ATOM     51  C   UNL A   1      43.631  25.449  27.137  1.00  0.00     0.010 A 
ATOM     52  C   UNL A   1      42.510  23.817  28.540  1.00  0.00     0.010 A 
ATOM     53  C   UNL A   1      43.872  24.457  26.182  1.00  0.00     0.020 A 
ATOM     54  C   UNL A   1      42.777  22.818  27.603  1.00  0.00     0.020 A 
ATOM     55  C   UNL A   1      43.442  23.147  26.421  1.00  0.00     0.054 A 
BRANCH  55  56
ATOM     56  S   UNL A   1      43.805  21.863  25.194  1.00  0.00     0.124 S 
ATOM     57  O   UNL A   1      45.146  21.442  25.585  1.00  0.00    -0.237 OA
ATOM     58  O   UNL A   1      42.742  20.888  25.428  1.00  0.00    -0.237 OA
ATOM     59  O   UNL A   1      43.716  22.575  23.922  1.00  0.00    -0.744 OA
ENDBRANCH  55  56
ENDBRANCH  27  50
BRANCH  39  60
ATOM     60  C   UNL A   1      46.291  27.213  34.056  1.00  0.00    -0.014 A 
ATOM     61  C   UNL A   1      47.539  27.760  33.704  1.00  0.00     0.010 A 
ATOM     62  C   UNL A   1      46.232  26.205  35.034  1.00  0.00     0.010 A 
ATOM     63  C   UNL A   1      48.711  27.268  34.281  1.00  0.00     0.020 A 
ATOM     64  C   UNL A   1      47.400  25.729  35.633  1.00  0.00     0.020 A 
ATOM     65  C   UNL A   1      48.635  26.249  35.237  1.00  0.00     0.054 A 
BRANCH  65  66
ATOM     66  S   UNL A   1      50.170  25.627  35.976  1.00  0.00     0.124 S 
ATOM     67  O   UNL A   1      50.820  26.862  36.407  1.00  0.00    -0.237 OA
ATOM     68  O   UNL A   1      49.684  24.764  37.050  1.00  0.00    -0.237 OA
ATOM     69  O   UNL A   1      50.825  24.929  34.873  1.00  0.00    -0.744 OA
ENDBRANCH  65  66
ENDBRANCH  39  60
ENDBRANCH  13  14
ENDBRANCH   6   8
ENDBRANCH   3   4
ENDBRANCH   2   3
ENDBRANCH   1   2
BRANCH   1  70
ATOM     70  C   UNL A   1      31.025  27.307  24.950  1.00  0.00     0.002 C 
BRANCH  70  71
ATOM     71  C   UNL A   1      31.738  26.078  24.369  1.00  0.00     0.021 C 
BRANCH  71  72
ATOM     72  C   UNL A   1      31.073  24.743  24.702  1.00  0.00     0.116 C 
BRANCH  72  73
ATOM     73  N   UNL A   1      31.488  23.742  23.746  1.00  0.00    -0.353 N 
ATOM     74  C   UNL A   1      32.111  22.541  23.915  1.00  0.00     0.262 C 
ATOM     75  H   UNL A   1      31.287  23.966  22.809  1.00  0.00     0.163 HD
ATOM     76  O   UNL A   1      32.469  21.980  22.874  1.00  0.00    -0.271 OA
BRANCH  74  77
ATOM     77  C   UNL A   1      32.224  21.879  25.306  1.00  0.00     0.281 C 
ATOM     78  C   UNL A   1      33.551  22.010  26.061  1.00  0.00     0.172 C 
ATOM     79  O   UNL A   1      31.829  20.501  25.221  1.00  0.00    -0.477 OA
ATOM     80  N   UNL A   1      34.641  21.258  25.427  1.00  0.00    -0.360 N 
ATOM     81  C   UNL A   1      32.859  19.661  24.859  1.00  0.00     0.143 A 
ATOM     82  C   UNL A   1      34.226  19.993  24.982  1.00  0.00     0.080 A 
ATOM     83  C   UNL A   1      32.451  18.422  24.352  1.00  0.00     0.049 A 
ATOM     84  C   UNL A   1      35.148  18.989  24.662  1.00  0.00     0.030 A 
ATOM     85  C   UNL A   1      33.397  17.475  23.974  1.00  0.00     0.004 A 
ATOM     86  C   UNL A   1      34.747  17.751  24.149  1.00  0.00     0.002 A 
BRANCH  80  87
ATOM     87  C   UNL A   1      35.613  22.020  24.632  1.00  0.00     0.152 C 
BRANCH  87  88
ATOM     88  C   UNL A   1      36.873  22.434  25.356  1.00  0.00    -0.029 A 
ATOM     89  C   UNL A   1      37.024  23.739  25.850  1.00  0.00     0.005 A 
ATOM     90  C   UNL A   1      37.945  21.538  25.485  1.00  0.00     0.005 A 
ATOM     91  C   UNL A   1      38.214  24.131  26.466  1.00  0.00     0.000 A 
ATOM     92  C   UNL A   1      39.121  21.919  26.132  1.00  0.00     0.000 A 
ATOM     93  C   UNL A   1      39.257  23.217  26.617  1.00  0.00     0.000 A 
ENDBRANCH  87  88
ENDBRANCH  80  87
ENDBRANCH  74  77
ENDBRANCH  72  73
ENDBRANCH  71  72
ENDBRANCH  70  71
ENDBRANCH   1  70
TORSDOF 18
ENDMDL
