MODEL 1
REMARK VINA RESULT:     -11.8      0.000      0.000
REMARK SMILES Cc1ccc(C(=O)N2CCC3(CCC(=O)N(CC(=O)NCCCCCCNC(=O)c4ccc(-c5c6nc(c(-c7ccc(S(=O)(=O)[O-])cc7)c7ccc([nH]7)c(-c7ccc(S(=O)(=O)[O-])cc7)c7nc(c(-c8ccc(S(=O)(=O)[O-])cc8)c8ccc5[nH]8)C=C7)C=C6)cc4)C3)CC2)cc1O
REMARK SMILES IDX 23 1 22 2 21 3 20 4 18 5 19 6 17 8 16 9 6 10 7 11 8 12 9 13
REMARK SMILES IDX 92 14 10 15 91 16 11 17 12 18 90 19 13 20 14 21 15 22 5 23
REMARK SMILES IDX 1 24 2 25 3 26 94 27 4 28 93 29 95 30 24 32 25 33 26 34
REMARK SMILES IDX 27 35 28 36 29 38 30 39 31 40 89 41 32 42 88 43 33 44 34 45
REMARK SMILES IDX 35 46 82 47 36 48 87 49 81 50 83 51 37 52 86 53 80 54 79 55
REMARK SMILES IDX 38 57 68 58 49 59 67 60 50 61 53 62 66 63 84 64 51 65 52 66
REMARK SMILES IDX 65 68 85 69 54 70 39 71 40 72 48 73 41 74 47 75 42 76 43 77
REMARK SMILES IDX 44 78 45 79 46 80 69 81 70 82 78 83 71 84 77 85 72 86 73 87
REMARK SMILES IDX 74 88 75 89 76 90 55 91 56 92 64 93 57 94 63 95 58 96 59 97
REMARK SMILES IDX 60 98 61 99 62 100
REMARK H PARENT 20 7 95 31 27 37 83 56 53 67
REMARK Flexibility Score: inf
ROOT
ATOM      1  C   UNL A   1      35.253  32.305  27.859  1.00  0.00     0.002 C 
ENDROOT
BRANCH   1   2
ATOM      2  C   UNL A   1      35.232  30.776  27.990  1.00  0.00     0.021 C 
BRANCH   2   3
ATOM      3  C   UNL A   1      34.066  30.121  27.255  1.00  0.00     0.116 C 
BRANCH   3   4
ATOM      4  N   UNL A   1      33.091  31.100  26.843  1.00  0.00    -0.355 N 
ATOM      5  C   UNL A   1      31.884  30.910  26.241  1.00  0.00     0.239 C 
ATOM      6  O   UNL A   1      31.142  31.891  26.131  1.00  0.00    -0.273 OA
ATOM      7  H   UNL A   1      33.332  32.038  27.020  1.00  0.00     0.163 HD
BRANCH   5   8
ATOM      8  C   UNL A   1      31.388  29.495  25.916  1.00  0.00     0.219 C 
BRANCH   8   9
ATOM      9  N   UNL A   1      31.568  28.975  24.556  1.00  0.00    -0.333 N 
ATOM     10  C   UNL A   1      33.869  22.978  24.364  1.00  0.00     0.253 C 
ATOM     11  O   UNL A   1      33.115  22.062  24.694  1.00  0.00    -0.269 OA
ATOM     12  N   UNL A   1      33.376  24.158  23.814  1.00  0.00    -0.339 N 
ATOM     13  C   UNL A   1      32.027  24.559  24.174  1.00  0.00     0.120 C 
ATOM     14  C   UNL A   1      33.989  24.922  22.731  1.00  0.00     0.120 C 
ATOM     15  C   UNL A   1      32.058  26.012  24.627  1.00  0.00     0.030 C 
ATOM     16  C   UNL A   1      34.003  26.422  23.050  1.00  0.00     0.030 C 
ATOM     17  C   UNL A   1      32.632  26.963  23.544  1.00  0.00    -0.008 C 
ATOM     18  C   UNL A   1      31.687  27.161  22.342  1.00  0.00     0.019 C 
ATOM     19  C   UNL A   1      32.829  28.355  24.166  1.00  0.00     0.127 C 
ATOM     20  C   UNL A   1      30.372  27.822  22.726  1.00  0.00     0.101 C 
ATOM     21  C   UNL A   1      30.456  28.955  23.732  1.00  0.00     0.223 C 
ATOM     22  O   UNL A   1      29.494  29.701  23.902  1.00  0.00    -0.275 OA
BRANCH  10  23
ATOM     23  C   UNL A   1      35.315  22.865  24.725  1.00  0.00     0.043 A 
ATOM     24  C   UNL A   1      39.307  22.256  26.289  1.00  0.00     0.048 C 
ATOM     25  C   UNL A   1      37.934  22.446  25.713  1.00  0.00    -0.009 A 
ATOM     26  C   UNL A   1      37.313  23.694  25.837  1.00  0.00     0.008 A 
ATOM     27  C   UNL A   1      37.224  21.414  25.090  1.00  0.00     0.119 A 
ATOM     28  C   UNL A   1      36.011  23.891  25.371  1.00  0.00     0.014 A 
ATOM     29  C   UNL A   1      35.937  21.619  24.590  1.00  0.00     0.060 A 
BRANCH  27  30
ATOM     30  O   UNL A   1      37.722  20.148  24.966  1.00  0.00    -0.508 OA
ATOM     31  H   UNL A   1      37.290  19.526  24.413  1.00  0.00     0.293 HD
ENDBRANCH  27  30
ENDBRANCH  10  23
ENDBRANCH   8   9
ENDBRANCH   5   8
ENDBRANCH   3   4
ENDBRANCH   2   3
ENDBRANCH   1   2
BRANCH   1  32
ATOM     32  C   UNL A   1      35.362  33.065  29.186  1.00  0.00     0.002 C 
BRANCH  32  33
ATOM     33  C   UNL A   1      36.764  33.580  29.518  1.00  0.00     0.021 C 
BRANCH  33  34
ATOM     34  C   UNL A   1      37.376  32.966  30.772  1.00  0.00     0.116 C 
BRANCH  34  35
ATOM     35  N   UNL A   1      36.583  31.855  31.272  1.00  0.00    -0.352 N 
ATOM     36  C   UNL A   1      36.791  30.508  31.126  1.00  0.00     0.251 C 
ATOM     37  H   UNL A   1      35.784  32.105  31.790  1.00  0.00     0.163 HD
ATOM     38  O   UNL A   1      35.901  29.712  31.420  1.00  0.00    -0.269 OA
BRANCH  36  39
ATOM     39  C   UNL A   1      38.081  30.018  30.596  1.00  0.00     0.039 A 
ATOM     40  C   UNL A   1      38.297  30.028  29.218  1.00  0.00     0.014 A 
ATOM     41  C   UNL A   1      39.073  29.550  31.462  1.00  0.00     0.014 A 
ATOM     42  C   UNL A   1      39.533  29.622  28.710  1.00  0.00     0.010 A 
ATOM     43  C   UNL A   1      40.329  29.219  30.961  1.00  0.00     0.010 A 
ATOM     44  C   UNL A   1      40.571  29.247  29.579  1.00  0.00    -0.014 A 
BRANCH  44  45
ATOM     45  C   UNL A   1      41.915  28.884  29.062  1.00  0.00     0.031 A 
ATOM     46  C   UNL A   1      42.997  29.927  28.968  1.00  0.00     0.074 A 
ATOM     47  C   UNL A   1      42.145  27.630  28.623  1.00  0.00     0.049 A 
ATOM     48  N   UNL A   1      44.211  29.813  28.492  1.00  0.00    -0.248 NA
ATOM     49  C   UNL A   1      42.665  31.279  29.447  1.00  0.00     0.031 C 
ATOM     50  C   UNL A   1      41.166  26.539  28.627  1.00  0.00     0.029 A 
ATOM     51  N   UNL A   1      43.271  27.063  28.082  1.00  0.00    -0.354 N 
ATOM     52  C   UNL A   1      44.780  31.077  28.602  1.00  0.00     0.074 A 
ATOM     53  C   UNL A   1      43.763  31.953  29.138  1.00  0.00     0.031 C 
ATOM     54  C   UNL A   1      41.744  25.429  28.141  1.00  0.00     0.029 A 
ATOM     55  C   UNL A   1      43.114  25.737  27.746  1.00  0.00     0.049 A 
ATOM     56  H   UNL A   1      44.111  27.556  27.947  1.00  0.00     0.167 HD
ATOM     57  C   UNL A   1      46.041  31.468  28.302  1.00  0.00     0.031 A 
ATOM     58  C   UNL A   1      43.974  24.869  27.177  1.00  0.00     0.031 A 
ATOM     59  C   UNL A   1      47.054  30.590  27.776  1.00  0.00     0.049 A 
ATOM     60  C   UNL A   1      45.363  25.333  26.832  1.00  0.00     0.074 A 
ATOM     61  C   UNL A   1      48.376  30.877  27.489  1.00  0.00     0.029 A 
ATOM     62  N   UNL A   1      46.856  29.255  27.454  1.00  0.00    -0.354 N 
ATOM     63  N   UNL A   1      45.902  26.517  27.005  1.00  0.00    -0.248 NA
ATOM     64  C   UNL A   1      46.263  24.343  26.226  1.00  0.00     0.031 C 
ATOM     65  C   UNL A   1      48.961  29.735  26.936  1.00  0.00     0.029 A 
ATOM     66  C   UNL A   1      48.024  28.715  26.944  1.00  0.00     0.049 A 
ATOM     67  H   UNL A   1      46.011  28.764  27.571  1.00  0.00     0.167 HD
ATOM     68  C   UNL A   1      47.214  26.403  26.557  1.00  0.00     0.074 A 
ATOM     69  C   UNL A   1      47.391  25.033  26.122  1.00  0.00     0.031 C 
ATOM     70  C   UNL A   1      48.185  27.348  26.514  1.00  0.00     0.031 A 
BRANCH  57  71
ATOM     71  C   UNL A   1      46.400  32.915  28.528  1.00  0.00    -0.014 A 
ATOM     72  C   UNL A   1      46.211  33.879  27.521  1.00  0.00     0.010 A 
ATOM     73  C   UNL A   1      46.885  33.325  29.784  1.00  0.00     0.010 A 
ATOM     74  C   UNL A   1      46.537  35.217  27.752  1.00  0.00     0.020 A 
ATOM     75  C   UNL A   1      47.182  34.669  30.029  1.00  0.00     0.020 A 
ATOM     76  C   UNL A   1      47.020  35.604  29.007  1.00  0.00     0.054 A 
BRANCH  76  77
ATOM     77  S   UNL A   1      47.405  37.354  29.286  1.00  0.00     0.124 S 
ATOM     78  O   UNL A   1      48.538  37.270  30.205  1.00  0.00    -0.237 OA
ATOM     79  O   UNL A   1      47.720  37.830  27.942  1.00  0.00    -0.237 OA
ATOM     80  O   UNL A   1      46.176  37.892  29.863  1.00  0.00    -0.744 OA
ENDBRANCH  76  77
ENDBRANCH  57  71
BRANCH  58  81
ATOM     81  C   UNL A   1      43.544  23.471  26.897  1.00  0.00    -0.014 A 
ATOM     82  C   UNL A   1      42.909  22.703  27.889  1.00  0.00     0.010 A 
ATOM     83  C   UNL A   1      43.767  22.899  25.631  1.00  0.00     0.010 A 
ATOM     84  C   UNL A   1      42.526  21.383  27.629  1.00  0.00     0.020 A 
ATOM     85  C   UNL A   1      43.358  21.591  25.357  1.00  0.00     0.020 A 
ATOM     86  C   UNL A   1      42.752  20.837  26.363  1.00  0.00     0.054 A 
BRANCH  86  87
ATOM     87  S   UNL A   1      42.213  19.136  26.034  1.00  0.00     0.124 S 
ATOM     88  O   UNL A   1      40.776  19.305  25.843  1.00  0.00    -0.237 OA
ATOM     89  O   UNL A   1      42.976  18.791  24.837  1.00  0.00    -0.237 OA
ATOM     90  O   UNL A   1      42.604  18.415  27.243  1.00  0.00    -0.744 OA
ENDBRANCH  86  87
ENDBRANCH  58  81
BRANCH  70  91
ATOM     91  C   UNL A   1      49.543  26.928  26.013  1.00  0.00    -0.014 A 
ATOM     92  C   UNL A   1      50.413  26.161  26.807  1.00  0.00     0.010 A 
ATOM     93  C   UNL A   1      49.928  27.259  24.700  1.00  0.00     0.010 A 
ATOM     94  C   UNL A   1      51.656  25.760  26.309  1.00  0.00     0.020 A 
ATOM     95  C   UNL A   1      51.154  26.834  24.187  1.00  0.00     0.020 A 
ATOM     96  C   UNL A   1      52.017  26.098  25.000  1.00  0.00     0.054 A 
BRANCH  96  97
ATOM     97  S   UNL A   1      53.616  25.525  24.364  1.00  0.00     0.124 S 
ATOM     98  O   UNL A   1      53.637  24.132  24.802  1.00  0.00    -0.237 OA
ATOM     99  O   UNL A   1      53.478  25.730  22.924  1.00  0.00    -0.237 OA
ATOM    100  O   UNL A   1      54.584  26.400  25.021  1.00  0.00    -0.744 OA
ENDBRANCH  96  97
ENDBRANCH  70  91
ENDBRANCH  44  45
ENDBRANCH  36  39
ENDBRANCH  34  35
ENDBRANCH  33  34
ENDBRANCH  32  33
ENDBRANCH   1  32
TORSDOF 19
ENDMDL
MODEL 2
REMARK VINA RESULT:     -11.4      2.244      9.270
REMARK SMILES Cc1ccc(C(=O)N2CCC3(CCC(=O)N(CC(=O)NCCCCCCNC(=O)c4ccc(-c5c6nc(c(-c7ccc(S(=O)(=O)[O-])cc7)c7ccc([nH]7)c(-c7ccc(S(=O)(=O)[O-])cc7)c7nc(c(-c8ccc(S(=O)(=O)[O-])cc8)c8ccc5[nH]8)C=C7)C=C6)cc4)C3)CC2)cc1O
REMARK SMILES IDX 23 1 22 2 21 3 20 4 18 5 19 6 17 8 16 9 6 10 7 11 8 12 9 13
REMARK SMILES IDX 92 14 10 15 91 16 11 17 12 18 90 19 13 20 14 21 15 22 5 23
REMARK SMILES IDX 1 24 2 25 3 26 94 27 4 28 93 29 95 30 24 32 25 33 26 34
REMARK SMILES IDX 27 35 28 36 29 38 30 39 31 40 89 41 32 42 88 43 33 44 34 45
REMARK SMILES IDX 35 46 82 47 36 48 87 49 81 50 83 51 37 52 86 53 80 54 79 55
REMARK SMILES IDX 38 57 68 58 49 59 67 60 50 61 53 62 66 63 84 64 51 65 52 66
REMARK SMILES IDX 65 68 85 69 54 70 39 71 40 72 48 73 41 74 47 75 42 76 43 77
REMARK SMILES IDX 44 78 45 79 46 80 69 81 70 82 78 83 71 84 77 85 72 86 73 87
REMARK SMILES IDX 74 88 75 89 76 90 55 91 56 92 64 93 57 94 63 95 58 96 59 97
REMARK SMILES IDX 60 98 61 99 62 100
REMARK H PARENT 20 7 95 31 27 37 83 56 53 67
REMARK Flexibility Score: inf
ROOT
ATOM      1  C   UNL A   1      39.663  23.116  27.263  1.00  0.00     0.002 C 
ENDROOT
BRANCH   1   2
ATOM      2  C   UNL A   1      38.893  24.140  26.419  1.00  0.00     0.021 C 
BRANCH   2   3
ATOM      3  C   UNL A   1      37.464  23.711  26.100  1.00  0.00     0.116 C 
BRANCH   3   4
ATOM      4  N   UNL A   1      37.366  22.279  25.965  1.00  0.00    -0.355 N 
ATOM      5  C   UNL A   1      36.468  21.542  25.252  1.00  0.00     0.239 C 
ATOM      6  O   UNL A   1      36.681  20.331  25.149  1.00  0.00    -0.273 OA
ATOM      7  H   UNL A   1      38.043  21.760  26.457  1.00  0.00     0.163 HD
BRANCH   5   8
ATOM      8  C   UNL A   1      35.367  22.231  24.436  1.00  0.00     0.219 C 
BRANCH   8   9
ATOM      9  N   UNL A   1      34.034  22.384  25.031  1.00  0.00    -0.333 N 
ATOM     10  C   UNL A   1      31.559  28.275  24.351  1.00  0.00     0.253 C 
ATOM     11  O   UNL A   1      31.178  28.613  23.229  1.00  0.00    -0.269 OA
ATOM     12  N   UNL A   1      31.548  26.941  24.745  1.00  0.00    -0.339 N 
ATOM     13  C   UNL A   1      31.677  25.928  23.712  1.00  0.00     0.120 C 
ATOM     14  C   UNL A   1      31.191  26.441  26.071  1.00  0.00     0.120 C 
ATOM     15  C   UNL A   1      32.773  24.954  24.121  1.00  0.00     0.030 C 
ATOM     16  C   UNL A   1      32.194  25.386  26.554  1.00  0.00     0.030 C 
ATOM     17  C   UNL A   1      32.497  24.289  25.495  1.00  0.00    -0.008 C 
ATOM     18  C   UNL A   1      31.343  23.268  25.459  1.00  0.00     0.019 C 
ATOM     19  C   UNL A   1      33.749  23.503  25.920  1.00  0.00     0.127 C 
ATOM     20  C   UNL A   1      31.628  22.084  24.548  1.00  0.00     0.101 C 
ATOM     21  C   UNL A   1      33.039  21.528  24.588  1.00  0.00     0.223 C 
ATOM     22  O   UNL A   1      33.286  20.433  24.087  1.00  0.00    -0.275 OA
BRANCH  10  23
ATOM     23  C   UNL A   1      32.195  29.310  25.221  1.00  0.00     0.043 A 
ATOM     24  C   UNL A   1      33.968  31.899  28.206  1.00  0.00     0.048 C 
ATOM     25  C   UNL A   1      33.388  31.005  27.149  1.00  0.00    -0.009 A 
ATOM     26  C   UNL A   1      32.057  31.189  26.759  1.00  0.00     0.008 A 
ATOM     27  C   UNL A   1      34.110  29.960  26.561  1.00  0.00     0.119 A 
ATOM     28  C   UNL A   1      31.463  30.336  25.826  1.00  0.00     0.014 A 
ATOM     29  C   UNL A   1      33.530  29.130  25.600  1.00  0.00     0.060 A 
BRANCH  27  30
ATOM     30  O   UNL A   1      35.398  29.667  26.910  1.00  0.00    -0.508 OA
ATOM     31  H   UNL A   1      35.855  28.973  26.476  1.00  0.00     0.293 HD
ENDBRANCH  27  30
ENDBRANCH  10  23
ENDBRANCH   8   9
ENDBRANCH   5   8
ENDBRANCH   3   4
ENDBRANCH   2   3
ENDBRANCH   1   2
BRANCH   1  32
ATOM     32  C   UNL A   1      40.791  22.388  26.524  1.00  0.00     0.002 C 
BRANCH  32  33
ATOM     33  C   UNL A   1      40.579  20.884  26.349  1.00  0.00     0.021 C 
BRANCH  33  34
ATOM     34  C   UNL A   1      41.677  20.021  26.960  1.00  0.00     0.116 C 
BRANCH  34  35
ATOM     35  N   UNL A   1      42.531  19.432  25.941  1.00  0.00    -0.352 N 
ATOM     36  C   UNL A   1      43.489  20.031  25.163  1.00  0.00     0.251 C 
ATOM     37  H   UNL A   1      42.406  18.468  25.789  1.00  0.00     0.163 HD
ATOM     38  O   UNL A   1      43.958  19.432  24.196  1.00  0.00    -0.269 OA
BRANCH  36  39
ATOM     39  C   UNL A   1      43.939  21.402  25.478  1.00  0.00     0.039 A 
ATOM     40  C   UNL A   1      43.765  22.410  24.529  1.00  0.00     0.014 A 
ATOM     41  C   UNL A   1      44.533  21.689  26.711  1.00  0.00     0.014 A 
ATOM     42  C   UNL A   1      44.134  23.721  24.838  1.00  0.00     0.010 A 
ATOM     43  C   UNL A   1      44.828  23.007  27.046  1.00  0.00     0.010 A 
ATOM     44  C   UNL A   1      44.637  24.037  26.111  1.00  0.00    -0.014 A 
BRANCH  44  45
ATOM     45  C   UNL A   1      44.965  25.436  26.485  1.00  0.00     0.031 A 
ATOM     46  C   UNL A   1      46.365  25.960  26.306  1.00  0.00     0.074 A 
ATOM     47  C   UNL A   1      44.016  26.218  27.039  1.00  0.00     0.049 A 
ATOM     48  N   UNL A   1      46.853  27.131  26.626  1.00  0.00    -0.248 NA
ATOM     49  C   UNL A   1      47.351  25.041  25.714  1.00  0.00     0.031 C 
ATOM     50  C   UNL A   1      42.631  25.814  27.299  1.00  0.00     0.029 A 
ATOM     51  N   UNL A   1      44.073  27.513  27.490  1.00  0.00    -0.354 N 
ATOM     52  C   UNL A   1      48.201  27.084  26.288  1.00  0.00     0.074 A 
ATOM     53  C   UNL A   1      48.466  25.754  25.788  1.00  0.00     0.031 C 
ATOM     54  C   UNL A   1      41.965  26.849  27.835  1.00  0.00     0.029 A 
ATOM     55  C   UNL A   1      42.882  27.972  28.003  1.00  0.00     0.049 A 
ATOM     56  H   UNL A   1      44.889  28.061  27.451  1.00  0.00     0.167 HD
ATOM     57  C   UNL A   1      49.129  28.067  26.367  1.00  0.00     0.031 A 
ATOM     58  C   UNL A   1      42.564  29.160  28.555  1.00  0.00     0.031 A 
ATOM     59  C   UNL A   1      48.859  29.394  26.856  1.00  0.00     0.049 A 
ATOM     60  C   UNL A   1      43.619  30.228  28.652  1.00  0.00     0.074 A 
ATOM     61  C   UNL A   1      49.719  30.475  26.927  1.00  0.00     0.029 A 
ATOM     62  N   UNL A   1      47.640  29.819  27.363  1.00  0.00    -0.354 N 
ATOM     63  N   UNL A   1      44.872  30.185  28.266  1.00  0.00    -0.248 NA
ATOM     64  C   UNL A   1      43.215  31.508  29.249  1.00  0.00     0.031 C 
ATOM     65  C   UNL A   1      49.039  31.535  27.533  1.00  0.00     0.029 A 
ATOM     66  C   UNL A   1      47.734  31.137  27.774  1.00  0.00     0.049 A 
ATOM     67  H   UNL A   1      46.827  29.266  27.420  1.00  0.00     0.167 HD
ATOM     68  C   UNL A   1      45.397  31.443  28.545  1.00  0.00     0.074 A 
ATOM     69  C   UNL A   1      44.322  32.227  29.117  1.00  0.00     0.031 C 
ATOM     70  C   UNL A   1      46.655  31.906  28.343  1.00  0.00     0.031 A 
BRANCH  57  71
ATOM     71  C   UNL A   1      50.532  27.744  25.920  1.00  0.00    -0.014 A 
ATOM     72  C   UNL A   1      51.471  27.188  26.808  1.00  0.00     0.010 A 
ATOM     73  C   UNL A   1      50.902  27.952  24.578  1.00  0.00     0.010 A 
ATOM     74  C   UNL A   1      52.763  26.883  26.374  1.00  0.00     0.020 A 
ATOM     75  C   UNL A   1      52.184  27.618  24.132  1.00  0.00     0.020 A 
ATOM     76  C   UNL A   1      53.112  27.099  25.036  1.00  0.00     0.054 A 
BRANCH  76  77
ATOM     77  S   UNL A   1      54.787  26.664  24.495  1.00  0.00     0.124 S 
ATOM     78  O   UNL A   1      55.606  27.577  25.289  1.00  0.00    -0.237 OA
ATOM     79  O   UNL A   1      54.884  25.254  24.861  1.00  0.00    -0.237 OA
ATOM     80  O   UNL A   1      54.768  26.934  23.060  1.00  0.00    -0.744 OA
ENDBRANCH  76  77
ENDBRANCH  57  71
BRANCH  58  81
ATOM     81  C   UNL A   1      41.183  29.401  29.058  1.00  0.00    -0.014 A 
ATOM     82  C   UNL A   1      40.916  29.424  30.439  1.00  0.00     0.010 A 
ATOM     83  C   UNL A   1      40.125  29.611  28.156  1.00  0.00     0.010 A 
ATOM     84  C   UNL A   1      39.614  29.629  30.906  1.00  0.00     0.020 A 
ATOM     85  C   UNL A   1      38.828  29.848  28.619  1.00  0.00     0.020 A 
ATOM     86  C   UNL A   1      38.579  29.842  29.993  1.00  0.00     0.054 A 
BRANCH  86  87
ATOM     87  S   UNL A   1      36.904  30.145  30.621  1.00  0.00     0.124 S 
ATOM     88  O   UNL A   1      36.836  31.603  30.611  1.00  0.00    -0.237 OA
ATOM     89  O   UNL A   1      36.070  29.463  29.634  1.00  0.00    -0.237 OA
ATOM     90  O   UNL A   1      36.921  29.529  31.946  1.00  0.00    -0.744 OA
ENDBRANCH  86  87
ENDBRANCH  58  81
BRANCH  70  91
ATOM     91  C   UNL A   1      46.934  33.342  28.706  1.00  0.00    -0.014 A 
ATOM     92  C   UNL A   1      46.724  34.385  27.787  1.00  0.00     0.010 A 
ATOM     93  C   UNL A   1      47.358  33.654  30.012  1.00  0.00     0.010 A 
ATOM     94  C   UNL A   1      46.965  35.711  28.158  1.00  0.00     0.020 A 
ATOM     95  C   UNL A   1      47.569  34.980  30.395  1.00  0.00     0.020 A 
ATOM     96  C   UNL A   1      47.383  36.000  29.461  1.00  0.00     0.054 A 
BRANCH  96  97
ATOM     97  S   UNL A   1      47.643  37.733  29.928  1.00  0.00     0.124 S 
ATOM     98  O   UNL A   1      46.293  38.156  30.292  1.00  0.00    -0.237 OA
ATOM     99  O   UNL A   1      48.588  37.626  31.037  1.00  0.00    -0.237 OA
ATOM    100  O   UNL A   1      48.181  38.342  28.715  1.00  0.00    -0.744 OA
ENDBRANCH  96  97
ENDBRANCH  70  91
ENDBRANCH  44  45
ENDBRANCH  36  39
ENDBRANCH  34  35
ENDBRANCH  33  34
ENDBRANCH  32  33
ENDBRANCH   1  32
TORSDOF 19
ENDMDL
MODEL 3
REMARK VINA RESULT:     -11.3      0.538      7.807
REMARK SMILES Cc1ccc(C(=O)N2CCC3(CCC(=O)N(CC(=O)NCCCCCCNC(=O)c4ccc(-c5c6nc(c(-c7ccc(S(=O)(=O)[O-])cc7)c7ccc([nH]7)c(-c7ccc(S(=O)(=O)[O-])cc7)c7nc(c(-c8ccc(S(=O)(=O)[O-])cc8)c8ccc5[nH]8)C=C7)C=C6)cc4)C3)CC2)cc1O
REMARK SMILES IDX 23 1 22 2 21 3 20 4 18 5 19 6 17 8 16 9 6 10 7 11 8 12 9 13
REMARK SMILES IDX 92 14 10 15 91 16 11 17 12 18 90 19 13 20 14 21 15 22 5 23
REMARK SMILES IDX 1 24 2 25 3 26 94 27 4 28 93 29 95 30 24 32 25 33 26 34
REMARK SMILES IDX 27 35 28 36 29 38 30 39 31 40 89 41 32 42 88 43 33 44 34 45
REMARK SMILES IDX 35 46 82 47 36 48 87 49 81 50 83 51 37 52 86 53 80 54 79 55
REMARK SMILES IDX 38 57 68 58 49 59 67 60 50 61 53 62 66 63 84 64 51 65 52 66
REMARK SMILES IDX 65 68 85 69 54 70 39 71 40 72 48 73 41 74 47 75 42 76 43 77
REMARK SMILES IDX 44 78 45 79 46 80 69 81 70 82 78 83 71 84 77 85 72 86 73 87
REMARK SMILES IDX 74 88 75 89 76 90 55 91 56 92 64 93 57 94 63 95 58 96 59 97
REMARK SMILES IDX 60 98 61 99 62 100
REMARK H PARENT 20 7 95 31 27 37 83 56 53 67
REMARK Flexibility Score: inf
ROOT
ATOM      1  C   UNL A   1      35.319  31.760  27.869  1.00  0.00     0.002 C 
ENDROOT
BRANCH   1   2
ATOM      2  C   UNL A   1      35.262  30.237  27.695  1.00  0.00     0.021 C 
BRANCH   2   3
ATOM      3  C   UNL A   1      34.006  29.756  26.974  1.00  0.00     0.116 C 
BRANCH   3   4
ATOM      4  N   UNL A   1      33.117  30.853  26.684  1.00  0.00    -0.355 N 
ATOM      5  C   UNL A   1      31.864  30.825  26.148  1.00  0.00     0.239 C 
ATOM      6  O   UNL A   1      31.224  31.880  26.146  1.00  0.00    -0.273 OA
ATOM      7  H   UNL A   1      33.463  31.748  26.903  1.00  0.00     0.163 HD
BRANCH   5   8
ATOM      8  C   UNL A   1      31.207  29.492  25.770  1.00  0.00     0.219 C 
BRANCH   8   9
ATOM      9  N   UNL A   1      31.412  28.959  24.418  1.00  0.00    -0.333 N 
ATOM     10  C   UNL A   1      33.849  23.014  24.325  1.00  0.00     0.253 C 
ATOM     11  O   UNL A   1      33.112  22.085  24.659  1.00  0.00    -0.269 OA
ATOM     12  N   UNL A   1      33.334  24.175  23.755  1.00  0.00    -0.339 N 
ATOM     13  C   UNL A   1      31.973  24.550  24.097  1.00  0.00     0.120 C 
ATOM     14  C   UNL A   1      33.941  24.938  22.668  1.00  0.00     0.120 C 
ATOM     15  C   UNL A   1      31.968  26.009  24.532  1.00  0.00     0.030 C 
ATOM     16  C   UNL A   1      33.918  26.443  22.967  1.00  0.00     0.030 C 
ATOM     17  C   UNL A   1      32.530  26.959  23.442  1.00  0.00    -0.008 C 
ATOM     18  C   UNL A   1      31.593  27.120  22.229  1.00  0.00     0.019 C 
ATOM     19  C   UNL A   1      32.690  28.362  24.048  1.00  0.00     0.127 C 
ATOM     20  C   UNL A   1      30.260  27.755  22.592  1.00  0.00     0.101 C 
ATOM     21  C   UNL A   1      30.309  28.903  23.584  1.00  0.00     0.223 C 
ATOM     22  O   UNL A   1      29.328  29.629  23.736  1.00  0.00    -0.275 OA
BRANCH  10  23
ATOM     23  C   UNL A   1      35.293  22.938  24.701  1.00  0.00     0.043 A 
ATOM     24  C   UNL A   1      39.280  22.480  26.329  1.00  0.00     0.048 C 
ATOM     25  C   UNL A   1      37.910  22.615  25.732  1.00  0.00    -0.009 A 
ATOM     26  C   UNL A   1      37.282  23.865  25.751  1.00  0.00     0.008 A 
ATOM     27  C   UNL A   1      37.208  21.531  25.192  1.00  0.00     0.119 A 
ATOM     28  C   UNL A   1      35.981  24.017  25.265  1.00  0.00     0.014 A 
ATOM     29  C   UNL A   1      35.923  21.689  24.670  1.00  0.00     0.060 A 
BRANCH  27  30
ATOM     30  O   UNL A   1      37.713  20.262  25.173  1.00  0.00    -0.508 OA
ATOM     31  H   UNL A   1      37.347  19.620  24.597  1.00  0.00     0.293 HD
ENDBRANCH  27  30
ENDBRANCH  10  23
ENDBRANCH   8   9
ENDBRANCH   5   8
ENDBRANCH   3   4
ENDBRANCH   2   3
ENDBRANCH   1   2
BRANCH   1  32
ATOM     32  C   UNL A   1      36.700  32.317  28.232  1.00  0.00     0.002 C 
BRANCH  32  33
ATOM     33  C   UNL A   1      36.702  33.340  29.369  1.00  0.00     0.021 C 
BRANCH  33  34
ATOM     34  C   UNL A   1      37.475  32.899  30.607  1.00  0.00     0.116 C 
BRANCH  34  35
ATOM     35  N   UNL A   1      36.822  31.792  31.285  1.00  0.00    -0.352 N 
ATOM     36  C   UNL A   1      37.138  30.457  31.268  1.00  0.00     0.251 C 
ATOM     37  H   UNL A   1      36.042  32.033  31.836  1.00  0.00     0.163 HD
ATOM     38  O   UNL A   1      36.346  29.631  31.716  1.00  0.00    -0.269 OA
BRANCH  36  39
ATOM     39  C   UNL A   1      38.425  30.016  30.691  1.00  0.00     0.039 A 
ATOM     40  C   UNL A   1      38.496  29.732  29.327  1.00  0.00     0.014 A 
ATOM     41  C   UNL A   1      39.559  29.885  31.499  1.00  0.00     0.014 A 
ATOM     42  C   UNL A   1      39.720  29.370  28.760  1.00  0.00     0.010 A 
ATOM     43  C   UNL A   1      40.792  29.601  30.919  1.00  0.00     0.010 A 
ATOM     44  C   UNL A   1      40.885  29.335  29.544  1.00  0.00    -0.014 A 
BRANCH  44  45
ATOM     45  C   UNL A   1      42.209  29.026  28.945  1.00  0.00     0.031 A 
ATOM     46  C   UNL A   1      42.505  27.640  28.436  1.00  0.00     0.074 A 
ATOM     47  C   UNL A   1      43.164  29.976  28.914  1.00  0.00     0.049 A 
ATOM     48  N   UNL A   1      43.617  27.168  27.935  1.00  0.00    -0.248 NA
ATOM     49  C   UNL A   1      41.418  26.650  28.524  1.00  0.00     0.031 C 
ATOM     50  C   UNL A   1      43.012  31.347  29.410  1.00  0.00     0.029 A 
ATOM     51  N   UNL A   1      44.455  29.934  28.449  1.00  0.00    -0.354 N 
ATOM     52  C   UNL A   1      43.369  25.827  27.661  1.00  0.00     0.074 A 
ATOM     53  C   UNL A   1      42.021  25.548  28.101  1.00  0.00     0.031 C 
ATOM     54  C   UNL A   1      44.154  32.021  29.196  1.00  0.00     0.029 A 
ATOM     55  C   UNL A   1      45.133  31.122  28.594  1.00  0.00     0.049 A 
ATOM     56  H   UNL A   1      44.857  29.130  28.050  1.00  0.00     0.167 HD
ATOM     57  C   UNL A   1      44.184  24.916  27.078  1.00  0.00     0.031 A 
ATOM     58  C   UNL A   1      46.404  31.451  28.286  1.00  0.00     0.031 A 
ATOM     59  C   UNL A   1      45.523  25.201  26.633  1.00  0.00     0.049 A 
ATOM     60  C   UNL A   1      47.297  30.414  27.659  1.00  0.00     0.074 A 
ATOM     61  C   UNL A   1      46.409  24.360  25.983  1.00  0.00     0.029 A 
ATOM     62  N   UNL A   1      46.171  26.416  26.795  1.00  0.00    -0.354 N 
ATOM     63  N   UNL A   1      47.021  29.169  27.349  1.00  0.00    -0.248 NA
ATOM     64  C   UNL A   1      48.667  30.829  27.331  1.00  0.00     0.031 C 
ATOM     65  C   UNL A   1      47.614  25.047  25.808  1.00  0.00     0.029 A 
ATOM     66  C   UNL A   1      47.455  26.339  26.284  1.00  0.00     0.049 A 
ATOM     67  H   UNL A   1      45.776  27.216  27.211  1.00  0.00     0.167 HD
ATOM     68  C   UNL A   1      48.175  28.663  26.760  1.00  0.00     0.074 A 
ATOM     69  C   UNL A   1      49.144  29.740  26.744  1.00  0.00     0.031 C 
ATOM     70  C   UNL A   1      48.409  27.419  26.274  1.00  0.00     0.031 A 
BRANCH  57  71
ATOM     71  C   UNL A   1      43.653  23.517  26.893  1.00  0.00    -0.014 A 
ATOM     72  C   UNL A   1      43.206  22.756  27.987  1.00  0.00     0.010 A 
ATOM     73  C   UNL A   1      43.553  22.976  25.597  1.00  0.00     0.010 A 
ATOM     74  C   UNL A   1      42.704  21.466  27.796  1.00  0.00     0.020 A 
ATOM     75  C   UNL A   1      43.021  21.698  25.398  1.00  0.00     0.020 A 
ATOM     76  C   UNL A   1      42.615  20.945  26.500  1.00  0.00     0.054 A 
BRANCH  76  77
ATOM     77  S   UNL A   1      41.932  19.280  26.280  1.00  0.00     0.124 S 
ATOM     78  O   UNL A   1      40.501  19.554  26.173  1.00  0.00    -0.237 OA
ATOM     79  O   UNL A   1      42.579  18.829  25.051  1.00  0.00    -0.237 OA
ATOM     80  O   UNL A   1      42.340  18.574  27.492  1.00  0.00    -0.744 OA
ENDBRANCH  76  77
ENDBRANCH  57  71
BRANCH  58  81
ATOM     81  C   UNL A   1      46.906  32.824  28.566  1.00  0.00    -0.014 A 
ATOM     82  C   UNL A   1      47.525  33.126  29.793  1.00  0.00     0.010 A 
ATOM     83  C   UNL A   1      46.770  33.841  27.604  1.00  0.00     0.010 A 
ATOM     84  C   UNL A   1      47.975  34.422  30.060  1.00  0.00     0.020 A 
ATOM     85  C   UNL A   1      47.247  35.130  27.854  1.00  0.00     0.020 A 
ATOM     86  C   UNL A   1      47.835  35.416  29.088  1.00  0.00     0.054 A 
BRANCH  86  87
ATOM     87  S   UNL A   1      48.463  37.081  29.439  1.00  0.00     0.124 S 
ATOM     88  O   UNL A   1      47.229  37.853  29.548  1.00  0.00    -0.237 OA
ATOM     89  O   UNL A   1      49.201  36.882  30.684  1.00  0.00    -0.237 OA
ATOM     90  O   UNL A   1      49.291  37.386  28.274  1.00  0.00    -0.744 OA
ENDBRANCH  86  87
ENDBRANCH  58  81
BRANCH  70  91
ATOM     91  C   UNL A   1      49.755  27.159  25.647  1.00  0.00    -0.014 A 
ATOM     92  C   UNL A   1      49.969  27.346  24.270  1.00  0.00     0.010 A 
ATOM     93  C   UNL A   1      50.836  26.779  26.463  1.00  0.00     0.010 A 
ATOM     94  C   UNL A   1      51.234  27.124  23.716  1.00  0.00     0.020 A 
ATOM     95  C   UNL A   1      52.108  26.588  25.920  1.00  0.00     0.020 A 
ATOM     96  C   UNL A   1      52.295  26.749  24.546  1.00  0.00     0.054 A 
BRANCH  96  97
ATOM     97  S   UNL A   1      53.936  26.514  23.808  1.00  0.00     0.124 S 
ATOM     98  O   UNL A   1      54.470  25.409  24.601  1.00  0.00    -0.237 OA
ATOM     99  O   UNL A   1      53.618  26.195  22.419  1.00  0.00    -0.237 OA
ATOM    100  O   UNL A   1      54.595  27.802  24.012  1.00  0.00    -0.744 OA
ENDBRANCH  96  97
ENDBRANCH  70  91
ENDBRANCH  44  45
ENDBRANCH  36  39
ENDBRANCH  34  35
ENDBRANCH  33  34
ENDBRANCH  32  33
ENDBRANCH   1  32
TORSDOF 19
ENDMDL
