MODEL 1
REMARK VINA RESULT:     -10.1      0.000      0.000
REMARK SMILES Cc1cc(N[C@@H]2C=C[C@@H](C(=O)NCCCCCCNC(=O)c3ccc(-c4c5nc(c(-c6ccc(S(=O)(=O)[O-])cc6)c6ccc([nH]6)c(-c6ccc(S(=O)(=O)[O-])cc6)c6nc(c(-c7ccc(S(=O)(=O)[O-])cc7)c7ccc4[nH]7)C=C6)C=C5)cc3)C2)nc(C)n1
REMARK SMILES IDX 16 1 15 2 14 3 13 4 12 5 10 6 11 7 9 9 6 10 7 11 82 12 8 13
REMARK SMILES IDX 5 14 4 16 1 17 2 18 3 19 86 20 84 21 83 22 85 23 17 24 18 25
REMARK SMILES IDX 19 26 20 27 21 29 22 30 23 31 81 32 24 33 80 34 25 35 26 36
REMARK SMILES IDX 27 37 74 38 28 39 79 40 73 41 75 42 29 43 78 44 72 45 71 46
REMARK SMILES IDX 30 48 60 49 41 50 59 51 42 52 45 53 58 54 76 55 43 56 44 57
REMARK SMILES IDX 57 59 77 60 46 61 31 62 32 63 40 64 33 65 39 66 34 67 35 68
REMARK SMILES IDX 36 69 37 70 38 71 61 72 62 73 70 74 63 75 69 76 64 77 65 78
REMARK SMILES IDX 66 79 67 80 68 81 47 82 48 83 56 84 49 85 55 86 50 87 51 88
REMARK SMILES IDX 52 89 53 90 54 91
REMARK H PARENT 12 8 5 15 19 28 75 47 45 58
REMARK Flexibility Score: inf
ROOT
ATOM      1  C   UNL A   1      39.474  22.858  26.138  1.00  0.00     0.002 C 
ENDROOT
BRANCH   1   2
ATOM      2  C   UNL A   1      38.380  23.838  26.576  1.00  0.00     0.002 C 
BRANCH   2   3
ATOM      3  C   UNL A   1      37.099  23.779  25.736  1.00  0.00     0.021 C 
BRANCH   3   4
ATOM      4  C   UNL A   1      35.909  23.193  26.485  1.00  0.00     0.116 C 
BRANCH   4   5
ATOM      5  N   UNL A   1      35.631  21.858  26.005  1.00  0.00    -0.356 N 
ATOM      6  C   UNL A   1      34.687  21.415  25.143  1.00  0.00     0.227 C 
ATOM      7  O   UNL A   1      34.596  20.195  24.972  1.00  0.00    -0.274 OA
ATOM      8  H   UNL A   1      36.223  21.158  26.364  1.00  0.00     0.163 HD
BRANCH   6   9
ATOM      9  C   UNL A   1      33.779  22.367  24.375  1.00  0.00     0.103 C 
ATOM     10  C   UNL A   1      33.239  22.880  22.027  1.00  0.00     0.104 C 
ATOM     11  C   UNL A   1      32.194  22.024  22.669  1.00  0.00    -0.006 C 
ATOM     12  C   UNL A   1      34.351  22.990  23.088  1.00  0.00     0.046 C 
ATOM     13  C   UNL A   1      32.486  21.739  23.944  1.00  0.00    -0.016 C 
BRANCH  10  14
ATOM     14  N   UNL A   1      32.689  24.148  21.583  1.00  0.00    -0.364 N 
ATOM     15  H   UNL A   1      32.417  24.190  20.637  1.00  0.00     0.162 HD
BRANCH  14  16
ATOM     16  C   UNL A   1      32.499  25.296  22.313  1.00  0.00     0.130 A 
ATOM     17  C   UNL A   1      33.948  28.681  22.957  1.00  0.00     0.067 C 
ATOM     18  C   UNL A   1      33.065  27.473  23.041  1.00  0.00     0.043 A 
ATOM     19  C   UNL A   1      33.243  26.438  22.153  1.00  0.00     0.070 A 
ATOM     20  N   UNL A   1      32.108  27.445  23.979  1.00  0.00    -0.238 NA
ATOM     21  C   UNL A   1      31.355  26.329  24.018  1.00  0.00     0.127 A 
ATOM     22  N   UNL A   1      31.522  25.247  23.228  1.00  0.00    -0.216 NA
ATOM     23  C   UNL A   1      30.233  26.293  25.006  1.00  0.00     0.090 C 
ENDBRANCH  14  16
ENDBRANCH  10  14
ENDBRANCH   6   9
ENDBRANCH   4   5
ENDBRANCH   3   4
ENDBRANCH   2   3
ENDBRANCH   1   2
BRANCH   1  24
ATOM     24  C   UNL A   1      39.183  21.392  26.467  1.00  0.00     0.021 C 
BRANCH  24  25
ATOM     25  C   UNL A   1      39.737  20.408  25.445  1.00  0.00     0.116 C 
BRANCH  25  26
ATOM     26  N   UNL A   1      40.581  19.409  26.077  1.00  0.00    -0.352 N 
ATOM     27  C   UNL A   1      41.845  19.565  26.581  1.00  0.00     0.251 C 
ATOM     28  H   UNL A   1      40.196  18.506  26.153  1.00  0.00     0.163 HD
ATOM     29  O   UNL A   1      42.531  18.589  26.863  1.00  0.00    -0.269 OA
BRANCH  27  30
ATOM     30  C   UNL A   1      42.367  20.931  26.773  1.00  0.00     0.039 A 
ATOM     31  C   UNL A   1      42.439  21.458  28.063  1.00  0.00     0.014 A 
ATOM     32  C   UNL A   1      42.785  21.681  25.667  1.00  0.00     0.014 A 
ATOM     33  C   UNL A   1      42.957  22.739  28.251  1.00  0.00     0.010 A 
ATOM     34  C   UNL A   1      43.348  22.936  25.861  1.00  0.00     0.010 A 
ATOM     35  C   UNL A   1      43.418  23.482  27.151  1.00  0.00    -0.014 A 
BRANCH  35  36
ATOM     36  C   UNL A   1      43.897  24.872  27.319  1.00  0.00     0.031 A 
ATOM     37  C   UNL A   1      45.347  25.178  27.071  1.00  0.00     0.074 A 
ATOM     38  C   UNL A   1      43.051  25.840  27.720  1.00  0.00     0.049 A 
ATOM     39  N   UNL A   1      45.988  26.303  27.239  1.00  0.00    -0.248 NA
ATOM     40  C   UNL A   1      46.191  24.071  26.586  1.00  0.00     0.031 C 
ATOM     41  C   UNL A   1      41.626  25.659  28.002  1.00  0.00     0.029 A 
ATOM     42  N   UNL A   1      43.274  27.171  27.969  1.00  0.00    -0.354 N 
ATOM     43  C   UNL A   1      47.306  26.040  26.884  1.00  0.00     0.074 A 
ATOM     44  C   UNL A   1      47.386  24.641  26.532  1.00  0.00     0.031 C 
ATOM     45  C   UNL A   1      41.102  26.835  28.385  1.00  0.00     0.029 A 
ATOM     46  C   UNL A   1      42.157  27.845  28.404  1.00  0.00     0.049 A 
ATOM     47  H   UNL A   1      44.150  27.602  27.849  1.00  0.00     0.167 HD
ATOM     48  C   UNL A   1      48.350  26.897  26.836  1.00  0.00     0.031 A 
ATOM     49  C   UNL A   1      42.007  29.127  28.790  1.00  0.00     0.031 A 
ATOM     50  C   UNL A   1      48.264  28.292  27.163  1.00  0.00     0.049 A 
ATOM     51  C   UNL A   1      43.192  30.052  28.751  1.00  0.00     0.074 A 
ATOM     52  C   UNL A   1      49.266  29.245  27.107  1.00  0.00     0.029 A 
ATOM     53  N   UNL A   1      47.118  28.936  27.597  1.00  0.00    -0.354 N 
ATOM     54  N   UNL A   1      44.426  29.791  28.389  1.00  0.00    -0.248 NA
ATOM     55  C   UNL A   1      42.968  31.444  29.166  1.00  0.00     0.031 C 
ATOM     56  C   UNL A   1      48.735  30.459  27.548  1.00  0.00     0.029 A 
ATOM     57  C   UNL A   1      47.391  30.270  27.831  1.00  0.00     0.049 A 
ATOM     58  H   UNL A   1      46.240  28.507  27.720  1.00  0.00     0.167 HD
ATOM     59  C   UNL A   1      45.122  30.987  28.523  1.00  0.00     0.074 A 
ATOM     60  C   UNL A   1      44.170  31.978  28.981  1.00  0.00     0.031 C 
ATOM     61  C   UNL A   1      46.432  31.241  28.291  1.00  0.00     0.031 A 
BRANCH  48  62
ATOM     62  C   UNL A   1      49.681  26.366  26.388  1.00  0.00    -0.014 A 
ATOM     63  C   UNL A   1      50.079  26.483  25.045  1.00  0.00     0.010 A 
ATOM     64  C   UNL A   1      50.588  25.865  27.338  1.00  0.00     0.010 A 
ATOM     65  C   UNL A   1      51.371  26.120  24.661  1.00  0.00     0.020 A 
ATOM     66  C   UNL A   1      51.887  25.517  26.960  1.00  0.00     0.020 A 
ATOM     67  C   UNL A   1      52.272  25.656  25.624  1.00  0.00     0.054 A 
BRANCH  67  68
ATOM     68  S   UNL A   1      53.969  25.280  25.107  1.00  0.00     0.124 S 
ATOM     69  O   UNL A   1      53.910  23.835  24.892  1.00  0.00    -0.237 OA
ATOM     70  O   UNL A   1      54.114  26.089  23.901  1.00  0.00    -0.237 OA
ATOM     71  O   UNL A   1      54.783  25.702  26.244  1.00  0.00    -0.744 OA
ENDBRANCH  67  68
ENDBRANCH  48  62
BRANCH  49  72
ATOM     72  C   UNL A   1      40.682  29.603  29.269  1.00  0.00    -0.014 A 
ATOM     73  C   UNL A   1      39.656  29.914  28.359  1.00  0.00     0.010 A 
ATOM     74  C   UNL A   1      40.435  29.727  30.648  1.00  0.00     0.010 A 
ATOM     75  C   UNL A   1      38.411  30.349  28.821  1.00  0.00     0.020 A 
ATOM     76  C   UNL A   1      39.184  30.138  31.114  1.00  0.00     0.020 A 
ATOM     77  C   UNL A   1      38.179  30.449  30.196  1.00  0.00     0.054 A 
BRANCH  77  78
ATOM     78  S   UNL A   1      36.539  30.973  30.767  1.00  0.00     0.124 S 
ATOM     79  O   UNL A   1      36.292  30.059  31.879  1.00  0.00    -0.237 OA
ATOM     80  O   UNL A   1      36.774  32.367  31.134  1.00  0.00    -0.237 OA
ATOM     81  O   UNL A   1      35.688  30.777  29.596  1.00  0.00    -0.744 OA
ENDBRANCH  77  78
ENDBRANCH  49  72
BRANCH  61  82
ATOM     82  C   UNL A   1      46.928  32.641  28.517  1.00  0.00    -0.014 A 
ATOM     83  C   UNL A   1      46.861  33.600  27.492  1.00  0.00     0.010 A 
ATOM     84  C   UNL A   1      47.369  33.027  29.796  1.00  0.00     0.010 A 
ATOM     85  C   UNL A   1      47.241  34.921  27.739  1.00  0.00     0.020 A 
ATOM     86  C   UNL A   1      47.728  34.352  30.052  1.00  0.00     0.020 A 
ATOM     87  C   UNL A   1      47.665  35.289  29.020  1.00  0.00     0.054 A 
BRANCH  87  88
ATOM     88  S   UNL A   1      48.113  37.022  29.317  1.00  0.00     0.124 S 
ATOM     89  O   UNL A   1      49.561  37.001  29.132  1.00  0.00    -0.237 OA
ATOM     90  O   UNL A   1      47.357  37.723  28.282  1.00  0.00    -0.237 OA
ATOM     91  O   UNL A   1      47.667  37.268  30.686  1.00  0.00    -0.744 OA
ENDBRANCH  87  88
ENDBRANCH  61  82
ENDBRANCH  35  36
ENDBRANCH  27  30
ENDBRANCH  25  26
ENDBRANCH  24  25
ENDBRANCH   1  24
TORSDOF 18
ENDMDL
MODEL 2
REMARK VINA RESULT:     -10.1      3.209      9.174
REMARK SMILES Cc1cc(N[C@@H]2C=C[C@@H](C(=O)NCCCCCCNC(=O)c3ccc(-c4c5nc(c(-c6ccc(S(=O)(=O)[O-])cc6)c6ccc([nH]6)c(-c6ccc(S(=O)(=O)[O-])cc6)c6nc(c(-c7ccc(S(=O)(=O)[O-])cc7)c7ccc4[nH]7)C=C6)C=C5)cc3)C2)nc(C)n1
REMARK SMILES IDX 16 1 15 2 14 3 13 4 12 5 10 6 11 7 9 9 6 10 7 11 82 12 8 13
REMARK SMILES IDX 5 14 4 16 1 17 2 18 3 19 86 20 84 21 83 22 85 23 17 24 18 25
REMARK SMILES IDX 19 26 20 27 21 29 22 30 23 31 81 32 24 33 80 34 25 35 26 36
REMARK SMILES IDX 27 37 74 38 28 39 79 40 73 41 75 42 29 43 78 44 72 45 71 46
REMARK SMILES IDX 30 48 60 49 41 50 59 51 42 52 45 53 58 54 76 55 43 56 44 57
REMARK SMILES IDX 57 59 77 60 46 61 31 62 32 63 40 64 33 65 39 66 34 67 35 68
REMARK SMILES IDX 36 69 37 70 38 71 61 72 62 73 70 74 63 75 69 76 64 77 65 78
REMARK SMILES IDX 66 79 67 80 68 81 47 82 48 83 56 84 49 85 55 86 50 87 51 88
REMARK SMILES IDX 52 89 53 90 54 91
REMARK H PARENT 12 8 5 15 19 28 75 47 45 58
REMARK Flexibility Score: inf
ROOT
ATOM      1  C   UNL A   1      33.863  27.482  24.508  1.00  0.00     0.002 C 
ENDROOT
BRANCH   1   2
ATOM      2  C   UNL A   1      33.071  27.818  23.240  1.00  0.00     0.002 C 
BRANCH   2   3
ATOM      3  C   UNL A   1      33.351  26.893  22.050  1.00  0.00     0.021 C 
BRANCH   3   4
ATOM      4  C   UNL A   1      32.163  26.021  21.667  1.00  0.00     0.116 C 
BRANCH   4   5
ATOM      5  N   UNL A   1      31.138  26.106  22.682  1.00  0.00    -0.356 N 
ATOM      6  C   UNL A   1      30.921  25.341  23.777  1.00  0.00     0.227 C 
ATOM      7  O   UNL A   1      29.904  25.566  24.439  1.00  0.00    -0.274 OA
ATOM      8  H   UNL A   1      30.492  26.840  22.557  1.00  0.00     0.163 HD
BRANCH   6   9
ATOM      9  C   UNL A   1      31.898  24.258  24.215  1.00  0.00     0.103 C 
ATOM     10  C   UNL A   1      31.802  21.990  25.172  1.00  0.00     0.104 C 
ATOM     11  C   UNL A   1      32.069  21.967  23.701  1.00  0.00    -0.006 C 
ATOM     12  C   UNL A   1      31.545  23.475  25.493  1.00  0.00     0.046 C 
ATOM     13  C   UNL A   1      32.117  23.197  23.175  1.00  0.00    -0.016 C 
BRANCH  10  14
ATOM     14  N   UNL A   1      32.889  21.382  25.919  1.00  0.00    -0.364 N 
ATOM     15  H   UNL A   1      32.626  20.858  26.710  1.00  0.00     0.162 HD
BRANCH  14  16
ATOM     16  C   UNL A   1      34.237  21.444  25.663  1.00  0.00     0.130 A 
ATOM     17  C   UNL A   1      37.197  19.331  24.795  1.00  0.00     0.067 C 
ATOM     18  C   UNL A   1      36.352  20.516  25.153  1.00  0.00     0.043 A 
ATOM     19  C   UNL A   1      34.985  20.377  25.230  1.00  0.00     0.070 A 
ATOM     20  N   UNL A   1      36.958  21.691  25.371  1.00  0.00    -0.238 NA
ATOM     21  C   UNL A   1      36.151  22.717  25.703  1.00  0.00     0.127 A 
ATOM     22  N   UNL A   1      34.814  22.635  25.869  1.00  0.00    -0.216 NA
ATOM     23  C   UNL A   1      36.787  24.058  25.886  1.00  0.00     0.090 C 
ENDBRANCH  14  16
ENDBRANCH  10  14
ENDBRANCH   6   9
ENDBRANCH   4   5
ENDBRANCH   3   4
ENDBRANCH   2   3
ENDBRANCH   1   2
BRANCH   1  24
ATOM     24  C   UNL A   1      33.116  27.757  25.816  1.00  0.00     0.021 C 
BRANCH  24  25
ATOM     25  C   UNL A   1      34.017  28.206  26.958  1.00  0.00     0.116 C 
BRANCH  25  26
ATOM     26  N   UNL A   1      33.782  29.598  27.300  1.00  0.00    -0.352 N 
ATOM     27  C   UNL A   1      34.578  30.435  28.036  1.00  0.00     0.251 C 
ATOM     28  H   UNL A   1      32.944  29.990  26.960  1.00  0.00     0.163 HD
ATOM     29  O   UNL A   1      34.146  31.505  28.452  1.00  0.00    -0.269 OA
BRANCH  27  30
ATOM     30  C   UNL A   1      35.964  30.021  28.324  1.00  0.00     0.039 A 
ATOM     31  C   UNL A   1      36.272  29.504  29.583  1.00  0.00     0.014 A 
ATOM     32  C   UNL A   1      36.950  30.148  27.339  1.00  0.00     0.014 A 
ATOM     33  C   UNL A   1      37.576  29.086  29.851  1.00  0.00     0.010 A 
ATOM     34  C   UNL A   1      38.236  29.684  27.590  1.00  0.00     0.010 A 
ATOM     35  C   UNL A   1      38.563  29.171  28.854  1.00  0.00    -0.014 A 
BRANCH  35  36
ATOM     36  C   UNL A   1      39.968  28.808  29.142  1.00  0.00     0.031 A 
ATOM     37  C   UNL A   1      40.882  29.845  29.731  1.00  0.00     0.074 A 
ATOM     38  C   UNL A   1      40.427  27.577  28.847  1.00  0.00     0.049 A 
ATOM     39  N   UNL A   1      42.161  29.764  29.981  1.00  0.00    -0.248 NA
ATOM     40  C   UNL A   1      40.284  31.150  30.069  1.00  0.00     0.031 C 
ATOM     41  C   UNL A   1      39.636  26.493  28.262  1.00  0.00     0.029 A 
ATOM     42  N   UNL A   1      41.680  27.035  28.993  1.00  0.00    -0.354 N 
ATOM     43  C   UNL A   1      42.520  31.001  30.502  1.00  0.00     0.074 A 
ATOM     44  C   UNL A   1      41.338  31.831  30.494  1.00  0.00     0.031 C 
ATOM     45  C   UNL A   1      40.422  25.416  28.100  1.00  0.00     0.029 A 
ATOM     46  C   UNL A   1      41.776  25.741  28.540  1.00  0.00     0.049 A 
ATOM     47  H   UNL A   1      42.437  27.527  29.384  1.00  0.00     0.167 HD
ATOM     48  C   UNL A   1      43.725  31.400  30.966  1.00  0.00     0.031 A 
ATOM     49  C   UNL A   1      42.841  24.916  28.473  1.00  0.00     0.031 A 
ATOM     50  C   UNL A   1      44.894  30.566  30.995  1.00  0.00     0.049 A 
ATOM     51  C   UNL A   1      44.175  25.396  28.972  1.00  0.00     0.074 A 
ATOM     52  C   UNL A   1      46.152  30.876  31.483  1.00  0.00     0.029 A 
ATOM     53  N   UNL A   1      44.951  29.264  30.529  1.00  0.00    -0.354 N 
ATOM     54  N   UNL A   1      44.491  26.561  29.484  1.00  0.00    -0.248 NA
ATOM     55  C   UNL A   1      45.298  24.449  28.891  1.00  0.00     0.031 C 
ATOM     56  C   UNL A   1      46.982  29.773  31.273  1.00  0.00     0.029 A 
ATOM     57  C   UNL A   1      46.228  28.761  30.701  1.00  0.00     0.049 A 
ATOM     58  H   UNL A   1      44.195  28.770  30.136  1.00  0.00     0.167 HD
ATOM     59  C   UNL A   1      45.843  26.486  29.795  1.00  0.00     0.074 A 
ATOM     60  C   UNL A   1      46.284  25.155  29.432  1.00  0.00     0.031 C 
ATOM     61  C   UNL A   1      46.649  27.435  30.330  1.00  0.00     0.031 A 
BRANCH  48  62
ATOM     62  C   UNL A   1      43.850  32.794  31.508  1.00  0.00    -0.014 A 
ATOM     63  C   UNL A   1      43.691  33.039  32.883  1.00  0.00     0.010 A 
ATOM     64  C   UNL A   1      44.253  33.840  30.660  1.00  0.00     0.010 A 
ATOM     65  C   UNL A   1      43.948  34.309  33.404  1.00  0.00     0.020 A 
ATOM     66  C   UNL A   1      44.527  35.107  31.181  1.00  0.00     0.020 A 
ATOM     67  C   UNL A   1      44.381  35.329  32.552  1.00  0.00     0.054 A 
BRANCH  67  68
ATOM     68  S   UNL A   1      44.792  36.940  33.277  1.00  0.00     0.124 S 
ATOM     69  O   UNL A   1      45.971  36.623  34.079  1.00  0.00    -0.237 OA
ATOM     70  O   UNL A   1      45.038  37.760  32.094  1.00  0.00    -0.237 OA
ATOM     71  O   UNL A   1      43.600  37.292  34.044  1.00  0.00    -0.744 OA
ENDBRANCH  67  68
ENDBRANCH  48  62
BRANCH  49  72
ATOM     72  C   UNL A   1      42.686  23.558  27.888  1.00  0.00    -0.014 A 
ATOM     73  C   UNL A   1      41.990  22.551  28.579  1.00  0.00     0.010 A 
ATOM     74  C   UNL A   1      43.222  23.273  26.619  1.00  0.00     0.010 A 
ATOM     75  C   UNL A   1      41.839  21.281  28.014  1.00  0.00     0.020 A 
ATOM     76  C   UNL A   1      43.053  22.012  26.040  1.00  0.00     0.020 A 
ATOM     77  C   UNL A   1      42.364  21.023  26.744  1.00  0.00     0.054 A 
BRANCH  77  78
ATOM     78  S   UNL A   1      42.116  19.379  26.017  1.00  0.00     0.124 S 
ATOM     79  O   UNL A   1      42.665  18.501  27.046  1.00  0.00    -0.237 OA
ATOM     80  O   UNL A   1      40.666  19.333  25.853  1.00  0.00    -0.237 OA
ATOM     81  O   UNL A   1      42.878  19.435  24.772  1.00  0.00    -0.744 OA
ENDBRANCH  77  78
ENDBRANCH  49  72
BRANCH  61  82
ATOM     82  C   UNL A   1      48.090  27.082  30.568  1.00  0.00    -0.014 A 
ATOM     83  C   UNL A   1      49.063  27.338  29.588  1.00  0.00     0.010 A 
ATOM     84  C   UNL A   1      48.487  26.583  31.823  1.00  0.00     0.010 A 
ATOM     85  C   UNL A   1      50.411  27.088  29.853  1.00  0.00     0.020 A 
ATOM     86  C   UNL A   1      49.837  26.355  32.099  1.00  0.00     0.020 A 
ATOM     87  C   UNL A   1      50.790  26.605  31.110  1.00  0.00     0.054 A 
BRANCH  87  88
ATOM     88  S   UNL A   1      52.553  26.330  31.435  1.00  0.00     0.124 S 
ATOM     89  O   UNL A   1      52.575  24.927  31.840  1.00  0.00    -0.237 OA
ATOM     90  O   UNL A   1      53.160  26.621  30.139  1.00  0.00    -0.237 OA
ATOM     91  O   UNL A   1      52.866  27.286  32.495  1.00  0.00    -0.744 OA
ENDBRANCH  87  88
ENDBRANCH  61  82
ENDBRANCH  35  36
ENDBRANCH  27  30
ENDBRANCH  25  26
ENDBRANCH  24  25
ENDBRANCH   1  24
TORSDOF 18
ENDMDL
MODEL 3
REMARK VINA RESULT:     -10.0      5.436      8.447
REMARK SMILES Cc1cc(N[C@@H]2C=C[C@@H](C(=O)NCCCCCCNC(=O)c3ccc(-c4c5nc(c(-c6ccc(S(=O)(=O)[O-])cc6)c6ccc([nH]6)c(-c6ccc(S(=O)(=O)[O-])cc6)c6nc(c(-c7ccc(S(=O)(=O)[O-])cc7)c7ccc4[nH]7)C=C6)C=C5)cc3)C2)nc(C)n1
REMARK SMILES IDX 16 1 15 2 14 3 13 4 12 5 10 6 11 7 9 9 6 10 7 11 82 12 8 13
REMARK SMILES IDX 5 14 4 16 1 17 2 18 3 19 86 20 84 21 83 22 85 23 17 24 18 25
REMARK SMILES IDX 19 26 20 27 21 29 22 30 23 31 81 32 24 33 80 34 25 35 26 36
REMARK SMILES IDX 27 37 74 38 28 39 79 40 73 41 75 42 29 43 78 44 72 45 71 46
REMARK SMILES IDX 30 48 60 49 41 50 59 51 42 52 45 53 58 54 76 55 43 56 44 57
REMARK SMILES IDX 57 59 77 60 46 61 31 62 32 63 40 64 33 65 39 66 34 67 35 68
REMARK SMILES IDX 36 69 37 70 38 71 61 72 62 73 70 74 63 75 69 76 64 77 65 78
REMARK SMILES IDX 66 79 67 80 68 81 47 82 48 83 56 84 49 85 55 86 50 87 51 88
REMARK SMILES IDX 52 89 53 90 54 91
REMARK H PARENT 12 8 5 15 19 28 75 47 45 58
REMARK Flexibility Score: inf
ROOT
ATOM      1  C   UNL A   1      32.588  27.236  26.448  1.00  0.00     0.002 C 
ENDROOT
BRANCH   1   2
ATOM      2  C   UNL A   1      33.841  26.569  25.870  1.00  0.00     0.002 C 
BRANCH   2   3
ATOM      3  C   UNL A   1      33.771  25.039  25.796  1.00  0.00     0.021 C 
BRANCH   3   4
ATOM      4  C   UNL A   1      34.414  24.462  24.542  1.00  0.00     0.116 C 
BRANCH   4   5
ATOM      5  N   UNL A   1      33.566  23.438  23.976  1.00  0.00    -0.356 N 
ATOM      6  C   UNL A   1      32.582  23.526  23.051  1.00  0.00     0.227 C 
ATOM      7  O   UNL A   1      31.933  22.504  22.807  1.00  0.00    -0.274 OA
ATOM      8  H   UNL A   1      33.730  22.529  24.319  1.00  0.00     0.163 HD
BRANCH   6   9
ATOM      9  C   UNL A   1      32.288  24.818  22.301  1.00  0.00     0.103 C 
ATOM     10  C   UNL A   1      31.921  27.196  22.832  1.00  0.00     0.104 C 
ATOM     11  C   UNL A   1      33.305  26.940  22.328  1.00  0.00    -0.006 C 
ATOM     12  C   UNL A   1      31.292  25.794  22.955  1.00  0.00     0.046 C 
ATOM     13  C   UNL A   1      33.511  25.649  22.043  1.00  0.00    -0.016 C 
BRANCH  10  14
ATOM     14  N   UNL A   1      31.201  28.115  21.968  1.00  0.00    -0.364 N 
ATOM     15  H   UNL A   1      31.635  28.325  21.109  1.00  0.00     0.162 HD
BRANCH  14  16
ATOM     16  C   UNL A   1      29.994  28.729  22.195  1.00  0.00     0.130 A 
ATOM     17  C   UNL A   1      26.615  28.176  23.696  1.00  0.00     0.067 C 
ATOM     18  C   UNL A   1      27.765  28.817  22.979  1.00  0.00     0.043 A 
ATOM     19  C   UNL A   1      28.984  28.180  22.945  1.00  0.00     0.070 A 
ATOM     20  N   UNL A   1      27.573  30.010  22.401  1.00  0.00    -0.238 NA
ATOM     21  C   UNL A   1      28.635  30.531  21.759  1.00  0.00     0.127 A 
ATOM     22  N   UNL A   1      29.837  29.930  21.623  1.00  0.00    -0.216 NA
ATOM     23  C   UNL A   1      28.476  31.893  21.163  1.00  0.00     0.090 C 
ENDBRANCH  14  16
ENDBRANCH  10  14
ENDBRANCH   6   9
ENDBRANCH   4   5
ENDBRANCH   3   4
ENDBRANCH   2   3
ENDBRANCH   1   2
BRANCH   1  24
ATOM     24  C   UNL A   1      32.860  28.510  27.251  1.00  0.00     0.021 C 
BRANCH  24  25
ATOM     25  C   UNL A   1      33.918  29.414  26.635  1.00  0.00     0.116 C 
BRANCH  25  26
ATOM     26  N   UNL A   1      33.609  30.816  26.856  1.00  0.00    -0.352 N 
ATOM     27  C   UNL A   1      34.193  31.682  27.743  1.00  0.00     0.251 C 
ATOM     28  H   UNL A   1      32.889  31.192  26.298  1.00  0.00     0.163 HD
ATOM     29  O   UNL A   1      33.673  32.763  27.996  1.00  0.00    -0.269 OA
BRANCH  27  30
ATOM     30  C   UNL A   1      35.455  31.285  28.393  1.00  0.00     0.039 A 
ATOM     31  C   UNL A   1      35.463  30.184  29.251  1.00  0.00     0.014 A 
ATOM     32  C   UNL A   1      36.627  32.009  28.144  1.00  0.00     0.014 A 
ATOM     33  C   UNL A   1      36.661  29.789  29.846  1.00  0.00     0.010 A 
ATOM     34  C   UNL A   1      37.829  31.584  28.698  1.00  0.00     0.010 A 
ATOM     35  C   UNL A   1      37.850  30.485  29.569  1.00  0.00    -0.014 A 
BRANCH  35  36
ATOM     36  C   UNL A   1      39.115  30.132  30.251  1.00  0.00     0.031 A 
ATOM     37  C   UNL A   1      39.924  28.976  29.733  1.00  0.00     0.074 A 
ATOM     38  C   UNL A   1      39.515  30.817  31.339  1.00  0.00     0.049 A 
ATOM     39  N   UNL A   1      41.012  28.451  30.229  1.00  0.00    -0.248 NA
ATOM     40  C   UNL A   1      39.439  28.315  28.508  1.00  0.00     0.031 C 
ATOM     41  C   UNL A   1      38.805  31.948  31.939  1.00  0.00     0.029 A 
ATOM     42  N   UNL A   1      40.616  30.651  32.141  1.00  0.00    -0.354 N 
ATOM     43  C   UNL A   1      41.339  27.400  29.380  1.00  0.00     0.074 A 
ATOM     44  C   UNL A   1      40.316  27.333  28.363  1.00  0.00     0.031 C 
ATOM     45  C   UNL A   1      39.490  32.375  33.013  1.00  0.00     0.029 A 
ATOM     46  C   UNL A   1      40.668  31.531  33.196  1.00  0.00     0.049 A 
ATOM     47  H   UNL A   1      41.304  29.966  31.976  1.00  0.00     0.167 HD
ATOM     48  C   UNL A   1      42.412  26.580  29.434  1.00  0.00     0.031 A 
ATOM     49  C   UNL A   1      41.557  31.634  34.204  1.00  0.00     0.031 A 
ATOM     50  C   UNL A   1      43.442  26.663  30.432  1.00  0.00     0.049 A 
ATOM     51  C   UNL A   1      42.727  30.691  34.253  1.00  0.00     0.074 A 
ATOM     52  C   UNL A   1      44.587  25.894  30.543  1.00  0.00     0.029 A 
ATOM     53  N   UNL A   1      43.459  27.566  31.480  1.00  0.00    -0.354 N 
ATOM     54  N   UNL A   1      43.034  29.719  33.428  1.00  0.00    -0.248 NA
ATOM     55  C   UNL A   1      43.675  30.859  35.364  1.00  0.00     0.031 C 
ATOM     56  C   UNL A   1      45.277  26.306  31.684  1.00  0.00     0.029 A 
ATOM     57  C   UNL A   1      44.586  27.363  32.255  1.00  0.00     0.049 A 
ATOM     58  H   UNL A   1      42.772  28.251  31.648  1.00  0.00     0.167 HD
ATOM     59  C   UNL A   1      44.213  29.166  33.913  1.00  0.00     0.074 A 
ATOM     60  C   UNL A   1      44.577  29.923  35.094  1.00  0.00     0.031 C 
ATOM     61  C   UNL A   1      44.929  28.123  33.428  1.00  0.00     0.031 A 
BRANCH  48  62
ATOM     62  C   UNL A   1      42.554  25.529  28.372  1.00  0.00    -0.014 A 
ATOM     63  C   UNL A   1      43.084  25.857  27.112  1.00  0.00     0.010 A 
ATOM     64  C   UNL A   1      42.275  24.184  28.677  1.00  0.00     0.010 A 
ATOM     65  C   UNL A   1      43.348  24.853  26.178  1.00  0.00     0.020 A 
ATOM     66  C   UNL A   1      42.554  23.177  27.751  1.00  0.00     0.020 A 
ATOM     67  C   UNL A   1      43.097  23.518  26.510  1.00  0.00     0.054 A 
BRANCH  67  68
ATOM     68  S   UNL A   1      43.536  22.234  25.308  1.00  0.00     0.124 S 
ATOM     69  O   UNL A   1      44.788  21.717  25.855  1.00  0.00    -0.237 OA
ATOM     70  O   UNL A   1      42.394  21.329  25.387  1.00  0.00    -0.237 OA
ATOM     71  O   UNL A   1      43.668  22.964  24.049  1.00  0.00    -0.744 OA
ENDBRANCH  67  68
ENDBRANCH  48  62
BRANCH  49  72
ATOM     72  C   UNL A   1      41.357  32.661  35.261  1.00  0.00    -0.014 A 
ATOM     73  C   UNL A   1      41.894  33.952  35.122  1.00  0.00     0.010 A 
ATOM     74  C   UNL A   1      40.606  32.351  36.409  1.00  0.00     0.010 A 
ATOM     75  C   UNL A   1      41.690  34.913  36.116  1.00  0.00     0.020 A 
ATOM     76  C   UNL A   1      40.378  33.316  37.394  1.00  0.00     0.020 A 
ATOM     77  C   UNL A   1      40.925  34.591  37.242  1.00  0.00     0.054 A 
BRANCH  77  78
ATOM     78  S   UNL A   1      40.639  35.872  38.496  1.00  0.00     0.124 S 
ATOM     79  O   UNL A   1      39.874  36.867  37.752  1.00  0.00    -0.237 OA
ATOM     80  O   UNL A   1      39.899  35.138  39.518  1.00  0.00    -0.237 OA
ATOM     81  O   UNL A   1      41.987  36.281  38.882  1.00  0.00    -0.744 OA
ENDBRANCH  77  78
ENDBRANCH  49  72
BRANCH  61  82
ATOM     82  C   UNL A   1      46.183  27.732  34.156  1.00  0.00    -0.014 A 
ATOM     83  C   UNL A   1      46.154  26.749  35.159  1.00  0.00     0.010 A 
ATOM     84  C   UNL A   1      47.418  28.280  33.762  1.00  0.00     0.010 A 
ATOM     85  C   UNL A   1      47.339  26.328  35.768  1.00  0.00     0.020 A 
ATOM     86  C   UNL A   1      48.607  27.845  34.352  1.00  0.00     0.020 A 
ATOM     87  C   UNL A   1      48.558  26.875  35.354  1.00  0.00     0.054 A 
BRANCH  87  88
ATOM     88  S   UNL A   1      50.082  26.278  36.137  1.00  0.00     0.124 S 
ATOM     89  O   UNL A   1      49.648  25.018  36.733  1.00  0.00    -0.237 OA
ATOM     90  O   UNL A   1      50.991  26.156  35.000  1.00  0.00    -0.237 OA
ATOM     91  O   UNL A   1      50.420  27.331  37.091  1.00  0.00    -0.744 OA
ENDBRANCH  87  88
ENDBRANCH  61  82
ENDBRANCH  35  36
ENDBRANCH  27  30
ENDBRANCH  25  26
ENDBRANCH  24  25
ENDBRANCH   1  24
TORSDOF 18
ENDMDL
