MODEL 1
REMARK VINA RESULT:     -13.8      0.000      0.000
REMARK SMILES Cc1cccc(-c2cc(C(=O)NCCCCCCNC(=O)c3ccc(-c4c5nc(c(-c6ccc(S(=O)(=O)[O-])cc6)c6ccc([nH]6)c(-c6ccc(S(=O)(=O)[O-])cc6)c6nc(c(-c7ccc(S(=O)(=O)[O-])cc7)c7ccc4[nH]7)C=C6)C=C5)cc3)ccn2)c1
REMARK SMILES IDX 16 1 15 2 14 3 13 4 12 5 10 6 11 7 9 9 7 10 8 11 84 12 83 13
REMARK SMILES IDX 82 14 6 15 1 16 2 17 3 18 85 19 4 20 5 21 17 22 18 23 19 24
REMARK SMILES IDX 20 25 21 27 22 28 23 29 81 30 24 31 80 32 25 33 26 34 27 35
REMARK SMILES IDX 74 36 28 37 79 38 73 39 75 40 29 41 78 42 72 43 71 44 30 46
REMARK SMILES IDX 60 47 41 48 59 49 42 50 45 51 58 52 76 53 43 54 44 55 57 57
REMARK SMILES IDX 77 58 46 59 31 60 32 61 40 62 33 63 39 64 34 65 35 66 36 67
REMARK SMILES IDX 37 68 38 69 61 70 62 71 70 72 63 73 69 74 64 75 65 76 66 77
REMARK SMILES IDX 67 78 68 79 47 80 48 81 56 82 49 83 55 84 50 85 51 86 52 87
REMARK SMILES IDX 53 88 54 89
REMARK H PARENT 12 8 19 26 75 45 45 56
REMARK Flexibility Score: inf
ROOT
ATOM      1  C   UNL A   1      32.196  29.425  25.604  1.00  0.00     0.002 C 
ENDROOT
BRANCH   1   2
ATOM      2  C   UNL A   1      31.387  28.261  25.006  1.00  0.00     0.002 C 
BRANCH   2   3
ATOM      3  C   UNL A   1      31.086  27.083  25.947  1.00  0.00     0.021 C 
BRANCH   3   4
ATOM      4  C   UNL A   1      30.441  25.875  25.264  1.00  0.00     0.116 C 
BRANCH   4   5
ATOM      5  N   UNL A   1      30.013  24.883  26.237  1.00  0.00    -0.352 N 
ATOM      6  C   UNL A   1      30.532  23.681  26.644  1.00  0.00     0.251 C 
ATOM      7  O   UNL A   1      29.993  23.116  27.597  1.00  0.00    -0.269 OA
ATOM      8  H   UNL A   1      29.177  25.124  26.698  1.00  0.00     0.163 HD
BRANCH   6   9
ATOM      9  C   UNL A   1      31.738  23.051  26.043  1.00  0.00     0.043 A 
ATOM     10  C   UNL A   1      32.965  21.283  24.985  1.00  0.00     0.071 A 
ATOM     11  C   UNL A   1      31.802  21.732  25.607  1.00  0.00     0.042 A 
ATOM     12  N   UNL A   1      34.081  22.043  24.879  1.00  0.00    -0.256 NA
ATOM     13  C   UNL A   1      34.024  23.293  25.380  1.00  0.00     0.112 A 
ATOM     14  C   UNL A   1      32.889  23.840  25.946  1.00  0.00     0.034 A 
BRANCH  10  15
ATOM     15  C   UNL A   1      33.003  19.986  24.305  1.00  0.00     0.000 A 
ATOM     16  C   UNL A   1      34.811  16.640  24.706  1.00  0.00     0.044 C 
ATOM     17  C   UNL A   1      33.919  17.717  24.166  1.00  0.00    -0.050 A 
ATOM     18  C   UNL A   1      33.159  17.495  23.013  1.00  0.00     0.003 A 
ATOM     19  C   UNL A   1      33.835  18.963  24.799  1.00  0.00     0.013 A 
ATOM     20  C   UNL A   1      32.321  18.493  22.516  1.00  0.00     0.001 A 
ATOM     21  C   UNL A   1      32.236  19.729  23.162  1.00  0.00     0.010 A 
ENDBRANCH  10  15
ENDBRANCH   6   9
ENDBRANCH   4   5
ENDBRANCH   3   4
ENDBRANCH   2   3
ENDBRANCH   1   2
BRANCH   1  22
ATOM     22  C   UNL A   1      33.677  29.149  25.868  1.00  0.00     0.021 C 
BRANCH  22  23
ATOM     23  C   UNL A   1      34.124  29.517  27.281  1.00  0.00     0.116 C 
BRANCH  23  24
ATOM     24  N   UNL A   1      34.791  30.802  27.353  1.00  0.00    -0.352 N 
ATOM     25  C   UNL A   1      36.013  31.060  27.962  1.00  0.00     0.251 C 
ATOM     26  H   UNL A   1      34.333  31.564  26.929  1.00  0.00     0.163 HD
ATOM     27  O   UNL A   1      36.335  32.170  28.357  1.00  0.00    -0.269 OA
BRANCH  25  28
ATOM     28  C   UNL A   1      36.983  29.950  27.958  1.00  0.00     0.039 A 
ATOM     29  C   UNL A   1      37.120  29.221  29.146  1.00  0.00     0.014 A 
ATOM     30  C   UNL A   1      37.902  29.818  26.923  1.00  0.00     0.014 A 
ATOM     31  C   UNL A   1      38.268  28.460  29.356  1.00  0.00     0.010 A 
ATOM     32  C   UNL A   1      39.079  29.129  27.169  1.00  0.00     0.010 A 
ATOM     33  C   UNL A   1      39.285  28.482  28.399  1.00  0.00    -0.014 A 
BRANCH  33  34
ATOM     34  C   UNL A   1      40.630  27.958  28.636  1.00  0.00     0.031 A 
ATOM     35  C   UNL A   1      40.982  26.558  28.286  1.00  0.00     0.074 A 
ATOM     36  C   UNL A   1      41.618  28.753  29.109  1.00  0.00     0.049 A 
ATOM     37  N   UNL A   1      41.978  25.910  28.803  1.00  0.00    -0.248 NA
ATOM     38  C   UNL A   1      40.206  25.756  27.348  1.00  0.00     0.031 C 
ATOM     39  C   UNL A   1      43.052  28.477  29.053  1.00  0.00     0.029 A 
ATOM     40  N   UNL A   1      41.529  29.868  29.943  1.00  0.00    -0.354 N 
ATOM     41  C   UNL A   1      42.167  24.776  28.049  1.00  0.00     0.074 A 
ATOM     42  C   UNL A   1      40.987  24.679  27.218  1.00  0.00     0.031 C 
ATOM     43  C   UNL A   1      43.656  29.152  30.040  1.00  0.00     0.029 A 
ATOM     44  C   UNL A   1      42.618  29.789  30.828  1.00  0.00     0.049 A 
ATOM     45  H   UNL A   1      40.839  30.570  29.916  1.00  0.00     0.167 HD
ATOM     46  C   UNL A   1      43.357  24.109  28.094  1.00  0.00     0.031 A 
ATOM     47  C   UNL A   1      42.516  29.764  32.190  1.00  0.00     0.031 A 
ATOM     48  C   UNL A   1      44.302  24.674  29.058  1.00  0.00     0.049 A 
ATOM     49  C   UNL A   1      43.190  28.571  32.840  1.00  0.00     0.074 A 
ATOM     50  C   UNL A   1      45.501  25.364  28.964  1.00  0.00     0.029 A 
ATOM     51  N   UNL A   1      43.941  24.730  30.393  1.00  0.00    -0.354 N 
ATOM     52  N   UNL A   1      43.866  27.664  32.193  1.00  0.00    -0.248 NA
ATOM     53  C   UNL A   1      43.049  28.239  34.261  1.00  0.00     0.031 C 
ATOM     54  C   UNL A   1      45.884  25.782  30.270  1.00  0.00     0.029 A 
ATOM     55  C   UNL A   1      44.908  25.361  31.150  1.00  0.00     0.049 A 
ATOM     56  H   UNL A   1      43.101  24.366  30.757  1.00  0.00     0.167 HD
ATOM     57  C   UNL A   1      44.151  26.618  33.034  1.00  0.00     0.074 A 
ATOM     58  C   UNL A   1      43.650  27.038  34.327  1.00  0.00     0.031 C 
ATOM     59  C   UNL A   1      44.711  25.457  32.586  1.00  0.00     0.031 A 
BRANCH  46  60
ATOM     60  C   UNL A   1      43.747  23.069  27.064  1.00  0.00    -0.014 A 
ATOM     61  C   UNL A   1      42.854  22.026  26.742  1.00  0.00     0.010 A 
ATOM     62  C   UNL A   1      44.995  23.038  26.412  1.00  0.00     0.010 A 
ATOM     63  C   UNL A   1      43.230  20.946  25.933  1.00  0.00     0.020 A 
ATOM     64  C   UNL A   1      45.402  21.942  25.635  1.00  0.00     0.020 A 
ATOM     65  C   UNL A   1      44.520  20.890  25.416  1.00  0.00     0.054 A 
BRANCH  65  66
ATOM     66  S   UNL A   1      45.035  19.423  24.486  1.00  0.00     0.124 S 
ATOM     67  O   UNL A   1      46.493  19.501  24.554  1.00  0.00    -0.237 OA
ATOM     68  O   UNL A   1      44.426  18.339  25.249  1.00  0.00    -0.237 OA
ATOM     69  O   UNL A   1      44.471  19.643  23.155  1.00  0.00    -0.744 OA
ENDBRANCH  65  66
ENDBRANCH  46  60
BRANCH  47  70
ATOM     70  C   UNL A   1      41.312  30.464  32.712  1.00  0.00    -0.014 A 
ATOM     71  C   UNL A   1      40.153  29.683  32.908  1.00  0.00     0.010 A 
ATOM     72  C   UNL A   1      41.441  31.684  33.397  1.00  0.00     0.010 A 
ATOM     73  C   UNL A   1      39.240  30.013  33.911  1.00  0.00     0.020 A 
ATOM     74  C   UNL A   1      40.519  32.022  34.396  1.00  0.00     0.020 A 
ATOM     75  C   UNL A   1      39.471  31.144  34.695  1.00  0.00     0.054 A 
BRANCH  75  76
ATOM     76  S   UNL A   1      38.503  31.340  36.221  1.00  0.00     0.124 S 
ATOM     77  O   UNL A   1      37.310  32.037  35.751  1.00  0.00    -0.237 OA
ATOM     78  O   UNL A   1      38.300  29.951  36.631  1.00  0.00    -0.237 OA
ATOM     79  O   UNL A   1      39.390  32.117  37.081  1.00  0.00    -0.744 OA
ENDBRANCH  75  76
ENDBRANCH  47  70
BRANCH  59  80
ATOM     80  C   UNL A   1      45.065  24.270  33.446  1.00  0.00    -0.014 A 
ATOM     81  C   UNL A   1      46.338  24.074  34.004  1.00  0.00     0.010 A 
ATOM     82  C   UNL A   1      44.124  23.225  33.607  1.00  0.00     0.010 A 
ATOM     83  C   UNL A   1      46.638  22.915  34.736  1.00  0.00     0.020 A 
ATOM     84  C   UNL A   1      44.417  22.059  34.318  1.00  0.00     0.020 A 
ATOM     85  C   UNL A   1      45.673  21.916  34.893  1.00  0.00     0.054 A 
BRANCH  85  86
ATOM     86  S   UNL A   1      46.097  20.409  35.804  1.00  0.00     0.124 S 
ATOM     87  O   UNL A   1      45.293  19.393  35.127  1.00  0.00    -0.237 OA
ATOM     88  O   UNL A   1      47.538  20.317  35.584  1.00  0.00    -0.237 OA
ATOM     89  O   UNL A   1      45.694  20.702  37.176  1.00  0.00    -0.744 OA
ENDBRANCH  85  86
ENDBRANCH  59  80
ENDBRANCH  33  34
ENDBRANCH  25  28
ENDBRANCH  23  24
ENDBRANCH  22  23
ENDBRANCH   1  22
TORSDOF 17
ENDMDL
MODEL 2
REMARK VINA RESULT:     -13.5      4.830     11.459
REMARK SMILES Cc1cccc(-c2cc(C(=O)NCCCCCCNC(=O)c3ccc(-c4c5nc(c(-c6ccc(S(=O)(=O)[O-])cc6)c6ccc([nH]6)c(-c6ccc(S(=O)(=O)[O-])cc6)c6nc(c(-c7ccc(S(=O)(=O)[O-])cc7)c7ccc4[nH]7)C=C6)C=C5)cc3)ccn2)c1
REMARK SMILES IDX 16 1 15 2 14 3 13 4 12 5 10 6 11 7 9 9 7 10 8 11 84 12 83 13
REMARK SMILES IDX 82 14 6 15 1 16 2 17 3 18 85 19 4 20 5 21 17 22 18 23 19 24
REMARK SMILES IDX 20 25 21 27 22 28 23 29 81 30 24 31 80 32 25 33 26 34 27 35
REMARK SMILES IDX 74 36 28 37 79 38 73 39 75 40 29 41 78 42 72 43 71 44 30 46
REMARK SMILES IDX 60 47 41 48 59 49 42 50 45 51 58 52 76 53 43 54 44 55 57 57
REMARK SMILES IDX 77 58 46 59 31 60 32 61 40 62 33 63 39 64 34 65 35 66 36 67
REMARK SMILES IDX 37 68 38 69 61 70 62 71 70 72 63 73 69 74 64 75 65 76 66 77
REMARK SMILES IDX 67 78 68 79 47 80 48 81 56 82 49 83 55 84 50 85 51 86 52 87
REMARK SMILES IDX 53 88 54 89
REMARK H PARENT 12 8 19 26 75 45 45 56
REMARK Flexibility Score: inf
ROOT
ATOM      1  C   UNL A   1      35.851  23.656  26.033  1.00  0.00     0.002 C 
ENDROOT
BRANCH   1   2
ATOM      2  C   UNL A   1      35.150  24.212  24.782  1.00  0.00     0.002 C 
BRANCH   2   3
ATOM      3  C   UNL A   1      35.074  23.272  23.567  1.00  0.00     0.021 C 
BRANCH   3   4
ATOM      4  C   UNL A   1      33.657  23.034  23.039  1.00  0.00     0.116 C 
BRANCH   4   5
ATOM      5  N   UNL A   1      32.786  22.514  24.081  1.00  0.00    -0.352 N 
ATOM      6  C   UNL A   1      31.774  23.069  24.823  1.00  0.00     0.251 C 
ATOM      7  O   UNL A   1      31.127  22.323  25.559  1.00  0.00    -0.269 OA
ATOM      8  H   UNL A   1      32.958  21.570  24.300  1.00  0.00     0.163 HD
BRANCH   6   9
ATOM      9  C   UNL A   1      31.378  24.501  24.747  1.00  0.00     0.043 A 
ATOM     10  C   UNL A   1      31.510  26.823  25.329  1.00  0.00     0.071 A 
ATOM     11  C   UNL A   1      31.903  25.505  25.552  1.00  0.00     0.042 A 
ATOM     12  N   UNL A   1      30.556  27.162  24.429  1.00  0.00    -0.256 NA
ATOM     13  C   UNL A   1      30.002  26.163  23.714  1.00  0.00     0.112 A 
ATOM     14  C   UNL A   1      30.386  24.840  23.822  1.00  0.00     0.034 A 
BRANCH  10  15
ATOM     15  C   UNL A   1      32.198  27.937  25.986  1.00  0.00     0.000 A 
ATOM     16  C   UNL A   1      31.582  31.657  26.620  1.00  0.00     0.044 C 
ATOM     17  C   UNL A   1      32.233  30.307  26.606  1.00  0.00    -0.050 A 
ATOM     18  C   UNL A   1      33.493  30.124  27.185  1.00  0.00     0.003 A 
ATOM     19  C   UNL A   1      31.599  29.211  26.009  1.00  0.00     0.013 A 
ATOM     20  C   UNL A   1      34.096  28.866  27.180  1.00  0.00     0.001 A 
ATOM     21  C   UNL A   1      33.449  27.776  26.592  1.00  0.00     0.010 A 
ENDBRANCH  10  15
ENDBRANCH   6   9
ENDBRANCH   4   5
ENDBRANCH   3   4
ENDBRANCH   2   3
ENDBRANCH   1   2
BRANCH   1  22
ATOM     22  C   UNL A   1      36.878  22.548  25.792  1.00  0.00     0.021 C 
BRANCH  22  23
ATOM     23  C   UNL A   1      38.248  23.069  25.367  1.00  0.00     0.116 C 
BRANCH  23  24
ATOM     24  N   UNL A   1      39.322  22.627  26.235  1.00  0.00    -0.352 N 
ATOM     25  C   UNL A   1      40.271  23.438  26.845  1.00  0.00     0.251 C 
ATOM     26  H   UNL A   1      39.384  21.660  26.408  1.00  0.00     0.163 HD
ATOM     27  O   UNL A   1      41.362  23.024  27.210  1.00  0.00    -0.269 OA
BRANCH  25  28
ATOM     28  C   UNL A   1      39.831  24.803  27.186  1.00  0.00     0.039 A 
ATOM     29  C   UNL A   1      40.392  25.855  26.452  1.00  0.00     0.014 A 
ATOM     30  C   UNL A   1      39.112  25.043  28.352  1.00  0.00     0.014 A 
ATOM     31  C   UNL A   1      40.356  27.149  26.968  1.00  0.00     0.010 A 
ATOM     32  C   UNL A   1      39.151  26.315  28.901  1.00  0.00     0.010 A 
ATOM     33  C   UNL A   1      39.806  27.363  28.234  1.00  0.00    -0.014 A 
BRANCH  33  34
ATOM     34  C   UNL A   1      39.965  28.608  28.985  1.00  0.00     0.031 A 
ATOM     35  C   UNL A   1      38.969  29.704  28.876  1.00  0.00     0.074 A 
ATOM     36  C   UNL A   1      40.983  28.771  29.862  1.00  0.00     0.049 A 
ATOM     37  N   UNL A   1      39.215  30.941  29.171  1.00  0.00    -0.248 NA
ATOM     38  C   UNL A   1      37.613  29.496  28.380  1.00  0.00     0.031 C 
ATOM     39  C   UNL A   1      41.062  29.780  30.916  1.00  0.00     0.029 A 
ATOM     40  N   UNL A   1      42.261  28.214  29.842  1.00  0.00    -0.354 N 
ATOM     41  C   UNL A   1      38.010  31.600  29.224  1.00  0.00     0.074 A 
ATOM     42  C   UNL A   1      37.057  30.684  28.636  1.00  0.00     0.031 C 
ATOM     43  C   UNL A   1      42.352  29.999  31.203  1.00  0.00     0.029 A 
ATOM     44  C   UNL A   1      43.142  29.226  30.264  1.00  0.00     0.049 A 
ATOM     45  H   UNL A   1      42.499  27.294  29.584  1.00  0.00     0.167 HD
ATOM     46  C   UNL A   1      37.904  32.789  29.886  1.00  0.00     0.031 A 
ATOM     47  C   UNL A   1      44.206  29.684  29.541  1.00  0.00     0.031 A 
ATOM     48  C   UNL A   1      39.181  33.277  30.411  1.00  0.00     0.049 A 
ATOM     49  C   UNL A   1      44.193  31.182  29.304  1.00  0.00     0.074 A 
ATOM     50  C   UNL A   1      39.724  33.431  31.677  1.00  0.00     0.029 A 
ATOM     51  N   UNL A   1      40.218  33.518  29.525  1.00  0.00    -0.354 N 
ATOM     52  N   UNL A   1      43.295  31.997  29.784  1.00  0.00    -0.248 NA
ATOM     53  C   UNL A   1      45.125  31.866  28.402  1.00  0.00     0.031 C 
ATOM     54  C   UNL A   1      41.084  33.827  31.539  1.00  0.00     0.029 A 
ATOM     55  C   UNL A   1      41.369  33.894  30.189  1.00  0.00     0.049 A 
ATOM     56  H   UNL A   1      40.144  33.433  28.547  1.00  0.00     0.167 HD
ATOM     57  C   UNL A   1      43.442  33.233  29.209  1.00  0.00     0.074 A 
ATOM     58  C   UNL A   1      44.622  33.113  28.375  1.00  0.00     0.031 C 
ATOM     59  C   UNL A   1      42.541  34.238  29.404  1.00  0.00     0.031 A 
BRANCH  46  60
ATOM     60  C   UNL A   1      36.568  33.395  30.265  1.00  0.00    -0.014 A 
ATOM     61  C   UNL A   1      35.734  33.942  29.268  1.00  0.00     0.010 A 
ATOM     62  C   UNL A   1      36.098  33.496  31.587  1.00  0.00     0.010 A 
ATOM     63  C   UNL A   1      34.576  34.666  29.579  1.00  0.00     0.020 A 
ATOM     64  C   UNL A   1      34.965  34.256  31.920  1.00  0.00     0.020 A 
ATOM     65  C   UNL A   1      34.220  34.855  30.910  1.00  0.00     0.054 A 
BRANCH  65  66
ATOM     66  S   UNL A   1      32.799  35.907  31.302  1.00  0.00     0.124 S 
ATOM     67  O   UNL A   1      33.429  37.071  31.923  1.00  0.00    -0.237 OA
ATOM     68  O   UNL A   1      32.207  36.137  29.988  1.00  0.00    -0.237 OA
ATOM     69  O   UNL A   1      32.001  35.086  32.211  1.00  0.00    -0.744 OA
ENDBRANCH  65  66
ENDBRANCH  46  60
BRANCH  47  70
ATOM     70  C   UNL A   1      44.784  28.671  28.619  1.00  0.00    -0.014 A 
ATOM     71  C   UNL A   1      44.108  28.457  27.399  1.00  0.00     0.010 A 
ATOM     72  C   UNL A   1      46.135  28.300  28.729  1.00  0.00     0.010 A 
ATOM     73  C   UNL A   1      44.813  28.068  26.259  1.00  0.00     0.020 A 
ATOM     74  C   UNL A   1      46.841  27.898  27.587  1.00  0.00     0.020 A 
ATOM     75  C   UNL A   1      46.190  27.861  26.349  1.00  0.00     0.054 A 
BRANCH  75  76
ATOM     76  S   UNL A   1      47.140  27.738  24.805  1.00  0.00     0.124 S 
ATOM     77  O   UNL A   1      48.519  27.713  25.282  1.00  0.00    -0.237 OA
ATOM     78  O   UNL A   1      46.645  26.480  24.246  1.00  0.00    -0.237 OA
ATOM     79  O   UNL A   1      46.746  28.938  24.074  1.00  0.00    -0.744 OA
ENDBRANCH  75  76
ENDBRANCH  47  70
BRANCH  59  80
ATOM     80  C   UNL A   1      42.639  35.624  28.818  1.00  0.00    -0.014 A 
ATOM     81  C   UNL A   1      43.197  36.714  29.505  1.00  0.00     0.010 A 
ATOM     82  C   UNL A   1      42.029  35.894  27.570  1.00  0.00     0.010 A 
ATOM     83  C   UNL A   1      43.197  38.001  28.944  1.00  0.00     0.020 A 
ATOM     84  C   UNL A   1      42.006  37.174  27.010  1.00  0.00     0.020 A 
ATOM     85  C   UNL A   1      42.605  38.222  27.697  1.00  0.00     0.054 A 
BRANCH  85  86
ATOM     86  S   UNL A   1      42.578  39.899  27.013  1.00  0.00     0.124 S 
ATOM     87  O   UNL A   1      43.791  39.930  26.199  1.00  0.00    -0.237 OA
ATOM     88  O   UNL A   1      41.321  39.902  26.267  1.00  0.00    -0.237 OA
ATOM     89  O   UNL A   1      42.603  40.760  28.192  1.00  0.00    -0.744 OA
ENDBRANCH  85  86
ENDBRANCH  59  80
ENDBRANCH  33  34
ENDBRANCH  25  28
ENDBRANCH  23  24
ENDBRANCH  22  23
ENDBRANCH   1  22
TORSDOF 17
ENDMDL
MODEL 3
REMARK VINA RESULT:     -12.9      1.915      2.738
REMARK SMILES Cc1cccc(-c2cc(C(=O)NCCCCCCNC(=O)c3ccc(-c4c5nc(c(-c6ccc(S(=O)(=O)[O-])cc6)c6ccc([nH]6)c(-c6ccc(S(=O)(=O)[O-])cc6)c6nc(c(-c7ccc(S(=O)(=O)[O-])cc7)c7ccc4[nH]7)C=C6)C=C5)cc3)ccn2)c1
REMARK SMILES IDX 16 1 15 2 14 3 13 4 12 5 10 6 11 7 9 9 7 10 8 11 84 12 83 13
REMARK SMILES IDX 82 14 6 15 1 16 2 17 3 18 85 19 4 20 5 21 17 22 18 23 19 24
REMARK SMILES IDX 20 25 21 27 22 28 23 29 81 30 24 31 80 32 25 33 26 34 27 35
REMARK SMILES IDX 74 36 28 37 79 38 73 39 75 40 29 41 78 42 72 43 71 44 30 46
REMARK SMILES IDX 60 47 41 48 59 49 42 50 45 51 58 52 76 53 43 54 44 55 57 57
REMARK SMILES IDX 77 58 46 59 31 60 32 61 40 62 33 63 39 64 34 65 35 66 36 67
REMARK SMILES IDX 37 68 38 69 61 70 62 71 70 72 63 73 69 74 64 75 65 76 66 77
REMARK SMILES IDX 67 78 68 79 47 80 48 81 56 82 49 83 55 84 50 85 51 86 52 87
REMARK SMILES IDX 53 88 54 89
REMARK H PARENT 12 8 19 26 75 45 45 56
REMARK Flexibility Score: inf
ROOT
ATOM      1  C   UNL A   1      32.010  29.428  26.097  1.00  0.00     0.002 C 
ENDROOT
BRANCH   1   2
ATOM      2  C   UNL A   1      31.168  29.663  24.831  1.00  0.00     0.002 C 
BRANCH   2   3
ATOM      3  C   UNL A   1      30.557  28.413  24.176  1.00  0.00     0.021 C 
BRANCH   3   4
ATOM      4  C   UNL A   1      30.879  28.256  22.689  1.00  0.00     0.116 C 
BRANCH   4   5
ATOM      5  N   UNL A   1      32.270  28.575  22.413  1.00  0.00    -0.352 N 
ATOM      6  C   UNL A   1      33.376  27.808  22.148  1.00  0.00     0.251 C 
ATOM      7  O   UNL A   1      34.415  28.388  21.828  1.00  0.00    -0.269 OA
ATOM      8  H   UNL A   1      32.458  29.542  22.418  1.00  0.00     0.163 HD
BRANCH   6   9
ATOM      9  C   UNL A   1      33.379  26.320  22.169  1.00  0.00     0.043 A 
ATOM     10  C   UNL A   1      33.752  24.164  23.147  1.00  0.00     0.071 A 
ATOM     11  C   UNL A   1      33.882  25.549  23.210  1.00  0.00     0.042 A 
ATOM     12  N   UNL A   1      33.250  23.522  22.066  1.00  0.00    -0.256 NA
ATOM     13  C   UNL A   1      32.841  24.285  21.032  1.00  0.00     0.112 A 
ATOM     14  C   UNL A   1      32.868  25.666  21.044  1.00  0.00     0.034 A 
BRANCH  10  15
ATOM     15  C   UNL A   1      34.053  23.325  24.311  1.00  0.00     0.000 A 
ATOM     16  C   UNL A   1      33.162  19.827  25.574  1.00  0.00     0.044 C 
ATOM     17  C   UNL A   1      33.751  21.204  25.500  1.00  0.00    -0.050 A 
ATOM     18  C   UNL A   1      34.548  21.689  26.541  1.00  0.00     0.003 A 
ATOM     19  C   UNL A   1      33.509  22.029  24.395  1.00  0.00     0.013 A 
ATOM     20  C   UNL A   1      35.104  22.967  26.469  1.00  0.00     0.001 A 
ATOM     21  C   UNL A   1      34.865  23.778  25.356  1.00  0.00     0.010 A 
ENDBRANCH  10  15
ENDBRANCH   6   9
ENDBRANCH   4   5
ENDBRANCH   3   4
ENDBRANCH   2   3
ENDBRANCH   1   2
BRANCH   1  22
ATOM     22  C   UNL A   1      33.510  29.701  25.966  1.00  0.00     0.021 C 
BRANCH  22  23
ATOM     23  C   UNL A   1      34.241  29.740  27.306  1.00  0.00     0.116 C 
BRANCH  23  24
ATOM     24  N   UNL A   1      34.947  30.985  27.536  1.00  0.00    -0.352 N 
ATOM     25  C   UNL A   1      36.132  31.139  28.246  1.00  0.00     0.251 C 
ATOM     26  H   UNL A   1      34.548  31.799  27.152  1.00  0.00     0.163 HD
ATOM     27  O   UNL A   1      36.465  32.197  28.759  1.00  0.00    -0.269 OA
BRANCH  25  28
ATOM     28  C   UNL A   1      37.059  29.993  28.209  1.00  0.00     0.039 A 
ATOM     29  C   UNL A   1      37.205  29.255  29.389  1.00  0.00     0.014 A 
ATOM     30  C   UNL A   1      37.941  29.833  27.146  1.00  0.00     0.014 A 
ATOM     31  C   UNL A   1      38.330  28.451  29.562  1.00  0.00     0.010 A 
ATOM     32  C   UNL A   1      39.098  29.099  27.353  1.00  0.00     0.010 A 
ATOM     33  C   UNL A   1      39.317  28.439  28.575  1.00  0.00    -0.014 A 
BRANCH  33  34
ATOM     34  C   UNL A   1      40.649  27.865  28.768  1.00  0.00     0.031 A 
ATOM     35  C   UNL A   1      40.947  26.465  28.373  1.00  0.00     0.074 A 
ATOM     36  C   UNL A   1      41.672  28.614  29.242  1.00  0.00     0.049 A 
ATOM     37  N   UNL A   1      41.930  25.770  28.851  1.00  0.00    -0.248 NA
ATOM     38  C   UNL A   1      40.125  25.716  27.430  1.00  0.00     0.031 C 
ATOM     39  C   UNL A   1      43.094  28.292  29.149  1.00  0.00     0.029 A 
ATOM     40  N   UNL A   1      41.637  29.707  30.109  1.00  0.00    -0.354 N 
ATOM     41  C   UNL A   1      42.066  24.652  28.062  1.00  0.00     0.074 A 
ATOM     42  C   UNL A   1      40.867  24.618  27.253  1.00  0.00     0.031 C 
ATOM     43  C   UNL A   1      43.741  28.918  30.141  1.00  0.00     0.029 A 
ATOM     44  C   UNL A   1      42.741  29.566  30.969  1.00  0.00     0.049 A 
ATOM     45  H   UNL A   1      40.971  30.432  30.116  1.00  0.00     0.167 HD
ATOM     46  C   UNL A   1      43.233  23.946  28.063  1.00  0.00     0.031 A 
ATOM     47  C   UNL A   1      42.665  29.507  32.331  1.00  0.00     0.031 A 
ATOM     48  C   UNL A   1      44.217  24.452  29.022  1.00  0.00     0.049 A 
ATOM     49  C   UNL A   1      43.311  28.274  32.933  1.00  0.00     0.074 A 
ATOM     50  C   UNL A   1      45.436  25.104  28.923  1.00  0.00     0.029 A 
ATOM     51  N   UNL A   1      43.884  24.482  30.366  1.00  0.00    -0.354 N 
ATOM     52  N   UNL A   1      43.944  27.364  32.248  1.00  0.00    -0.248 NA
ATOM     53  C   UNL A   1      43.188  27.907  34.347  1.00  0.00     0.031 C 
ATOM     54  C   UNL A   1      45.859  25.472  30.231  1.00  0.00     0.029 A 
ATOM     55  C   UNL A   1      44.886  25.059  31.120  1.00  0.00     0.049 A 
ATOM     56  H   UNL A   1      43.040  24.135  30.737  1.00  0.00     0.167 HD
ATOM     57  C   UNL A   1      44.211  26.286  33.053  1.00  0.00     0.074 A 
ATOM     58  C   UNL A   1      43.749  26.685  34.367  1.00  0.00     0.031 C 
ATOM     59  C   UNL A   1      44.722  25.121  32.562  1.00  0.00     0.031 A 
BRANCH  46  60
ATOM     60  C   UNL A   1      43.568  22.923  26.997  1.00  0.00    -0.014 A 
ATOM     61  C   UNL A   1      42.867  21.700  26.948  1.00  0.00     0.010 A 
ATOM     62  C   UNL A   1      44.592  23.086  26.044  1.00  0.00     0.010 A 
ATOM     63  C   UNL A   1      43.251  20.653  26.100  1.00  0.00     0.020 A 
ATOM     64  C   UNL A   1      45.017  22.033  25.219  1.00  0.00     0.020 A 
ATOM     65  C   UNL A   1      44.353  20.813  25.267  1.00  0.00     0.054 A 
BRANCH  65  66
ATOM     66  S   UNL A   1      44.921  19.406  24.277  1.00  0.00     0.124 S 
ATOM     67  O   UNL A   1      46.375  19.510  24.385  1.00  0.00    -0.237 OA
ATOM     68  O   UNL A   1      44.317  18.272  24.969  1.00  0.00    -0.237 OA
ATOM     69  O   UNL A   1      44.385  19.682  22.945  1.00  0.00    -0.744 OA
ENDBRANCH  65  66
ENDBRANCH  46  60
BRANCH  47  70
ATOM     70  C   UNL A   1      41.496  30.231  32.897  1.00  0.00    -0.014 A 
ATOM     71  C   UNL A   1      41.726  31.535  33.385  1.00  0.00     0.010 A 
ATOM     72  C   UNL A   1      40.189  29.850  32.550  1.00  0.00     0.010 A 
ATOM     73  C   UNL A   1      40.715  32.495  33.342  1.00  0.00     0.020 A 
ATOM     74  C   UNL A   1      39.169  30.811  32.516  1.00  0.00     0.020 A 
ATOM     75  C   UNL A   1      39.462  32.141  32.839  1.00  0.00     0.054 A 
BRANCH  75  76
ATOM     76  S   UNL A   1      38.295  33.473  32.432  1.00  0.00     0.124 S 
ATOM     77  O   UNL A   1      37.046  32.987  33.010  1.00  0.00    -0.237 OA
ATOM     78  O   UNL A   1      38.898  34.620  33.109  1.00  0.00    -0.237 OA
ATOM     79  O   UNL A   1      38.338  33.521  30.974  1.00  0.00    -0.744 OA
ENDBRANCH  75  76
ENDBRANCH  47  70
BRANCH  59  80
ATOM     80  C   UNL A   1      45.053  23.899  33.381  1.00  0.00    -0.014 A 
ATOM     81  C   UNL A   1      44.091  22.963  33.793  1.00  0.00     0.010 A 
ATOM     82  C   UNL A   1      46.367  23.734  33.881  1.00  0.00     0.010 A 
ATOM     83  C   UNL A   1      44.439  21.882  34.617  1.00  0.00     0.020 A 
ATOM     84  C   UNL A   1      46.721  22.671  34.717  1.00  0.00     0.020 A 
ATOM     85  C   UNL A   1      45.754  21.740  35.070  1.00  0.00     0.054 A 
BRANCH  85  86
ATOM     86  S   UNL A   1      46.170  20.361  36.170  1.00  0.00     0.124 S 
ATOM     87  O   UNL A   1      45.657  20.819  37.459  1.00  0.00    -0.237 OA
ATOM     88  O   UNL A   1      45.435  19.255  35.559  1.00  0.00    -0.237 OA
ATOM     89  O   UNL A   1      47.624  20.267  36.081  1.00  0.00    -0.744 OA
ENDBRANCH  85  86
ENDBRANCH  59  80
ENDBRANCH  33  34
ENDBRANCH  25  28
ENDBRANCH  23  24
ENDBRANCH  22  23
ENDBRANCH   1  22
TORSDOF 17
ENDMDL
