MODEL 1
REMARK VINA RESULT:     -10.3      0.000      0.000
REMARK SMILES [NH3+]CCOCC(=O)N1C[C@@H](C(=O)NCCCCCCNC(=O)c2ccc(-c3c4nc(c(-c5ccc(S(=O)(=O)[O-])cc5)c5ccc([nH]5)c(-c5ccc(S(=O)(=O)[O-])cc5)c5nc(c(-c6ccc(S(=O)(=O)[O-])cc6)c6ccc3[nH]6)C=C5)C=C4)cc2)Oc2ccccc21
REMARK SMILES IDX 15 1 14 2 13 3 11 4 12 5 10 7 8 8 9 9 89 10 84 11 88 12
REMARK SMILES IDX 83 13 85 14 87 15 86 16 6 17 7 18 5 19 4 20 3 21 2 22 1 23
REMARK SMILES IDX 16 27 17 28 18 29 19 30 20 31 21 32 22 34 23 35 24 36 82 37
REMARK SMILES IDX 25 38 81 39 26 40 27 41 28 42 75 43 29 44 80 45 74 46 76 47
REMARK SMILES IDX 30 48 79 49 73 50 72 51 31 53 61 54 42 55 60 56 43 57 46 58
REMARK SMILES IDX 59 59 77 60 44 61 45 62 58 64 78 65 47 66 32 67 33 68 41 69
REMARK SMILES IDX 34 70 40 71 35 72 36 73 37 74 38 75 39 76 62 77 63 78 71 79
REMARK SMILES IDX 64 80 70 81 65 82 66 83 67 84 68 85 69 86 48 87 49 88 57 89
REMARK SMILES IDX 50 90 56 91 51 92 52 93 53 94 54 95 55 96
REMARK H PARENT 13 6 1 24 1 25 1 26 20 33 76 52 46 63
REMARK Flexibility Score: inf
ROOT
ATOM      1  C   UNL A   1      36.740  22.928  24.000  1.00  0.00     0.021 C 
ENDROOT
BRANCH   1   2
ATOM      2  C   UNL A   1      35.288  22.548  24.283  1.00  0.00     0.116 C 
BRANCH   2   3
ATOM      3  N   UNL A   1      34.398  22.764  23.162  1.00  0.00    -0.353 N 
ATOM      4  C   UNL A   1      33.760  23.872  22.702  1.00  0.00     0.262 C 
ATOM      5  O   UNL A   1      33.273  23.778  21.565  1.00  0.00    -0.271 OA
ATOM      6  H   UNL A   1      34.224  21.953  22.629  1.00  0.00     0.163 HD
BRANCH   4   7
ATOM      7  C   UNL A   1      33.630  25.212  23.468  1.00  0.00     0.281 C 
ATOM      8  N   UNL A   1      32.020  24.920  25.333  1.00  0.00    -0.303 N 
ATOM      9  C   UNL A   1      33.428  25.038  24.974  1.00  0.00     0.181 C 
ATOM     10  C   UNL A   1      31.145  25.792  24.610  1.00  0.00     0.086 A 
ATOM     11  C   UNL A   1      31.612  26.442  23.453  1.00  0.00     0.144 A 
ATOM     12  C   UNL A   1      29.812  25.991  24.992  1.00  0.00     0.030 A 
ATOM     13  O   UNL A   1      32.838  26.234  22.884  1.00  0.00    -0.477 OA
ATOM     14  C   UNL A   1      30.779  27.297  22.727  1.00  0.00     0.049 A 
ATOM     15  C   UNL A   1      28.972  26.822  24.243  1.00  0.00     0.002 A 
ATOM     16  C   UNL A   1      29.456  27.481  23.117  1.00  0.00     0.004 A 
BRANCH   8  17
ATOM     17  C   UNL A   1      31.555  23.931  26.195  1.00  0.00     0.253 C 
ATOM     18  O   UNL A   1      30.740  24.142  27.097  1.00  0.00    -0.272 OA
BRANCH  17  19
ATOM     19  C   UNL A   1      32.151  22.518  26.018  1.00  0.00     0.260 C 
BRANCH  19  20
ATOM     20  O   UNL A   1      31.389  21.471  25.456  1.00  0.00    -0.366 OA
BRANCH  20  21
ATOM     21  C   UNL A   1      32.127  20.471  24.754  1.00  0.00     0.222 C 
BRANCH  21  22
ATOM     22  C   UNL A   1      33.288  19.850  25.547  1.00  0.00     0.287 C 
BRANCH  22  23
ATOM     23  N   UNL A   1      32.900  18.776  26.459  1.00  0.00    -0.356 N 
ATOM     24  H   UNL A   1      32.860  19.139  27.413  1.00  0.00     0.344 HD
ATOM     25  H   UNL A   1      33.586  18.024  26.410  1.00  0.00     0.344 HD
ATOM     26  H   UNL A   1      31.983  18.418  26.193  1.00  0.00     0.344 HD
ENDBRANCH  22  23
ENDBRANCH  21  22
ENDBRANCH  20  21
ENDBRANCH  19  20
ENDBRANCH  17  19
ENDBRANCH   8  17
ENDBRANCH   4   7
ENDBRANCH   2   3
ENDBRANCH   1   2
BRANCH   1  27
ATOM     27  C   UNL A   1      37.747  22.191  24.891  1.00  0.00     0.002 C 
BRANCH  27  28
ATOM     28  C   UNL A   1      37.500  20.685  25.069  1.00  0.00     0.002 C 
BRANCH  28  29
ATOM     29  C   UNL A   1      38.745  19.794  25.038  1.00  0.00     0.021 C 
BRANCH  29  30
ATOM     30  C   UNL A   1      39.712  19.993  26.203  1.00  0.00     0.116 C 
BRANCH  30  31
ATOM     31  N   UNL A   1      40.870  19.115  26.109  1.00  0.00    -0.352 N 
ATOM     32  C   UNL A   1      42.203  19.415  26.004  1.00  0.00     0.251 C 
ATOM     33  H   UNL A   1      40.661  18.154  26.123  1.00  0.00     0.163 HD
ATOM     34  O   UNL A   1      43.002  18.529  25.717  1.00  0.00    -0.269 OA
BRANCH  32  35
ATOM     35  C   UNL A   1      42.683  20.796  26.232  1.00  0.00     0.039 A 
ATOM     36  C   UNL A   1      43.043  21.575  25.129  1.00  0.00     0.014 A 
ATOM     37  C   UNL A   1      42.828  21.304  27.526  1.00  0.00     0.014 A 
ATOM     38  C   UNL A   1      43.499  22.882  25.321  1.00  0.00     0.010 A 
ATOM     39  C   UNL A   1      43.222  22.626  27.713  1.00  0.00     0.010 A 
ATOM     40  C   UNL A   1      43.568  23.427  26.614  1.00  0.00    -0.014 A 
BRANCH  40  41
ATOM     41  C   UNL A   1      44.000  24.830  26.834  1.00  0.00     0.031 A 
ATOM     42  C   UNL A   1      45.441  25.219  26.644  1.00  0.00     0.074 A 
ATOM     43  C   UNL A   1      43.105  25.741  27.265  1.00  0.00     0.049 A 
ATOM     44  N   UNL A   1      46.017  26.377  26.849  1.00  0.00    -0.248 NA
ATOM     45  C   UNL A   1      46.361  24.164  26.186  1.00  0.00     0.031 C 
ATOM     46  C   UNL A   1      41.686  25.479  27.520  1.00  0.00     0.029 A 
ATOM     47  N   UNL A   1      43.257  27.069  27.572  1.00  0.00    -0.354 N 
ATOM     48  C   UNL A   1      47.364  26.186  26.562  1.00  0.00     0.074 A 
ATOM     49  C   UNL A   1      47.528  24.791  26.214  1.00  0.00     0.031 C 
ATOM     50  C   UNL A   1      41.096  26.615  27.924  1.00  0.00     0.029 A 
ATOM     51  C   UNL A   1      42.096  27.675  27.993  1.00  0.00     0.049 A 
ATOM     52  H   UNL A   1      44.116  27.545  27.498  1.00  0.00     0.167 HD
ATOM     53  C   UNL A   1      48.370  27.093  26.573  1.00  0.00     0.031 A 
ATOM     54  C   UNL A   1      41.864  28.939  28.398  1.00  0.00     0.031 A 
ATOM     55  C   UNL A   1      48.200  28.482  26.909  1.00  0.00     0.049 A 
ATOM     56  C   UNL A   1      42.998  29.926  28.407  1.00  0.00     0.074 A 
ATOM     57  C   UNL A   1      49.147  29.492  26.898  1.00  0.00     0.029 A 
ATOM     58  N   UNL A   1      47.007  29.057  27.319  1.00  0.00    -0.354 N 
ATOM     59  N   UNL A   1      44.255  29.740  28.077  1.00  0.00    -0.248 NA
ATOM     60  C   UNL A   1      42.682  31.296  28.832  1.00  0.00     0.031 C 
ATOM     61  C   UNL A   1      48.537  30.667  27.347  1.00  0.00     0.029 A 
ATOM     62  C   UNL A   1      47.197  30.403  27.584  1.00  0.00     0.049 A 
ATOM     63  H   UNL A   1      46.151  28.579  27.407  1.00  0.00     0.167 HD
ATOM     64  C   UNL A   1      44.872  30.977  28.228  1.00  0.00     0.074 A 
ATOM     65  C   UNL A   1      43.849  31.903  28.667  1.00  0.00     0.031 C 
ATOM     66  C   UNL A   1      46.169  31.313  28.022  1.00  0.00     0.031 A 
BRANCH  53  67
ATOM     67  C   UNL A   1      49.751  26.606  26.214  1.00  0.00    -0.014 A 
ATOM     68  C   UNL A   1      50.465  25.752  27.074  1.00  0.00     0.010 A 
ATOM     69  C   UNL A   1      50.326  26.976  24.985  1.00  0.00     0.010 A 
ATOM     70  C   UNL A   1      51.746  25.313  26.731  1.00  0.00     0.020 A 
ATOM     71  C   UNL A   1      51.596  26.516  24.626  1.00  0.00     0.020 A 
ATOM     72  C   UNL A   1      52.306  25.701  25.510  1.00  0.00     0.054 A 
BRANCH  72  73
ATOM     73  S   UNL A   1      53.965  25.104  25.084  1.00  0.00     0.124 S 
ATOM     74  O   UNL A   1      54.272  25.894  23.895  1.00  0.00    -0.237 OA
ATOM     75  O   UNL A   1      54.742  25.436  26.276  1.00  0.00    -0.237 OA
ATOM     76  O   UNL A   1      53.770  23.675  24.849  1.00  0.00    -0.744 OA
ENDBRANCH  72  73
ENDBRANCH  53  67
BRANCH  54  77
ATOM     77  C   UNL A   1      40.494  29.344  28.814  1.00  0.00    -0.014 A 
ATOM     78  C   UNL A   1      40.199  29.570  30.170  1.00  0.00     0.010 A 
ATOM     79  C   UNL A   1      39.482  29.523  27.854  1.00  0.00     0.010 A 
ATOM     80  C   UNL A   1      38.912  29.951  30.560  1.00  0.00     0.020 A 
ATOM     81  C   UNL A   1      38.201  29.930  28.237  1.00  0.00     0.020 A 
ATOM     82  C   UNL A   1      37.921  30.130  29.590  1.00  0.00     0.054 A 
BRANCH  82  83
ATOM     83  S   UNL A   1      36.271  30.676  30.113  1.00  0.00     0.124 S 
ATOM     84  O   UNL A   1      36.512  32.071  30.468  1.00  0.00    -0.237 OA
ATOM     85  O   UNL A   1      35.470  30.457  28.910  1.00  0.00    -0.237 OA
ATOM     86  O   UNL A   1      35.957  29.789  31.231  1.00  0.00    -0.744 OA
ENDBRANCH  82  83
ENDBRANCH  54  77
BRANCH  66  87
ATOM     87  C   UNL A   1      46.553  32.753  28.236  1.00  0.00    -0.014 A 
ATOM     88  C   UNL A   1      46.711  33.281  29.529  1.00  0.00     0.010 A 
ATOM     89  C   UNL A   1      46.811  33.574  27.123  1.00  0.00     0.010 A 
ATOM     90  C   UNL A   1      47.091  34.614  29.706  1.00  0.00     0.020 A 
ATOM     91  C   UNL A   1      47.217  34.899  27.295  1.00  0.00     0.020 A 
ATOM     92  C   UNL A   1      47.342  35.415  28.586  1.00  0.00     0.054 A 
BRANCH  92  93
ATOM     93  S   UNL A   1      47.878  37.128  28.841  1.00  0.00     0.124 S 
ATOM     94  O   UNL A   1      46.629  37.786  29.212  1.00  0.00    -0.237 OA
ATOM     95  O   UNL A   1      48.863  37.001  29.913  1.00  0.00    -0.237 OA
ATOM     96  O   UNL A   1      48.426  37.517  27.544  1.00  0.00    -0.744 OA
ENDBRANCH  92  93
ENDBRANCH  66  87
ENDBRANCH  40  41
ENDBRANCH  32  35
ENDBRANCH  30  31
ENDBRANCH  29  30
ENDBRANCH  28  29
ENDBRANCH  27  28
ENDBRANCH   1  27
TORSDOF 22
ENDMDL
MODEL 2
REMARK VINA RESULT:     -10.3      1.905      8.703
REMARK SMILES [NH3+]CCOCC(=O)N1C[C@@H](C(=O)NCCCCCCNC(=O)c2ccc(-c3c4nc(c(-c5ccc(S(=O)(=O)[O-])cc5)c5ccc([nH]5)c(-c5ccc(S(=O)(=O)[O-])cc5)c5nc(c(-c6ccc(S(=O)(=O)[O-])cc6)c6ccc3[nH]6)C=C5)C=C4)cc2)Oc2ccccc21
REMARK SMILES IDX 15 1 14 2 13 3 11 4 12 5 10 7 8 8 9 9 89 10 84 11 88 12
REMARK SMILES IDX 83 13 85 14 87 15 86 16 6 17 7 18 5 19 4 20 3 21 2 22 1 23
REMARK SMILES IDX 16 27 17 28 18 29 19 30 20 31 21 32 22 34 23 35 24 36 82 37
REMARK SMILES IDX 25 38 81 39 26 40 27 41 28 42 75 43 29 44 80 45 74 46 76 47
REMARK SMILES IDX 30 48 79 49 73 50 72 51 31 53 61 54 42 55 60 56 43 57 46 58
REMARK SMILES IDX 59 59 77 60 44 61 45 62 58 64 78 65 47 66 32 67 33 68 41 69
REMARK SMILES IDX 34 70 40 71 35 72 36 73 37 74 38 75 39 76 62 77 63 78 71 79
REMARK SMILES IDX 64 80 70 81 65 82 66 83 67 84 68 85 69 86 48 87 49 88 57 89
REMARK SMILES IDX 50 90 56 91 51 92 52 93 53 94 54 95 55 96
REMARK H PARENT 13 6 1 24 1 25 1 26 20 33 76 52 46 63
REMARK Flexibility Score: inf
ROOT
ATOM      1  C   UNL A   1      35.536  23.840  24.996  1.00  0.00     0.021 C 
ENDROOT
BRANCH   1   2
ATOM      2  C   UNL A   1      34.060  23.565  25.279  1.00  0.00     0.116 C 
BRANCH   2   3
ATOM      3  N   UNL A   1      33.200  23.752  24.128  1.00  0.00    -0.353 N 
ATOM      4  C   UNL A   1      32.084  24.502  23.934  1.00  0.00     0.262 C 
ATOM      5  O   UNL A   1      31.730  24.642  22.754  1.00  0.00    -0.271 OA
ATOM      6  H   UNL A   1      33.479  23.239  23.335  1.00  0.00     0.163 HD
BRANCH   4   7
ATOM      7  C   UNL A   1      31.266  25.195  25.053  1.00  0.00     0.281 C 
ATOM      8  N   UNL A   1      30.255  27.270  24.143  1.00  0.00    -0.303 N 
ATOM      9  C   UNL A   1      30.003  25.891  24.545  1.00  0.00     0.181 C 
ATOM     10  C   UNL A   1      31.148  27.987  25.001  1.00  0.00     0.086 A 
ATOM     11  C   UNL A   1      31.927  27.285  25.938  1.00  0.00     0.144 A 
ATOM     12  C   UNL A   1      31.308  29.377  24.912  1.00  0.00     0.030 A 
ATOM     13  O   UNL A   1      31.980  25.921  26.040  1.00  0.00    -0.477 OA
ATOM     14  C   UNL A   1      32.807  27.959  26.787  1.00  0.00     0.049 A 
ATOM     15  C   UNL A   1      32.216  30.044  25.741  1.00  0.00     0.002 A 
ATOM     16  C   UNL A   1      32.959  29.338  26.683  1.00  0.00     0.004 A 
BRANCH   8  17
ATOM     17  C   UNL A   1      29.787  27.788  22.939  1.00  0.00     0.253 C 
ATOM     18  O   UNL A   1      30.502  27.958  21.948  1.00  0.00    -0.272 OA
BRANCH  17  19
ATOM     19  C   UNL A   1      28.304  28.210  22.893  1.00  0.00     0.260 C 
BRANCH  19  20
ATOM     20  O   UNL A   1      27.867  29.408  23.498  1.00  0.00    -0.366 OA
BRANCH  20  21
ATOM     21  C   UNL A   1      27.982  30.586  22.700  1.00  0.00     0.222 C 
BRANCH  21  22
ATOM     22  C   UNL A   1      28.512  31.821  23.443  1.00  0.00     0.287 C 
BRANCH  22  23
ATOM     23  N   UNL A   1      29.186  32.803  22.595  1.00  0.00    -0.356 N 
ATOM     24  H   UNL A   1      28.798  33.730  22.775  1.00  0.00     0.344 HD
ATOM     25  H   UNL A   1      29.045  32.559  21.615  1.00  0.00     0.344 HD
ATOM     26  H   UNL A   1      30.184  32.807  22.805  1.00  0.00     0.344 HD
ENDBRANCH  22  23
ENDBRANCH  21  22
ENDBRANCH  20  21
ENDBRANCH  19  20
ENDBRANCH  17  19
ENDBRANCH   8  17
ENDBRANCH   4   7
ENDBRANCH   2   3
ENDBRANCH   1   2
BRANCH   1  27
ATOM     27  C   UNL A   1      36.483  22.861  25.701  1.00  0.00     0.002 C 
BRANCH  27  28
ATOM     28  C   UNL A   1      36.463  21.419  25.171  1.00  0.00     0.002 C 
BRANCH  28  29
ATOM     29  C   UNL A   1      37.831  20.796  24.875  1.00  0.00     0.021 C 
BRANCH  29  30
ATOM     30  C   UNL A   1      38.895  21.034  25.944  1.00  0.00     0.116 C 
BRANCH  30  31
ATOM     31  N   UNL A   1      39.878  19.961  25.985  1.00  0.00    -0.352 N 
ATOM     32  C   UNL A   1      41.244  20.015  26.088  1.00  0.00     0.251 C 
ATOM     33  H   UNL A   1      39.502  19.054  25.929  1.00  0.00     0.163 HD
ATOM     34  O   UNL A   1      41.907  19.002  25.885  1.00  0.00    -0.269 OA
BRANCH  32  35
ATOM     35  C   UNL A   1      41.922  21.282  26.439  1.00  0.00     0.039 A 
ATOM     36  C   UNL A   1      42.253  22.175  25.416  1.00  0.00     0.014 A 
ATOM     37  C   UNL A   1      42.277  21.567  27.760  1.00  0.00     0.014 A 
ATOM     38  C   UNL A   1      42.894  23.378  25.724  1.00  0.00     0.010 A 
ATOM     39  C   UNL A   1      42.859  22.793  28.074  1.00  0.00     0.010 A 
ATOM     40  C   UNL A   1      43.179  23.708  27.060  1.00  0.00    -0.014 A 
BRANCH  40  41
ATOM     41  C   UNL A   1      43.812  25.003  27.412  1.00  0.00     0.031 A 
ATOM     42  C   UNL A   1      42.983  26.125  27.976  1.00  0.00     0.074 A 
ATOM     43  C   UNL A   1      45.125  25.191  27.168  1.00  0.00     0.049 A 
ATOM     44  N   UNL A   1      43.345  27.344  28.285  1.00  0.00    -0.248 NA
ATOM     45  C   UNL A   1      41.554  25.848  28.200  1.00  0.00     0.031 C 
ATOM     46  C   UNL A   1      46.029  24.192  26.591  1.00  0.00     0.029 A 
ATOM     47  N   UNL A   1      45.925  26.287  27.365  1.00  0.00    -0.354 N 
ATOM     48  C   UNL A   1      42.190  27.984  28.723  1.00  0.00     0.074 A 
ATOM     49  C   UNL A   1      41.107  27.032  28.596  1.00  0.00     0.031 C 
ATOM     50  C   UNL A   1      47.262  24.715  26.503  1.00  0.00     0.029 A 
ATOM     51  C   UNL A   1      47.230  26.095  26.979  1.00  0.00     0.049 A 
ATOM     52  H   UNL A   1      45.596  27.133  27.748  1.00  0.00     0.167 HD
ATOM     53  C   UNL A   1      42.047  29.243  29.201  1.00  0.00     0.031 A 
ATOM     54  C   UNL A   1      48.282  26.936  26.996  1.00  0.00     0.031 A 
ATOM     55  C   UNL A   1      43.129  30.182  29.335  1.00  0.00     0.049 A 
ATOM     56  C   UNL A   1      48.098  28.331  27.526  1.00  0.00     0.074 A 
ATOM     57  C   UNL A   1      43.095  31.463  29.859  1.00  0.00     0.029 A 
ATOM     58  N   UNL A   1      44.437  29.945  28.943  1.00  0.00    -0.354 N 
ATOM     59  N   UNL A   1      47.009  28.898  27.989  1.00  0.00    -0.248 NA
ATOM     60  C   UNL A   1      49.285  29.197  27.546  1.00  0.00     0.031 C 
ATOM     61  C   UNL A   1      44.374  32.018  29.738  1.00  0.00     0.029 A 
ATOM     62  C   UNL A   1      45.216  31.062  29.192  1.00  0.00     0.049 A 
ATOM     63  H   UNL A   1      44.764  29.105  28.546  1.00  0.00     0.167 HD
ATOM     64  C   UNL A   1      47.386  30.178  28.382  1.00  0.00     0.074 A 
ATOM     65  C   UNL A   1      48.805  30.295  28.112  1.00  0.00     0.031 C 
ATOM     66  C   UNL A   1      46.627  31.165  28.916  1.00  0.00     0.031 A 
BRANCH  53  67
ATOM     67  C   UNL A   1      40.663  29.679  29.609  1.00  0.00    -0.014 A 
ATOM     68  C   UNL A   1      40.331  29.871  30.963  1.00  0.00     0.010 A 
ATOM     69  C   UNL A   1      39.692  29.937  28.624  1.00  0.00     0.010 A 
ATOM     70  C   UNL A   1      39.043  30.271  31.326  1.00  0.00     0.020 A 
ATOM     71  C   UNL A   1      38.410  30.364  28.982  1.00  0.00     0.020 A 
ATOM     72  C   UNL A   1      38.088  30.511  30.334  1.00  0.00     0.054 A 
BRANCH  72  73
ATOM     73  S   UNL A   1      36.428  31.043  30.833  1.00  0.00     0.124 S 
ATOM     74  O   UNL A   1      36.703  32.330  31.465  1.00  0.00    -0.237 OA
ATOM     75  O   UNL A   1      35.716  31.108  29.559  1.00  0.00    -0.237 OA
ATOM     76  O   UNL A   1      35.983  29.987  31.739  1.00  0.00    -0.744 OA
ENDBRANCH  72  73
ENDBRANCH  53  67
BRANCH  54  77
ATOM     77  C   UNL A   1      49.610  26.473  26.508  1.00  0.00    -0.014 A 
ATOM     78  C   UNL A   1      50.010  26.726  25.184  1.00  0.00     0.010 A 
ATOM     79  C   UNL A   1      50.488  25.793  27.371  1.00  0.00     0.010 A 
ATOM     80  C   UNL A   1      51.257  26.291  24.726  1.00  0.00     0.020 A 
ATOM     81  C   UNL A   1      51.747  25.380  26.925  1.00  0.00     0.020 A 
ATOM     82  C   UNL A   1      52.119  25.622  25.601  1.00  0.00     0.054 A 
BRANCH  82  83
ATOM     83  S   UNL A   1      53.754  25.112  25.001  1.00  0.00     0.124 S 
ATOM     84  O   UNL A   1      54.639  25.700  26.001  1.00  0.00    -0.237 OA
ATOM     85  O   UNL A   1      53.657  23.654  25.020  1.00  0.00    -0.237 OA
ATOM     86  O   UNL A   1      53.830  25.707  23.669  1.00  0.00    -0.744 OA
ENDBRANCH  82  83
ENDBRANCH  54  77
BRANCH  66  87
ATOM     87  C   UNL A   1      47.319  32.451  29.279  1.00  0.00    -0.014 A 
ATOM     88  C   UNL A   1      47.308  33.555  28.410  1.00  0.00     0.010 A 
ATOM     89  C   UNL A   1      47.946  32.572  30.534  1.00  0.00     0.010 A 
ATOM     90  C   UNL A   1      47.936  34.749  28.776  1.00  0.00     0.020 A 
ATOM     91  C   UNL A   1      48.552  33.771  30.914  1.00  0.00     0.020 A 
ATOM     92  C   UNL A   1      48.555  34.849  30.027  1.00  0.00     0.054 A 
BRANCH  92  93
ATOM     93  S   UNL A   1      49.324  36.422  30.497  1.00  0.00     0.124 S 
ATOM     94  O   UNL A   1      49.971  36.828  29.254  1.00  0.00    -0.237 OA
ATOM     95  O   UNL A   1      48.177  37.232  30.903  1.00  0.00    -0.237 OA
ATOM     96  O   UNL A   1      50.232  36.053  31.581  1.00  0.00    -0.744 OA
ENDBRANCH  92  93
ENDBRANCH  66  87
ENDBRANCH  40  41
ENDBRANCH  32  35
ENDBRANCH  30  31
ENDBRANCH  29  30
ENDBRANCH  28  29
ENDBRANCH  27  28
ENDBRANCH   1  27
TORSDOF 22
ENDMDL
MODEL 3
REMARK VINA RESULT:      -9.7      4.566      8.883
REMARK SMILES [NH3+]CCOCC(=O)N1C[C@@H](C(=O)NCCCCCCNC(=O)c2ccc(-c3c4nc(c(-c5ccc(S(=O)(=O)[O-])cc5)c5ccc([nH]5)c(-c5ccc(S(=O)(=O)[O-])cc5)c5nc(c(-c6ccc(S(=O)(=O)[O-])cc6)c6ccc3[nH]6)C=C5)C=C4)cc2)Oc2ccccc21
REMARK SMILES IDX 15 1 14 2 13 3 11 4 12 5 10 7 8 8 9 9 89 10 84 11 88 12
REMARK SMILES IDX 83 13 85 14 87 15 86 16 6 17 7 18 5 19 4 20 3 21 2 22 1 23
REMARK SMILES IDX 16 27 17 28 18 29 19 30 20 31 21 32 22 34 23 35 24 36 82 37
REMARK SMILES IDX 25 38 81 39 26 40 27 41 28 42 75 43 29 44 80 45 74 46 76 47
REMARK SMILES IDX 30 48 79 49 73 50 72 51 31 53 61 54 42 55 60 56 43 57 46 58
REMARK SMILES IDX 59 59 77 60 44 61 45 62 58 64 78 65 47 66 32 67 33 68 41 69
REMARK SMILES IDX 34 70 40 71 35 72 36 73 37 74 38 75 39 76 62 77 63 78 71 79
REMARK SMILES IDX 64 80 70 81 65 82 66 83 67 84 68 85 69 86 48 87 49 88 57 89
REMARK SMILES IDX 50 90 56 91 51 92 52 93 53 94 54 95 55 96
REMARK H PARENT 13 6 1 24 1 25 1 26 20 33 76 52 46 63
REMARK Flexibility Score: inf
ROOT
ATOM      1  C   UNL A   1      43.068  22.791  29.693  1.00  0.00     0.021 C 
ENDROOT
BRANCH   1   2
ATOM      2  C   UNL A   1      44.445  23.422  29.891  1.00  0.00     0.116 C 
BRANCH   2   3
ATOM      3  N   UNL A   1      44.442  24.563  30.783  1.00  0.00    -0.353 N 
ATOM      4  C   UNL A   1      44.617  24.673  32.126  1.00  0.00     0.262 C 
ATOM      5  O   UNL A   1      44.813  25.823  32.549  1.00  0.00    -0.271 OA
ATOM      6  H   UNL A   1      44.286  25.423  30.329  1.00  0.00     0.163 HD
BRANCH   4   7
ATOM      7  C   UNL A   1      44.619  23.492  33.128  1.00  0.00     0.281 C 
ATOM      8  N   UNL A   1      43.263  24.115  35.110  1.00  0.00    -0.303 N 
ATOM      9  C   UNL A   1      43.299  23.328  33.883  1.00  0.00     0.181 C 
ATOM     10  C   UNL A   1      44.489  24.126  35.847  1.00  0.00     0.086 A 
ATOM     11  C   UNL A   1      45.672  23.673  35.236  1.00  0.00     0.144 A 
ATOM     12  C   UNL A   1      44.564  24.618  37.157  1.00  0.00     0.030 A 
ATOM     13  O   UNL A   1      45.777  23.301  33.923  1.00  0.00    -0.477 OA
ATOM     14  C   UNL A   1      46.884  23.674  35.931  1.00  0.00     0.049 A 
ATOM     15  C   UNL A   1      45.786  24.648  37.839  1.00  0.00     0.002 A 
ATOM     16  C   UNL A   1      46.943  24.169  37.230  1.00  0.00     0.004 A 
BRANCH   8  17
ATOM     17  C   UNL A   1      42.173  24.912  35.447  1.00  0.00     0.253 C 
ATOM     18  O   UNL A   1      41.216  24.509  36.113  1.00  0.00    -0.272 OA
BRANCH  17  19
ATOM     19  C   UNL A   1      42.170  26.355  34.900  1.00  0.00     0.260 C 
BRANCH  19  20
ATOM     20  O   UNL A   1      40.978  26.959  34.445  1.00  0.00    -0.366 OA
BRANCH  20  21
ATOM     21  C   UNL A   1      41.141  28.096  33.598  1.00  0.00     0.222 C 
BRANCH  21  22
ATOM     22  C   UNL A   1      39.835  28.668  33.026  1.00  0.00     0.287 C 
BRANCH  22  23
ATOM     23  N   UNL A   1      38.847  27.664  32.634  1.00  0.00    -0.356 N 
ATOM     24  H   UNL A   1      38.994  27.406  31.657  1.00  0.00     0.344 HD
ATOM     25  H   UNL A   1      37.909  28.048  32.747  1.00  0.00     0.344 HD
ATOM     26  H   UNL A   1      38.950  26.838  33.223  1.00  0.00     0.344 HD
ENDBRANCH  22  23
ENDBRANCH  21  22
ENDBRANCH  20  21
ENDBRANCH  19  20
ENDBRANCH  17  19
ENDBRANCH   8  17
ENDBRANCH   4   7
ENDBRANCH   2   3
ENDBRANCH   1   2
BRANCH   1  27
ATOM     27  C   UNL A   1      42.359  23.264  28.418  1.00  0.00     0.002 C 
BRANCH  27  28
ATOM     28  C   UNL A   1      42.812  22.587  27.116  1.00  0.00     0.002 C 
BRANCH  28  29
ATOM     29  C   UNL A   1      41.725  21.838  26.338  1.00  0.00     0.021 C 
BRANCH  29  30
ATOM     30  C   UNL A   1      40.453  21.541  27.128  1.00  0.00     0.116 C 
BRANCH  30  31
ATOM     31  N   UNL A   1      39.253  21.920  26.395  1.00  0.00    -0.352 N 
ATOM     32  C   UNL A   1      38.596  23.122  26.332  1.00  0.00     0.251 C 
ATOM     33  H   UNL A   1      38.852  21.199  25.860  1.00  0.00     0.163 HD
ATOM     34  O   UNL A   1      37.477  23.174  25.829  1.00  0.00    -0.269 OA
BRANCH  32  35
ATOM     35  C   UNL A   1      39.222  24.350  26.867  1.00  0.00     0.039 A 
ATOM     36  C   UNL A   1      39.017  24.682  28.210  1.00  0.00     0.014 A 
ATOM     37  C   UNL A   1      39.964  25.199  26.042  1.00  0.00     0.014 A 
ATOM     38  C   UNL A   1      39.599  25.838  28.736  1.00  0.00     0.010 A 
ATOM     39  C   UNL A   1      40.596  26.317  26.582  1.00  0.00     0.010 A 
ATOM     40  C   UNL A   1      40.414  26.652  27.932  1.00  0.00    -0.014 A 
BRANCH  40  41
ATOM     41  C   UNL A   1      41.084  27.855  28.487  1.00  0.00     0.031 A 
ATOM     42  C   UNL A   1      42.585  27.928  28.548  1.00  0.00     0.074 A 
ATOM     43  C   UNL A   1      40.337  28.858  28.992  1.00  0.00     0.049 A 
ATOM     44  N   UNL A   1      43.345  28.866  29.053  1.00  0.00    -0.248 NA
ATOM     45  C   UNL A   1      43.330  26.787  27.991  1.00  0.00     0.031 C 
ATOM     46  C   UNL A   1      38.872  28.889  29.022  1.00  0.00     0.029 A 
ATOM     47  N   UNL A   1      40.707  30.039  29.583  1.00  0.00    -0.354 N 
ATOM     48  C   UNL A   1      44.653  28.423  28.890  1.00  0.00     0.074 A 
ATOM     49  C   UNL A   1      44.582  27.112  28.281  1.00  0.00     0.031 C 
ATOM     50  C   UNL A   1      38.470  30.042  29.582  1.00  0.00     0.029 A 
ATOM     51  C   UNL A   1      39.642  30.812  29.984  1.00  0.00     0.049 A 
ATOM     52  H   UNL A   1      41.645  30.309  29.708  1.00  0.00     0.167 HD
ATOM     53  C   UNL A   1      45.809  29.057  29.204  1.00  0.00     0.031 A 
ATOM     54  C   UNL A   1      39.612  32.003  30.612  1.00  0.00     0.031 A 
ATOM     55  C   UNL A   1      45.875  30.365  29.799  1.00  0.00     0.049 A 
ATOM     56  C   UNL A   1      40.908  32.684  30.956  1.00  0.00     0.074 A 
ATOM     57  C   UNL A   1      46.998  31.114  30.106  1.00  0.00     0.029 A 
ATOM     58  N   UNL A   1      44.776  31.119  30.179  1.00  0.00    -0.354 N 
ATOM     59  N   UNL A   1      42.136  32.274  30.741  1.00  0.00    -0.248 NA
ATOM     60  C   UNL A   1      40.816  33.993  31.617  1.00  0.00     0.031 C 
ATOM     61  C   UNL A   1      46.578  32.301  30.716  1.00  0.00     0.029 A 
ATOM     62  C   UNL A   1      45.192  32.315  30.737  1.00  0.00     0.049 A 
ATOM     63  H   UNL A   1      43.837  30.844  30.068  1.00  0.00     0.167 HD
ATOM     64  C   UNL A   1      42.962  33.288  31.215  1.00  0.00     0.074 A 
ATOM     65  C   UNL A   1      42.093  34.334  31.716  1.00  0.00     0.031 C 
ATOM     66  C   UNL A   1      44.315  33.346  31.233  1.00  0.00     0.031 A 
BRANCH  53  67
ATOM     67  C   UNL A   1      47.099  28.335  28.913  1.00  0.00    -0.014 A 
ATOM     68  C   UNL A   1      47.747  27.576  29.905  1.00  0.00     0.010 A 
ATOM     69  C   UNL A   1      47.653  28.385  27.620  1.00  0.00     0.010 A 
ATOM     70  C   UNL A   1      48.945  26.917  29.623  1.00  0.00     0.020 A 
ATOM     71  C   UNL A   1      48.838  27.703  27.327  1.00  0.00     0.020 A 
ATOM     72  C   UNL A   1      49.487  26.988  28.336  1.00  0.00     0.054 A 
BRANCH  72  73
ATOM     73  S   UNL A   1      51.036  26.109  27.993  1.00  0.00     0.124 S 
ATOM     74  O   UNL A   1      51.627  26.011  29.325  1.00  0.00    -0.237 OA
ATOM     75  O   UNL A   1      50.570  24.849  27.419  1.00  0.00    -0.237 OA
ATOM     76  O   UNL A   1      51.737  26.993  27.064  1.00  0.00    -0.744 OA
ENDBRANCH  72  73
ENDBRANCH  53  67
BRANCH  54  77
ATOM     77  C   UNL A   1      38.306  32.634  30.943  1.00  0.00    -0.014 A 
ATOM     78  C   UNL A   1      37.585  33.339  29.963  1.00  0.00     0.010 A 
ATOM     79  C   UNL A   1      37.767  32.517  32.238  1.00  0.00     0.010 A 
ATOM     80  C   UNL A   1      36.358  33.931  30.275  1.00  0.00     0.020 A 
ATOM     81  C   UNL A   1      36.527  33.084  32.546  1.00  0.00     0.020 A 
ATOM     82  C   UNL A   1      35.836  33.798  31.565  1.00  0.00     0.054 A 
BRANCH  82  83
ATOM     83  S   UNL A   1      34.217  34.530  31.935  1.00  0.00     0.124 S 
ATOM     84  O   UNL A   1      33.632  33.533  32.826  1.00  0.00    -0.237 OA
ATOM     85  O   UNL A   1      34.580  35.801  32.557  1.00  0.00    -0.237 OA
ATOM     86  O   UNL A   1      33.586  34.645  30.622  1.00  0.00    -0.744 OA
ENDBRANCH  82  83
ENDBRANCH  54  77
BRANCH  66  87
ATOM     87  C   UNL A   1      44.947  34.597  31.784  1.00  0.00    -0.014 A 
ATOM     88  C   UNL A   1      45.287  35.672  30.944  1.00  0.00     0.010 A 
ATOM     89  C   UNL A   1      45.155  34.717  33.170  1.00  0.00     0.010 A 
ATOM     90  C   UNL A   1      45.851  36.834  31.478  1.00  0.00     0.020 A 
ATOM     91  C   UNL A   1      45.693  35.887  33.711  1.00  0.00     0.020 A 
ATOM     92  C   UNL A   1      46.050  36.934  32.860  1.00  0.00     0.054 A 
BRANCH  92  93
ATOM     93  S   UNL A   1      46.742  38.469  33.533  1.00  0.00     0.124 S 
ATOM     94  O   UNL A   1      45.991  38.621  34.776  1.00  0.00    -0.237 OA
ATOM     95  O   UNL A   1      48.158  38.142  33.690  1.00  0.00    -0.237 OA
ATOM     96  O   UNL A   1      46.449  39.462  32.502  1.00  0.00    -0.744 OA
ENDBRANCH  92  93
ENDBRANCH  66  87
ENDBRANCH  40  41
ENDBRANCH  32  35
ENDBRANCH  30  31
ENDBRANCH  29  30
ENDBRANCH  28  29
ENDBRANCH  27  28
ENDBRANCH   1  27
TORSDOF 22
ENDMDL
