MODEL 1
REMARK VINA RESULT:     -10.8      0.000      0.000
REMARK SMILES COCC[C@@H](C)NC(=O)N1Cc2nc[nH]c2C[C@@H]1C(=O)NCCCCCCNC(=O)c1ccc(-c2c3nc(c(-c4ccc(S(=O)(=O)[O-])cc4)c4ccc([nH]4)c(-c4ccc(S(=O)(=O)[O-])cc4)c4nc(c(-c5ccc(S(=O)(=O)[O-])cc5)c5ccc2[nH]5)C=C4)C=C3)cc1
REMARK SMILES IDX 23 1 22 2 21 3 19 4 20 5 18 7 10 8 11 9 12 10 17 11 13 12
REMARK SMILES IDX 16 13 14 14 15 15 8 17 7 18 9 20 5 21 6 22 4 23 3 24 2 25
REMARK SMILES IDX 1 26 24 27 25 28 26 29 27 30 28 31 29 32 30 34 31 35 32 36
REMARK SMILES IDX 90 37 33 38 89 39 34 40 35 41 36 42 83 43 37 44 88 45 82 46
REMARK SMILES IDX 84 47 38 48 87 49 81 50 80 51 39 53 69 54 50 55 68 56 51 57
REMARK SMILES IDX 54 58 67 59 85 60 52 61 53 62 66 64 86 65 55 66 40 67 41 68
REMARK SMILES IDX 49 69 42 70 48 71 43 72 44 73 45 74 46 75 47 76 70 77 71 78
REMARK SMILES IDX 79 79 72 80 78 81 73 82 74 83 75 84 76 85 77 86 56 87 57 88
REMARK SMILES IDX 65 89 58 90 64 91 59 92 60 93 61 94 62 95 63 96
REMARK H PARENT 21 6 15 16 7 19 28 33 84 52 54 63
REMARK Flexibility Score: inf
ROOT
ATOM      1  C   UNL A   1      38.505  24.118  27.022  1.00  0.00     0.021 C 
ENDROOT
BRANCH   1   2
ATOM      2  C   UNL A   1      38.164  23.182  25.879  1.00  0.00     0.116 C 
BRANCH   2   3
ATOM      3  N   UNL A   1      36.948  22.446  26.116  1.00  0.00    -0.354 N 
ATOM      4  C   UNL A   1      35.864  22.833  25.355  1.00  0.00     0.243 C 
ATOM      5  O   UNL A   1      35.774  22.403  24.209  1.00  0.00    -0.273 OA
ATOM      6  H   UNL A   1      36.895  21.716  26.774  1.00  0.00     0.163 HD
BRANCH   4   7
ATOM      7  C   UNL A   1      34.870  23.792  26.074  1.00  0.00     0.182 C 
ATOM      8  N   UNL A   1      33.555  23.118  26.330  1.00  0.00    -0.306 N 
ATOM      9  C   UNL A   1      32.267  23.847  26.223  1.00  0.00     0.180 C 
ATOM     10  C   UNL A   1      32.413  25.257  25.791  1.00  0.00     0.081 A 
ATOM     11  C   UNL A   1      34.842  25.104  25.242  1.00  0.00     0.091 C 
ATOM     12  N   UNL A   1      31.385  26.152  25.632  1.00  0.00    -0.240 NA
ATOM     13  C   UNL A   1      33.588  25.829  25.399  1.00  0.00     0.042 A 
ATOM     14  C   UNL A   1      31.947  27.247  25.158  1.00  0.00     0.197 A 
ATOM     15  N   UNL A   1      33.304  27.109  25.031  1.00  0.00    -0.348 N 
ATOM     16  H   UNL A   1      33.944  27.795  24.734  1.00  0.00     0.167 HD
BRANCH   8  17
ATOM     17  C   UNL A   1      33.426  21.818  26.770  1.00  0.00     0.318 C 
ATOM     18  N   UNL A   1      32.842  20.879  25.978  1.00  0.00    -0.335 N 
ATOM     19  H   UNL A   1      32.169  20.303  26.409  1.00  0.00     0.165 HD
ATOM     20  O   UNL A   1      33.810  21.458  27.884  1.00  0.00    -0.249 OA
BRANCH  18  21
ATOM     21  C   UNL A   1      33.100  20.629  24.566  1.00  0.00     0.083 C 
ATOM     22  C   UNL A   1      32.140  21.423  23.684  1.00  0.00     0.031 C 
BRANCH  21  23
ATOM     23  C   UNL A   1      33.034  19.122  24.278  1.00  0.00     0.053 C 
BRANCH  23  24
ATOM     24  C   UNL A   1      32.738  18.268  25.514  1.00  0.00     0.162 C 
BRANCH  24  25
ATOM     25  O   UNL A   1      31.986  17.090  25.228  1.00  0.00    -0.385 OA
ATOM     26  C   UNL A   1      32.630  15.861  25.533  1.00  0.00     0.194 C 
ENDBRANCH  24  25
ENDBRANCH  23  24
ENDBRANCH  21  23
ENDBRANCH  18  21
ENDBRANCH   8  17
ENDBRANCH   4   7
ENDBRANCH   2   3
ENDBRANCH   1   2
BRANCH   1  27
ATOM     27  C   UNL A   1      39.974  24.031  27.422  1.00  0.00     0.002 C 
BRANCH  27  28
ATOM     28  C   UNL A   1      40.456  22.635  27.852  1.00  0.00     0.002 C 
BRANCH  28  29
ATOM     29  C   UNL A   1      41.707  22.081  27.146  1.00  0.00     0.021 C 
BRANCH  29  30
ATOM     30  C   UNL A   1      41.724  22.305  25.644  1.00  0.00     0.116 C 
BRANCH  30  31
ATOM     31  N   UNL A   1      43.057  22.658  25.186  1.00  0.00    -0.352 N 
ATOM     32  C   UNL A   1      43.658  23.893  25.123  1.00  0.00     0.251 C 
ATOM     33  H   UNL A   1      43.608  21.903  24.877  1.00  0.00     0.163 HD
ATOM     34  O   UNL A   1      44.633  24.066  24.411  1.00  0.00    -0.269 OA
BRANCH  32  35
ATOM     35  C   UNL A   1      43.096  25.002  25.915  1.00  0.00     0.039 A 
ATOM     36  C   UNL A   1      43.506  25.191  27.233  1.00  0.00     0.014 A 
ATOM     37  C   UNL A   1      42.168  25.862  25.328  1.00  0.00     0.014 A 
ATOM     38  C   UNL A   1      43.030  26.298  27.928  1.00  0.00     0.010 A 
ATOM     39  C   UNL A   1      41.793  27.021  25.971  1.00  0.00     0.010 A 
ATOM     40  C   UNL A   1      42.195  27.230  27.284  1.00  0.00    -0.014 A 
BRANCH  40  41
ATOM     41  C   UNL A   1      41.861  28.483  27.958  1.00  0.00     0.031 A 
ATOM     42  C   UNL A   1      42.865  29.564  27.766  1.00  0.00     0.074 A 
ATOM     43  C   UNL A   1      40.695  28.744  28.586  1.00  0.00     0.049 A 
ATOM     44  N   UNL A   1      43.714  30.001  28.635  1.00  0.00    -0.248 NA
ATOM     45  C   UNL A   1      43.057  30.112  26.414  1.00  0.00     0.031 C 
ATOM     46  C   UNL A   1      39.475  27.933  28.643  1.00  0.00     0.029 A 
ATOM     47  N   UNL A   1      40.333  29.873  29.257  1.00  0.00    -0.354 N 
ATOM     48  C   UNL A   1      44.405  31.033  28.013  1.00  0.00     0.074 A 
ATOM     49  C   UNL A   1      44.087  30.939  26.609  1.00  0.00     0.031 C 
ATOM     50  C   UNL A   1      38.450  28.683  29.109  1.00  0.00     0.029 A 
ATOM     51  C   UNL A   1      38.979  29.958  29.559  1.00  0.00     0.049 A 
ATOM     52  H   UNL A   1      40.978  30.572  29.508  1.00  0.00     0.167 HD
ATOM     53  C   UNL A   1      44.996  32.028  28.733  1.00  0.00     0.031 A 
ATOM     54  C   UNL A   1      38.337  31.000  30.143  1.00  0.00     0.031 A 
ATOM     55  C   UNL A   1      45.107  31.684  30.127  1.00  0.00     0.049 A 
ATOM     56  C   UNL A   1      39.361  31.780  30.877  1.00  0.00     0.074 A 
ATOM     57  C   UNL A   1      45.724  30.668  30.831  1.00  0.00     0.029 A 
ATOM     58  N   UNL A   1      44.167  32.217  30.978  1.00  0.00    -0.354 N 
ATOM     59  N   UNL A   1      40.000  31.320  31.914  1.00  0.00    -0.248 NA
ATOM     60  C   UNL A   1      39.990  32.903  30.204  1.00  0.00     0.031 C 
ATOM     61  C   UNL A   1      44.803  30.328  31.867  1.00  0.00     0.029 A 
ATOM     62  C   UNL A   1      43.717  31.203  31.787  1.00  0.00     0.049 A 
ATOM     63  H   UNL A   1      43.870  33.155  31.002  1.00  0.00     0.167 HD
ATOM     64  C   UNL A   1      41.297  31.788  31.769  1.00  0.00     0.074 A 
ATOM     65  C   UNL A   1      41.203  32.841  30.759  1.00  0.00     0.031 C 
ATOM     66  C   UNL A   1      42.359  31.097  32.280  1.00  0.00     0.031 A 
BRANCH  53  67
ATOM     67  C   UNL A   1      45.095  33.453  28.246  1.00  0.00    -0.014 A 
ATOM     68  C   UNL A   1      46.285  34.175  28.473  1.00  0.00     0.010 A 
ATOM     69  C   UNL A   1      43.971  34.191  27.821  1.00  0.00     0.010 A 
ATOM     70  C   UNL A   1      46.325  35.570  28.336  1.00  0.00     0.020 A 
ATOM     71  C   UNL A   1      44.012  35.573  27.639  1.00  0.00     0.020 A 
ATOM     72  C   UNL A   1      45.183  36.259  27.928  1.00  0.00     0.054 A 
BRANCH  72  73
ATOM     73  S   UNL A   1      45.216  38.066  27.839  1.00  0.00     0.124 S 
ATOM     74  O   UNL A   1      46.522  38.313  27.234  1.00  0.00    -0.237 OA
ATOM     75  O   UNL A   1      44.060  38.353  26.994  1.00  0.00    -0.237 OA
ATOM     76  O   UNL A   1      45.081  38.478  29.234  1.00  0.00    -0.744 OA
ENDBRANCH  72  73
ENDBRANCH  53  67
BRANCH  54  77
ATOM     77  C   UNL A   1      36.976  31.523  29.879  1.00  0.00    -0.014 A 
ATOM     78  C   UNL A   1      36.220  32.114  30.909  1.00  0.00     0.010 A 
ATOM     79  C   UNL A   1      36.551  31.726  28.551  1.00  0.00     0.010 A 
ATOM     80  C   UNL A   1      35.127  32.948  30.617  1.00  0.00     0.020 A 
ATOM     81  C   UNL A   1      35.458  32.550  28.253  1.00  0.00     0.020 A 
ATOM     82  C   UNL A   1      34.771  33.182  29.288  1.00  0.00     0.054 A 
BRANCH  82  83
ATOM     83  S   UNL A   1      33.496  34.422  28.909  1.00  0.00     0.124 S 
ATOM     84  O   UNL A   1      32.643  33.711  27.962  1.00  0.00    -0.237 OA
ATOM     85  O   UNL A   1      32.908  34.683  30.221  1.00  0.00    -0.237 OA
ATOM     86  O   UNL A   1      34.259  35.534  28.344  1.00  0.00    -0.744 OA
ENDBRANCH  82  83
ENDBRANCH  54  77
BRANCH  66  87
ATOM     87  C   UNL A   1      42.084  29.990  33.277  1.00  0.00    -0.014 A 
ATOM     88  C   UNL A   1      41.774  28.661  32.924  1.00  0.00     0.010 A 
ATOM     89  C   UNL A   1      42.270  30.291  34.638  1.00  0.00     0.010 A 
ATOM     90  C   UNL A   1      41.623  27.672  33.911  1.00  0.00     0.020 A 
ATOM     91  C   UNL A   1      42.142  29.308  35.623  1.00  0.00     0.020 A 
ATOM     92  C   UNL A   1      41.806  28.005  35.256  1.00  0.00     0.054 A 
BRANCH  92  93
ATOM     93  S   UNL A   1      41.638  26.721  36.530  1.00  0.00     0.124 S 
ATOM     94  O   UNL A   1      42.934  26.768  37.200  1.00  0.00    -0.237 OA
ATOM     95  O   UNL A   1      40.504  27.194  37.321  1.00  0.00    -0.237 OA
ATOM     96  O   UNL A   1      41.382  25.502  35.765  1.00  0.00    -0.744 OA
ENDBRANCH  92  93
ENDBRANCH  66  87
ENDBRANCH  40  41
ENDBRANCH  32  35
ENDBRANCH  30  31
ENDBRANCH  29  30
ENDBRANCH  28  29
ENDBRANCH  27  28
ENDBRANCH   1  27
TORSDOF 21
ENDMDL
MODEL 2
REMARK VINA RESULT:     -10.3      2.730      9.181
REMARK SMILES COCC[C@@H](C)NC(=O)N1Cc2nc[nH]c2C[C@@H]1C(=O)NCCCCCCNC(=O)c1ccc(-c2c3nc(c(-c4ccc(S(=O)(=O)[O-])cc4)c4ccc([nH]4)c(-c4ccc(S(=O)(=O)[O-])cc4)c4nc(c(-c5ccc(S(=O)(=O)[O-])cc5)c5ccc2[nH]5)C=C4)C=C3)cc1
REMARK SMILES IDX 23 1 22 2 21 3 19 4 20 5 18 7 10 8 11 9 12 10 17 11 13 12
REMARK SMILES IDX 16 13 14 14 15 15 8 17 7 18 9 20 5 21 6 22 4 23 3 24 2 25
REMARK SMILES IDX 1 26 24 27 25 28 26 29 27 30 28 31 29 32 30 34 31 35 32 36
REMARK SMILES IDX 90 37 33 38 89 39 34 40 35 41 36 42 83 43 37 44 88 45 82 46
REMARK SMILES IDX 84 47 38 48 87 49 81 50 80 51 39 53 69 54 50 55 68 56 51 57
REMARK SMILES IDX 54 58 67 59 85 60 52 61 53 62 66 64 86 65 55 66 40 67 41 68
REMARK SMILES IDX 49 69 42 70 48 71 43 72 44 73 45 74 46 75 47 76 70 77 71 78
REMARK SMILES IDX 79 79 72 80 78 81 73 82 74 83 75 84 76 85 77 86 56 87 57 88
REMARK SMILES IDX 65 89 58 90 64 91 59 92 60 93 61 94 62 95 63 96
REMARK H PARENT 21 6 15 16 7 19 28 33 84 52 54 63
REMARK Flexibility Score: inf
ROOT
ATOM      1  C   UNL A   1      31.319  26.179  26.247  1.00  0.00     0.021 C 
ENDROOT
BRANCH   1   2
ATOM      2  C   UNL A   1      32.352  25.106  25.967  1.00  0.00     0.116 C 
BRANCH   2   3
ATOM      3  N   UNL A   1      32.736  25.063  24.579  1.00  0.00    -0.354 N 
ATOM      4  C   UNL A   1      32.480  23.872  23.931  1.00  0.00     0.243 C 
ATOM      5  O   UNL A   1      31.345  23.670  23.512  1.00  0.00    -0.273 OA
ATOM      6  H   UNL A   1      33.152  25.831  24.124  1.00  0.00     0.163 HD
BRANCH   4   7
ATOM      7  C   UNL A   1      33.703  22.915  23.814  1.00  0.00     0.182 C 
ATOM      8  N   UNL A   1      33.543  21.718  24.704  1.00  0.00    -0.306 N 
ATOM      9  C   UNL A   1      34.694  21.115  25.420  1.00  0.00     0.180 C 
ATOM     10  C   UNL A   1      35.972  21.837  25.212  1.00  0.00     0.081 A 
ATOM     11  C   UNL A   1      34.970  23.789  24.026  1.00  0.00     0.091 C 
ATOM     12  N   UNL A   1      37.185  21.478  25.742  1.00  0.00    -0.240 NA
ATOM     13  C   UNL A   1      36.093  23.016  24.538  1.00  0.00     0.042 A 
ATOM     14  C   UNL A   1      38.020  22.432  25.379  1.00  0.00     0.197 A 
ATOM     15  N   UNL A   1      37.403  23.381  24.608  1.00  0.00    -0.348 N 
ATOM     16  H   UNL A   1      37.822  24.168  24.190  1.00  0.00     0.167 HD
BRANCH   8  17
ATOM     17  C   UNL A   1      32.361  21.027  24.863  1.00  0.00     0.318 C 
ATOM     18  N   UNL A   1      32.043  20.006  24.023  1.00  0.00    -0.335 N 
ATOM     19  H   UNL A   1      31.127  20.007  23.662  1.00  0.00     0.165 HD
ATOM     20  O   UNL A   1      31.548  21.306  25.746  1.00  0.00    -0.249 OA
BRANCH  18  21
ATOM     21  C   UNL A   1      32.905  18.912  23.595  1.00  0.00     0.083 C 
ATOM     22  C   UNL A   1      32.421  18.315  22.276  1.00  0.00     0.031 C 
BRANCH  21  23
ATOM     23  C   UNL A   1      33.002  17.854  24.705  1.00  0.00     0.053 C 
BRANCH  23  24
ATOM     24  C   UNL A   1      33.902  16.667  24.351  1.00  0.00     0.162 C 
BRANCH  24  25
ATOM     25  O   UNL A   1      33.324  15.400  24.655  1.00  0.00    -0.385 OA
ATOM     26  C   UNL A   1      32.391  15.390  25.727  1.00  0.00     0.194 C 
ENDBRANCH  24  25
ENDBRANCH  23  24
ENDBRANCH  21  23
ENDBRANCH  18  21
ENDBRANCH   8  17
ENDBRANCH   4   7
ENDBRANCH   2   3
ENDBRANCH   1   2
BRANCH   1  27
ATOM     27  C   UNL A   1      31.773  27.557  25.778  1.00  0.00     0.002 C 
BRANCH  27  28
ATOM     28  C   UNL A   1      32.966  28.152  26.545  1.00  0.00     0.002 C 
BRANCH  28  29
ATOM     29  C   UNL A   1      33.004  29.683  26.698  1.00  0.00     0.021 C 
BRANCH  29  30
ATOM     30  C   UNL A   1      34.355  30.233  27.119  1.00  0.00     0.116 C 
BRANCH  30  31
ATOM     31  N   UNL A   1      34.201  31.419  27.943  1.00  0.00    -0.352 N 
ATOM     32  C   UNL A   1      34.880  31.782  29.083  1.00  0.00     0.251 C 
ATOM     33  H   UNL A   1      33.512  32.054  27.642  1.00  0.00     0.163 HD
ATOM     34  O   UNL A   1      34.411  32.619  29.836  1.00  0.00    -0.269 OA
BRANCH  32  35
ATOM     35  C   UNL A   1      36.167  31.132  29.385  1.00  0.00     0.039 A 
ATOM     36  C   UNL A   1      36.208  29.767  29.658  1.00  0.00     0.014 A 
ATOM     37  C   UNL A   1      37.337  31.892  29.379  1.00  0.00     0.014 A 
ATOM     38  C   UNL A   1      37.446  29.160  29.849  1.00  0.00     0.010 A 
ATOM     39  C   UNL A   1      38.566  31.273  29.445  1.00  0.00     0.010 A 
ATOM     40  C   UNL A   1      38.628  29.912  29.713  1.00  0.00    -0.014 A 
BRANCH  40  41
ATOM     41  C   UNL A   1      39.920  29.228  29.723  1.00  0.00     0.031 A 
ATOM     42  C   UNL A   1      40.473  28.990  31.084  1.00  0.00     0.074 A 
ATOM     43  C   UNL A   1      40.532  28.704  28.641  1.00  0.00     0.049 A 
ATOM     44  N   UNL A   1      41.456  29.612  31.644  1.00  0.00    -0.248 NA
ATOM     45  C   UNL A   1      39.756  28.071  31.982  1.00  0.00     0.031 C 
ATOM     46  C   UNL A   1      40.032  28.575  27.268  1.00  0.00     0.029 A 
ATOM     47  N   UNL A   1      41.744  28.084  28.575  1.00  0.00    -0.354 N 
ATOM     48  C   UNL A   1      41.629  29.017  32.887  1.00  0.00     0.074 A 
ATOM     49  C   UNL A   1      40.457  28.206  33.110  1.00  0.00     0.031 C 
ATOM     50  C   UNL A   1      40.825  27.728  26.572  1.00  0.00     0.029 A 
ATOM     51  C   UNL A   1      41.985  27.409  27.384  1.00  0.00     0.049 A 
ATOM     52  H   UNL A   1      42.396  28.112  29.310  1.00  0.00     0.167 HD
ATOM     53  C   UNL A   1      42.831  29.050  33.529  1.00  0.00     0.031 A 
ATOM     54  C   UNL A   1      43.064  26.644  27.085  1.00  0.00     0.031 A 
ATOM     55  C   UNL A   1      43.717  30.027  32.952  1.00  0.00     0.049 A 
ATOM     56  C   UNL A   1      44.159  27.072  27.986  1.00  0.00     0.074 A 
ATOM     57  C   UNL A   1      43.666  31.394  32.761  1.00  0.00     0.029 A 
ATOM     58  N   UNL A   1      44.681  29.561  32.088  1.00  0.00    -0.354 N 
ATOM     59  N   UNL A   1      44.713  28.249  27.926  1.00  0.00    -0.248 NA
ATOM     60  C   UNL A   1      44.347  26.356  29.236  1.00  0.00     0.031 C 
ATOM     61  C   UNL A   1      44.236  31.606  31.471  1.00  0.00     0.029 A 
ATOM     62  C   UNL A   1      44.675  30.373  30.982  1.00  0.00     0.049 A 
ATOM     63  H   UNL A   1      45.269  28.786  32.236  1.00  0.00     0.167 HD
ATOM     64  C   UNL A   1      44.934  28.605  29.248  1.00  0.00     0.074 A 
ATOM     65  C   UNL A   1      44.789  27.360  29.999  1.00  0.00     0.031 C 
ATOM     66  C   UNL A   1      44.948  29.916  29.634  1.00  0.00     0.031 A 
BRANCH  53  67
ATOM     67  C   UNL A   1      43.332  27.927  34.403  1.00  0.00    -0.014 A 
ATOM     68  C   UNL A   1      44.158  28.229  35.505  1.00  0.00     0.010 A 
ATOM     69  C   UNL A   1      43.245  26.571  34.023  1.00  0.00     0.010 A 
ATOM     70  C   UNL A   1      44.902  27.231  36.151  1.00  0.00     0.020 A 
ATOM     71  C   UNL A   1      43.947  25.564  34.686  1.00  0.00     0.020 A 
ATOM     72  C   UNL A   1      44.797  25.906  35.729  1.00  0.00     0.054 A 
BRANCH  72  73
ATOM     73  S   UNL A   1      45.825  24.637  36.507  1.00  0.00     0.124 S 
ATOM     74  O   UNL A   1      46.236  23.837  35.356  1.00  0.00    -0.237 OA
ATOM     75  O   UNL A   1      46.875  25.435  37.133  1.00  0.00    -0.237 OA
ATOM     76  O   UNL A   1      44.910  23.979  37.435  1.00  0.00    -0.744 OA
ENDBRANCH  72  73
ENDBRANCH  53  67
BRANCH  54  77
ATOM     77  C   UNL A   1      43.130  25.397  26.287  1.00  0.00    -0.014 A 
ATOM     78  C   UNL A   1      44.085  25.248  25.263  1.00  0.00     0.010 A 
ATOM     79  C   UNL A   1      42.469  24.240  26.744  1.00  0.00     0.010 A 
ATOM     80  C   UNL A   1      44.426  23.977  24.771  1.00  0.00     0.020 A 
ATOM     81  C   UNL A   1      42.800  22.970  26.254  1.00  0.00     0.020 A 
ATOM     82  C   UNL A   1      43.799  22.843  25.291  1.00  0.00     0.054 A 
BRANCH  82  83
ATOM     83  S   UNL A   1      44.391  21.193  24.806  1.00  0.00     0.124 S 
ATOM     84  O   UNL A   1      43.297  20.330  25.243  1.00  0.00    -0.237 OA
ATOM     85  O   UNL A   1      44.554  21.327  23.360  1.00  0.00    -0.237 OA
ATOM     86  O   UNL A   1      45.637  21.044  25.556  1.00  0.00    -0.744 OA
ENDBRANCH  82  83
ENDBRANCH  54  77
BRANCH  66  87
ATOM     87  C   UNL A   1      45.037  30.981  28.561  1.00  0.00    -0.014 A 
ATOM     88  C   UNL A   1      46.145  31.158  27.707  1.00  0.00     0.010 A 
ATOM     89  C   UNL A   1      43.889  31.759  28.331  1.00  0.00     0.010 A 
ATOM     90  C   UNL A   1      46.111  32.111  26.675  1.00  0.00     0.020 A 
ATOM     91  C   UNL A   1      43.841  32.694  27.294  1.00  0.00     0.020 A 
ATOM     92  C   UNL A   1      44.957  32.876  26.478  1.00  0.00     0.054 A 
BRANCH  92  93
ATOM     93  S   UNL A   1      44.902  34.088  25.127  1.00  0.00     0.124 S 
ATOM     94  O   UNL A   1      43.881  35.026  25.584  1.00  0.00    -0.237 OA
ATOM     95  O   UNL A   1      46.268  34.608  25.102  1.00  0.00    -0.237 OA
ATOM     96  O   UNL A   1      44.531  33.291  23.958  1.00  0.00    -0.744 OA
ENDBRANCH  92  93
ENDBRANCH  66  87
ENDBRANCH  40  41
ENDBRANCH  32  35
ENDBRANCH  30  31
ENDBRANCH  29  30
ENDBRANCH  28  29
ENDBRANCH  27  28
ENDBRANCH   1  27
TORSDOF 21
ENDMDL
MODEL 3
REMARK VINA RESULT:      -9.9      2.901      9.290
REMARK SMILES COCC[C@@H](C)NC(=O)N1Cc2nc[nH]c2C[C@@H]1C(=O)NCCCCCCNC(=O)c1ccc(-c2c3nc(c(-c4ccc(S(=O)(=O)[O-])cc4)c4ccc([nH]4)c(-c4ccc(S(=O)(=O)[O-])cc4)c4nc(c(-c5ccc(S(=O)(=O)[O-])cc5)c5ccc2[nH]5)C=C4)C=C3)cc1
REMARK SMILES IDX 23 1 22 2 21 3 19 4 20 5 18 7 10 8 11 9 12 10 17 11 13 12
REMARK SMILES IDX 16 13 14 14 15 15 8 17 7 18 9 20 5 21 6 22 4 23 3 24 2 25
REMARK SMILES IDX 1 26 24 27 25 28 26 29 27 30 28 31 29 32 30 34 31 35 32 36
REMARK SMILES IDX 90 37 33 38 89 39 34 40 35 41 36 42 83 43 37 44 88 45 82 46
REMARK SMILES IDX 84 47 38 48 87 49 81 50 80 51 39 53 69 54 50 55 68 56 51 57
REMARK SMILES IDX 54 58 67 59 85 60 52 61 53 62 66 64 86 65 55 66 40 67 41 68
REMARK SMILES IDX 49 69 42 70 48 71 43 72 44 73 45 74 46 75 47 76 70 77 71 78
REMARK SMILES IDX 79 79 72 80 78 81 73 82 74 83 75 84 76 85 77 86 56 87 57 88
REMARK SMILES IDX 65 89 58 90 64 91 59 92 60 93 61 94 62 95 63 96
REMARK H PARENT 21 6 15 16 7 19 28 33 84 52 54 63
REMARK Flexibility Score: inf
ROOT
ATOM      1  C   UNL A   1      33.563  29.758  27.787  1.00  0.00     0.021 C 
ENDROOT
BRANCH   1   2
ATOM      2  C   UNL A   1      34.354  28.893  26.827  1.00  0.00     0.116 C 
BRANCH   2   3
ATOM      3  N   UNL A   1      33.618  27.730  26.401  1.00  0.00    -0.354 N 
ATOM      4  C   UNL A   1      33.143  27.771  25.106  1.00  0.00     0.243 C 
ATOM      5  O   UNL A   1      33.913  27.484  24.195  1.00  0.00    -0.273 OA
ATOM      6  H   UNL A   1      33.465  26.958  26.993  1.00  0.00     0.163 HD
BRANCH   4   7
ATOM      7  C   UNL A   1      31.649  28.188  24.970  1.00  0.00     0.182 C 
ATOM      8  N   UNL A   1      30.783  27.007  24.646  1.00  0.00    -0.306 N 
ATOM      9  C   UNL A   1      29.624  27.114  23.727  1.00  0.00     0.180 C 
ATOM     10  C   UNL A   1      29.454  28.463  23.135  1.00  0.00     0.081 A 
ATOM     11  C   UNL A   1      31.612  29.385  23.980  1.00  0.00     0.091 C 
ATOM     12  N   UNL A   1      28.454  28.834  22.271  1.00  0.00    -0.240 NA
ATOM     13  C   UNL A   1      30.330  29.495  23.297  1.00  0.00     0.042 A 
ATOM     14  C   UNL A   1      28.731  30.077  21.931  1.00  0.00     0.197 A 
ATOM     15  N   UNL A   1      29.855  30.539  22.563  1.00  0.00    -0.348 N 
ATOM     16  H   UNL A   1      30.241  31.442  22.499  1.00  0.00     0.167 HD
BRANCH   8  17
ATOM     17  C   UNL A   1      30.921  25.765  25.229  1.00  0.00     0.318 C 
ATOM     18  N   UNL A   1      31.245  24.683  24.472  1.00  0.00    -0.335 N 
ATOM     19  H   UNL A   1      30.711  23.870  24.623  1.00  0.00     0.165 HD
ATOM     20  O   UNL A   1      30.743  25.579  26.434  1.00  0.00    -0.249 OA
BRANCH  18  21
ATOM     21  C   UNL A   1      32.293  24.591  23.464  1.00  0.00     0.083 C 
ATOM     22  C   UNL A   1      31.957  25.445  22.244  1.00  0.00     0.031 C 
BRANCH  21  23
ATOM     23  C   UNL A   1      32.536  23.121  23.089  1.00  0.00     0.053 C 
BRANCH  23  24
ATOM     24  C   UNL A   1      33.286  22.326  24.161  1.00  0.00     0.162 C 
BRANCH  24  25
ATOM     25  O   UNL A   1      34.698  22.527  24.137  1.00  0.00    -0.385 OA
ATOM     26  C   UNL A   1      35.265  23.053  25.329  1.00  0.00     0.194 C 
ENDBRANCH  24  25
ENDBRANCH  23  24
ENDBRANCH  21  23
ENDBRANCH  18  21
ENDBRANCH   8  17
ENDBRANCH   4   7
ENDBRANCH   2   3
ENDBRANCH   1   2
BRANCH   1  27
ATOM     27  C   UNL A   1      33.216  31.118  27.190  1.00  0.00     0.002 C 
BRANCH  27  28
ATOM     28  C   UNL A   1      34.109  32.283  27.646  1.00  0.00     0.002 C 
BRANCH  28  29
ATOM     29  C   UNL A   1      33.405  33.604  28.004  1.00  0.00     0.021 C 
BRANCH  29  30
ATOM     30  C   UNL A   1      34.348  34.717  28.425  1.00  0.00     0.116 C 
BRANCH  30  31
ATOM     31  N   UNL A   1      34.243  34.977  29.851  1.00  0.00    -0.352 N 
ATOM     32  C   UNL A   1      34.791  34.283  30.905  1.00  0.00     0.251 C 
ATOM     33  H   UNL A   1      33.702  35.762  30.097  1.00  0.00     0.163 HD
ATOM     34  O   UNL A   1      34.340  34.420  32.030  1.00  0.00    -0.269 OA
BRANCH  32  35
ATOM     35  C   UNL A   1      35.915  33.365  30.649  1.00  0.00     0.039 A 
ATOM     36  C   UNL A   1      37.198  33.874  30.467  1.00  0.00     0.014 A 
ATOM     37  C   UNL A   1      35.681  31.990  30.607  1.00  0.00     0.014 A 
ATOM     38  C   UNL A   1      38.255  32.982  30.319  1.00  0.00     0.010 A 
ATOM     39  C   UNL A   1      36.738  31.108  30.583  1.00  0.00     0.010 A 
ATOM     40  C   UNL A   1      38.026  31.596  30.406  1.00  0.00    -0.014 A 
BRANCH  40  41
ATOM     41  C   UNL A   1      39.165  30.680  30.444  1.00  0.00     0.031 A 
ATOM     42  C   UNL A   1      39.750  30.491  31.800  1.00  0.00     0.074 A 
ATOM     43  C   UNL A   1      39.598  29.930  29.409  1.00  0.00     0.049 A 
ATOM     44  N   UNL A   1      40.866  30.969  32.239  1.00  0.00    -0.248 NA
ATOM     45  C   UNL A   1      38.933  29.834  32.832  1.00  0.00     0.031 C 
ATOM     46  C   UNL A   1      38.995  29.750  28.084  1.00  0.00     0.029 A 
ATOM     47  N   UNL A   1      40.665  29.085  29.367  1.00  0.00    -0.354 N 
ATOM     48  C   UNL A   1      41.004  30.493  33.536  1.00  0.00     0.074 A 
ATOM     49  C   UNL A   1      39.717  29.955  33.905  1.00  0.00     0.031 C 
ATOM     50  C   UNL A   1      39.568  28.694  27.463  1.00  0.00     0.029 A 
ATOM     51  C   UNL A   1      40.698  28.248  28.259  1.00  0.00     0.049 A 
ATOM     52  H   UNL A   1      41.356  29.067  30.067  1.00  0.00     0.167 HD
ATOM     53  C   UNL A   1      42.229  30.363  34.119  1.00  0.00     0.031 A 
ATOM     54  C   UNL A   1      41.593  27.260  28.009  1.00  0.00     0.031 A 
ATOM     55  C   UNL A   1      43.245  31.080  33.391  1.00  0.00     0.049 A 
ATOM     56  C   UNL A   1      42.804  27.565  28.805  1.00  0.00     0.074 A 
ATOM     57  C   UNL A   1      43.438  32.401  33.039  1.00  0.00     0.029 A 
ATOM     58  N   UNL A   1      44.046  30.344  32.551  1.00  0.00    -0.354 N 
ATOM     59  N   UNL A   1      43.564  28.598  28.580  1.00  0.00    -0.248 NA
ATOM     60  C   UNL A   1      42.934  26.969  30.123  1.00  0.00     0.031 C 
ATOM     61  C   UNL A   1      43.954  32.355  31.710  1.00  0.00     0.029 A 
ATOM     62  C   UNL A   1      44.121  31.014  31.355  1.00  0.00     0.049 A 
ATOM     63  H   UNL A   1      44.487  29.490  32.767  1.00  0.00     0.167 HD
ATOM     64  C   UNL A   1      43.933  29.049  29.839  1.00  0.00     0.074 A 
ATOM     65  C   UNL A   1      43.605  27.946  30.741  1.00  0.00     0.031 C 
ATOM     66  C   UNL A   1      44.217  30.366  30.063  1.00  0.00     0.031 A 
BRANCH  53  67
ATOM     67  C   UNL A   1      42.566  29.268  35.101  1.00  0.00    -0.014 A 
ATOM     68  C   UNL A   1      43.238  29.598  36.296  1.00  0.00     0.010 A 
ATOM     69  C   UNL A   1      42.491  27.900  34.767  1.00  0.00     0.010 A 
ATOM     70  C   UNL A   1      43.851  28.611  37.081  1.00  0.00     0.020 A 
ATOM     71  C   UNL A   1      43.060  26.905  35.565  1.00  0.00     0.020 A 
ATOM     72  C   UNL A   1      43.764  27.271  36.702  1.00  0.00     0.054 A 
BRANCH  72  73
ATOM     73  S   UNL A   1      44.632  26.013  37.670  1.00  0.00     0.124 S 
ATOM     74  O   UNL A   1      44.208  26.336  39.030  1.00  0.00    -0.237 OA
ATOM     75  O   UNL A   1      44.095  24.774  37.115  1.00  0.00    -0.237 OA
ATOM     76  O   UNL A   1      46.039  26.266  37.374  1.00  0.00    -0.744 OA
ENDBRANCH  72  73
ENDBRANCH  53  67
BRANCH  54  77
ATOM     77  C   UNL A   1      41.372  25.944  27.366  1.00  0.00    -0.014 A 
ATOM     78  C   UNL A   1      42.323  25.410  26.474  1.00  0.00     0.010 A 
ATOM     79  C   UNL A   1      40.386  25.074  27.872  1.00  0.00     0.010 A 
ATOM     80  C   UNL A   1      42.337  24.040  26.165  1.00  0.00     0.020 A 
ATOM     81  C   UNL A   1      40.390  23.708  27.564  1.00  0.00     0.020 A 
ATOM     82  C   UNL A   1      41.385  23.192  26.736  1.00  0.00     0.054 A 
BRANCH  82  83
ATOM     83  S   UNL A   1      41.534  21.395  26.503  1.00  0.00     0.124 S 
ATOM     84  O   UNL A   1      40.164  21.010  26.176  1.00  0.00    -0.237 OA
ATOM     85  O   UNL A   1      42.499  21.296  25.411  1.00  0.00    -0.237 OA
ATOM     86  O   UNL A   1      42.020  20.923  27.799  1.00  0.00    -0.744 OA
ENDBRANCH  82  83
ENDBRANCH  54  77
BRANCH  66  87
ATOM     87  C   UNL A   1      44.435  31.268  28.866  1.00  0.00    -0.014 A 
ATOM     88  C   UNL A   1      45.367  31.016  27.839  1.00  0.00     0.010 A 
ATOM     89  C   UNL A   1      43.563  32.362  28.718  1.00  0.00     0.010 A 
ATOM     90  C   UNL A   1      45.444  31.855  26.715  1.00  0.00     0.020 A 
ATOM     91  C   UNL A   1      43.620  33.189  27.594  1.00  0.00     0.020 A 
ATOM     92  C   UNL A   1      44.568  32.940  26.602  1.00  0.00     0.054 A 
BRANCH  92  93
ATOM     93  S   UNL A   1      44.648  34.009  25.136  1.00  0.00     0.124 S 
ATOM     94  O   UNL A   1      43.618  35.006  25.415  1.00  0.00    -0.237 OA
ATOM     95  O   UNL A   1      46.024  34.501  25.167  1.00  0.00    -0.237 OA
ATOM     96  O   UNL A   1      44.347  33.104  24.028  1.00  0.00    -0.744 OA
ENDBRANCH  92  93
ENDBRANCH  66  87
ENDBRANCH  40  41
ENDBRANCH  32  35
ENDBRANCH  30  31
ENDBRANCH  29  30
ENDBRANCH  28  29
ENDBRANCH  27  28
ENDBRANCH   1  27
TORSDOF 21
ENDMDL
