MODEL 1
REMARK VINA RESULT:     -10.2      0.000      0.000
REMARK SMILES CCSc1nc(CC(=O)N[C@@H](C(=O)NCCCCCCNC(=O)c2ccc(-c3c4nc(c(-c5ccc(S(=O)(=O)[O-])cc5)c5ccc([nH]5)c(-c5ccc(S(=O)(=O)[O-])cc5)c5nc(c(-c6ccc(S(=O)(=O)[O-])cc6)c6ccc3[nH]6)C=C5)C=C4)cc2)C2=C(C)N=N[C@@H]2C)cs1
REMARK SMILES IDX 16 1 15 2 14 3 12 4 13 5 11 7 10 8 8 9 9 10 7 12 6 13 4 14
REMARK SMILES IDX 5 15 92 16 91 17 3 18 2 19 1 20 84 21 85 22 89 23 86 24
REMARK SMILES IDX 87 25 88 26 90 27 17 28 18 29 19 30 20 31 21 32 22 33 23 35
REMARK SMILES IDX 24 36 25 37 83 38 26 39 82 40 27 41 28 42 29 43 76 44 30 45
REMARK SMILES IDX 81 46 75 47 77 48 31 49 80 50 74 51 73 52 32 54 62 55 43 56
REMARK SMILES IDX 61 57 44 58 47 59 60 60 78 61 45 62 46 63 59 65 79 66 48 67
REMARK SMILES IDX 33 68 34 69 42 70 35 71 41 72 36 73 37 74 38 75 39 76 40 77
REMARK SMILES IDX 63 78 64 79 72 80 65 81 71 82 66 83 67 84 68 85 69 86 70 87
REMARK SMILES IDX 49 88 50 89 58 90 51 91 57 92 52 93 53 94 54 95 55 96 56 97
REMARK H PARENT 14 6 10 11 21 34 77 53 47 64
REMARK Flexibility Score: inf
ROOT
ATOM      1  C   UNL A   1      30.639  24.353  26.182  1.00  0.00     0.021 C 
ENDROOT
BRANCH   1   2
ATOM      2  C   UNL A   1      31.110  22.951  25.829  1.00  0.00     0.116 C 
BRANCH   2   3
ATOM      3  N   UNL A   1      31.518  22.786  24.455  1.00  0.00    -0.354 N 
ATOM      4  C   UNL A   1      32.729  23.070  23.887  1.00  0.00     0.247 C 
ATOM      5  O   UNL A   1      33.052  22.324  22.953  1.00  0.00    -0.272 OA
ATOM      6  H   UNL A   1      30.835  22.420  23.848  1.00  0.00     0.163 HD
BRANCH   4   7
ATOM      7  C   UNL A   1      33.692  24.223  24.396  1.00  0.00     0.202 C 
BRANCH   7   8
ATOM      8  N   UNL A   1      34.007  25.236  23.387  1.00  0.00    -0.340 N 
ATOM      9  C   UNL A   1      33.289  25.675  22.310  1.00  0.00     0.226 C 
ATOM     10  O   UNL A   1      33.872  26.421  21.517  1.00  0.00    -0.275 OA
ATOM     11  H   UNL A   1      34.881  25.673  23.502  1.00  0.00     0.164 HD
BRANCH   9  12
ATOM     12  C   UNL A   1      31.836  25.293  22.076  1.00  0.00     0.157 C 
BRANCH  12  13
ATOM     13  C   UNL A   1      30.839  26.291  22.564  1.00  0.00     0.062 A 
ATOM     14  C   UNL A   1      29.909  28.305  22.511  1.00  0.00     0.150 A 
ATOM     15  N   UNL A   1      30.880  27.569  22.026  1.00  0.00    -0.234 NA
ATOM     16  S   UNL A   1      28.886  27.526  23.639  1.00  0.00    -0.116 S 
ATOM     17  C   UNL A   1      29.823  26.094  23.482  1.00  0.00     0.092 A 
BRANCH  14  18
ATOM     18  S   UNL A   1      29.759  29.976  22.027  1.00  0.00    -0.096 SA
BRANCH  18  19
ATOM     19  C   UNL A   1      29.299  30.756  23.601  1.00  0.00     0.074 C 
ATOM     20  C   UNL A   1      28.628  32.106  23.412  1.00  0.00     0.016 C 
ENDBRANCH  18  19
ENDBRANCH  14  18
ENDBRANCH  12  13
ENDBRANCH   9  12
ENDBRANCH   7   8
BRANCH   7  21
ATOM     21  C   UNL A   1      35.019  23.683  24.881  1.00  0.00     0.011 C 
ATOM     22  C   UNL A   1      36.090  23.268  24.189  1.00  0.00     0.064 C 
ATOM     23  C   UNL A   1      35.452  23.595  26.314  1.00  0.00     0.156 C 
ATOM     24  C   UNL A   1      36.291  23.165  22.720  1.00  0.00     0.069 C 
ATOM     25  N   UNL A   1      37.142  22.908  24.993  1.00  0.00    -0.160 NA
ATOM     26  N   UNL A   1      36.846  23.076  26.204  1.00  0.00    -0.181 NA
ATOM     27  C   UNL A   1      34.662  22.619  27.176  1.00  0.00     0.040 C 
ENDBRANCH   7  21
ENDBRANCH   4   7
ENDBRANCH   2   3
ENDBRANCH   1   2
BRANCH   1  28
ATOM     28  C   UNL A   1      31.744  25.287  26.678  1.00  0.00     0.002 C 
BRANCH  28  29
ATOM     29  C   UNL A   1      31.456  26.787  26.533  1.00  0.00     0.002 C 
BRANCH  29  30
ATOM     30  C   UNL A   1      32.627  27.642  26.042  1.00  0.00     0.021 C 
BRANCH  30  31
ATOM     31  C   UNL A   1      33.576  28.133  27.129  1.00  0.00     0.116 C 
BRANCH  31  32
ATOM     32  N   UNL A   1      33.466  29.562  27.353  1.00  0.00    -0.352 N 
ATOM     33  C   UNL A   1      34.361  30.433  27.923  1.00  0.00     0.251 C 
ATOM     34  H   UNL A   1      32.622  29.969  27.052  1.00  0.00     0.163 HD
ATOM     35  O   UNL A   1      34.007  31.575  28.197  1.00  0.00    -0.269 OA
BRANCH  33  36
ATOM     36  C   UNL A   1      35.741  29.991  28.225  1.00  0.00     0.039 A 
ATOM     37  C   UNL A   1      36.701  30.052  27.212  1.00  0.00     0.014 A 
ATOM     38  C   UNL A   1      36.085  29.502  29.488  1.00  0.00     0.014 A 
ATOM     39  C   UNL A   1      38.018  29.672  27.483  1.00  0.00     0.010 A 
ATOM     40  C   UNL A   1      37.413  29.199  29.777  1.00  0.00     0.010 A 
ATOM     41  C   UNL A   1      38.393  29.273  28.777  1.00  0.00    -0.014 A 
BRANCH  41  42
ATOM     42  C   UNL A   1      39.802  28.927  29.097  1.00  0.00     0.031 A 
ATOM     43  C   UNL A   1      40.711  29.954  29.720  1.00  0.00     0.074 A 
ATOM     44  C   UNL A   1      40.279  27.709  28.776  1.00  0.00     0.049 A 
ATOM     45  N   UNL A   1      41.980  29.853  30.024  1.00  0.00    -0.248 NA
ATOM     46  C   UNL A   1      40.127  31.272  30.017  1.00  0.00     0.031 C 
ATOM     47  C   UNL A   1      39.509  26.640  28.132  1.00  0.00     0.029 A 
ATOM     48  N   UNL A   1      41.527  27.162  28.940  1.00  0.00    -0.354 N 
ATOM     49  C   UNL A   1      42.348  31.094  30.531  1.00  0.00     0.074 A 
ATOM     50  C   UNL A   1      41.183  31.946  30.447  1.00  0.00     0.031 C 
ATOM     51  C   UNL A   1      40.293  25.561  27.983  1.00  0.00     0.029 A 
ATOM     52  C   UNL A   1      41.632  25.871  28.477  1.00  0.00     0.049 A 
ATOM     53  H   UNL A   1      42.277  27.648  29.353  1.00  0.00     0.167 HD
ATOM     54  C   UNL A   1      43.542  31.484  31.037  1.00  0.00     0.031 A 
ATOM     55  C   UNL A   1      42.686  25.033  28.441  1.00  0.00     0.031 A 
ATOM     56  C   UNL A   1      44.695  30.628  31.130  1.00  0.00     0.049 A 
ATOM     57  C   UNL A   1      44.005  25.493  29.001  1.00  0.00     0.074 A 
ATOM     58  C   UNL A   1      45.933  30.910  31.683  1.00  0.00     0.029 A 
ATOM     59  N   UNL A   1      44.756  29.326  30.657  1.00  0.00    -0.354 N 
ATOM     60  N   UNL A   1      44.312  26.648  29.540  1.00  0.00    -0.248 NA
ATOM     61  C   UNL A   1      45.116  24.532  28.957  1.00  0.00     0.031 C 
ATOM     62  C   UNL A   1      46.761  29.800  31.489  1.00  0.00     0.029 A 
ATOM     63  C   UNL A   1      46.019  28.801  30.878  1.00  0.00     0.049 A 
ATOM     64  H   UNL A   1      44.012  28.844  30.227  1.00  0.00     0.167 HD
ATOM     65  C   UNL A   1      45.645  26.543  29.927  1.00  0.00     0.074 A 
ATOM     66  C   UNL A   1      46.076  25.206  29.575  1.00  0.00     0.031 C 
ATOM     67  C   UNL A   1      46.436  27.468  30.522  1.00  0.00     0.031 A 
BRANCH  54  68
ATOM     68  C   UNL A   1      43.667  32.904  31.527  1.00  0.00    -0.014 A 
ATOM     69  C   UNL A   1      43.385  33.243  32.863  1.00  0.00     0.010 A 
ATOM     70  C   UNL A   1      44.125  33.906  30.651  1.00  0.00     0.010 A 
ATOM     71  C   UNL A   1      43.523  34.561  33.304  1.00  0.00     0.020 A 
ATOM     72  C   UNL A   1      44.294  35.221  31.096  1.00  0.00     0.020 A 
ATOM     73  C   UNL A   1      43.978  35.542  32.417  1.00  0.00     0.054 A 
BRANCH  73  74
ATOM     74  S   UNL A   1      44.179  37.238  33.027  1.00  0.00     0.124 S 
ATOM     75  O   UNL A   1      45.508  37.186  33.630  1.00  0.00    -0.237 OA
ATOM     76  O   UNL A   1      44.075  38.032  31.805  1.00  0.00    -0.237 OA
ATOM     77  O   UNL A   1      43.074  37.402  33.969  1.00  0.00    -0.744 OA
ENDBRANCH  73  74
ENDBRANCH  54  68
BRANCH  55  78
ATOM     78  C   UNL A   1      42.536  23.671  27.859  1.00  0.00    -0.014 A 
ATOM     79  C   UNL A   1      41.828  22.668  28.547  1.00  0.00     0.010 A 
ATOM     80  C   UNL A   1      43.100  23.369  26.605  1.00  0.00     0.010 A 
ATOM     81  C   UNL A   1      41.706  21.386  28.003  1.00  0.00     0.020 A 
ATOM     82  C   UNL A   1      42.952  22.098  26.043  1.00  0.00     0.020 A 
ATOM     83  C   UNL A   1      42.267  21.110  26.752  1.00  0.00     0.054 A 
BRANCH  83  84
ATOM     84  S   UNL A   1      42.058  19.453  26.045  1.00  0.00     0.124 S 
ATOM     85  O   UNL A   1      42.596  18.601  27.101  1.00  0.00    -0.237 OA
ATOM     86  O   UNL A   1      40.613  19.377  25.843  1.00  0.00    -0.237 OA
ATOM     87  O   UNL A   1      42.848  19.504  24.816  1.00  0.00    -0.744 OA
ENDBRANCH  83  84
ENDBRANCH  55  78
BRANCH  67  88
ATOM     88  C   UNL A   1      47.844  27.060  30.866  1.00  0.00    -0.014 A 
ATOM     89  C   UNL A   1      48.910  27.281  29.977  1.00  0.00     0.010 A 
ATOM     90  C   UNL A   1      48.111  26.496  32.128  1.00  0.00     0.010 A 
ATOM     91  C   UNL A   1      50.212  26.916  30.330  1.00  0.00     0.020 A 
ATOM     92  C   UNL A   1      49.416  26.158  32.497  1.00  0.00     0.020 A 
ATOM     93  C   UNL A   1      50.456  26.358  31.589  1.00  0.00     0.054 A 
BRANCH  93  94
ATOM     94  S   UNL A   1      52.162  25.933  32.038  1.00  0.00     0.124 S 
ATOM     95  O   UNL A   1      52.068  24.492  32.257  1.00  0.00    -0.237 OA
ATOM     96  O   UNL A   1      52.915  26.341  30.856  1.00  0.00    -0.237 OA
ATOM     97  O   UNL A   1      52.414  26.730  33.237  1.00  0.00    -0.744 OA
ENDBRANCH  93  94
ENDBRANCH  67  88
ENDBRANCH  41  42
ENDBRANCH  33  36
ENDBRANCH  31  32
ENDBRANCH  30  31
ENDBRANCH  29  30
ENDBRANCH  28  29
ENDBRANCH   1  28
TORSDOF 22
ENDMDL
MODEL 2
REMARK VINA RESULT:      -9.8      2.863      3.615
REMARK SMILES CCSc1nc(CC(=O)N[C@@H](C(=O)NCCCCCCNC(=O)c2ccc(-c3c4nc(c(-c5ccc(S(=O)(=O)[O-])cc5)c5ccc([nH]5)c(-c5ccc(S(=O)(=O)[O-])cc5)c5nc(c(-c6ccc(S(=O)(=O)[O-])cc6)c6ccc3[nH]6)C=C5)C=C4)cc2)C2=C(C)N=N[C@@H]2C)cs1
REMARK SMILES IDX 16 1 15 2 14 3 12 4 13 5 11 7 10 8 8 9 9 10 7 12 6 13 4 14
REMARK SMILES IDX 5 15 92 16 91 17 3 18 2 19 1 20 84 21 85 22 89 23 86 24
REMARK SMILES IDX 87 25 88 26 90 27 17 28 18 29 19 30 20 31 21 32 22 33 23 35
REMARK SMILES IDX 24 36 25 37 83 38 26 39 82 40 27 41 28 42 29 43 76 44 30 45
REMARK SMILES IDX 81 46 75 47 77 48 31 49 80 50 74 51 73 52 32 54 62 55 43 56
REMARK SMILES IDX 61 57 44 58 47 59 60 60 78 61 45 62 46 63 59 65 79 66 48 67
REMARK SMILES IDX 33 68 34 69 42 70 35 71 41 72 36 73 37 74 38 75 39 76 40 77
REMARK SMILES IDX 63 78 64 79 72 80 65 81 71 82 66 83 67 84 68 85 69 86 70 87
REMARK SMILES IDX 49 88 50 89 58 90 51 91 57 92 52 93 53 94 54 95 55 96 56 97
REMARK H PARENT 14 6 10 11 21 34 77 53 47 64
REMARK Flexibility Score: inf
ROOT
ATOM      1  C   UNL A   1      31.959  26.109  26.330  1.00  0.00     0.021 C 
ENDROOT
BRANCH   1   2
ATOM      2  C   UNL A   1      32.254  24.666  26.712  1.00  0.00     0.116 C 
BRANCH   2   3
ATOM      3  N   UNL A   1      31.817  23.691  25.742  1.00  0.00    -0.354 N 
ATOM      4  C   UNL A   1      32.577  22.955  24.875  1.00  0.00     0.247 C 
ATOM      5  O   UNL A   1      32.130  21.828  24.623  1.00  0.00    -0.272 OA
ATOM      6  H   UNL A   1      30.846  23.536  25.699  1.00  0.00     0.163 HD
BRANCH   4   7
ATOM      7  C   UNL A   1      33.953  23.455  24.265  1.00  0.00     0.202 C 
BRANCH   7   8
ATOM      8  N   UNL A   1      34.002  23.452  22.802  1.00  0.00    -0.340 N 
ATOM      9  C   UNL A   1      33.117  23.935  21.879  1.00  0.00     0.226 C 
ATOM     10  O   UNL A   1      33.326  23.641  20.698  1.00  0.00    -0.275 OA
ATOM     11  H   UNL A   1      34.804  23.031  22.419  1.00  0.00     0.164 HD
BRANCH   9  12
ATOM     12  C   UNL A   1      31.928  24.807  22.254  1.00  0.00     0.157 C 
BRANCH  12  13
ATOM     13  C   UNL A   1      32.254  26.246  22.482  1.00  0.00     0.062 A 
ATOM     14  C   UNL A   1      31.719  28.277  23.198  1.00  0.00     0.150 A 
ATOM     15  N   UNL A   1      31.261  27.063  23.002  1.00  0.00    -0.234 NA
ATOM     16  S   UNL A   1      33.358  28.524  22.775  1.00  0.00    -0.116 S 
ATOM     17  C   UNL A   1      33.463  26.884  22.274  1.00  0.00     0.092 A 
BRANCH  14  18
ATOM     18  S   UNL A   1      30.654  29.519  23.809  1.00  0.00    -0.096 SA
BRANCH  18  19
ATOM     19  C   UNL A   1      29.248  29.366  22.671  1.00  0.00     0.074 C 
ATOM     20  C   UNL A   1      29.216  30.470  21.628  1.00  0.00     0.016 C 
ENDBRANCH  18  19
ENDBRANCH  14  18
ENDBRANCH  12  13
ENDBRANCH   9  12
ENDBRANCH   7   8
BRANCH   7  21
ATOM     21  C   UNL A   1      35.120  22.613  24.729  1.00  0.00     0.011 C 
ATOM     22  C   UNL A   1      35.232  21.282  24.851  1.00  0.00     0.064 C 
ATOM     23  C   UNL A   1      36.487  23.128  25.068  1.00  0.00     0.156 C 
ATOM     24  C   UNL A   1      34.223  20.217  24.612  1.00  0.00     0.069 C 
ATOM     25  N   UNL A   1      36.486  20.883  25.243  1.00  0.00    -0.160 NA
ATOM     26  N   UNL A   1      37.242  21.880  25.376  1.00  0.00    -0.181 NA
ATOM     27  C   UNL A   1      36.559  24.027  26.296  1.00  0.00     0.040 C 
ENDBRANCH   7  21
ENDBRANCH   4   7
ENDBRANCH   2   3
ENDBRANCH   1   2
BRANCH   1  28
ATOM     28  C   UNL A   1      33.183  27.027  26.335  1.00  0.00     0.002 C 
BRANCH  28  29
ATOM     29  C   UNL A   1      33.054  28.294  27.191  1.00  0.00     0.002 C 
BRANCH  29  30
ATOM     30  C   UNL A   1      34.073  29.398  26.898  1.00  0.00     0.021 C 
BRANCH  30  31
ATOM     31  C   UNL A   1      35.379  29.303  27.677  1.00  0.00     0.116 C 
BRANCH  31  32
ATOM     32  N   UNL A   1      35.351  30.086  28.899  1.00  0.00    -0.352 N 
ATOM     33  C   UNL A   1      36.363  30.378  29.778  1.00  0.00     0.251 C 
ATOM     34  H   UNL A   1      34.472  30.464  29.133  1.00  0.00     0.163 HD
ATOM     35  O   UNL A   1      36.100  30.899  30.856  1.00  0.00    -0.269 OA
BRANCH  33  36
ATOM     36  C   UNL A   1      37.765  30.050  29.434  1.00  0.00     0.039 A 
ATOM     37  C   UNL A   1      38.671  29.807  30.470  1.00  0.00     0.014 A 
ATOM     38  C   UNL A   1      38.192  30.000  28.104  1.00  0.00     0.014 A 
ATOM     39  C   UNL A   1      39.991  29.462  30.168  1.00  0.00     0.010 A 
ATOM     40  C   UNL A   1      39.485  29.580  27.805  1.00  0.00     0.010 A 
ATOM     41  C   UNL A   1      40.401  29.314  28.833  1.00  0.00    -0.014 A 
BRANCH  41  42
ATOM     42  C   UNL A   1      41.783  28.885  28.497  1.00  0.00     0.031 A 
ATOM     43  C   UNL A   1      42.901  29.893  28.457  1.00  0.00     0.074 A 
ATOM     44  C   UNL A   1      42.022  27.599  28.173  1.00  0.00     0.049 A 
ATOM     45  N   UNL A   1      44.157  29.718  28.136  1.00  0.00    -0.248 NA
ATOM     46  C   UNL A   1      42.559  31.285  28.796  1.00  0.00     0.031 C 
ATOM     47  C   UNL A   1      41.016  26.533  28.136  1.00  0.00     0.029 A 
ATOM     48  N   UNL A   1      43.184  26.966  27.807  1.00  0.00    -0.354 N 
ATOM     49  C   UNL A   1      44.750  30.972  28.219  1.00  0.00     0.074 A 
ATOM     50  C   UNL A   1      43.706  31.909  28.570  1.00  0.00     0.031 C 
ATOM     51  C   UNL A   1      41.609  25.379  27.796  1.00  0.00     0.029 A 
ATOM     52  C   UNL A   1      43.027  25.625  27.547  1.00  0.00     0.049 A 
ATOM     53  H   UNL A   1      44.050  27.430  27.739  1.00  0.00     0.167 HD
ATOM     54  C   UNL A   1      46.048  31.313  28.037  1.00  0.00     0.031 A 
ATOM     55  C   UNL A   1      43.917  24.698  27.142  1.00  0.00     0.031 A 
ATOM     56  C   UNL A   1      47.086  30.375  27.700  1.00  0.00     0.049 A 
ATOM     57  C   UNL A   1      45.352  25.103  26.937  1.00  0.00     0.074 A 
ATOM     58  C   UNL A   1      48.443  30.610  27.554  1.00  0.00     0.029 A 
ATOM     59  N   UNL A   1      46.885  29.025  27.453  1.00  0.00    -0.354 N 
ATOM     60  N   UNL A   1      45.904  26.283  27.089  1.00  0.00    -0.248 NA
ATOM     61  C   UNL A   1      46.285  24.049  26.516  1.00  0.00     0.031 C 
ATOM     62  C   UNL A   1      49.053  29.415  27.158  1.00  0.00     0.029 A 
ATOM     63  C   UNL A   1      48.088  28.420  27.127  1.00  0.00     0.049 A 
ATOM     64  H   UNL A   1      46.017  28.563  27.502  1.00  0.00     0.167 HD
ATOM     65  C   UNL A   1      47.256  26.106  26.811  1.00  0.00     0.074 A 
ATOM     66  C   UNL A   1      47.438  24.704  26.499  1.00  0.00     0.031 C 
ATOM     67  C   UNL A   1      48.256  27.022  26.817  1.00  0.00     0.031 A 
BRANCH  54  68
ATOM     68  C   UNL A   1      46.422  32.764  28.194  1.00  0.00    -0.014 A 
ATOM     69  C   UNL A   1      46.335  33.661  27.113  1.00  0.00     0.010 A 
ATOM     70  C   UNL A   1      46.814  33.251  29.455  1.00  0.00     0.010 A 
ATOM     71  C   UNL A   1      46.669  35.007  27.281  1.00  0.00     0.020 A 
ATOM     72  C   UNL A   1      47.119  34.604  29.635  1.00  0.00     0.020 A 
ATOM     73  C   UNL A   1      47.058  35.470  28.542  1.00  0.00     0.054 A 
BRANCH  73  74
ATOM     74  S   UNL A   1      47.453  37.230  28.736  1.00  0.00     0.124 S 
ATOM     75  O   UNL A   1      48.566  37.393  27.804  1.00  0.00    -0.237 OA
ATOM     76  O   UNL A   1      46.205  37.881  28.345  1.00  0.00    -0.237 OA
ATOM     77  O   UNL A   1      47.802  37.354  30.149  1.00  0.00    -0.744 OA
ENDBRANCH  73  74
ENDBRANCH  54  68
BRANCH  55  78
ATOM     78  C   UNL A   1      43.477  23.295  26.908  1.00  0.00    -0.014 A 
ATOM     79  C   UNL A   1      43.421  22.766  25.606  1.00  0.00     0.010 A 
ATOM     80  C   UNL A   1      43.115  22.475  27.994  1.00  0.00     0.010 A 
ATOM     81  C   UNL A   1      42.989  21.454  25.392  1.00  0.00     0.020 A 
ATOM     82  C   UNL A   1      42.715  21.152  27.786  1.00  0.00     0.020 A 
ATOM     83  C   UNL A   1      42.642  20.654  26.484  1.00  0.00     0.054 A 
BRANCH  83  84
ATOM     84  S   UNL A   1      42.128  18.939  26.188  1.00  0.00     0.124 S 
ATOM     85  O   UNL A   1      40.758  19.110  25.716  1.00  0.00    -0.237 OA
ATOM     86  O   UNL A   1      43.093  18.491  25.186  1.00  0.00    -0.237 OA
ATOM     87  O   UNL A   1      42.267  18.310  27.499  1.00  0.00    -0.744 OA
ENDBRANCH  83  84
ENDBRANCH  55  78
BRANCH  67  88
ATOM     88  C   UNL A   1      49.647  26.534  26.512  1.00  0.00    -0.014 A 
ATOM     89  C   UNL A   1      50.482  26.021  27.519  1.00  0.00     0.010 A 
ATOM     90  C   UNL A   1      50.103  26.538  25.180  1.00  0.00     0.010 A 
ATOM     91  C   UNL A   1      51.759  25.550  27.206  1.00  0.00     0.020 A 
ATOM     92  C   UNL A   1      51.368  26.039  24.859  1.00  0.00     0.020 A 
ATOM     93  C   UNL A   1      52.194  25.562  25.877  1.00  0.00     0.054 A 
BRANCH  93  94
ATOM     94  S   UNL A   1      53.841  24.905  25.492  1.00  0.00     0.124 S 
ATOM     95  O   UNL A   1      54.540  25.074  26.762  1.00  0.00    -0.237 OA
ATOM     96  O   UNL A   1      53.553  23.525  25.110  1.00  0.00    -0.237 OA
ATOM     97  O   UNL A   1      54.310  25.762  24.404  1.00  0.00    -0.744 OA
ENDBRANCH  93  94
ENDBRANCH  67  88
ENDBRANCH  41  42
ENDBRANCH  33  36
ENDBRANCH  31  32
ENDBRANCH  30  31
ENDBRANCH  29  30
ENDBRANCH  28  29
ENDBRANCH   1  28
TORSDOF 22
ENDMDL
MODEL 3
REMARK VINA RESULT:      -9.6      2.684      8.145
REMARK SMILES CCSc1nc(CC(=O)N[C@@H](C(=O)NCCCCCCNC(=O)c2ccc(-c3c4nc(c(-c5ccc(S(=O)(=O)[O-])cc5)c5ccc([nH]5)c(-c5ccc(S(=O)(=O)[O-])cc5)c5nc(c(-c6ccc(S(=O)(=O)[O-])cc6)c6ccc3[nH]6)C=C5)C=C4)cc2)C2=C(C)N=N[C@@H]2C)cs1
REMARK SMILES IDX 16 1 15 2 14 3 12 4 13 5 11 7 10 8 8 9 9 10 7 12 6 13 4 14
REMARK SMILES IDX 5 15 92 16 91 17 3 18 2 19 1 20 84 21 85 22 89 23 86 24
REMARK SMILES IDX 87 25 88 26 90 27 17 28 18 29 19 30 20 31 21 32 22 33 23 35
REMARK SMILES IDX 24 36 25 37 83 38 26 39 82 40 27 41 28 42 29 43 76 44 30 45
REMARK SMILES IDX 81 46 75 47 77 48 31 49 80 50 74 51 73 52 32 54 62 55 43 56
REMARK SMILES IDX 61 57 44 58 47 59 60 60 78 61 45 62 46 63 59 65 79 66 48 67
REMARK SMILES IDX 33 68 34 69 42 70 35 71 41 72 36 73 37 74 38 75 39 76 40 77
REMARK SMILES IDX 63 78 64 79 72 80 65 81 71 82 66 83 67 84 68 85 69 86 70 87
REMARK SMILES IDX 49 88 50 89 58 90 51 91 57 92 52 93 53 94 54 95 55 96 56 97
REMARK H PARENT 14 6 10 11 21 34 77 53 47 64
REMARK Flexibility Score: inf
ROOT
ATOM      1  C   UNL A   1      30.364  24.538  26.659  1.00  0.00     0.021 C 
ENDROOT
BRANCH   1   2
ATOM      2  C   UNL A   1      31.143  23.232  26.648  1.00  0.00     0.116 C 
BRANCH   2   3
ATOM      3  N   UNL A   1      31.128  22.538  25.383  1.00  0.00    -0.354 N 
ATOM      4  C   UNL A   1      32.175  22.281  24.541  1.00  0.00     0.247 C 
ATOM      5  O   UNL A   1      32.082  21.222  23.908  1.00  0.00    -0.272 OA
ATOM      6  H   UNL A   1      30.249  22.206  25.088  1.00  0.00     0.163 HD
BRANCH   4   7
ATOM      7  C   UNL A   1      33.446  23.220  24.405  1.00  0.00     0.202 C 
BRANCH   7   8
ATOM      8  N   UNL A   1      33.720  23.670  23.039  1.00  0.00    -0.340 N 
ATOM      9  C   UNL A   1      32.935  24.346  22.148  1.00  0.00     0.226 C 
ATOM     10  O   UNL A   1      33.359  24.445  20.992  1.00  0.00    -0.275 OA
ATOM     11  H   UNL A   1      34.619  23.448  22.706  1.00  0.00     0.164 HD
BRANCH   9  12
ATOM     12  C   UNL A   1      31.602  24.969  22.532  1.00  0.00     0.157 C 
BRANCH  12  13
ATOM     13  C   UNL A   1      31.603  26.460  22.596  1.00  0.00     0.062 A 
ATOM     14  C   UNL A   1      30.558  28.403  22.836  1.00  0.00     0.150 A 
ATOM     15  N   UNL A   1      30.383  27.107  22.737  1.00  0.00    -0.234 NA
ATOM     16  S   UNL A   1      32.182  28.936  22.769  1.00  0.00    -0.116 S 
ATOM     17  C   UNL A   1      32.695  27.308  22.574  1.00  0.00     0.092 A 
BRANCH  14  18
ATOM     18  S   UNL A   1      29.173  29.458  22.980  1.00  0.00    -0.096 SA
BRANCH  18  19
ATOM     19  C   UNL A   1      29.388  30.516  21.519  1.00  0.00     0.074 C 
ATOM     20  C   UNL A   1      28.081  31.126  21.041  1.00  0.00     0.016 C 
ENDBRANCH  18  19
ENDBRANCH  14  18
ENDBRANCH  12  13
ENDBRANCH   9  12
ENDBRANCH   7   8
BRANCH   7  21
ATOM     21  C   UNL A   1      34.708  22.540  24.888  1.00  0.00     0.011 C 
ATOM     22  C   UNL A   1      35.085  22.194  26.128  1.00  0.00     0.064 C 
ATOM     23  C   UNL A   1      35.800  22.004  24.010  1.00  0.00     0.156 C 
ATOM     24  C   UNL A   1      34.396  22.414  27.427  1.00  0.00     0.069 C 
ATOM     25  N   UNL A   1      36.283  21.526  26.157  1.00  0.00    -0.160 NA
ATOM     26  N   UNL A   1      36.734  21.382  24.992  1.00  0.00    -0.181 NA
ATOM     27  C   UNL A   1      36.582  23.051  23.228  1.00  0.00     0.040 C 
ENDBRANCH   7  21
ENDBRANCH   4   7
ENDBRANCH   2   3
ENDBRANCH   1   2
BRANCH   1  28
ATOM     28  C   UNL A   1      31.078  25.707  25.977  1.00  0.00     0.002 C 
BRANCH  28  29
ATOM     29  C   UNL A   1      31.832  26.658  26.915  1.00  0.00     0.002 C 
BRANCH  29  30
ATOM     30  C   UNL A   1      32.227  28.009  26.311  1.00  0.00     0.021 C 
BRANCH  30  31
ATOM     31  C   UNL A   1      33.389  28.715  26.999  1.00  0.00     0.116 C 
BRANCH  31  32
ATOM     32  N   UNL A   1      33.232  30.158  27.005  1.00  0.00    -0.352 N 
ATOM     33  C   UNL A   1      33.991  31.121  27.622  1.00  0.00     0.251 C 
ATOM     34  H   UNL A   1      32.465  30.497  26.490  1.00  0.00     0.163 HD
ATOM     35  O   UNL A   1      33.586  32.278  27.665  1.00  0.00    -0.269 OA
BRANCH  33  36
ATOM     36  C   UNL A   1      35.283  30.762  28.248  1.00  0.00     0.039 A 
ATOM     37  C   UNL A   1      36.405  31.545  27.967  1.00  0.00     0.014 A 
ATOM     38  C   UNL A   1      35.395  29.653  29.091  1.00  0.00     0.014 A 
ATOM     39  C   UNL A   1      37.627  31.245  28.574  1.00  0.00     0.010 A 
ATOM     40  C   UNL A   1      36.594  29.404  29.755  1.00  0.00     0.010 A 
ATOM     41  C   UNL A   1      37.725  30.193  29.498  1.00  0.00    -0.014 A 
BRANCH  41  42
ATOM     42  C   UNL A   1      39.002  29.902  30.200  1.00  0.00     0.031 A 
ATOM     43  C   UNL A   1      39.912  28.812  29.698  1.00  0.00     0.074 A 
ATOM     44  C   UNL A   1      39.315  30.579  31.322  1.00  0.00     0.049 A 
ATOM     45  N   UNL A   1      41.038  28.381  30.205  1.00  0.00    -0.248 NA
ATOM     46  C   UNL A   1      39.490  28.096  28.482  1.00  0.00     0.031 C 
ATOM     47  C   UNL A   1      38.497  31.631  31.933  1.00  0.00     0.029 A 
ATOM     48  N   UNL A   1      40.402  30.483  32.154  1.00  0.00    -0.354 N 
ATOM     49  C   UNL A   1      41.450  27.338  29.384  1.00  0.00     0.074 A 
ATOM     50  C   UNL A   1      40.429  27.167  28.375  1.00  0.00     0.031 C 
ATOM     51  C   UNL A   1      39.124  32.099  33.023  1.00  0.00     0.029 A 
ATOM     52  C   UNL A   1      40.365  31.355  33.218  1.00  0.00     0.049 A 
ATOM     53  H   UNL A   1      41.141  29.851  32.003  1.00  0.00     0.167 HD
ATOM     54  C   UNL A   1      42.585  26.601  29.451  1.00  0.00     0.031 A 
ATOM     55  C   UNL A   1      41.224  31.531  34.241  1.00  0.00     0.031 A 
ATOM     56  C   UNL A   1      43.605  26.784  30.450  1.00  0.00     0.049 A 
ATOM     57  C   UNL A   1      42.472  30.692  34.299  1.00  0.00     0.074 A 
ATOM     58  C   UNL A   1      44.819  26.128  30.568  1.00  0.00     0.029 A 
ATOM     59  N   UNL A   1      43.531  27.682  31.504  1.00  0.00    -0.354 N 
ATOM     60  N   UNL A   1      42.876  29.758  33.472  1.00  0.00    -0.248 NA
ATOM     61  C   UNL A   1      43.385  30.939  35.424  1.00  0.00     0.031 C 
ATOM     62  C   UNL A   1      45.452  26.587  31.728  1.00  0.00     0.029 A 
ATOM     63  C   UNL A   1      44.664  27.579  32.293  1.00  0.00     0.049 A 
ATOM     64  H   UNL A   1      42.784  28.303  31.667  1.00  0.00     0.167 HD
ATOM     65  C   UNL A   1      44.106  29.327  33.960  1.00  0.00     0.074 A 
ATOM     66  C   UNL A   1      44.384  30.114  35.143  1.00  0.00     0.031 C 
ATOM     67  C   UNL A   1      44.929  28.368  33.470  1.00  0.00     0.031 A 
BRANCH  54  68
ATOM     68  C   UNL A   1      42.783  25.522  28.418  1.00  0.00    -0.014 A 
ATOM     69  C   UNL A   1      43.426  25.790  27.196  1.00  0.00     0.010 A 
ATOM     70  C   UNL A   1      42.368  24.205  28.697  1.00  0.00     0.010 A 
ATOM     71  C   UNL A   1      43.616  24.773  26.258  1.00  0.00     0.020 A 
ATOM     72  C   UNL A   1      42.585  23.178  27.774  1.00  0.00     0.020 A 
ATOM     73  C   UNL A   1      43.195  23.472  26.553  1.00  0.00     0.054 A 
BRANCH  73  74
ATOM     74  S   UNL A   1      43.487  22.166  25.328  1.00  0.00     0.124 S 
ATOM     75  O   UNL A   1      42.383  21.248  25.599  1.00  0.00    -0.237 OA
ATOM     76  O   UNL A   1      43.404  22.892  24.063  1.00  0.00    -0.237 OA
ATOM     77  O   UNL A   1      44.815  21.661  25.668  1.00  0.00    -0.744 OA
ENDBRANCH  73  74
ENDBRANCH  54  68
BRANCH  55  78
ATOM     78  C   UNL A   1      40.935  32.546  35.291  1.00  0.00    -0.014 A 
ATOM     79  C   UNL A   1      40.286  32.182  36.484  1.00  0.00     0.010 A 
ATOM     80  C   UNL A   1      41.312  33.889  35.102  1.00  0.00     0.010 A 
ATOM     81  C   UNL A   1      40.001  33.144  37.458  1.00  0.00     0.020 A 
ATOM     82  C   UNL A   1      41.059  34.847  36.087  1.00  0.00     0.020 A 
ATOM     83  C   UNL A   1      40.392  34.470  37.254  1.00  0.00     0.054 A 
BRANCH  83  84
ATOM     84  S   UNL A   1      40.052  35.694  38.550  1.00  0.00     0.124 S 
ATOM     85  O   UNL A   1      39.697  36.874  37.769  1.00  0.00    -0.237 OA
ATOM     86  O   UNL A   1      38.959  35.071  39.292  1.00  0.00    -0.237 OA
ATOM     87  O   UNL A   1      41.317  35.780  39.277  1.00  0.00    -0.744 OA
ENDBRANCH  83  84
ENDBRANCH  55  78
BRANCH  67  88
ATOM     88  C   UNL A   1      46.232  28.137  34.190  1.00  0.00    -0.014 A 
ATOM     89  C   UNL A   1      46.384  27.085  35.110  1.00  0.00     0.010 A 
ATOM     90  C   UNL A   1      47.338  28.954  33.894  1.00  0.00     0.010 A 
ATOM     91  C   UNL A   1      47.610  26.876  35.746  1.00  0.00     0.020 A 
ATOM     92  C   UNL A   1      48.575  28.728  34.506  1.00  0.00     0.020 A 
ATOM     93  C   UNL A   1      48.698  27.698  35.439  1.00  0.00     0.054 A 
BRANCH  93  94
ATOM     94  S   UNL A   1      50.290  27.378  36.248  1.00  0.00     0.124 S 
ATOM     95  O   UNL A   1      50.478  28.590  37.039  1.00  0.00    -0.237 OA
ATOM     96  O   UNL A   1      50.021  26.163  37.012  1.00  0.00    -0.237 OA
ATOM     97  O   UNL A   1      51.219  27.211  35.131  1.00  0.00    -0.744 OA
ENDBRANCH  93  94
ENDBRANCH  67  88
ENDBRANCH  41  42
ENDBRANCH  33  36
ENDBRANCH  31  32
ENDBRANCH  30  31
ENDBRANCH  29  30
ENDBRANCH  28  29
ENDBRANCH   1  28
TORSDOF 22
ENDMDL
