MODEL 1
REMARK VINA RESULT:     -10.6      0.000      0.000
REMARK SMILES O=C(C[C@H]([NH2+]Cc1ccccc1C1CC1)c1cccs1)NCCCCCCNC(=O)c1ccc(-c2c3nc(c(-c4ccc(S(=O)(=O)[O-])cc4)c4ccc([nH]4)c(-c4ccc(S(=O)(=O)[O-])cc4)c4nc(c(-c5ccc(S(=O)(=O)[O-])cc5)c5ccc2[nH]5)C=C4)C=C3)cc1
REMARK SMILES IDX 23 1 22 2 21 3 1 4 2 5 3 7 4 8 16 9 17 10 20 11 18 12 19 13
REMARK SMILES IDX 5 14 6 17 7 18 8 19 12 20 9 21 11 22 10 23 13 24 14 25 15 26
REMARK SMILES IDX 24 27 25 28 26 29 27 30 28 31 29 32 30 34 31 35 32 36 90 37
REMARK SMILES IDX 33 38 89 39 34 40 35 41 36 42 83 43 37 44 88 45 82 46 84 47
REMARK SMILES IDX 38 48 87 49 81 50 80 51 39 53 69 54 50 55 68 56 51 57 54 58
REMARK SMILES IDX 67 59 85 60 52 61 53 62 66 64 86 65 55 66 40 67 41 68 49 69
REMARK SMILES IDX 42 70 48 71 43 72 44 73 45 74 46 75 47 76 70 77 71 78 79 79
REMARK SMILES IDX 72 80 78 81 73 82 74 83 75 84 76 85 77 86 56 87 57 88 65 89
REMARK SMILES IDX 58 90 64 91 59 92 60 93 61 94 62 95 63 96
REMARK H PARENT 21 6 5 15 5 16 28 33 84 52 54 63
REMARK Flexibility Score: inf
ROOT
ATOM      1  C   UNL A   1      31.722  27.794  26.831  1.00  0.00     0.021 C 
ENDROOT
BRANCH   1   2
ATOM      2  C   UNL A   1      32.122  26.814  25.728  1.00  0.00     0.116 C 
BRANCH   2   3
ATOM      3  N   UNL A   1      33.145  25.889  26.186  1.00  0.00    -0.356 N 
ATOM      4  O   UNL A   1      34.138  25.571  24.143  1.00  0.00    -0.275 OA
ATOM      5  C   UNL A   1      34.072  25.317  25.341  1.00  0.00     0.226 C 
ATOM      6  H   UNL A   1      33.179  25.662  27.144  1.00  0.00     0.163 HD
BRANCH   5   7
ATOM      7  C   UNL A   1      35.004  24.321  26.002  1.00  0.00     0.171 C 
BRANCH   7   8
ATOM      8  C   UNL A   1      34.734  22.876  25.554  1.00  0.00     0.233 C 
BRANCH   8   9
ATOM      9  C   UNL A   1      36.025  22.115  25.304  1.00  0.00     0.062 A 
ATOM     10  C   UNL A   1      36.155  20.802  24.887  1.00  0.00     0.021 A 
ATOM     11  S   UNL A   1      37.558  22.816  25.637  1.00  0.00    -0.143 S 
ATOM     12  C   UNL A   1      37.507  20.353  24.919  1.00  0.00     0.012 A 
ATOM     13  C   UNL A   1      38.370  21.347  25.321  1.00  0.00     0.065 A 
ENDBRANCH   8   9
BRANCH   8  14
ATOM     14  N   UNL A   1      33.888  22.115  26.496  1.00  0.00    -0.335 N 
ATOM     15  H   UNL A   1      33.762  22.659  27.351  1.00  0.00     0.347 HD
ATOM     16  H   UNL A   1      34.343  21.229  26.711  1.00  0.00     0.347 HD
BRANCH  14  17
ATOM     17  C   UNL A   1      32.577  21.846  25.897  1.00  0.00     0.298 C 
BRANCH  17  18
ATOM     18  C   UNL A   1      32.535  20.598  25.046  1.00  0.00     0.010 A 
ATOM     19  C   UNL A   1      32.803  19.385  25.732  1.00  0.00     0.010 A 
ATOM     20  C   UNL A   1      32.317  20.587  23.643  1.00  0.00    -0.036 A 
ATOM     21  C   UNL A   1      32.904  18.169  25.066  1.00  0.00     0.001 A 
ATOM     22  C   UNL A   1      32.422  19.318  23.015  1.00  0.00     0.004 A 
ATOM     23  C   UNL A   1      32.716  18.135  23.698  1.00  0.00     0.000 A 
BRANCH  20  24
ATOM     24  C   UNL A   1      32.006  21.749  22.699  1.00  0.00     0.020 C 
ATOM     25  C   UNL A   1      31.822  23.196  23.049  1.00  0.00     0.009 C 
ATOM     26  C   UNL A   1      33.059  22.761  22.317  1.00  0.00     0.009 C 
ENDBRANCH  20  24
ENDBRANCH  17  18
ENDBRANCH  14  17
ENDBRANCH   8  14
ENDBRANCH   7   8
ENDBRANCH   5   7
ENDBRANCH   2   3
ENDBRANCH   1   2
BRANCH   1  27
ATOM     27  C   UNL A   1      31.920  29.274  26.477  1.00  0.00     0.002 C 
BRANCH  27  28
ATOM     28  C   UNL A   1      33.028  29.991  27.252  1.00  0.00     0.002 C 
BRANCH  28  29
ATOM     29  C   UNL A   1      34.417  29.357  27.141  1.00  0.00     0.021 C 
BRANCH  29  30
ATOM     30  C   UNL A   1      35.546  30.166  27.773  1.00  0.00     0.116 C 
BRANCH  30  31
ATOM     31  N   UNL A   1      35.451  30.215  29.224  1.00  0.00    -0.352 N 
ATOM     32  C   UNL A   1      36.393  29.886  30.167  1.00  0.00     0.251 C 
ATOM     33  H   UNL A   1      34.588  30.528  29.580  1.00  0.00     0.163 HD
ATOM     34  O   UNL A   1      36.070  29.820  31.353  1.00  0.00    -0.269 OA
BRANCH  32  35
ATOM     35  C   UNL A   1      37.784  29.589  29.760  1.00  0.00     0.039 A 
ATOM     36  C   UNL A   1      38.743  29.348  30.746  1.00  0.00     0.014 A 
ATOM     37  C   UNL A   1      38.148  29.565  28.410  1.00  0.00     0.014 A 
ATOM     38  C   UNL A   1      40.055  29.035  30.377  1.00  0.00     0.010 A 
ATOM     39  C   UNL A   1      39.435  29.176  28.044  1.00  0.00     0.010 A 
ATOM     40  C   UNL A   1      40.407  28.920  29.023  1.00  0.00    -0.014 A 
BRANCH  40  41
ATOM     41  C   UNL A   1      41.793  28.572  28.610  1.00  0.00     0.031 A 
ATOM     42  C   UNL A   1      42.845  29.648  28.529  1.00  0.00     0.074 A 
ATOM     43  C   UNL A   1      42.097  27.303  28.269  1.00  0.00     0.049 A 
ATOM     44  N   UNL A   1      44.087  29.559  28.126  1.00  0.00    -0.248 NA
ATOM     45  C   UNL A   1      42.444  31.007  28.932  1.00  0.00     0.031 C 
ATOM     46  C   UNL A   1      41.162  26.174  28.273  1.00  0.00     0.029 A 
ATOM     47  N   UNL A   1      43.280  26.749  27.846  1.00  0.00    -0.354 N 
ATOM     48  C   UNL A   1      44.611  30.843  28.225  1.00  0.00     0.074 A 
ATOM     49  C   UNL A   1      43.536  31.706  28.661  1.00  0.00     0.031 C 
ATOM     50  C   UNL A   1      41.813  25.063  27.891  1.00  0.00     0.029 A 
ATOM     51  C   UNL A   1      43.197  25.402  27.576  1.00  0.00     0.049 A 
ATOM     52  H   UNL A   1      44.112  27.267  27.746  1.00  0.00     0.167 HD
ATOM     53  C   UNL A   1      45.879  31.263  28.003  1.00  0.00     0.031 A 
ATOM     54  C   UNL A   1      44.125  24.540  27.116  1.00  0.00     0.031 A 
ATOM     55  C   UNL A   1      46.951  30.405  27.579  1.00  0.00     0.049 A 
ATOM     56  C   UNL A   1      45.522  25.041  26.851  1.00  0.00     0.074 A 
ATOM     57  C   UNL A   1      48.276  30.733  27.346  1.00  0.00     0.029 A 
ATOM     58  N   UNL A   1      46.827  29.046  27.334  1.00  0.00    -0.354 N 
ATOM     59  N   UNL A   1      46.004  26.253  26.989  1.00  0.00    -0.248 NA
ATOM     60  C   UNL A   1      46.505  24.051  26.387  1.00  0.00     0.031 C 
ATOM     61  C   UNL A   1      48.943  29.581  26.918  1.00  0.00     0.029 A 
ATOM     62  C   UNL A   1      48.049  28.523  26.949  1.00  0.00     0.049 A 
ATOM     63  H   UNL A   1      45.994  28.529  27.422  1.00  0.00     0.167 HD
ATOM     64  C   UNL A   1      47.356  26.160  26.672  1.00  0.00     0.074 A 
ATOM     65  C   UNL A   1      47.616  24.774  26.349  1.00  0.00     0.031 C 
ATOM     66  C   UNL A   1      48.299  27.135  26.651  1.00  0.00     0.031 A 
BRANCH  53  67
ATOM     67  C   UNL A   1      46.184  32.721  28.239  1.00  0.00    -0.014 A 
ATOM     68  C   UNL A   1      46.649  33.164  29.490  1.00  0.00     0.010 A 
ATOM     69  C   UNL A   1      46.076  33.644  27.183  1.00  0.00     0.010 A 
ATOM     70  C   UNL A   1      46.973  34.508  29.691  1.00  0.00     0.020 A 
ATOM     71  C   UNL A   1      46.428  34.985  27.371  1.00  0.00     0.020 A 
ATOM     72  C   UNL A   1      46.865  35.409  28.627  1.00  0.00     0.054 A 
BRANCH  72  73
ATOM     73  S   UNL A   1      47.348  37.135  28.905  1.00  0.00     0.124 S 
ATOM     74  O   UNL A   1      46.157  37.855  28.463  1.00  0.00    -0.237 OA
ATOM     75  O   UNL A   1      47.603  37.168  30.343  1.00  0.00    -0.237 OA
ATOM     76  O   UNL A   1      48.528  37.306  28.061  1.00  0.00    -0.744 OA
ENDBRANCH  72  73
ENDBRANCH  53  67
BRANCH  54  77
ATOM     77  C   UNL A   1      43.774  23.113  26.866  1.00  0.00    -0.014 A 
ATOM     78  C   UNL A   1      43.866  22.562  25.576  1.00  0.00     0.010 A 
ATOM     79  C   UNL A   1      43.304  22.305  27.918  1.00  0.00     0.010 A 
ATOM     80  C   UNL A   1      43.449  21.249  25.332  1.00  0.00     0.020 A 
ATOM     81  C   UNL A   1      42.920  20.982  27.687  1.00  0.00     0.020 A 
ATOM     82  C   UNL A   1      42.972  20.470  26.390  1.00  0.00     0.054 A 
BRANCH  82  83
ATOM     83  S   UNL A   1      42.434  18.770  26.054  1.00  0.00     0.124 S 
ATOM     84  O   UNL A   1      41.053  18.969  25.625  1.00  0.00    -0.237 OA
ATOM     85  O   UNL A   1      43.366  18.343  25.013  1.00  0.00    -0.237 OA
ATOM     86  O   UNL A   1      42.600  18.099  27.341  1.00  0.00    -0.744 OA
ENDBRANCH  82  83
ENDBRANCH  54  77
BRANCH  66  87
ATOM     87  C   UNL A   1      49.716  26.728  26.342  1.00  0.00    -0.014 A 
ATOM     88  C   UNL A   1      50.218  26.741  25.029  1.00  0.00     0.010 A 
ATOM     89  C   UNL A   1      50.573  26.371  27.400  1.00  0.00     0.010 A 
ATOM     90  C   UNL A   1      51.539  26.360  24.775  1.00  0.00     0.020 A 
ATOM     91  C   UNL A   1      51.903  26.023  27.154  1.00  0.00     0.020 A 
ATOM     92  C   UNL A   1      52.373  26.003  25.839  1.00  0.00     0.054 A 
BRANCH  92  93
ATOM     93  S   UNL A   1      54.091  25.544  25.487  1.00  0.00     0.124 S 
ATOM     94  O   UNL A   1      54.832  26.444  26.367  1.00  0.00    -0.237 OA
ATOM     95  O   UNL A   1      54.128  24.132  25.858  1.00  0.00    -0.237 OA
ATOM     96  O   UNL A   1      54.238  25.811  24.058  1.00  0.00    -0.744 OA
ENDBRANCH  92  93
ENDBRANCH  66  87
ENDBRANCH  40  41
ENDBRANCH  32  35
ENDBRANCH  30  31
ENDBRANCH  29  30
ENDBRANCH  28  29
ENDBRANCH  27  28
ENDBRANCH   1  27
TORSDOF 22
ENDMDL
MODEL 2
REMARK VINA RESULT:     -10.1      4.238     10.383
REMARK SMILES O=C(C[C@H]([NH2+]Cc1ccccc1C1CC1)c1cccs1)NCCCCCCNC(=O)c1ccc(-c2c3nc(c(-c4ccc(S(=O)(=O)[O-])cc4)c4ccc([nH]4)c(-c4ccc(S(=O)(=O)[O-])cc4)c4nc(c(-c5ccc(S(=O)(=O)[O-])cc5)c5ccc2[nH]5)C=C4)C=C3)cc1
REMARK SMILES IDX 23 1 22 2 21 3 1 4 2 5 3 7 4 8 16 9 17 10 20 11 18 12 19 13
REMARK SMILES IDX 5 14 6 17 7 18 8 19 12 20 9 21 11 22 10 23 13 24 14 25 15 26
REMARK SMILES IDX 24 27 25 28 26 29 27 30 28 31 29 32 30 34 31 35 32 36 90 37
REMARK SMILES IDX 33 38 89 39 34 40 35 41 36 42 83 43 37 44 88 45 82 46 84 47
REMARK SMILES IDX 38 48 87 49 81 50 80 51 39 53 69 54 50 55 68 56 51 57 54 58
REMARK SMILES IDX 67 59 85 60 52 61 53 62 66 64 86 65 55 66 40 67 41 68 49 69
REMARK SMILES IDX 42 70 48 71 43 72 44 73 45 74 46 75 47 76 70 77 71 78 79 79
REMARK SMILES IDX 72 80 78 81 73 82 74 83 75 84 76 85 77 86 56 87 57 88 65 89
REMARK SMILES IDX 58 90 64 91 59 92 60 93 61 94 62 95 63 96
REMARK H PARENT 21 6 5 15 5 16 28 33 84 52 54 63
REMARK Flexibility Score: inf
ROOT
ATOM      1  C   UNL A   1      33.564  21.813  24.832  1.00  0.00     0.021 C 
ENDROOT
BRANCH   1   2
ATOM      2  C   UNL A   1      32.036  21.758  24.853  1.00  0.00     0.116 C 
BRANCH   2   3
ATOM      3  N   UNL A   1      31.469  22.981  25.395  1.00  0.00    -0.356 N 
ATOM      4  O   UNL A   1      30.402  23.643  23.475  1.00  0.00    -0.275 OA
ATOM      5  C   UNL A   1      30.703  23.849  24.645  1.00  0.00     0.226 C 
ATOM      6  H   UNL A   1      31.638  23.199  26.340  1.00  0.00     0.163 HD
BRANCH   5   7
ATOM      7  C   UNL A   1      30.271  25.105  25.375  1.00  0.00     0.171 C 
BRANCH   7   8
ATOM      8  C   UNL A   1      30.564  26.382  24.571  1.00  0.00     0.233 C 
BRANCH   8   9
ATOM      9  C   UNL A   1      31.916  26.314  23.881  1.00  0.00     0.062 A 
ATOM     10  C   UNL A   1      33.159  26.517  24.454  1.00  0.00     0.021 A 
ATOM     11  S   UNL A   1      32.046  26.068  22.185  1.00  0.00    -0.143 S 
ATOM     12  C   UNL A   1      34.205  26.549  23.487  1.00  0.00     0.012 A 
ATOM     13  C   UNL A   1      33.734  26.330  22.213  1.00  0.00     0.065 A 
ENDBRANCH   8   9
BRANCH   8  14
ATOM     14  N   UNL A   1      29.519  26.705  23.577  1.00  0.00    -0.335 N 
ATOM     15  H   UNL A   1      28.659  26.962  24.063  1.00  0.00     0.347 HD
ATOM     16  H   UNL A   1      29.356  25.889  22.988  1.00  0.00     0.347 HD
BRANCH  14  17
ATOM     17  C   UNL A   1      29.951  27.824  22.734  1.00  0.00     0.298 C 
BRANCH  17  18
ATOM     18  C   UNL A   1      29.419  29.167  23.178  1.00  0.00     0.010 A 
ATOM     19  C   UNL A   1      28.184  29.555  22.594  1.00  0.00     0.010 A 
ATOM     20  C   UNL A   1      30.095  30.050  24.059  1.00  0.00    -0.036 A 
ATOM     21  C   UNL A   1      27.623  30.807  22.823  1.00  0.00     0.001 A 
ATOM     22  C   UNL A   1      29.473  31.310  24.266  1.00  0.00     0.004 A 
ATOM     23  C   UNL A   1      28.273  31.691  23.660  1.00  0.00     0.000 A 
BRANCH  20  24
ATOM     24  C   UNL A   1      31.415  29.854  24.808  1.00  0.00     0.020 C 
ATOM     25  C   UNL A   1      31.955  30.663  25.950  1.00  0.00     0.009 C 
ATOM     26  C   UNL A   1      31.454  29.269  26.199  1.00  0.00     0.009 C 
ENDBRANCH  20  24
ENDBRANCH  17  18
ENDBRANCH  14  17
ENDBRANCH   8  14
ENDBRANCH   7   8
ENDBRANCH   5   7
ENDBRANCH   2   3
ENDBRANCH   1   2
BRANCH   1  27
ATOM     27  C   UNL A   1      34.161  22.590  23.650  1.00  0.00     0.002 C 
BRANCH  27  28
ATOM     28  C   UNL A   1      35.687  22.725  23.659  1.00  0.00     0.002 C 
BRANCH  28  29
ATOM     29  C   UNL A   1      36.232  23.901  24.473  1.00  0.00     0.021 C 
BRANCH  29  30
ATOM     30  C   UNL A   1      36.614  23.564  25.912  1.00  0.00     0.116 C 
BRANCH  30  31
ATOM     31  N   UNL A   1      37.742  22.649  25.988  1.00  0.00    -0.352 N 
ATOM     32  C   UNL A   1      39.037  22.897  26.371  1.00  0.00     0.251 C 
ATOM     33  H   UNL A   1      37.549  21.719  25.728  1.00  0.00     0.163 HD
ATOM     34  O   UNL A   1      39.899  22.034  26.199  1.00  0.00    -0.269 OA
BRANCH  32  35
ATOM     35  C   UNL A   1      39.402  24.201  26.966  1.00  0.00     0.039 A 
ATOM     36  C   UNL A   1      39.060  24.461  28.295  1.00  0.00     0.014 A 
ATOM     37  C   UNL A   1      40.066  25.174  26.212  1.00  0.00     0.014 A 
ATOM     38  C   UNL A   1      39.426  25.676  28.881  1.00  0.00     0.010 A 
ATOM     39  C   UNL A   1      40.499  26.350  26.821  1.00  0.00     0.010 A 
ATOM     40  C   UNL A   1      40.172  26.621  28.158  1.00  0.00    -0.014 A 
BRANCH  40  41
ATOM     41  C   UNL A   1      40.586  27.912  28.770  1.00  0.00     0.031 A 
ATOM     42  C   UNL A   1      41.972  28.062  29.342  1.00  0.00     0.074 A 
ATOM     43  C   UNL A   1      39.709  28.934  28.848  1.00  0.00     0.049 A 
ATOM     44  N   UNL A   1      42.498  29.079  29.976  1.00  0.00    -0.248 NA
ATOM     45  C   UNL A   1      42.880  26.909  29.206  1.00  0.00     0.031 C 
ATOM     46  C   UNL A   1      38.327  28.908  28.361  1.00  0.00     0.029 A 
ATOM     47  N   UNL A   1      39.849  30.195  29.374  1.00  0.00    -0.354 N 
ATOM     48  C   UNL A   1      43.789  28.689  30.314  1.00  0.00     0.074 A 
ATOM     49  C   UNL A   1      43.947  27.320  29.875  1.00  0.00     0.031 C 
ATOM     50  C   UNL A   1      37.756  30.101  28.594  1.00  0.00     0.029 A 
ATOM     51  C   UNL A   1      38.711  30.964  29.280  1.00  0.00     0.049 A 
ATOM     52  H   UNL A   1      40.686  30.520  29.780  1.00  0.00     0.167 HD
ATOM     53  C   UNL A   1      44.768  29.413  30.907  1.00  0.00     0.031 A 
ATOM     54  C   UNL A   1      38.461  32.217  29.709  1.00  0.00     0.031 A 
ATOM     55  C   UNL A   1      44.617  30.777  31.334  1.00  0.00     0.049 A 
ATOM     56  C   UNL A   1      39.561  32.990  30.392  1.00  0.00     0.074 A 
ATOM     57  C   UNL A   1      45.556  31.602  31.928  1.00  0.00     0.029 A 
ATOM     58  N   UNL A   1      43.455  31.523  31.205  1.00  0.00    -0.354 N 
ATOM     59  N   UNL A   1      40.788  32.614  30.665  1.00  0.00    -0.248 NA
ATOM     60  C   UNL A   1      39.247  34.366  30.805  1.00  0.00     0.031 C 
ATOM     61  C   UNL A   1      44.949  32.833  32.198  1.00  0.00     0.029 A 
ATOM     62  C   UNL A   1      43.653  32.795  31.712  1.00  0.00     0.049 A 
ATOM     63  H   UNL A   1      42.614  31.196  30.811  1.00  0.00     0.167 HD
ATOM     64  C   UNL A   1      41.403  33.721  31.241  1.00  0.00     0.074 A 
ATOM     65  C   UNL A   1      40.419  34.782  31.264  1.00  0.00     0.031 C 
ATOM     66  C   UNL A   1      42.670  33.850  31.708  1.00  0.00     0.031 A 
BRANCH  53  67
ATOM     67  C   UNL A   1      46.106  28.748  31.109  1.00  0.00    -0.014 A 
ATOM     68  C   UNL A   1      47.082  28.775  30.096  1.00  0.00     0.010 A 
ATOM     69  C   UNL A   1      46.419  28.153  32.344  1.00  0.00     0.010 A 
ATOM     70  C   UNL A   1      48.336  28.195  30.304  1.00  0.00     0.020 A 
ATOM     71  C   UNL A   1      47.683  27.599  32.568  1.00  0.00     0.020 A 
ATOM     72  C   UNL A   1      48.630  27.615  31.542  1.00  0.00     0.054 A 
BRANCH  72  73
ATOM     73  S   UNL A   1      50.286  26.923  31.799  1.00  0.00     0.124 S 
ATOM     74  O   UNL A   1      50.776  27.722  32.919  1.00  0.00    -0.237 OA
ATOM     75  O   UNL A   1      50.004  25.522  32.102  1.00  0.00    -0.237 OA
ATOM     76  O   UNL A   1      50.963  27.158  30.525  1.00  0.00    -0.744 OA
ENDBRANCH  72  73
ENDBRANCH  53  67
BRANCH  54  77
ATOM     77  C   UNL A   1      37.115  32.827  29.518  1.00  0.00    -0.014 A 
ATOM     78  C   UNL A   1      36.778  33.470  28.314  1.00  0.00     0.010 A 
ATOM     79  C   UNL A   1      36.172  32.802  30.563  1.00  0.00     0.010 A 
ATOM     80  C   UNL A   1      35.547  34.120  28.176  1.00  0.00     0.020 A 
ATOM     81  C   UNL A   1      34.926  33.418  30.416  1.00  0.00     0.020 A 
ATOM     82  C   UNL A   1      34.631  34.094  29.231  1.00  0.00     0.054 A 
BRANCH  82  83
ATOM     83  S   UNL A   1      33.040  34.942  29.034  1.00  0.00     0.124 S 
ATOM     84  O   UNL A   1      32.498  34.889  30.388  1.00  0.00    -0.237 OA
ATOM     85  O   UNL A   1      33.444  36.266  28.564  1.00  0.00    -0.237 OA
ATOM     86  O   UNL A   1      32.338  34.127  28.045  1.00  0.00    -0.744 OA
ENDBRANCH  82  83
ENDBRANCH  54  77
BRANCH  66  87
ATOM     87  C   UNL A   1      43.093  35.204  32.215  1.00  0.00    -0.014 A 
ATOM     88  C   UNL A   1      43.910  36.056  31.452  1.00  0.00     0.010 A 
ATOM     89  C   UNL A   1      42.620  35.646  33.465  1.00  0.00     0.010 A 
ATOM     90  C   UNL A   1      44.283  37.308  31.950  1.00  0.00     0.020 A 
ATOM     91  C   UNL A   1      42.962  36.909  33.951  1.00  0.00     0.020 A 
ATOM     92  C   UNL A   1      43.807  37.726  33.197  1.00  0.00     0.054 A 
BRANCH  92  93
ATOM     93  S   UNL A   1      44.279  39.367  33.807  1.00  0.00     0.124 S 
ATOM     94  O   UNL A   1      42.983  40.024  33.948  1.00  0.00    -0.237 OA
ATOM     95  O   UNL A   1      44.966  39.058  35.059  1.00  0.00    -0.237 OA
ATOM     96  O   UNL A   1      45.135  39.899  32.749  1.00  0.00    -0.744 OA
ENDBRANCH  92  93
ENDBRANCH  66  87
ENDBRANCH  40  41
ENDBRANCH  32  35
ENDBRANCH  30  31
ENDBRANCH  29  30
ENDBRANCH  28  29
ENDBRANCH  27  28
ENDBRANCH   1  27
TORSDOF 22
ENDMDL
MODEL 3
REMARK VINA RESULT:     -10.0      0.948      8.196
REMARK SMILES O=C(C[C@H]([NH2+]Cc1ccccc1C1CC1)c1cccs1)NCCCCCCNC(=O)c1ccc(-c2c3nc(c(-c4ccc(S(=O)(=O)[O-])cc4)c4ccc([nH]4)c(-c4ccc(S(=O)(=O)[O-])cc4)c4nc(c(-c5ccc(S(=O)(=O)[O-])cc5)c5ccc2[nH]5)C=C4)C=C3)cc1
REMARK SMILES IDX 23 1 22 2 21 3 1 4 2 5 3 7 4 8 16 9 17 10 20 11 18 12 19 13
REMARK SMILES IDX 5 14 6 17 7 18 8 19 12 20 9 21 11 22 10 23 13 24 14 25 15 26
REMARK SMILES IDX 24 27 25 28 26 29 27 30 28 31 29 32 30 34 31 35 32 36 90 37
REMARK SMILES IDX 33 38 89 39 34 40 35 41 36 42 83 43 37 44 88 45 82 46 84 47
REMARK SMILES IDX 38 48 87 49 81 50 80 51 39 53 69 54 50 55 68 56 51 57 54 58
REMARK SMILES IDX 67 59 85 60 52 61 53 62 66 64 86 65 55 66 40 67 41 68 49 69
REMARK SMILES IDX 42 70 48 71 43 72 44 73 45 74 46 75 47 76 70 77 71 78 79 79
REMARK SMILES IDX 72 80 78 81 73 82 74 83 75 84 76 85 77 86 56 87 57 88 65 89
REMARK SMILES IDX 58 90 64 91 59 92 60 93 61 94 62 95 63 96
REMARK H PARENT 21 6 5 15 5 16 28 33 84 52 54 63
REMARK Flexibility Score: inf
ROOT
ATOM      1  C   UNL A   1      31.699  27.564  27.108  1.00  0.00     0.021 C 
ENDROOT
BRANCH   1   2
ATOM      2  C   UNL A   1      31.645  26.401  26.115  1.00  0.00     0.116 C 
BRANCH   2   3
ATOM      3  N   UNL A   1      32.650  25.397  26.421  1.00  0.00    -0.356 N 
ATOM      4  O   UNL A   1      31.215  23.608  26.484  1.00  0.00    -0.275 OA
ATOM      5  C   UNL A   1      32.347  24.064  26.604  1.00  0.00     0.226 C 
ATOM      6  H   UNL A   1      33.590  25.680  26.500  1.00  0.00     0.163 HD
BRANCH   5   7
ATOM      7  C   UNL A   1      33.525  23.193  26.992  1.00  0.00     0.171 C 
BRANCH   7   8
ATOM      8  C   UNL A   1      33.846  22.131  25.928  1.00  0.00     0.233 C 
BRANCH   8   9
ATOM      9  C   UNL A   1      35.320  22.135  25.557  1.00  0.00     0.062 A 
ATOM     10  C   UNL A   1      36.140  21.035  25.379  1.00  0.00     0.021 A 
ATOM     11  S   UNL A   1      36.205  23.600  25.417  1.00  0.00    -0.143 S 
ATOM     12  C   UNL A   1      37.507  21.399  25.206  1.00  0.00     0.012 A 
ATOM     13  C   UNL A   1      37.681  22.764  25.220  1.00  0.00     0.065 A 
ENDBRANCH   8   9
BRANCH   8  14
ATOM     14  N   UNL A   1      33.439  20.765  26.318  1.00  0.00    -0.335 N 
ATOM     15  H   UNL A   1      33.300  20.730  27.328  1.00  0.00     0.347 HD
ATOM     16  H   UNL A   1      34.170  20.109  26.044  1.00  0.00     0.347 HD
BRANCH  14  17
ATOM     17  C   UNL A   1      32.190  20.397  25.644  1.00  0.00     0.298 C 
BRANCH  17  18
ATOM     18  C   UNL A   1      32.388  19.601  24.376  1.00  0.00     0.010 A 
ATOM     19  C   UNL A   1      32.187  20.320  23.169  1.00  0.00     0.010 A 
ATOM     20  C   UNL A   1      32.686  18.214  24.334  1.00  0.00    -0.036 A 
ATOM     21  C   UNL A   1      32.229  19.699  21.925  1.00  0.00     0.001 A 
ATOM     22  C   UNL A   1      32.727  17.632  23.039  1.00  0.00     0.004 A 
ATOM     23  C   UNL A   1      32.496  18.346  21.860  1.00  0.00     0.000 A 
BRANCH  20  24
ATOM     24  C   UNL A   1      32.949  17.241  25.485  1.00  0.00     0.020 C 
ATOM     25  C   UNL A   1      32.497  15.817  25.608  1.00  0.00     0.009 C 
ATOM     26  C   UNL A   1      33.947  16.116  25.356  1.00  0.00     0.009 C 
ENDBRANCH  20  24
ENDBRANCH  17  18
ENDBRANCH  14  17
ENDBRANCH   8  14
ENDBRANCH   7   8
ENDBRANCH   5   7
ENDBRANCH   2   3
ENDBRANCH   1   2
BRANCH   1  27
ATOM     27  C   UNL A   1      31.836  28.950  26.464  1.00  0.00     0.002 C 
BRANCH  27  28
ATOM     28  C   UNL A   1      33.068  29.753  26.891  1.00  0.00     0.002 C 
BRANCH  28  29
ATOM     29  C   UNL A   1      34.307  28.917  27.224  1.00  0.00     0.021 C 
BRANCH  29  30
ATOM     30  C   UNL A   1      35.509  29.717  27.716  1.00  0.00     0.116 C 
BRANCH  30  31
ATOM     31  N   UNL A   1      35.436  30.012  29.139  1.00  0.00    -0.352 N 
ATOM     32  C   UNL A   1      36.398  29.865  30.106  1.00  0.00     0.251 C 
ATOM     33  H   UNL A   1      34.573  30.368  29.452  1.00  0.00     0.163 HD
ATOM     34  O   UNL A   1      36.096  29.998  31.292  1.00  0.00    -0.269 OA
BRANCH  32  35
ATOM     35  C   UNL A   1      37.789  29.526  29.730  1.00  0.00     0.039 A 
ATOM     36  C   UNL A   1      38.184  29.662  28.397  1.00  0.00     0.014 A 
ATOM     37  C   UNL A   1      38.698  29.059  30.685  1.00  0.00     0.014 A 
ATOM     38  C   UNL A   1      39.502  29.376  28.032  1.00  0.00     0.010 A 
ATOM     39  C   UNL A   1      40.030  28.851  30.333  1.00  0.00     0.010 A 
ATOM     40  C   UNL A   1      40.445  28.993  29.000  1.00  0.00    -0.014 A 
BRANCH  40  41
ATOM     41  C   UNL A   1      41.856  28.701  28.634  1.00  0.00     0.031 A 
ATOM     42  C   UNL A   1      42.253  27.305  28.227  1.00  0.00     0.074 A 
ATOM     43  C   UNL A   1      42.788  29.673  28.706  1.00  0.00     0.049 A 
ATOM     44  N   UNL A   1      43.440  26.835  27.939  1.00  0.00    -0.248 NA
ATOM     45  C   UNL A   1      41.179  26.299  28.156  1.00  0.00     0.031 C 
ATOM     46  C   UNL A   1      42.541  31.058  29.117  1.00  0.00     0.029 A 
ATOM     47  N   UNL A   1      44.135  29.644  28.440  1.00  0.00    -0.354 N 
ATOM     48  C   UNL A   1      43.256  25.486  27.657  1.00  0.00     0.074 A 
ATOM     49  C   UNL A   1      41.856  25.196  27.872  1.00  0.00     0.031 C 
ATOM     50  C   UNL A   1      43.693  31.747  29.057  1.00  0.00     0.029 A 
ATOM     51  C   UNL A   1      44.766  30.850  28.644  1.00  0.00     0.049 A 
ATOM     52  H   UNL A   1      44.606  28.835  28.132  1.00  0.00     0.167 HD
ATOM     53  C   UNL A   1      44.161  24.576  27.227  1.00  0.00     0.031 A 
ATOM     54  C   UNL A   1      46.065  31.191  28.524  1.00  0.00     0.031 A 
ATOM     55  C   UNL A   1      45.552  24.865  27.002  1.00  0.00     0.049 A 
ATOM     56  C   UNL A   1      47.057  30.151  28.070  1.00  0.00     0.074 A 
ATOM     57  C   UNL A   1      46.546  24.015  26.549  1.00  0.00     0.029 A 
ATOM     58  N   UNL A   1      46.146  26.102  27.204  1.00  0.00    -0.354 N 
ATOM     59  N   UNL A   1      46.852  28.890  27.770  1.00  0.00    -0.248 NA
ATOM     60  C   UNL A   1      48.453  30.586  27.917  1.00  0.00     0.031 C 
ATOM     61  C   UNL A   1      47.750  24.726  26.518  1.00  0.00     0.029 A 
ATOM     62  C   UNL A   1      47.492  26.036  26.888  1.00  0.00     0.049 A 
ATOM     63  H   UNL A   1      45.679  26.908  27.524  1.00  0.00     0.167 HD
ATOM     64  C   UNL A   1      48.084  28.396  27.353  1.00  0.00     0.074 A 
ATOM     65  C   UNL A   1      49.022  29.496  27.425  1.00  0.00     0.031 C 
ATOM     66  C   UNL A   1      48.410  27.145  26.944  1.00  0.00     0.031 A 
BRANCH  53  67
ATOM     67  C   UNL A   1      43.671  23.178  26.947  1.00  0.00    -0.014 A 
ATOM     68  C   UNL A   1      43.763  22.631  25.654  1.00  0.00     0.010 A 
ATOM     69  C   UNL A   1      43.181  22.379  27.995  1.00  0.00     0.010 A 
ATOM     70  C   UNL A   1      43.347  21.320  25.408  1.00  0.00     0.020 A 
ATOM     71  C   UNL A   1      42.793  21.056  27.760  1.00  0.00     0.020 A 
ATOM     72  C   UNL A   1      42.869  20.539  26.465  1.00  0.00     0.054 A 
BRANCH  72  73
ATOM     73  S   UNL A   1      42.392  18.823  26.124  1.00  0.00     0.124 S 
ATOM     74  O   UNL A   1      42.555  18.199  27.434  1.00  0.00    -0.237 OA
ATOM     75  O   UNL A   1      41.013  18.960  25.661  1.00  0.00    -0.237 OA
ATOM     76  O   UNL A   1      43.348  18.392  25.106  1.00  0.00    -0.744 OA
ENDBRANCH  72  73
ENDBRANCH  53  67
BRANCH  54  77
ATOM     77  C   UNL A   1      46.515  32.577  28.841  1.00  0.00    -0.014 A 
ATOM     78  C   UNL A   1      46.515  33.580  27.855  1.00  0.00     0.010 A 
ATOM     79  C   UNL A   1      46.985  32.890  30.130  1.00  0.00     0.010 A 
ATOM     80  C   UNL A   1      47.024  34.852  28.137  1.00  0.00     0.020 A 
ATOM     81  C   UNL A   1      47.460  34.170  30.426  1.00  0.00     0.020 A 
ATOM     82  C   UNL A   1      47.499  35.136  29.420  1.00  0.00     0.054 A 
BRANCH  82  83
ATOM     83  S   UNL A   1      48.156  36.791  29.765  1.00  0.00     0.124 S 
ATOM     84  O   UNL A   1      47.437  37.611  28.795  1.00  0.00    -0.237 OA
ATOM     85  O   UNL A   1      47.786  36.994  31.164  1.00  0.00    -0.237 OA
ATOM     86  O   UNL A   1      49.590  36.647  29.523  1.00  0.00    -0.744 OA
ENDBRANCH  82  83
ENDBRANCH  54  77
BRANCH  66  87
ATOM     87  C   UNL A   1      49.821  26.911  26.470  1.00  0.00    -0.014 A 
ATOM     88  C   UNL A   1      50.845  26.537  27.357  1.00  0.00     0.010 A 
ATOM     89  C   UNL A   1      50.111  27.025  25.097  1.00  0.00     0.010 A 
ATOM     90  C   UNL A   1      52.144  26.325  26.886  1.00  0.00     0.020 A 
ATOM     91  C   UNL A   1      51.399  26.780  24.618  1.00  0.00     0.020 A 
ATOM     92  C   UNL A   1      52.412  26.448  25.519  1.00  0.00     0.054 A 
BRANCH  92  93
ATOM     93  S   UNL A   1      54.098  26.136  24.927  1.00  0.00     0.124 S 
ATOM     94  O   UNL A   1      54.075  24.696  24.688  1.00  0.00    -0.237 OA
ATOM     95  O   UNL A   1      54.176  26.970  23.730  1.00  0.00    -0.237 OA
ATOM     96  O   UNL A   1      54.943  26.570  26.037  1.00  0.00    -0.744 OA
ENDBRANCH  92  93
ENDBRANCH  66  87
ENDBRANCH  40  41
ENDBRANCH  32  35
ENDBRANCH  30  31
ENDBRANCH  29  30
ENDBRANCH  28  29
ENDBRANCH  27  28
ENDBRANCH   1  27
TORSDOF 22
ENDMDL
