MODEL 1
REMARK VINA RESULT:     -11.4      0.000      0.000
REMARK SMILES Cc1cc(-n2cnc(C(=O)NCCCCCCNC(=O)c3ccc(-c4c5nc(c(-c6ccc(S(=O)(=O)[O-])cc6)c6ccc([nH]6)c(-c6ccc(S(=O)(=O)[O-])cc6)c6nc(c(-c7ccc(S(=O)(=O)[O-])cc7)c7ccc4[nH]7)C=C6)C=C5)cc3)c2)nc(Cl)n1
REMARK SMILES IDX 15 1 14 2 13 3 12 4 11 5 9 6 10 7 8 9 5 10 6 11 81 12 7 13
REMARK SMILES IDX 4 14 1 15 2 16 3 17 85 18 83 19 82 20 84 21 16 22 17 23
REMARK SMILES IDX 18 24 19 25 20 27 21 28 22 29 80 30 23 31 79 32 24 33 25 34
REMARK SMILES IDX 26 35 73 36 27 37 78 38 72 39 74 40 28 41 77 42 71 43 70 44
REMARK SMILES IDX 29 46 59 47 40 48 58 49 41 50 44 51 57 52 75 53 42 54 43 55
REMARK SMILES IDX 56 57 76 58 45 59 30 60 31 61 39 62 32 63 38 64 33 65 34 66
REMARK SMILES IDX 35 67 36 68 37 69 60 70 61 71 69 72 62 73 68 74 63 75 64 76
REMARK SMILES IDX 65 77 66 78 67 79 46 80 47 81 55 82 48 83 54 84 49 85 50 86
REMARK SMILES IDX 51 87 52 88 53 89
REMARK H PARENT 11 8 18 26 74 45 44 56
REMARK Flexibility Score: inf
ROOT
ATOM      1  C   UNL A   1      38.791  23.296  26.771  1.00  0.00     0.002 C 
ENDROOT
BRANCH   1   2
ATOM      2  C   UNL A   1      37.416  23.693  26.210  1.00  0.00     0.002 C 
BRANCH   2   3
ATOM      3  C   UNL A   1      37.182  23.329  24.739  1.00  0.00     0.021 C 
BRANCH   3   4
ATOM      4  C   UNL A   1      36.116  22.252  24.551  1.00  0.00     0.116 C 
BRANCH   4   5
ATOM      5  N   UNL A   1      35.582  21.786  25.814  1.00  0.00    -0.351 N 
ATOM      6  C   UNL A   1      34.458  22.083  26.551  1.00  0.00     0.271 C 
ATOM      7  O   UNL A   1      34.336  21.456  27.605  1.00  0.00    -0.267 OA
ATOM      8  H   UNL A   1      36.150  21.105  26.240  1.00  0.00     0.163 HD
BRANCH   6   9
ATOM      9  C   UNL A   1      33.442  23.055  26.110  1.00  0.00     0.146 A 
ATOM     10  N   UNL A   1      32.294  24.860  25.521  1.00  0.00    -0.290 N 
ATOM     11  C   UNL A   1      31.536  23.745  25.305  1.00  0.00     0.206 A 
ATOM     12  C   UNL A   1      33.455  24.432  26.119  1.00  0.00     0.128 A 
ATOM     13  N   UNL A   1      32.218  22.649  25.576  1.00  0.00    -0.231 NA
BRANCH  10  14
ATOM     14  C   UNL A   1      31.991  26.204  25.210  1.00  0.00     0.143 A 
ATOM     15  C   UNL A   1      32.137  29.551  26.881  1.00  0.00     0.067 C 
ATOM     16  C   UNL A   1      31.875  28.455  25.892  1.00  0.00     0.044 A 
ATOM     17  C   UNL A   1      32.211  27.155  26.198  1.00  0.00     0.071 A 
ATOM     18  N   UNL A   1      31.279  28.776  24.732  1.00  0.00    -0.223 NA
ATOM     19  C   UNL A   1      31.102  27.770  23.858  1.00  0.00     0.224 A 
ATOM     20  N   UNL A   1      31.483  26.493  24.002  1.00  0.00    -0.200 NA
ATOM     21  Cl  UNL A   1      30.247  28.150  22.433  1.00  0.00    -0.041 Cl
ENDBRANCH  10  14
ENDBRANCH   6   9
ENDBRANCH   4   5
ENDBRANCH   3   4
ENDBRANCH   2   3
ENDBRANCH   1   2
BRANCH   1  22
ATOM     22  C   UNL A   1      39.438  22.052  26.140  1.00  0.00     0.021 C 
BRANCH  22  23
ATOM     23  C   UNL A   1      40.734  21.642  26.825  1.00  0.00     0.116 C 
BRANCH  23  24
ATOM     24  N   UNL A   1      41.863  21.771  25.917  1.00  0.00    -0.352 N 
ATOM     25  C   UNL A   1      42.490  22.896  25.441  1.00  0.00     0.251 C 
ATOM     26  H   UNL A   1      42.236  20.919  25.593  1.00  0.00     0.163 HD
ATOM     27  O   UNL A   1      43.175  22.815  24.430  1.00  0.00    -0.269 OA
BRANCH  25  28
ATOM     28  C   UNL A   1      42.341  24.190  26.136  1.00  0.00     0.039 A 
ATOM     29  C   UNL A   1      41.618  25.214  25.516  1.00  0.00     0.014 A 
ATOM     30  C   UNL A   1      42.976  24.416  27.360  1.00  0.00     0.014 A 
ATOM     31  C   UNL A   1      41.501  26.445  26.149  1.00  0.00     0.010 A 
ATOM     32  C   UNL A   1      42.791  25.607  28.029  1.00  0.00     0.010 A 
ATOM     33  C   UNL A   1      42.084  26.631  27.410  1.00  0.00    -0.014 A 
BRANCH  33  34
ATOM     34  C   UNL A   1      41.814  27.854  28.155  1.00  0.00     0.031 A 
ATOM     35  C   UNL A   1      42.878  28.877  28.002  1.00  0.00     0.074 A 
ATOM     36  C   UNL A   1      40.634  28.135  28.741  1.00  0.00     0.049 A 
ATOM     37  N   UNL A   1      43.769  29.227  28.870  1.00  0.00    -0.248 NA
ATOM     38  C   UNL A   1      43.086  29.459  26.663  1.00  0.00     0.031 C 
ATOM     39  C   UNL A   1      39.396  27.351  28.669  1.00  0.00     0.029 A 
ATOM     40  N   UNL A   1      40.252  29.244  29.434  1.00  0.00    -0.354 N 
ATOM     41  C   UNL A   1      44.474  30.264  28.271  1.00  0.00     0.074 A 
ATOM     42  C   UNL A   1      44.175  30.204  26.863  1.00  0.00     0.031 C 
ATOM     43  C   UNL A   1      38.358  28.110  29.086  1.00  0.00     0.029 A 
ATOM     44  C   UNL A   1      38.875  29.364  29.606  1.00  0.00     0.049 A 
ATOM     45  H   UNL A   1      40.894  29.905  29.782  1.00  0.00     0.167 HD
ATOM     46  C   UNL A   1      44.963  31.298  29.009  1.00  0.00     0.031 A 
ATOM     47  C   UNL A   1      38.214  30.434  30.112  1.00  0.00     0.031 A 
ATOM     48  C   UNL A   1      44.911  31.019  30.418  1.00  0.00     0.049 A 
ATOM     49  C   UNL A   1      39.187  31.183  30.941  1.00  0.00     0.074 A 
ATOM     50  C   UNL A   1      45.517  30.136  31.284  1.00  0.00     0.029 A 
ATOM     51  N   UNL A   1      43.784  31.496  31.040  1.00  0.00    -0.354 N 
ATOM     52  N   UNL A   1      39.739  30.699  32.020  1.00  0.00    -0.248 NA
ATOM     53  C   UNL A   1      39.828  32.371  30.391  1.00  0.00     0.031 C 
ATOM     54  C   UNL A   1      44.563  29.892  32.314  1.00  0.00     0.029 A 
ATOM     55  C   UNL A   1      43.428  30.669  32.070  1.00  0.00     0.049 A 
ATOM     56  H   UNL A   1      43.302  32.315  30.782  1.00  0.00     0.167 HD
ATOM     57  C   UNL A   1      41.007  31.249  32.037  1.00  0.00     0.074 A 
ATOM     58  C   UNL A   1      40.945  32.380  31.122  1.00  0.00     0.031 C 
ATOM     59  C   UNL A   1      42.064  30.559  32.549  1.00  0.00     0.031 A 
BRANCH  46  60
ATOM     60  C   UNL A   1      44.973  32.726  28.509  1.00  0.00    -0.014 A 
ATOM     61  C   UNL A   1      46.168  33.469  28.573  1.00  0.00     0.010 A 
ATOM     62  C   UNL A   1      43.783  33.446  28.269  1.00  0.00     0.010 A 
ATOM     63  C   UNL A   1      46.163  34.863  28.423  1.00  0.00     0.020 A 
ATOM     64  C   UNL A   1      43.772  34.826  28.075  1.00  0.00     0.020 A 
ATOM     65  C   UNL A   1      44.963  35.531  28.172  1.00  0.00     0.054 A 
BRANCH  65  66
ATOM     66  S   UNL A   1      44.955  37.336  28.049  1.00  0.00     0.124 S 
ATOM     67  O   UNL A   1      45.718  37.562  26.826  1.00  0.00    -0.237 OA
ATOM     68  O   UNL A   1      43.526  37.628  27.971  1.00  0.00    -0.237 OA
ATOM     69  O   UNL A   1      45.608  37.766  29.283  1.00  0.00    -0.744 OA
ENDBRANCH  65  66
ENDBRANCH  46  60
BRANCH  47  70
ATOM     70  C   UNL A   1      36.906  31.012  29.697  1.00  0.00    -0.014 A 
ATOM     71  C   UNL A   1      36.016  31.516  30.667  1.00  0.00     0.010 A 
ATOM     72  C   UNL A   1      36.662  31.353  28.351  1.00  0.00     0.010 A 
ATOM     73  C   UNL A   1      34.998  32.421  30.321  1.00  0.00     0.020 A 
ATOM     74  C   UNL A   1      35.638  32.243  27.996  1.00  0.00     0.020 A 
ATOM     75  C   UNL A   1      34.841  32.807  28.989  1.00  0.00     0.054 A 
BRANCH  75  76
ATOM     76  S   UNL A   1      33.667  34.133  28.583  1.00  0.00     0.124 S 
ATOM     77  O   UNL A   1      34.529  35.148  27.984  1.00  0.00    -0.237 OA
ATOM     78  O   UNL A   1      32.749  33.463  27.667  1.00  0.00    -0.237 OA
ATOM     79  O   UNL A   1      33.094  34.494  29.879  1.00  0.00    -0.744 OA
ENDBRANCH  75  76
ENDBRANCH  47  70
BRANCH  59  80
ATOM     80  C   UNL A   1      41.795  29.488  33.569  1.00  0.00    -0.014 A 
ATOM     81  C   UNL A   1      41.555  28.136  33.266  1.00  0.00     0.010 A 
ATOM     82  C   UNL A   1      41.956  29.866  34.913  1.00  0.00     0.010 A 
ATOM     83  C   UNL A   1      41.498  27.181  34.295  1.00  0.00     0.020 A 
ATOM     84  C   UNL A   1      41.916  28.921  35.937  1.00  0.00     0.020 A 
ATOM     85  C   UNL A   1      41.697  27.581  35.623  1.00  0.00     0.054 A 
BRANCH  85  86
ATOM     86  S   UNL A   1      41.712  26.336  36.945  1.00  0.00     0.124 S 
ATOM     87  O   UNL A   1      41.899  25.088  36.212  1.00  0.00    -0.237 OA
ATOM     88  O   UNL A   1      42.843  26.760  37.766  1.00  0.00    -0.237 OA
ATOM     89  O   UNL A   1      40.404  26.486  37.582  1.00  0.00    -0.744 OA
ENDBRANCH  85  86
ENDBRANCH  59  80
ENDBRANCH  33  34
ENDBRANCH  25  28
ENDBRANCH  23  24
ENDBRANCH  22  23
ENDBRANCH   1  22
TORSDOF 17
ENDMDL
MODEL 2
REMARK VINA RESULT:     -11.0      2.745      9.478
REMARK SMILES Cc1cc(-n2cnc(C(=O)NCCCCCCNC(=O)c3ccc(-c4c5nc(c(-c6ccc(S(=O)(=O)[O-])cc6)c6ccc([nH]6)c(-c6ccc(S(=O)(=O)[O-])cc6)c6nc(c(-c7ccc(S(=O)(=O)[O-])cc7)c7ccc4[nH]7)C=C6)C=C5)cc3)c2)nc(Cl)n1
REMARK SMILES IDX 15 1 14 2 13 3 12 4 11 5 9 6 10 7 8 9 5 10 6 11 81 12 7 13
REMARK SMILES IDX 4 14 1 15 2 16 3 17 85 18 83 19 82 20 84 21 16 22 17 23
REMARK SMILES IDX 18 24 19 25 20 27 21 28 22 29 80 30 23 31 79 32 24 33 25 34
REMARK SMILES IDX 26 35 73 36 27 37 78 38 72 39 74 40 28 41 77 42 71 43 70 44
REMARK SMILES IDX 29 46 59 47 40 48 58 49 41 50 44 51 57 52 75 53 42 54 43 55
REMARK SMILES IDX 56 57 76 58 45 59 30 60 31 61 39 62 32 63 38 64 33 65 34 66
REMARK SMILES IDX 35 67 36 68 37 69 60 70 61 71 69 72 62 73 68 74 63 75 64 76
REMARK SMILES IDX 65 77 66 78 67 79 46 80 47 81 55 82 48 83 54 84 49 85 50 86
REMARK SMILES IDX 51 87 52 88 53 89
REMARK H PARENT 11 8 18 26 74 45 44 56
REMARK Flexibility Score: inf
ROOT
ATOM      1  C   UNL A   1      31.753  28.762  26.522  1.00  0.00     0.002 C 
ENDROOT
BRANCH   1   2
ATOM      2  C   UNL A   1      31.309  28.267  25.134  1.00  0.00     0.002 C 
BRANCH   2   3
ATOM      3  C   UNL A   1      30.799  26.823  25.089  1.00  0.00     0.021 C 
BRANCH   3   4
ATOM      4  C   UNL A   1      31.094  26.043  26.368  1.00  0.00     0.116 C 
BRANCH   4   5
ATOM      5  N   UNL A   1      30.583  24.689  26.312  1.00  0.00    -0.351 N 
ATOM      6  C   UNL A   1      31.105  23.481  25.908  1.00  0.00     0.271 C 
ATOM      7  O   UNL A   1      30.347  22.515  26.019  1.00  0.00    -0.267 OA
ATOM      8  H   UNL A   1      29.656  24.617  26.634  1.00  0.00     0.163 HD
BRANCH   6   9
ATOM      9  C   UNL A   1      32.481  23.327  25.407  1.00  0.00     0.146 A 
ATOM     10  N   UNL A   1      34.657  22.976  25.145  1.00  0.00    -0.290 N 
ATOM     11  C   UNL A   1      34.081  23.209  23.929  1.00  0.00     0.206 A 
ATOM     12  C   UNL A   1      33.667  23.147  26.084  1.00  0.00     0.128 A 
ATOM     13  N   UNL A   1      32.775  23.349  24.043  1.00  0.00    -0.231 NA
BRANCH  10  14
ATOM     14  C   UNL A   1      35.994  22.626  25.433  1.00  0.00     0.143 A 
ATOM     15  C   UNL A   1      39.099  24.289  26.701  1.00  0.00     0.067 C 
ATOM     16  C   UNL A   1      38.144  23.279  26.139  1.00  0.00     0.044 A 
ATOM     17  C   UNL A   1      36.833  23.629  25.899  1.00  0.00     0.071 A 
ATOM     18  N   UNL A   1      38.611  22.053  25.851  1.00  0.00    -0.223 NA
ATOM     19  C   UNL A   1      37.710  21.168  25.390  1.00  0.00     0.224 A 
ATOM     20  N   UNL A   1      36.396  21.363  25.217  1.00  0.00    -0.200 NA
ATOM     21  Cl  UNL A   1      38.320  19.648  24.917  1.00  0.00    -0.041 Cl
ENDBRANCH  10  14
ENDBRANCH   6   9
ENDBRANCH   4   5
ENDBRANCH   3   4
ENDBRANCH   2   3
ENDBRANCH   1   2
BRANCH   1  22
ATOM     22  C   UNL A   1      32.215  30.227  26.593  1.00  0.00     0.021 C 
BRANCH  22  23
ATOM     23  C   UNL A   1      33.582  30.388  27.242  1.00  0.00     0.116 C 
BRANCH  23  24
ATOM     24  N   UNL A   1      33.617  31.571  28.088  1.00  0.00    -0.352 N 
ATOM     25  C   UNL A   1      34.513  31.934  29.063  1.00  0.00     0.251 C 
ATOM     26  H   UNL A   1      32.885  32.212  27.938  1.00  0.00     0.163 HD
ATOM     27  O   UNL A   1      34.186  32.770  29.893  1.00  0.00    -0.269 OA
BRANCH  25  28
ATOM     28  C   UNL A   1      35.856  31.323  29.114  1.00  0.00     0.039 A 
ATOM     29  C   UNL A   1      36.977  32.156  29.193  1.00  0.00     0.014 A 
ATOM     30  C   UNL A   1      36.012  29.939  29.006  1.00  0.00     0.014 A 
ATOM     31  C   UNL A   1      38.246  31.590  29.207  1.00  0.00     0.010 A 
ATOM     32  C   UNL A   1      37.264  29.370  29.105  1.00  0.00     0.010 A 
ATOM     33  C   UNL A   1      38.381  30.196  29.172  1.00  0.00    -0.014 A 
BRANCH  33  34
ATOM     34  C   UNL A   1      39.693  29.594  29.367  1.00  0.00     0.031 A 
ATOM     35  C   UNL A   1      40.097  29.522  30.793  1.00  0.00     0.074 A 
ATOM     36  C   UNL A   1      40.384  28.961  28.398  1.00  0.00     0.049 A 
ATOM     37  N   UNL A   1      40.974  30.248  31.404  1.00  0.00    -0.248 NA
ATOM     38  C   UNL A   1      39.307  28.657  31.689  1.00  0.00     0.031 C 
ATOM     39  C   UNL A   1      39.936  28.669  27.032  1.00  0.00     0.029 A 
ATOM     40  N   UNL A   1      41.595  28.339  28.461  1.00  0.00    -0.354 N 
ATOM     41  C   UNL A   1      41.032  29.741  32.696  1.00  0.00     0.074 A 
ATOM     42  C   UNL A   1      39.845  28.943  32.876  1.00  0.00     0.031 C 
ATOM     43  C   UNL A   1      40.749  27.739  26.481  1.00  0.00     0.029 A 
ATOM     44  C   UNL A   1      41.860  27.497  27.384  1.00  0.00     0.049 A 
ATOM     45  H   UNL A   1      42.227  28.472  29.204  1.00  0.00     0.167 HD
ATOM     46  C   UNL A   1      42.201  29.721  33.392  1.00  0.00     0.031 A 
ATOM     47  C   UNL A   1      42.905  26.641  27.266  1.00  0.00     0.031 A 
ATOM     48  C   UNL A   1      43.213  30.521  32.756  1.00  0.00     0.049 A 
ATOM     49  C   UNL A   1      43.971  27.144  28.165  1.00  0.00     0.074 A 
ATOM     50  C   UNL A   1      43.409  31.858  32.493  1.00  0.00     0.029 A 
ATOM     51  N   UNL A   1      44.041  29.812  31.922  1.00  0.00    -0.354 N 
ATOM     52  N   UNL A   1      44.570  28.292  28.001  1.00  0.00    -0.248 NA
ATOM     53  C   UNL A   1      44.156  26.524  29.470  1.00  0.00     0.031 C 
ATOM     54  C   UNL A   1      44.164  31.906  31.285  1.00  0.00     0.029 A 
ATOM     55  C   UNL A   1      44.443  30.599  30.877  1.00  0.00     0.049 A 
ATOM     56  H   UNL A   1      44.306  28.873  32.055  1.00  0.00     0.167 HD
ATOM     57  C   UNL A   1      44.840  28.726  29.285  1.00  0.00     0.074 A 
ATOM     58  C   UNL A   1      44.720  27.542  30.123  1.00  0.00     0.031 C 
ATOM     59  C   UNL A   1      44.834  30.054  29.592  1.00  0.00     0.031 A 
BRANCH  46  60
ATOM     60  C   UNL A   1      42.587  28.583  34.311  1.00  0.00    -0.014 A 
ATOM     61  C   UNL A   1      43.178  28.875  35.556  1.00  0.00     0.010 A 
ATOM     62  C   UNL A   1      42.669  27.248  33.860  1.00  0.00     0.010 A 
ATOM     63  C   UNL A   1      43.833  27.881  36.298  1.00  0.00     0.020 A 
ATOM     64  C   UNL A   1      43.278  26.243  34.609  1.00  0.00     0.020 A 
ATOM     65  C   UNL A   1      43.874  26.570  35.818  1.00  0.00     0.054 A 
BRANCH  65  66
ATOM     66  S   UNL A   1      44.779  25.309  36.747  1.00  0.00     0.124 S 
ATOM     67  O   UNL A   1      44.579  24.120  35.924  1.00  0.00    -0.237 OA
ATOM     68  O   UNL A   1      46.134  25.854  36.758  1.00  0.00    -0.237 OA
ATOM     69  O   UNL A   1      44.108  25.292  38.045  1.00  0.00    -0.744 OA
ENDBRANCH  65  66
ENDBRANCH  46  60
BRANCH  47  70
ATOM     70  C   UNL A   1      42.939  25.277  26.671  1.00  0.00    -0.014 A 
ATOM     71  C   UNL A   1      43.114  25.114  25.281  1.00  0.00     0.010 A 
ATOM     72  C   UNL A   1      43.113  24.139  27.485  1.00  0.00     0.010 A 
ATOM     73  C   UNL A   1      43.562  23.897  24.740  1.00  0.00     0.020 A 
ATOM     74  C   UNL A   1      43.544  22.916  26.951  1.00  0.00     0.020 A 
ATOM     75  C   UNL A   1      43.809  22.815  25.587  1.00  0.00     0.054 A 
BRANCH  75  76
ATOM     76  S   UNL A   1      44.587  21.319  24.909  1.00  0.00     0.124 S 
ATOM     77  O   UNL A   1      45.874  21.291  25.598  1.00  0.00    -0.237 OA
ATOM     78  O   UNL A   1      43.641  20.277  25.295  1.00  0.00    -0.237 OA
ATOM     79  O   UNL A   1      44.660  21.590  23.475  1.00  0.00    -0.744 OA
ENDBRANCH  75  76
ENDBRANCH  47  70
BRANCH  59  80
ATOM     80  C   UNL A   1      45.088  31.046  28.491  1.00  0.00    -0.014 A 
ATOM     81  C   UNL A   1      44.086  31.727  27.779  1.00  0.00     0.010 A 
ATOM     82  C   UNL A   1      46.432  31.410  28.292  1.00  0.00     0.010 A 
ATOM     83  C   UNL A   1      44.427  32.767  26.899  1.00  0.00     0.020 A 
ATOM     84  C   UNL A   1      46.776  32.452  27.432  1.00  0.00     0.020 A 
ATOM     85  C   UNL A   1      45.771  33.133  26.747  1.00  0.00     0.054 A 
BRANCH  85  86
ATOM     86  S   UNL A   1      46.206  34.535  25.678  1.00  0.00     0.124 S 
ATOM     87  O   UNL A   1      45.813  35.688  26.481  1.00  0.00    -0.237 OA
ATOM     88  O   UNL A   1      47.644  34.357  25.492  1.00  0.00    -0.237 OA
ATOM     89  O   UNL A   1      45.403  34.320  24.474  1.00  0.00    -0.744 OA
ENDBRANCH  85  86
ENDBRANCH  59  80
ENDBRANCH  33  34
ENDBRANCH  25  28
ENDBRANCH  23  24
ENDBRANCH  22  23
ENDBRANCH   1  22
TORSDOF 17
ENDMDL
MODEL 3
REMARK VINA RESULT:     -10.7      2.868      9.412
REMARK SMILES Cc1cc(-n2cnc(C(=O)NCCCCCCNC(=O)c3ccc(-c4c5nc(c(-c6ccc(S(=O)(=O)[O-])cc6)c6ccc([nH]6)c(-c6ccc(S(=O)(=O)[O-])cc6)c6nc(c(-c7ccc(S(=O)(=O)[O-])cc7)c7ccc4[nH]7)C=C6)C=C5)cc3)c2)nc(Cl)n1
REMARK SMILES IDX 15 1 14 2 13 3 12 4 11 5 9 6 10 7 8 9 5 10 6 11 81 12 7 13
REMARK SMILES IDX 4 14 1 15 2 16 3 17 85 18 83 19 82 20 84 21 16 22 17 23
REMARK SMILES IDX 18 24 19 25 20 27 21 28 22 29 80 30 23 31 79 32 24 33 25 34
REMARK SMILES IDX 26 35 73 36 27 37 78 38 72 39 74 40 28 41 77 42 71 43 70 44
REMARK SMILES IDX 29 46 59 47 40 48 58 49 41 50 44 51 57 52 75 53 42 54 43 55
REMARK SMILES IDX 56 57 76 58 45 59 30 60 31 61 39 62 32 63 38 64 33 65 34 66
REMARK SMILES IDX 35 67 36 68 37 69 60 70 61 71 69 72 62 73 68 74 63 75 64 76
REMARK SMILES IDX 65 77 66 78 67 79 46 80 47 81 55 82 48 83 54 84 49 85 50 86
REMARK SMILES IDX 51 87 52 88 53 89
REMARK H PARENT 11 8 18 26 74 45 44 56
REMARK Flexibility Score: inf
ROOT
ATOM      1  C   UNL A   1      33.914  31.872  28.008  1.00  0.00     0.002 C 
ENDROOT
BRANCH   1   2
ATOM      2  C   UNL A   1      35.021  30.876  27.623  1.00  0.00     0.002 C 
BRANCH   2   3
ATOM      3  C   UNL A   1      34.584  29.409  27.558  1.00  0.00     0.021 C 
BRANCH   3   4
ATOM      4  C   UNL A   1      34.349  28.916  26.132  1.00  0.00     0.116 C 
BRANCH   4   5
ATOM      5  N   UNL A   1      33.083  29.374  25.598  1.00  0.00    -0.351 N 
ATOM      6  C   UNL A   1      31.927  28.745  25.194  1.00  0.00     0.271 C 
ATOM      7  O   UNL A   1      31.033  29.492  24.791  1.00  0.00    -0.267 OA
ATOM      8  H   UNL A   1      33.040  30.352  25.503  1.00  0.00     0.163 HD
BRANCH   6   9
ATOM      9  C   UNL A   1      31.740  27.285  25.262  1.00  0.00     0.146 A 
ATOM     10  N   UNL A   1      31.911  25.078  25.115  1.00  0.00    -0.290 N 
ATOM     11  C   UNL A   1      30.814  25.404  25.859  1.00  0.00     0.206 A 
ATOM     12  C   UNL A   1      32.437  26.263  24.658  1.00  0.00     0.128 A 
ATOM     13  N   UNL A   1      30.725  26.708  26.027  1.00  0.00    -0.231 NA
BRANCH  10  14
ATOM     14  C   UNL A   1      32.441  23.798  24.841  1.00  0.00     0.143 A 
ATOM     15  C   UNL A   1      35.280  21.650  25.998  1.00  0.00     0.067 C 
ATOM     16  C   UNL A   1      34.097  22.172  25.240  1.00  0.00     0.044 A 
ATOM     17  C   UNL A   1      33.570  23.407  25.547  1.00  0.00     0.071 A 
ATOM     18  N   UNL A   1      33.600  21.421  24.243  1.00  0.00    -0.223 NA
ATOM     19  C   UNL A   1      32.514  21.908  23.618  1.00  0.00     0.224 A 
ATOM     20  N   UNL A   1      31.855  23.041  23.899  1.00  0.00    -0.200 NA
ATOM     21  Cl  UNL A   1      31.948  21.014  22.281  1.00  0.00    -0.041 Cl
ENDBRANCH  10  14
ENDBRANCH   6   9
ENDBRANCH   4   5
ENDBRANCH   3   4
ENDBRANCH   2   3
ENDBRANCH   1   2
BRANCH   1  22
ATOM     22  C   UNL A   1      34.292  33.360  27.919  1.00  0.00     0.021 C 
BRANCH  22  23
ATOM     23  C   UNL A   1      35.300  33.782  28.980  1.00  0.00     0.116 C 
BRANCH  23  24
ATOM     24  N   UNL A   1      34.757  33.588  30.315  1.00  0.00    -0.352 N 
ATOM     25  C   UNL A   1      35.015  32.606  31.240  1.00  0.00     0.251 C 
ATOM     26  H   UNL A   1      34.103  34.266  30.602  1.00  0.00     0.163 HD
ATOM     27  O   UNL A   1      34.215  32.413  32.145  1.00  0.00    -0.269 OA
BRANCH  25  28
ATOM     28  C   UNL A   1      36.242  31.790  31.145  1.00  0.00     0.039 A 
ATOM     29  C   UNL A   1      36.125  30.399  31.059  1.00  0.00     0.014 A 
ATOM     30  C   UNL A   1      37.501  32.389  31.220  1.00  0.00     0.014 A 
ATOM     31  C   UNL A   1      37.275  29.621  31.003  1.00  0.00     0.010 A 
ATOM     32  C   UNL A   1      38.642  31.628  31.079  1.00  0.00     0.010 A 
ATOM     33  C   UNL A   1      38.531  30.244  31.005  1.00  0.00    -0.014 A 
BRANCH  33  34
ATOM     34  C   UNL A   1      39.729  29.451  30.767  1.00  0.00     0.031 A 
ATOM     35  C   UNL A   1      40.526  29.213  31.996  1.00  0.00     0.074 A 
ATOM     36  C   UNL A   1      39.988  28.804  29.613  1.00  0.00     0.049 A 
ATOM     37  N   UNL A   1      41.649  29.759  32.327  1.00  0.00    -0.248 NA
ATOM     38  C   UNL A   1      39.916  28.401  33.065  1.00  0.00     0.031 C 
ATOM     39  C   UNL A   1      39.109  28.683  28.444  1.00  0.00     0.029 A 
ATOM     40  N   UNL A   1      41.048  28.015  29.280  1.00  0.00    -0.354 N 
ATOM     41  C   UNL A   1      42.012  29.151  33.523  1.00  0.00     0.074 A 
ATOM     42  C   UNL A   1      40.824  28.516  34.036  1.00  0.00     0.031 C 
ATOM     43  C   UNL A   1      39.563  27.694  27.642  1.00  0.00     0.029 A 
ATOM     44  C   UNL A   1      40.841  27.229  28.149  1.00  0.00     0.049 A 
ATOM     45  H   UNL A   1      41.886  28.000  29.796  1.00  0.00     0.167 HD
ATOM     46  C   UNL A   1      43.318  28.914  33.822  1.00  0.00     0.031 A 
ATOM     47  C   UNL A   1      41.654  26.247  27.688  1.00  0.00     0.031 A 
ATOM     48  C   UNL A   1      44.204  29.610  32.930  1.00  0.00     0.049 A 
ATOM     49  C   UNL A   1      43.006  26.524  28.228  1.00  0.00     0.074 A 
ATOM     50  C   UNL A   1      44.520  30.923  32.660  1.00  0.00     0.029 A 
ATOM     51  N   UNL A   1      44.621  28.859  31.859  1.00  0.00    -0.354 N 
ATOM     52  N   UNL A   1      43.701  27.586  27.922  1.00  0.00    -0.248 NA
ATOM     53  C   UNL A   1      43.475  25.785  29.394  1.00  0.00     0.031 C 
ATOM     54  C   UNL A   1      44.874  30.957  31.279  1.00  0.00     0.029 A 
ATOM     55  C   UNL A   1      44.809  29.659  30.766  1.00  0.00     0.049 A 
ATOM     56  H   UNL A   1      44.762  27.884  31.875  1.00  0.00     0.167 HD
ATOM     57  C   UNL A   1      44.409  27.878  29.073  1.00  0.00     0.074 A 
ATOM     58  C   UNL A   1      44.361  26.661  29.871  1.00  0.00     0.031 C 
ATOM     59  C   UNL A   1      44.705  29.166  29.406  1.00  0.00     0.031 A 
BRANCH  46  60
ATOM     60  C   UNL A   1      43.779  27.665  34.542  1.00  0.00    -0.014 A 
ATOM     61  C   UNL A   1      44.761  27.773  35.546  1.00  0.00     0.010 A 
ATOM     62  C   UNL A   1      43.502  26.371  34.052  1.00  0.00     0.010 A 
ATOM     63  C   UNL A   1      45.442  26.641  36.017  1.00  0.00     0.020 A 
ATOM     64  C   UNL A   1      44.141  25.234  34.544  1.00  0.00     0.020 A 
ATOM     65  C   UNL A   1      45.123  25.378  35.513  1.00  0.00     0.054 A 
BRANCH  65  66
ATOM     66  S   UNL A   1      46.054  23.933  36.077  1.00  0.00     0.124 S 
ATOM     67  O   UNL A   1      45.667  22.921  35.099  1.00  0.00    -0.237 OA
ATOM     68  O   UNL A   1      47.432  24.407  35.990  1.00  0.00    -0.237 OA
ATOM     69  O   UNL A   1      45.558  23.715  37.434  1.00  0.00    -0.744 OA
ENDBRANCH  65  66
ENDBRANCH  46  60
BRANCH  47  70
ATOM     70  C   UNL A   1      41.293  24.941  27.071  1.00  0.00    -0.014 A 
ATOM     71  C   UNL A   1      42.235  24.244  26.286  1.00  0.00     0.010 A 
ATOM     72  C   UNL A   1      40.152  24.232  27.498  1.00  0.00     0.010 A 
ATOM     73  C   UNL A   1      42.102  22.867  26.041  1.00  0.00     0.020 A 
ATOM     74  C   UNL A   1      40.004  22.861  27.244  1.00  0.00     0.020 A 
ATOM     75  C   UNL A   1      41.003  22.177  26.555  1.00  0.00     0.054 A 
BRANCH  75  76
ATOM     76  S   UNL A   1      40.950  20.366  26.415  1.00  0.00     0.124 S 
ATOM     77  O   UNL A   1      42.160  20.071  25.654  1.00  0.00    -0.237 OA
ATOM     78  O   UNL A   1      40.965  19.948  27.814  1.00  0.00    -0.237 OA
ATOM     79  O   UNL A   1      39.696  20.112  25.707  1.00  0.00    -0.744 OA
ENDBRANCH  75  76
ENDBRANCH  47  70
BRANCH  59  80
ATOM     80  C   UNL A   1      44.769  30.193  28.312  1.00  0.00    -0.014 A 
ATOM     81  C   UNL A   1      43.649  30.774  27.691  1.00  0.00     0.010 A 
ATOM     82  C   UNL A   1      46.048  30.702  28.022  1.00  0.00     0.010 A 
ATOM     83  C   UNL A   1      43.812  31.857  26.811  1.00  0.00     0.020 A 
ATOM     84  C   UNL A   1      46.214  31.785  27.161  1.00  0.00     0.020 A 
ATOM     85  C   UNL A   1      45.094  32.365  26.567  1.00  0.00     0.054 A 
BRANCH  85  86
ATOM     86  S   UNL A   1      45.297  33.820  25.500  1.00  0.00     0.124 S 
ATOM     87  O   UNL A   1      46.747  33.954  25.407  1.00  0.00    -0.237 OA
ATOM     88  O   UNL A   1      44.622  33.409  24.272  1.00  0.00    -0.237 OA
ATOM     89  O   UNL A   1      44.625  34.891  26.237  1.00  0.00    -0.744 OA
ENDBRANCH  85  86
ENDBRANCH  59  80
ENDBRANCH  33  34
ENDBRANCH  25  28
ENDBRANCH  23  24
ENDBRANCH  22  23
ENDBRANCH   1  22
TORSDOF 17
ENDMDL
