MODEL 1
REMARK VINA RESULT:     -11.5      0.000      0.000
REMARK SMILES Cc1cc(Br)cc2c1O[C@H](C(F)(F)F)C(C(=O)NCCCCCCNC(=O)c1ccc(-c3c4nc(c(-c5ccc(S(=O)(=O)[O-])cc5)c5ccc([nH]5)c(-c5ccc(S(=O)(=O)[O-])cc5)c5nc(c(-c6ccc(S(=O)(=O)[O-])cc6)c6ccc3[nH]6)C=C5)C=C4)cc1)=C2
REMARK SMILES IDX 22 1 21 2 20 3 19 4 18 5 16 6 17 7 15 9 1 10 2 11 3 12 8 13
REMARK SMILES IDX 4 14 7 15 9 16 5 17 6 18 88 19 10 20 11 21 12 22 13 23 14 24
REMARK SMILES IDX 23 25 24 26 25 27 26 28 27 30 28 31 29 32 87 33 30 34 86 35
REMARK SMILES IDX 31 36 32 37 33 38 80 39 34 40 85 41 79 42 81 43 35 44 84 45
REMARK SMILES IDX 78 46 77 47 36 49 66 50 47 51 65 52 48 53 51 54 64 55 82 56
REMARK SMILES IDX 49 57 50 58 63 60 83 61 52 62 37 63 38 64 46 65 39 66 45 67
REMARK SMILES IDX 40 68 41 69 42 70 43 71 44 72 67 73 68 74 76 75 69 76 75 77
REMARK SMILES IDX 70 78 71 79 72 80 73 81 74 82 53 83 54 84 62 85 55 86 61 87
REMARK SMILES IDX 56 88 57 89 58 90 59 91 60 92
REMARK H PARENT 18 8 25 29 81 48 51 59
REMARK Flexibility Score: inf
ROOT
ATOM      1  C   UNL A   1      34.657  22.567  24.157  1.00  0.00     0.002 C 
ENDROOT
BRANCH   1   2
ATOM      2  C   UNL A   1      34.690  21.210  24.873  1.00  0.00     0.002 C 
BRANCH   2   3
ATOM      3  C   UNL A   1      33.462  20.883  25.729  1.00  0.00     0.021 C 
BRANCH   3   4
ATOM      4  C   UNL A   1      32.134  21.298  25.101  1.00  0.00     0.116 C 
BRANCH   4   5
ATOM      5  N   UNL A   1      31.308  22.047  26.032  1.00  0.00    -0.352 N 
ATOM      6  C   UNL A   1      31.070  23.346  26.324  1.00  0.00     0.251 C 
ATOM      7  O   UNL A   1      30.238  23.535  27.219  1.00  0.00    -0.270 OA
ATOM      8  H   UNL A   1      30.778  21.446  26.605  1.00  0.00     0.163 HD
BRANCH   6   9
ATOM      9  C   UNL A   1      31.720  24.520  25.666  1.00  0.00     0.067 C 
ATOM     10  C   UNL A   1      34.083  27.930  22.584  1.00  0.00     0.048 C 
ATOM     11  C   UNL A   1      33.726  27.855  24.042  1.00  0.00    -0.007 A 
ATOM     12  C   UNL A   1      33.986  28.958  24.868  1.00  0.00     0.023 A 
ATOM     13  C   UNL A   1      33.087  26.735  24.593  1.00  0.00     0.130 A 
ATOM     14  C   UNL A   1      33.639  28.920  26.219  1.00  0.00     0.019 A 
ATOM     15  C   UNL A   1      32.745  26.694  25.948  1.00  0.00     0.019 A 
ATOM     16  O   UNL A   1      32.861  25.675  23.764  1.00  0.00    -0.475 OA
ATOM     17  Br  UNL A   1      34.010  30.410  27.321  1.00  0.00    -0.051 Br
ATOM     18  C   UNL A   1      33.024  27.794  26.764  1.00  0.00     0.027 A 
ATOM     19  C   UNL A   1      32.133  25.492  26.501  1.00  0.00     0.025 C 
ATOM     20  C   UNL A   1      31.884  24.686  24.181  1.00  0.00     0.314 C 
BRANCH  20  21
ATOM     21  C   UNL A   1      30.554  24.964  23.460  1.00  0.00     0.429 C 
ATOM     22  F   UNL A   1      29.993  23.806  23.034  1.00  0.00    -0.167 F 
ATOM     23  F   UNL A   1      29.641  25.558  24.265  1.00  0.00    -0.167 F 
ATOM     24  F   UNL A   1      30.710  25.765  22.381  1.00  0.00    -0.167 F 
ENDBRANCH  20  21
ENDBRANCH   6   9
ENDBRANCH   4   5
ENDBRANCH   3   4
ENDBRANCH   2   3
ENDBRANCH   1   2
BRANCH   1  25
ATOM     25  C   UNL A   1      35.997  23.298  24.054  1.00  0.00     0.021 C 
BRANCH  25  26
ATOM     26  C   UNL A   1      36.696  23.552  25.386  1.00  0.00     0.116 C 
BRANCH  26  27
ATOM     27  N   UNL A   1      37.732  22.570  25.657  1.00  0.00    -0.352 N 
ATOM     28  C   UNL A   1      38.976  22.756  26.208  1.00  0.00     0.251 C 
ATOM     29  H   UNL A   1      37.512  21.643  25.411  1.00  0.00     0.163 HD
ATOM     30  O   UNL A   1      39.796  21.843  26.202  1.00  0.00    -0.269 OA
BRANCH  28  31
ATOM     31  C   UNL A   1      39.328  24.068  26.791  1.00  0.00     0.039 A 
ATOM     32  C   UNL A   1      38.959  24.341  28.109  1.00  0.00     0.014 A 
ATOM     33  C   UNL A   1      40.024  25.020  26.039  1.00  0.00     0.014 A 
ATOM     34  C   UNL A   1      39.339  25.551  28.693  1.00  0.00     0.010 A 
ATOM     35  C   UNL A   1      40.455  26.198  26.642  1.00  0.00     0.010 A 
ATOM     36  C   UNL A   1      40.113  26.476  27.974  1.00  0.00    -0.014 A 
BRANCH  36  37
ATOM     37  C   UNL A   1      40.562  27.742  28.605  1.00  0.00     0.031 A 
ATOM     38  C   UNL A   1      41.979  27.883  29.088  1.00  0.00     0.074 A 
ATOM     39  C   UNL A   1      39.685  28.753  28.769  1.00  0.00     0.049 A 
ATOM     40  N   UNL A   1      42.553  28.911  29.658  1.00  0.00    -0.248 NA
ATOM     41  C   UNL A   1      42.860  26.715  28.927  1.00  0.00     0.031 C 
ATOM     42  C   UNL A   1      38.275  28.721  28.372  1.00  0.00     0.029 A 
ATOM     43  N   UNL A   1      39.852  30.006  29.303  1.00  0.00    -0.354 N 
ATOM     44  C   UNL A   1      43.858  28.515  29.923  1.00  0.00     0.074 A 
ATOM     45  C   UNL A   1      43.976  27.136  29.504  1.00  0.00     0.031 C 
ATOM     46  C   UNL A   1      37.718  29.914  28.638  1.00  0.00     0.029 A 
ATOM     47  C   UNL A   1      38.719  30.783  29.251  1.00  0.00     0.049 A 
ATOM     48  H   UNL A   1      40.703  30.318  29.686  1.00  0.00     0.167 HD
ATOM     49  C   UNL A   1      44.876  29.241  30.443  1.00  0.00     0.031 A 
ATOM     50  C   UNL A   1      38.511  32.055  29.643  1.00  0.00     0.031 A 
ATOM     51  C   UNL A   1      44.759  30.616  30.847  1.00  0.00     0.049 A 
ATOM     52  C   UNL A   1      39.650  32.836  30.236  1.00  0.00     0.074 A 
ATOM     53  C   UNL A   1      45.744  31.451  31.346  1.00  0.00     0.029 A 
ATOM     54  N   UNL A   1      43.591  31.359  30.794  1.00  0.00    -0.354 N 
ATOM     55  N   UNL A   1      40.891  32.460  30.429  1.00  0.00    -0.248 NA
ATOM     56  C   UNL A   1      39.364  34.215  30.659  1.00  0.00     0.031 C 
ATOM     57  C   UNL A   1      45.160  32.688  31.633  1.00  0.00     0.029 A 
ATOM     58  C   UNL A   1      43.823  32.638  31.270  1.00  0.00     0.049 A 
ATOM     59  H   UNL A   1      42.724  31.027  30.467  1.00  0.00     0.167 HD
ATOM     60  C   UNL A   1      41.539  33.560  30.976  1.00  0.00     0.074 A 
ATOM     61  C   UNL A   1      40.557  34.620  31.076  1.00  0.00     0.031 C 
ATOM     62  C   UNL A   1      42.834  33.680  31.360  1.00  0.00     0.031 A 
BRANCH  49  63
ATOM     63  C   UNL A   1      46.209  28.563  30.591  1.00  0.00    -0.014 A 
ATOM     64  C   UNL A   1      47.215  28.739  29.622  1.00  0.00     0.010 A 
ATOM     65  C   UNL A   1      46.480  27.777  31.725  1.00  0.00     0.010 A 
ATOM     66  C   UNL A   1      48.454  28.111  29.767  1.00  0.00     0.020 A 
ATOM     67  C   UNL A   1      47.727  27.167  31.886  1.00  0.00     0.020 A 
ATOM     68  C   UNL A   1      48.702  27.326  30.898  1.00  0.00     0.054 A 
BRANCH  68  69
ATOM     69  S   UNL A   1      50.327  26.541  31.069  1.00  0.00     0.124 S 
ATOM     70  O   UNL A   1      50.095  25.607  32.169  1.00  0.00    -0.237 OA
ATOM     71  O   UNL A   1      50.527  25.928  29.758  1.00  0.00    -0.237 OA
ATOM     72  O   UNL A   1      51.220  27.654  31.377  1.00  0.00    -0.744 OA
ENDBRANCH  68  69
ENDBRANCH  49  63
BRANCH  50  73
ATOM     73  C   UNL A   1      37.175  32.679  29.447  1.00  0.00    -0.014 A 
ATOM     74  C   UNL A   1      36.257  32.732  30.510  1.00  0.00     0.010 A 
ATOM     75  C   UNL A   1      36.828  33.256  28.212  1.00  0.00     0.010 A 
ATOM     76  C   UNL A   1      35.012  33.346  30.342  1.00  0.00     0.020 A 
ATOM     77  C   UNL A   1      35.592  33.887  28.045  1.00  0.00     0.020 A 
ATOM     78  C   UNL A   1      34.689  33.923  29.110  1.00  0.00     0.054 A 
BRANCH  78  79
ATOM     79  S   UNL A   1      33.094  34.770  28.935  1.00  0.00     0.124 S 
ATOM     80  O   UNL A   1      32.587  34.749  30.304  1.00  0.00    -0.237 OA
ATOM     81  O   UNL A   1      33.489  36.082  28.426  1.00  0.00    -0.237 OA
ATOM     82  O   UNL A   1      32.366  33.934  27.983  1.00  0.00    -0.744 OA
ENDBRANCH  78  79
ENDBRANCH  50  73
BRANCH  62  83
ATOM     83  C   UNL A   1      43.282  35.004  31.914  1.00  0.00    -0.014 A 
ATOM     84  C   UNL A   1      43.952  35.933  31.101  1.00  0.00     0.010 A 
ATOM     85  C   UNL A   1      42.923  35.365  33.225  1.00  0.00     0.010 A 
ATOM     86  C   UNL A   1      44.255  37.206  31.591  1.00  0.00     0.020 A 
ATOM     87  C   UNL A   1      43.207  36.645  33.712  1.00  0.00     0.020 A 
ATOM     88  C   UNL A   1      43.873  37.556  32.890  1.00  0.00     0.054 A 
BRANCH  88  89
ATOM     89  S   UNL A   1      44.193  39.247  33.465  1.00  0.00     0.124 S 
ATOM     90  O   UNL A   1      44.721  39.883  32.261  1.00  0.00    -0.237 OA
ATOM     91  O   UNL A   1      42.868  39.698  33.884  1.00  0.00    -0.237 OA
ATOM     92  O   UNL A   1      45.156  39.069  34.549  1.00  0.00    -0.744 OA
ENDBRANCH  88  89
ENDBRANCH  62  83
ENDBRANCH  36  37
ENDBRANCH  28  31
ENDBRANCH  26  27
ENDBRANCH  25  26
ENDBRANCH   1  25
TORSDOF 17
ENDMDL
MODEL 2
REMARK VINA RESULT:     -11.0      1.689      2.103
REMARK SMILES Cc1cc(Br)cc2c1O[C@H](C(F)(F)F)C(C(=O)NCCCCCCNC(=O)c1ccc(-c3c4nc(c(-c5ccc(S(=O)(=O)[O-])cc5)c5ccc([nH]5)c(-c5ccc(S(=O)(=O)[O-])cc5)c5nc(c(-c6ccc(S(=O)(=O)[O-])cc6)c6ccc3[nH]6)C=C5)C=C4)cc1)=C2
REMARK SMILES IDX 22 1 21 2 20 3 19 4 18 5 16 6 17 7 15 9 1 10 2 11 3 12 8 13
REMARK SMILES IDX 4 14 7 15 9 16 5 17 6 18 88 19 10 20 11 21 12 22 13 23 14 24
REMARK SMILES IDX 23 25 24 26 25 27 26 28 27 30 28 31 29 32 87 33 30 34 86 35
REMARK SMILES IDX 31 36 32 37 33 38 80 39 34 40 85 41 79 42 81 43 35 44 84 45
REMARK SMILES IDX 78 46 77 47 36 49 66 50 47 51 65 52 48 53 51 54 64 55 82 56
REMARK SMILES IDX 49 57 50 58 63 60 83 61 52 62 37 63 38 64 46 65 39 66 45 67
REMARK SMILES IDX 40 68 41 69 42 70 43 71 44 72 67 73 68 74 76 75 69 76 75 77
REMARK SMILES IDX 70 78 71 79 72 80 73 81 74 82 53 83 54 84 62 85 55 86 61 87
REMARK SMILES IDX 56 88 57 89 58 90 59 91 60 92
REMARK H PARENT 18 8 25 29 81 48 51 59
REMARK Flexibility Score: inf
ROOT
ATOM      1  C   UNL A   1      35.294  21.739  25.287  1.00  0.00     0.002 C 
ENDROOT
BRANCH   1   2
ATOM      2  C   UNL A   1      33.921  21.595  25.959  1.00  0.00     0.002 C 
BRANCH   2   3
ATOM      3  C   UNL A   1      33.619  22.607  27.069  1.00  0.00     0.021 C 
BRANCH   3   4
ATOM      4  C   UNL A   1      32.276  23.317  26.918  1.00  0.00     0.116 C 
BRANCH   4   5
ATOM      5  N   UNL A   1      31.735  23.168  25.577  1.00  0.00    -0.352 N 
ATOM      6  C   UNL A   1      31.309  23.980  24.584  1.00  0.00     0.251 C 
ATOM      7  O   UNL A   1      30.931  23.398  23.561  1.00  0.00    -0.270 OA
ATOM      8  H   UNL A   1      31.659  22.219  25.325  1.00  0.00     0.163 HD
BRANCH   6   9
ATOM      9  C   UNL A   1      31.265  25.474  24.638  1.00  0.00     0.067 C 
ATOM     10  C   UNL A   1      31.622  30.514  25.725  1.00  0.00     0.048 C 
ATOM     11  C   UNL A   1      30.853  29.669  24.748  1.00  0.00    -0.007 A 
ATOM     12  C   UNL A   1      30.046  30.296  23.788  1.00  0.00     0.023 A 
ATOM     13  C   UNL A   1      30.964  28.271  24.728  1.00  0.00     0.130 A 
ATOM     14  C   UNL A   1      29.345  29.533  22.854  1.00  0.00     0.019 A 
ATOM     15  C   UNL A   1      30.256  27.505  23.797  1.00  0.00     0.019 A 
ATOM     16  O   UNL A   1      31.747  27.693  25.684  1.00  0.00    -0.475 OA
ATOM     17  Br  UNL A   1      28.249  30.394  21.577  1.00  0.00    -0.051 Br
ATOM     18  C   UNL A   1      29.441  28.142  22.856  1.00  0.00     0.027 A 
ATOM     19  C   UNL A   1      30.348  26.051  23.840  1.00  0.00     0.025 C 
ATOM     20  C   UNL A   1      32.186  26.327  25.464  1.00  0.00     0.314 C 
BRANCH  20  21
ATOM     21  C   UNL A   1      33.627  26.346  24.925  1.00  0.00     0.429 C 
ATOM     22  F   UNL A   1      33.713  25.638  23.773  1.00  0.00    -0.167 F 
ATOM     23  F   UNL A   1      34.058  27.597  24.640  1.00  0.00    -0.167 F 
ATOM     24  F   UNL A   1      34.511  25.814  25.800  1.00  0.00    -0.167 F 
ENDBRANCH  20  21
ENDBRANCH   6   9
ENDBRANCH   4   5
ENDBRANCH   3   4
ENDBRANCH   2   3
ENDBRANCH   1   2
BRANCH   1  25
ATOM     25  C   UNL A   1      35.589  23.105  24.662  1.00  0.00     0.021 C 
BRANCH  25  26
ATOM     26  C   UNL A   1      36.944  23.701  25.028  1.00  0.00     0.116 C 
BRANCH  26  27
ATOM     27  N   UNL A   1      37.909  22.680  25.398  1.00  0.00    -0.352 N 
ATOM     28  C   UNL A   1      39.090  22.817  26.087  1.00  0.00     0.251 C 
ATOM     29  H   UNL A   1      37.686  21.764  25.117  1.00  0.00     0.163 HD
ATOM     30  O   UNL A   1      39.874  21.876  26.159  1.00  0.00    -0.269 OA
BRANCH  28  31
ATOM     31  C   UNL A   1      39.418  24.110  26.723  1.00  0.00     0.039 A 
ATOM     32  C   UNL A   1      39.010  24.338  28.038  1.00  0.00     0.014 A 
ATOM     33  C   UNL A   1      40.134  25.088  26.024  1.00  0.00     0.014 A 
ATOM     34  C   UNL A   1      39.367  25.529  28.672  1.00  0.00     0.010 A 
ATOM     35  C   UNL A   1      40.542  26.247  26.679  1.00  0.00     0.010 A 
ATOM     36  C   UNL A   1      40.159  26.480  28.008  1.00  0.00    -0.014 A 
BRANCH  36  37
ATOM     37  C   UNL A   1      40.584  27.725  28.694  1.00  0.00     0.031 A 
ATOM     38  C   UNL A   1      41.978  27.847  29.242  1.00  0.00     0.074 A 
ATOM     39  C   UNL A   1      39.704  28.735  28.848  1.00  0.00     0.049 A 
ATOM     40  N   UNL A   1      42.531  28.856  29.865  1.00  0.00    -0.248 NA
ATOM     41  C   UNL A   1      42.862  26.680  29.086  1.00  0.00     0.031 C 
ATOM     42  C   UNL A   1      38.312  28.721  28.390  1.00  0.00     0.029 A 
ATOM     43  N   UNL A   1      39.851  29.972  29.424  1.00  0.00    -0.354 N 
ATOM     44  C   UNL A   1      43.822  28.447  30.175  1.00  0.00     0.074 A 
ATOM     45  C   UNL A   1      43.954  27.079  29.722  1.00  0.00     0.031 C 
ATOM     46  C   UNL A   1      37.747  29.908  28.665  1.00  0.00     0.029 A 
ATOM     47  C   UNL A   1      38.723  30.755  29.346  1.00  0.00     0.049 A 
ATOM     48  H   UNL A   1      40.685  30.269  29.853  1.00  0.00     0.167 HD
ATOM     49  C   UNL A   1      44.818  29.154  30.759  1.00  0.00     0.031 A 
ATOM     50  C   UNL A   1      38.502  32.016  29.764  1.00  0.00     0.031 A 
ATOM     51  C   UNL A   1      44.688  30.517  31.197  1.00  0.00     0.049 A 
ATOM     52  C   UNL A   1      39.617  32.776  30.428  1.00  0.00     0.074 A 
ATOM     53  C   UNL A   1      45.653  31.333  31.761  1.00  0.00     0.029 A 
ATOM     54  N   UNL A   1      43.525  31.266  31.114  1.00  0.00    -0.354 N 
ATOM     55  N   UNL A   1      40.847  32.388  30.664  1.00  0.00    -0.248 NA
ATOM     56  C   UNL A   1      39.317  34.142  30.877  1.00  0.00     0.031 C 
ATOM     57  C   UNL A   1      45.060  32.564  32.058  1.00  0.00     0.029 A 
ATOM     58  C   UNL A   1      43.741  32.530  31.636  1.00  0.00     0.049 A 
ATOM     59  H   UNL A   1      42.673  30.947  30.741  1.00  0.00     0.167 HD
ATOM     60  C   UNL A   1      41.475  33.470  31.270  1.00  0.00     0.074 A 
ATOM     61  C   UNL A   1      40.492  34.531  31.357  1.00  0.00     0.031 C 
ATOM     62  C   UNL A   1      42.752  33.574  31.713  1.00  0.00     0.031 A 
BRANCH  49  63
ATOM     63  C   UNL A   1      46.142  28.465  30.945  1.00  0.00    -0.014 A 
ATOM     64  C   UNL A   1      47.117  28.500  29.931  1.00  0.00     0.010 A 
ATOM     65  C   UNL A   1      46.435  27.814  32.157  1.00  0.00     0.010 A 
ATOM     66  C   UNL A   1      48.347  27.864  30.112  1.00  0.00     0.020 A 
ATOM     67  C   UNL A   1      47.675  27.198  32.351  1.00  0.00     0.020 A 
ATOM     68  C   UNL A   1      48.617  27.214  31.320  1.00  0.00     0.054 A 
BRANCH  68  69
ATOM     69  S   UNL A   1      50.232  26.416  31.534  1.00  0.00     0.124 S 
ATOM     70  O   UNL A   1      50.147  25.308  30.585  1.00  0.00    -0.237 OA
ATOM     71  O   UNL A   1      51.165  27.480  31.173  1.00  0.00    -0.237 OA
ATOM     72  O   UNL A   1      50.245  26.029  32.941  1.00  0.00    -0.744 OA
ENDBRANCH  68  69
ENDBRANCH  49  63
BRANCH  50  73
ATOM     73  C   UNL A   1      37.178  32.651  29.528  1.00  0.00    -0.014 A 
ATOM     74  C   UNL A   1      36.239  32.735  30.570  1.00  0.00     0.010 A 
ATOM     75  C   UNL A   1      36.863  33.208  28.275  1.00  0.00     0.010 A 
ATOM     76  C   UNL A   1      35.005  33.359  30.364  1.00  0.00     0.020 A 
ATOM     77  C   UNL A   1      35.639  33.850  28.070  1.00  0.00     0.020 A 
ATOM     78  C   UNL A   1      34.714  33.916  29.115  1.00  0.00     0.054 A 
BRANCH  78  79
ATOM     79  S   UNL A   1      33.133  34.778  28.890  1.00  0.00     0.124 S 
ATOM     80  O   UNL A   1      32.466  33.935  27.902  1.00  0.00    -0.237 OA
ATOM     81  O   UNL A   1      32.565  34.748  30.236  1.00  0.00    -0.237 OA
ATOM     82  O   UNL A   1      33.531  36.103  28.419  1.00  0.00    -0.744 OA
ENDBRANCH  78  79
ENDBRANCH  50  73
BRANCH  62  83
ATOM     83  C   UNL A   1      43.179  34.879  32.323  1.00  0.00    -0.014 A 
ATOM     84  C   UNL A   1      43.731  35.897  31.527  1.00  0.00     0.010 A 
ATOM     85  C   UNL A   1      42.916  35.130  33.682  1.00  0.00     0.010 A 
ATOM     86  C   UNL A   1      44.011  37.148  32.082  1.00  0.00     0.020 A 
ATOM     87  C   UNL A   1      43.177  36.387  34.235  1.00  0.00     0.020 A 
ATOM     88  C   UNL A   1      43.725  37.387  33.430  1.00  0.00     0.054 A 
BRANCH  88  89
ATOM     89  S   UNL A   1      44.008  39.050  34.098  1.00  0.00     0.124 S 
ATOM     90  O   UNL A   1      42.816  39.765  33.651  1.00  0.00    -0.237 OA
ATOM     91  O   UNL A   1      44.091  38.806  35.537  1.00  0.00    -0.237 OA
ATOM     92  O   UNL A   1      45.259  39.468  33.471  1.00  0.00    -0.744 OA
ENDBRANCH  88  89
ENDBRANCH  62  83
ENDBRANCH  36  37
ENDBRANCH  28  31
ENDBRANCH  26  27
ENDBRANCH  25  26
ENDBRANCH   1  25
TORSDOF 17
ENDMDL
MODEL 3
REMARK VINA RESULT:     -11.0      2.961      9.241
REMARK SMILES Cc1cc(Br)cc2c1O[C@H](C(F)(F)F)C(C(=O)NCCCCCCNC(=O)c1ccc(-c3c4nc(c(-c5ccc(S(=O)(=O)[O-])cc5)c5ccc([nH]5)c(-c5ccc(S(=O)(=O)[O-])cc5)c5nc(c(-c6ccc(S(=O)(=O)[O-])cc6)c6ccc3[nH]6)C=C5)C=C4)cc1)=C2
REMARK SMILES IDX 22 1 21 2 20 3 19 4 18 5 16 6 17 7 15 9 1 10 2 11 3 12 8 13
REMARK SMILES IDX 4 14 7 15 9 16 5 17 6 18 88 19 10 20 11 21 12 22 13 23 14 24
REMARK SMILES IDX 23 25 24 26 25 27 26 28 27 30 28 31 29 32 87 33 30 34 86 35
REMARK SMILES IDX 31 36 32 37 33 38 80 39 34 40 85 41 79 42 81 43 35 44 84 45
REMARK SMILES IDX 78 46 77 47 36 49 66 50 47 51 65 52 48 53 51 54 64 55 82 56
REMARK SMILES IDX 49 57 50 58 63 60 83 61 52 62 37 63 38 64 46 65 39 66 45 67
REMARK SMILES IDX 40 68 41 69 42 70 43 71 44 72 67 73 68 74 76 75 69 76 75 77
REMARK SMILES IDX 70 78 71 79 72 80 73 81 74 82 53 83 54 84 62 85 55 86 61 87
REMARK SMILES IDX 56 88 57 89 58 90 59 91 60 92
REMARK H PARENT 18 8 25 29 81 48 51 59
REMARK Flexibility Score: inf
ROOT
ATOM      1  C   UNL A   1      31.764  28.046  25.759  1.00  0.00     0.002 C 
ENDROOT
BRANCH   1   2
ATOM      2  C   UNL A   1      31.532  27.879  24.251  1.00  0.00     0.002 C 
BRANCH   2   3
ATOM      3  C   UNL A   1      32.381  28.779  23.348  1.00  0.00     0.021 C 
BRANCH   3   4
ATOM      4  C   UNL A   1      33.616  28.094  22.768  1.00  0.00     0.116 C 
BRANCH   4   5
ATOM      5  N   UNL A   1      33.261  27.064  21.807  1.00  0.00    -0.352 N 
ATOM      6  C   UNL A   1      33.104  25.722  21.804  1.00  0.00     0.251 C 
ATOM      7  O   UNL A   1      32.760  25.239  20.718  1.00  0.00    -0.270 OA
ATOM      8  H   UNL A   1      33.087  27.449  20.917  1.00  0.00     0.163 HD
BRANCH   6   9
ATOM      9  C   UNL A   1      33.311  24.818  22.977  1.00  0.00     0.067 C 
ATOM     10  C   UNL A   1      33.303  22.289  27.484  1.00  0.00     0.048 C 
ATOM     11  C   UNL A   1      34.181  22.325  26.265  1.00  0.00    -0.007 A 
ATOM     12  C   UNL A   1      35.269  21.443  26.178  1.00  0.00     0.023 A 
ATOM     13  C   UNL A   1      33.913  23.175  25.181  1.00  0.00     0.130 A 
ATOM     14  C   UNL A   1      36.080  21.440  25.043  1.00  0.00     0.019 A 
ATOM     15  C   UNL A   1      34.731  23.177  24.048  1.00  0.00     0.019 A 
ATOM     16  O   UNL A   1      32.856  24.028  25.306  1.00  0.00    -0.475 OA
ATOM     17  Br  UNL A   1      37.550  20.255  24.950  1.00  0.00    -0.051 Br
ATOM     18  C   UNL A   1      35.821  22.305  23.981  1.00  0.00     0.027 A 
ATOM     19  C   UNL A   1      34.459  24.114  22.964  1.00  0.00     0.025 C 
ATOM     20  C   UNL A   1      32.325  24.627  24.095  1.00  0.00     0.314 C 
BRANCH  20  21
ATOM     21  C   UNL A   1      31.073  23.846  23.660  1.00  0.00     0.429 C 
ATOM     22  F   UNL A   1      30.503  23.230  24.725  1.00  0.00    -0.167 F 
ATOM     23  F   UNL A   1      30.121  24.647  23.125  1.00  0.00    -0.167 F 
ATOM     24  F   UNL A   1      31.352  22.895  22.739  1.00  0.00    -0.167 F 
ENDBRANCH  20  21
ENDBRANCH   6   9
ENDBRANCH   4   5
ENDBRANCH   3   4
ENDBRANCH   2   3
ENDBRANCH   1   2
BRANCH   1  25
ATOM     25  C   UNL A   1      33.002  27.345  26.323  1.00  0.00     0.021 C 
BRANCH  25  26
ATOM     26  C   UNL A   1      34.217  28.245  26.522  1.00  0.00     0.116 C 
BRANCH  26  27
ATOM     27  N   UNL A   1      33.846  29.576  26.970  1.00  0.00    -0.352 N 
ATOM     28  C   UNL A   1      34.538  30.438  27.785  1.00  0.00     0.251 C 
ATOM     29  H   UNL A   1      32.978  29.906  26.644  1.00  0.00     0.163 HD
ATOM     30  O   UNL A   1      33.997  31.454  28.209  1.00  0.00    -0.269 OA
BRANCH  28  31
ATOM     31  C   UNL A   1      35.931  30.122  28.165  1.00  0.00     0.039 A 
ATOM     32  C   UNL A   1      36.197  29.707  29.470  1.00  0.00     0.014 A 
ATOM     33  C   UNL A   1      36.968  30.230  27.232  1.00  0.00     0.014 A 
ATOM     34  C   UNL A   1      37.497  29.345  29.827  1.00  0.00     0.010 A 
ATOM     35  C   UNL A   1      38.252  29.810  27.571  1.00  0.00     0.010 A 
ATOM     36  C   UNL A   1      38.529  29.368  28.873  1.00  0.00    -0.014 A 
BRANCH  36  37
ATOM     37  C   UNL A   1      39.903  28.937  29.232  1.00  0.00     0.031 A 
ATOM     38  C   UNL A   1      40.806  29.859  30.003  1.00  0.00     0.074 A 
ATOM     39  C   UNL A   1      40.345  27.726  28.838  1.00  0.00     0.049 A 
ATOM     40  N   UNL A   1      42.031  29.655  30.411  1.00  0.00    -0.248 NA
ATOM     41  C   UNL A   1      40.270  31.187  30.346  1.00  0.00     0.031 C 
ATOM     42  C   UNL A   1      39.574  26.757  28.056  1.00  0.00     0.029 A 
ATOM     43  N   UNL A   1      41.548  27.099  29.050  1.00  0.00    -0.354 N 
ATOM     44  C   UNL A   1      42.414  30.825  31.056  1.00  0.00     0.074 A 
ATOM     45  C   UNL A   1      41.311  31.755  30.937  1.00  0.00     0.031 C 
ATOM     46  C   UNL A   1      40.307  25.644  27.890  1.00  0.00     0.029 A 
ATOM     47  C   UNL A   1      41.609  25.830  28.525  1.00  0.00     0.049 A 
ATOM     48  H   UNL A   1      42.296  27.520  29.532  1.00  0.00     0.167 HD
ATOM     49  C   UNL A   1      43.567  31.094  31.713  1.00  0.00     0.031 A 
ATOM     50  C   UNL A   1      42.596  24.914  28.560  1.00  0.00     0.031 A 
ATOM     51  C   UNL A   1      44.656  30.164  31.841  1.00  0.00     0.049 A 
ATOM     52  C   UNL A   1      43.876  25.241  29.278  1.00  0.00     0.074 A 
ATOM     53  C   UNL A   1      45.849  30.327  32.522  1.00  0.00     0.029 A 
ATOM     54  N   UNL A   1      44.683  28.897  31.280  1.00  0.00    -0.354 N 
ATOM     55  N   UNL A   1      44.196  26.334  29.927  1.00  0.00    -0.248 NA
ATOM     56  C   UNL A   1      44.925  24.212  29.273  1.00  0.00     0.031 C 
ATOM     57  C   UNL A   1      46.616  29.173  32.339  1.00  0.00     0.029 A 
ATOM     58  C   UNL A   1      45.881  28.274  31.582  1.00  0.00     0.049 A 
ATOM     59  H   UNL A   1      43.959  28.500  30.745  1.00  0.00     0.167 HD
ATOM     60  C   UNL A   1      45.475  26.117  30.426  1.00  0.00     0.074 A 
ATOM     61  C   UNL A   1      45.867  24.785  30.012  1.00  0.00     0.031 C 
ATOM     62  C   UNL A   1      46.253  26.947  31.163  1.00  0.00     0.031 A 
BRANCH  49  63
ATOM     63  C   UNL A   1      43.702  32.446  32.356  1.00  0.00    -0.014 A 
ATOM     64  C   UNL A   1      43.297  32.651  33.688  1.00  0.00     0.010 A 
ATOM     65  C   UNL A   1      44.275  33.513  31.642  1.00  0.00     0.010 A 
ATOM     66  C   UNL A   1      43.430  33.907  34.283  1.00  0.00     0.020 A 
ATOM     67  C   UNL A   1      44.433  34.766  32.242  1.00  0.00     0.020 A 
ATOM     68  C   UNL A   1      43.995  34.959  33.554  1.00  0.00     0.054 A 
BRANCH  68  69
ATOM     69  S   UNL A   1      44.175  36.574  34.359  1.00  0.00     0.124 S 
ATOM     70  O   UNL A   1      43.002  37.290  33.862  1.00  0.00    -0.237 OA
ATOM     71  O   UNL A   1      44.143  36.229  35.779  1.00  0.00    -0.237 OA
ATOM     72  O   UNL A   1      45.459  37.066  33.869  1.00  0.00    -0.744 OA
ENDBRANCH  68  69
ENDBRANCH  49  63
BRANCH  50  73
ATOM     73  C   UNL A   1      42.393  23.584  27.927  1.00  0.00    -0.014 A 
ATOM     74  C   UNL A   1      43.034  23.273  26.715  1.00  0.00     0.010 A 
ATOM     75  C   UNL A   1      41.589  22.610  28.547  1.00  0.00     0.010 A 
ATOM     76  C   UNL A   1      42.872  22.012  26.131  1.00  0.00     0.020 A 
ATOM     77  C   UNL A   1      41.441  21.343  27.977  1.00  0.00     0.020 A 
ATOM     78  C   UNL A   1      42.079  21.054  26.768  1.00  0.00     0.054 A 
BRANCH  78  79
ATOM     79  S   UNL A   1      41.936  19.405  26.025  1.00  0.00     0.124 S 
ATOM     80  O   UNL A   1      40.505  19.319  25.749  1.00  0.00    -0.237 OA
ATOM     81  O   UNL A   1      42.802  19.512  24.853  1.00  0.00    -0.237 OA
ATOM     82  O   UNL A   1      42.428  18.514  27.073  1.00  0.00    -0.744 OA
ENDBRANCH  78  79
ENDBRANCH  50  73
BRANCH  62  83
ATOM     83  C   UNL A   1      47.606  26.448  31.588  1.00  0.00    -0.014 A 
ATOM     84  C   UNL A   1      47.804  25.916  32.873  1.00  0.00     0.010 A 
ATOM     85  C   UNL A   1      48.655  26.404  30.653  1.00  0.00     0.010 A 
ATOM     86  C   UNL A   1      49.032  25.345  33.215  1.00  0.00     0.020 A 
ATOM     87  C   UNL A   1      49.878  25.815  30.985  1.00  0.00     0.020 A 
ATOM     88  C   UNL A   1      50.058  25.290  32.267  1.00  0.00     0.054 A 
BRANCH  88  89
ATOM     89  S   UNL A   1      51.607  24.456  32.708  1.00  0.00     0.124 S 
ATOM     90  O   UNL A   1      51.642  24.624  34.158  1.00  0.00    -0.237 OA
ATOM     91  O   UNL A   1      51.379  23.091  32.240  1.00  0.00    -0.237 OA
ATOM     92  O   UNL A   1      52.625  25.199  31.970  1.00  0.00    -0.744 OA
ENDBRANCH  88  89
ENDBRANCH  62  83
ENDBRANCH  36  37
ENDBRANCH  28  31
ENDBRANCH  26  27
ENDBRANCH  25  26
ENDBRANCH   1  25
TORSDOF 17
ENDMDL
