MODEL 1
REMARK VINA RESULT:     -10.3      0.000      0.000
REMARK SMILES CC[C@](C)(NC(=O)Cc1cccc(F)c1)C(=O)NCCCCCCNC(=O)c1ccc(-c2c3nc(c(-c4ccc(S(=O)(=O)[O-])cc4)c4ccc([nH]4)c(-c4ccc(S(=O)(=O)[O-])cc4)c4nc(c(-c5ccc(S(=O)(=O)[O-])cc5)c5ccc2[nH]5)C=C4)C=C3)cc1
REMARK SMILES IDX 21 1 20 2 19 3 18 4 16 5 17 6 3 8 4 9 2 10 1 11 5 12 6 13
REMARK SMILES IDX 7 15 8 16 9 17 10 18 15 19 11 20 13 21 12 22 14 23 22 24
REMARK SMILES IDX 23 25 24 26 25 27 26 28 27 30 28 31 29 32 87 33 30 34 86 35
REMARK SMILES IDX 31 36 32 37 33 38 80 39 34 40 85 41 79 42 81 43 35 44 84 45
REMARK SMILES IDX 78 46 77 47 36 49 66 50 47 51 65 52 48 53 51 54 64 55 82 56
REMARK SMILES IDX 49 57 50 58 63 60 83 61 52 62 37 63 38 64 46 65 39 66 45 67
REMARK SMILES IDX 40 68 41 69 42 70 43 71 44 72 67 73 68 74 76 75 69 76 75 77
REMARK SMILES IDX 70 78 71 79 72 80 73 81 74 82 53 83 54 84 62 85 55 86 61 87
REMARK SMILES IDX 56 88 57 89 58 90 59 91 60 92
REMARK H PARENT 18 7 5 14 25 29 81 48 51 59
REMARK Flexibility Score: inf
ROOT
ATOM      1  C   UNL A   1      30.841  28.486  23.880  1.00  0.00     0.002 C 
ENDROOT
BRANCH   1   2
ATOM      2  C   UNL A   1      29.868  27.305  23.841  1.00  0.00     0.021 C 
BRANCH   2   3
ATOM      3  C   UNL A   1      30.443  26.011  23.270  1.00  0.00     0.116 C 
BRANCH   3   4
ATOM      4  N   UNL A   1      31.627  26.211  22.448  1.00  0.00    -0.354 N 
ATOM      5  C   UNL A   1      32.886  25.682  22.534  1.00  0.00     0.245 C 
ATOM      6  O   UNL A   1      33.652  25.917  21.597  1.00  0.00    -0.272 OA
ATOM      7  H   UNL A   1      31.501  26.838  21.699  1.00  0.00     0.163 HD
BRANCH   5   8
ATOM      8  C   UNL A   1      33.266  24.704  23.688  1.00  0.00     0.116 C 
ATOM      9  C   UNL A   1      34.394  25.176  24.630  1.00  0.00     0.045 C 
BRANCH   8  10
ATOM     10  C   UNL A   1      33.808  23.427  22.961  1.00  0.00     0.035 C 
ATOM     11  C   UNL A   1      35.320  23.221  23.124  1.00  0.00     0.007 C 
ENDBRANCH   8  10
BRANCH   8  12
ATOM     12  N   UNL A   1      32.090  24.402  24.540  1.00  0.00    -0.342 N 
ATOM     13  C   UNL A   1      31.823  23.270  25.278  1.00  0.00     0.225 C 
ATOM     14  H   UNL A   1      31.404  25.107  24.583  1.00  0.00     0.164 HD
ATOM     15  O   UNL A   1      30.634  22.972  25.426  1.00  0.00    -0.275 OA
BRANCH  13  16
ATOM     16  C   UNL A   1      32.910  22.496  26.028  1.00  0.00     0.135 C 
BRANCH  16  17
ATOM     17  C   UNL A   1      33.337  21.138  25.517  1.00  0.00    -0.036 A 
ATOM     18  C   UNL A   1      34.685  20.750  25.538  1.00  0.00     0.004 A 
ATOM     19  C   UNL A   1      32.436  20.286  24.871  1.00  0.00     0.043 A 
ATOM     20  C   UNL A   1      35.097  19.539  24.962  1.00  0.00     0.003 A 
ATOM     21  C   UNL A   1      32.837  19.067  24.341  1.00  0.00     0.123 A 
ATOM     22  C   UNL A   1      34.165  18.685  24.376  1.00  0.00     0.039 A 
ATOM     23  F   UNL A   1      31.925  18.269  23.770  1.00  0.00    -0.207 F 
ENDBRANCH  16  17
ENDBRANCH  13  16
ENDBRANCH   8  12
ENDBRANCH   5   8
ENDBRANCH   3   4
ENDBRANCH   2   3
ENDBRANCH   1   2
BRANCH   1  24
ATOM     24  C   UNL A   1      31.567  28.680  25.214  1.00  0.00     0.002 C 
BRANCH  24  25
ATOM     25  C   UNL A   1      33.093  28.623  25.131  1.00  0.00     0.021 C 
BRANCH  25  26
ATOM     26  C   UNL A   1      33.804  28.775  26.469  1.00  0.00     0.116 C 
BRANCH  26  27
ATOM     27  N   UNL A   1      33.717  30.134  26.978  1.00  0.00    -0.352 N 
ATOM     28  C   UNL A   1      34.577  30.783  27.829  1.00  0.00     0.251 C 
ATOM     29  H   UNL A   1      32.941  30.657  26.672  1.00  0.00     0.163 HD
ATOM     30  O   UNL A   1      34.258  31.854  28.337  1.00  0.00    -0.269 OA
BRANCH  28  31
ATOM     31  C   UNL A   1      35.879  30.161  28.144  1.00  0.00     0.039 A 
ATOM     32  C   UNL A   1      36.902  30.208  27.196  1.00  0.00     0.014 A 
ATOM     33  C   UNL A   1      36.097  29.575  29.395  1.00  0.00     0.014 A 
ATOM     34  C   UNL A   1      38.169  29.726  27.529  1.00  0.00     0.010 A 
ATOM     35  C   UNL A   1      37.379  29.166  29.750  1.00  0.00     0.010 A 
ATOM     36  C   UNL A   1      38.428  29.239  28.822  1.00  0.00    -0.014 A 
BRANCH  36  37
ATOM     37  C   UNL A   1      39.797  28.830  29.228  1.00  0.00     0.031 A 
ATOM     38  C   UNL A   1      40.706  29.804  29.924  1.00  0.00     0.074 A 
ATOM     39  C   UNL A   1      40.244  27.601  28.905  1.00  0.00     0.049 A 
ATOM     40  N   UNL A   1      41.948  29.644  30.303  1.00  0.00    -0.248 NA
ATOM     41  C   UNL A   1      40.157  31.139  30.206  1.00  0.00     0.031 C 
ATOM     42  C   UNL A   1      39.474  26.581  28.187  1.00  0.00     0.029 A 
ATOM     43  N   UNL A   1      41.458  27.001  29.129  1.00  0.00    -0.354 N 
ATOM     44  C   UNL A   1      42.331  30.857  30.863  1.00  0.00     0.074 A 
ATOM     45  C   UNL A   1      41.209  31.760  30.718  1.00  0.00     0.031 C 
ATOM     46  C   UNL A   1      40.228  25.481  28.044  1.00  0.00     0.029 A 
ATOM     47  C   UNL A   1      41.547  25.728  28.618  1.00  0.00     0.049 A 
ATOM     48  H   UNL A   1      42.196  27.442  29.609  1.00  0.00     0.167 HD
ATOM     49  C   UNL A   1      43.501  31.184  31.462  1.00  0.00     0.031 A 
ATOM     50  C   UNL A   1      42.577  24.860  28.594  1.00  0.00     0.031 A 
ATOM     51  C   UNL A   1      44.618  30.285  31.589  1.00  0.00     0.049 A 
ATOM     52  C   UNL A   1      43.879  25.250  29.237  1.00  0.00     0.074 A 
ATOM     53  C   UNL A   1      45.831  30.504  32.218  1.00  0.00     0.029 A 
ATOM     54  N   UNL A   1      44.667  29.002  31.065  1.00  0.00    -0.354 N 
ATOM     55  N   UNL A   1      44.196  26.376  29.832  1.00  0.00    -0.248 NA
ATOM     56  C   UNL A   1      44.956  24.253  29.215  1.00  0.00     0.031 C 
ATOM     57  C   UNL A   1      46.636  29.377  32.018  1.00  0.00     0.029 A 
ATOM     58  C   UNL A   1      45.900  28.428  31.325  1.00  0.00     0.049 A 
ATOM     59  H   UNL A   1      43.932  28.563  30.579  1.00  0.00     0.167 HD
ATOM     60  C   UNL A   1      45.506  26.217  30.270  1.00  0.00     0.074 A 
ATOM     61  C   UNL A   1      45.913  24.879  29.889  1.00  0.00     0.031 C 
ATOM     62  C   UNL A   1      46.299  27.100  30.926  1.00  0.00     0.031 A 
BRANCH  49  63
ATOM     63  C   UNL A   1      43.629  32.584  32.009  1.00  0.00    -0.014 A 
ATOM     64  C   UNL A   1      44.113  33.637  31.211  1.00  0.00     0.010 A 
ATOM     65  C   UNL A   1      43.254  32.854  33.338  1.00  0.00     0.010 A 
ATOM     66  C   UNL A   1      44.278  34.916  31.748  1.00  0.00     0.020 A 
ATOM     67  C   UNL A   1      43.386  34.141  33.869  1.00  0.00     0.020 A 
ATOM     68  C   UNL A   1      43.922  35.158  33.077  1.00  0.00     0.054 A 
BRANCH  68  69
ATOM     69  S   UNL A   1      44.160  36.825  33.751  1.00  0.00     0.124 S 
ATOM     70  O   UNL A   1      43.280  36.806  34.917  1.00  0.00    -0.237 OA
ATOM     71  O   UNL A   1      45.590  36.850  34.045  1.00  0.00    -0.237 OA
ATOM     72  O   UNL A   1      43.735  37.703  32.664  1.00  0.00    -0.744 OA
ENDBRANCH  68  69
ENDBRANCH  49  63
BRANCH  50  73
ATOM     73  C   UNL A   1      42.407  23.540  27.925  1.00  0.00    -0.014 A 
ATOM     74  C   UNL A   1      42.773  23.361  26.581  1.00  0.00     0.010 A 
ATOM     75  C   UNL A   1      41.923  22.439  28.656  1.00  0.00     0.010 A 
ATOM     76  C   UNL A   1      42.657  22.103  25.978  1.00  0.00     0.020 A 
ATOM     77  C   UNL A   1      41.833  21.175  28.066  1.00  0.00     0.020 A 
ATOM     78  C   UNL A   1      42.196  21.017  26.728  1.00  0.00     0.054 A 
BRANCH  78  79
ATOM     79  S   UNL A   1      42.135  19.379  25.950  1.00  0.00     0.124 S 
ATOM     80  O   UNL A   1      40.713  19.235  25.655  1.00  0.00    -0.237 OA
ATOM     81  O   UNL A   1      43.009  19.548  24.792  1.00  0.00    -0.237 OA
ATOM     82  O   UNL A   1      42.653  18.489  26.987  1.00  0.00    -0.744 OA
ENDBRANCH  78  79
ENDBRANCH  50  73
BRANCH  62  83
ATOM     83  C   UNL A   1      47.690  26.648  31.288  1.00  0.00    -0.014 A 
ATOM     84  C   UNL A   1      47.949  25.990  32.503  1.00  0.00     0.010 A 
ATOM     85  C   UNL A   1      48.740  26.825  30.368  1.00  0.00     0.010 A 
ATOM     86  C   UNL A   1      49.238  25.539  32.803  1.00  0.00     0.020 A 
ATOM     87  C   UNL A   1      50.023  26.350  30.650  1.00  0.00     0.020 A 
ATOM     88  C   UNL A   1      50.266  25.719  31.872  1.00  0.00     0.054 A 
BRANCH  88  89
ATOM     89  S   UNL A   1      51.916  25.075  32.262  1.00  0.00     0.124 S 
ATOM     90  O   UNL A   1      52.113  25.549  33.629  1.00  0.00    -0.237 OA
ATOM     91  O   UNL A   1      51.738  23.632  32.116  1.00  0.00    -0.237 OA
ATOM     92  O   UNL A   1      52.778  25.696  31.259  1.00  0.00    -0.744 OA
ENDBRANCH  88  89
ENDBRANCH  62  83
ENDBRANCH  36  37
ENDBRANCH  28  31
ENDBRANCH  26  27
ENDBRANCH  25  26
ENDBRANCH  24  25
ENDBRANCH   1  24
TORSDOF 20
ENDMDL
MODEL 2
REMARK VINA RESULT:     -10.1      3.781      9.492
REMARK SMILES CC[C@](C)(NC(=O)Cc1cccc(F)c1)C(=O)NCCCCCCNC(=O)c1ccc(-c2c3nc(c(-c4ccc(S(=O)(=O)[O-])cc4)c4ccc([nH]4)c(-c4ccc(S(=O)(=O)[O-])cc4)c4nc(c(-c5ccc(S(=O)(=O)[O-])cc5)c5ccc2[nH]5)C=C4)C=C3)cc1
REMARK SMILES IDX 21 1 20 2 19 3 18 4 16 5 17 6 3 8 4 9 2 10 1 11 5 12 6 13
REMARK SMILES IDX 7 15 8 16 9 17 10 18 15 19 11 20 13 21 12 22 14 23 22 24
REMARK SMILES IDX 23 25 24 26 25 27 26 28 27 30 28 31 29 32 87 33 30 34 86 35
REMARK SMILES IDX 31 36 32 37 33 38 80 39 34 40 85 41 79 42 81 43 35 44 84 45
REMARK SMILES IDX 78 46 77 47 36 49 66 50 47 51 65 52 48 53 51 54 64 55 82 56
REMARK SMILES IDX 49 57 50 58 63 60 83 61 52 62 37 63 38 64 46 65 39 66 45 67
REMARK SMILES IDX 40 68 41 69 42 70 43 71 44 72 67 73 68 74 76 75 69 76 75 77
REMARK SMILES IDX 70 78 71 79 72 80 73 81 74 82 53 83 54 84 62 85 55 86 61 87
REMARK SMILES IDX 56 88 57 89 58 90 59 91 60 92
REMARK H PARENT 18 7 5 14 25 29 81 48 51 59
REMARK Flexibility Score: inf
ROOT
ATOM      1  C   UNL A   1      37.692  22.683  25.751  1.00  0.00     0.002 C 
ENDROOT
BRANCH   1   2
ATOM      2  C   UNL A   1      36.685  23.824  25.585  1.00  0.00     0.021 C 
BRANCH   2   3
ATOM      3  C   UNL A   1      35.402  23.452  24.845  1.00  0.00     0.116 C 
BRANCH   3   4
ATOM      4  N   UNL A   1      34.196  23.638  25.638  1.00  0.00    -0.354 N 
ATOM      5  C   UNL A   1      32.874  23.654  25.282  1.00  0.00     0.245 C 
ATOM      6  O   UNL A   1      32.052  23.678  26.201  1.00  0.00    -0.272 OA
ATOM      7  H   UNL A   1      34.358  23.778  26.599  1.00  0.00     0.163 HD
BRANCH   5   8
ATOM      8  C   UNL A   1      32.445  23.492  23.792  1.00  0.00     0.116 C 
ATOM      9  C   UNL A   1      30.947  23.712  23.492  1.00  0.00     0.045 C 
BRANCH   8  10
ATOM     10  C   UNL A   1      32.742  21.990  23.457  1.00  0.00     0.035 C 
ATOM     11  C   UNL A   1      32.061  21.501  22.171  1.00  0.00     0.007 C 
ENDBRANCH   8  10
BRANCH   8  12
ATOM     12  N   UNL A   1      33.202  24.417  22.915  1.00  0.00    -0.342 N 
ATOM     13  C   UNL A   1      32.781  25.588  22.322  1.00  0.00     0.225 C 
ATOM     14  H   UNL A   1      34.134  24.160  22.730  1.00  0.00     0.164 HD
ATOM     15  O   UNL A   1      33.304  25.881  21.243  1.00  0.00    -0.275 OA
BRANCH  13  16
ATOM     16  C   UNL A   1      31.843  26.576  23.018  1.00  0.00     0.135 C 
BRANCH  16  17
ATOM     17  C   UNL A   1      32.181  27.061  24.410  1.00  0.00    -0.036 A 
ATOM     18  C   UNL A   1      31.242  26.978  25.450  1.00  0.00     0.004 A 
ATOM     19  C   UNL A   1      33.371  27.744  24.676  1.00  0.00     0.043 A 
ATOM     20  C   UNL A   1      31.512  27.530  26.711  1.00  0.00     0.003 A 
ATOM     21  C   UNL A   1      33.656  28.249  25.936  1.00  0.00     0.123 A 
ATOM     22  C   UNL A   1      32.733  28.153  26.961  1.00  0.00     0.039 A 
ATOM     23  F   UNL A   1      34.831  28.857  26.149  1.00  0.00    -0.207 F 
ENDBRANCH  16  17
ENDBRANCH  13  16
ENDBRANCH   8  12
ENDBRANCH   5   8
ENDBRANCH   3   4
ENDBRANCH   2   3
ENDBRANCH   1   2
BRANCH   1  24
ATOM     24  C   UNL A   1      37.269  21.352  25.125  1.00  0.00     0.002 C 
BRANCH  24  25
ATOM     25  C   UNL A   1      38.305  20.233  25.229  1.00  0.00     0.021 C 
BRANCH  25  26
ATOM     26  C   UNL A   1      39.574  20.615  25.977  1.00  0.00     0.116 C 
BRANCH  26  27
ATOM     27  N   UNL A   1      40.502  19.501  26.074  1.00  0.00    -0.352 N 
ATOM     28  C   UNL A   1      41.873  19.537  26.150  1.00  0.00     0.251 C 
ATOM     29  H   UNL A   1      40.096  18.604  26.088  1.00  0.00     0.163 HD
ATOM     30  O   UNL A   1      42.530  18.509  26.011  1.00  0.00    -0.269 OA
BRANCH  28  31
ATOM     31  C   UNL A   1      42.546  20.832  26.373  1.00  0.00     0.039 A 
ATOM     32  C   UNL A   1      42.997  21.562  25.273  1.00  0.00     0.014 A 
ATOM     33  C   UNL A   1      42.684  21.342  27.669  1.00  0.00     0.014 A 
ATOM     34  C   UNL A   1      43.528  22.838  25.466  1.00  0.00     0.010 A 
ATOM     35  C   UNL A   1      43.144  22.643  27.851  1.00  0.00     0.010 A 
ATOM     36  C   UNL A   1      43.568  23.405  26.752  1.00  0.00    -0.014 A 
BRANCH  36  37
ATOM     37  C   UNL A   1      44.023  24.803  26.961  1.00  0.00     0.031 A 
ATOM     38  C   UNL A   1      45.477  25.158  26.815  1.00  0.00     0.074 A 
ATOM     39  C   UNL A   1      43.136  25.738  27.352  1.00  0.00     0.049 A 
ATOM     40  N   UNL A   1      46.067  26.309  27.012  1.00  0.00    -0.248 NA
ATOM     41  C   UNL A   1      46.389  24.072  26.424  1.00  0.00     0.031 C 
ATOM     42  C   UNL A   1      41.706  25.507  27.576  1.00  0.00     0.029 A 
ATOM     43  N   UNL A   1      43.305  27.069  27.642  1.00  0.00    -0.354 N 
ATOM     44  C   UNL A   1      47.418  26.087  26.774  1.00  0.00     0.074 A 
ATOM     45  C   UNL A   1      47.567  24.677  26.479  1.00  0.00     0.031 C 
ATOM     46  C   UNL A   1      41.128  26.658  27.951  1.00  0.00     0.029 A 
ATOM     47  C   UNL A   1      42.148  27.698  28.039  1.00  0.00     0.049 A 
ATOM     48  H   UNL A   1      44.172  27.529  27.572  1.00  0.00     0.167 HD
ATOM     49  C   UNL A   1      48.439  26.976  26.780  1.00  0.00     0.031 A 
ATOM     50  C   UNL A   1      41.932  28.963  28.448  1.00  0.00     0.031 A 
ATOM     51  C   UNL A   1      48.286  28.374  27.090  1.00  0.00     0.049 A 
ATOM     52  C   UNL A   1      43.082  29.931  28.477  1.00  0.00     0.074 A 
ATOM     53  C   UNL A   1      49.249  29.367  27.080  1.00  0.00     0.029 A 
ATOM     54  N   UNL A   1      47.098  28.974  27.481  1.00  0.00    -0.354 N 
ATOM     55  N   UNL A   1      44.341  29.720  28.172  1.00  0.00    -0.248 NA
ATOM     56  C   UNL A   1      42.784  31.306  28.895  1.00  0.00     0.031 C 
ATOM     57  C   UNL A   1      48.657  30.554  27.526  1.00  0.00     0.029 A 
ATOM     58  C   UNL A   1      47.309  30.316  27.748  1.00  0.00     0.049 A 
ATOM     59  H   UNL A   1      46.232  28.513  27.557  1.00  0.00     0.167 HD
ATOM     60  C   UNL A   1      44.983  30.940  28.346  1.00  0.00     0.074 A 
ATOM     61  C   UNL A   1      43.969  31.888  28.763  1.00  0.00     0.031 C 
ATOM     62  C   UNL A   1      46.294  31.247  28.178  1.00  0.00     0.031 A 
BRANCH  49  63
ATOM     63  C   UNL A   1      49.815  26.450  26.456  1.00  0.00    -0.014 A 
ATOM     64  C   UNL A   1      50.307  26.459  25.137  1.00  0.00     0.010 A 
ATOM     65  C   UNL A   1      50.632  25.944  27.483  1.00  0.00     0.010 A 
ATOM     66  C   UNL A   1      51.561  25.918  24.844  1.00  0.00     0.020 A 
ATOM     67  C   UNL A   1      51.902  25.432  27.199  1.00  0.00     0.020 A 
ATOM     68  C   UNL A   1      52.348  25.399  25.876  1.00  0.00     0.054 A 
BRANCH  68  69
ATOM     69  S   UNL A   1      53.965  24.691  25.464  1.00  0.00     0.124 S 
ATOM     70  O   UNL A   1      53.605  23.330  25.071  1.00  0.00    -0.237 OA
ATOM     71  O   UNL A   1      54.426  25.555  24.380  1.00  0.00    -0.237 OA
ATOM     72  O   UNL A   1      54.721  24.801  26.709  1.00  0.00    -0.744 OA
ENDBRANCH  68  69
ENDBRANCH  49  63
BRANCH  50  73
ATOM     73  C   UNL A   1      40.563  29.373  28.868  1.00  0.00    -0.014 A 
ATOM     74  C   UNL A   1      39.572  29.658  27.916  1.00  0.00     0.010 A 
ATOM     75  C   UNL A   1      40.235  29.427  30.236  1.00  0.00     0.010 A 
ATOM     76  C   UNL A   1      38.275  29.992  28.323  1.00  0.00     0.020 A 
ATOM     77  C   UNL A   1      38.934  29.731  30.646  1.00  0.00     0.020 A 
ATOM     78  C   UNL A   1      37.963  30.017  29.685  1.00  0.00     0.054 A 
BRANCH  78  79
ATOM     79  S   UNL A   1      36.255  30.368  30.186  1.00  0.00     0.124 S 
ATOM     80  O   UNL A   1      36.242  31.827  30.224  1.00  0.00    -0.237 OA
ATOM     81  O   UNL A   1      35.480  29.754  29.111  1.00  0.00    -0.237 OA
ATOM     82  O   UNL A   1      36.136  29.707  31.484  1.00  0.00    -0.744 OA
ENDBRANCH  78  79
ENDBRANCH  50  73
BRANCH  62  83
ATOM     83  C   UNL A   1      46.711  32.672  28.433  1.00  0.00    -0.014 A 
ATOM     84  C   UNL A   1      47.186  33.078  29.692  1.00  0.00     0.010 A 
ATOM     85  C   UNL A   1      46.690  33.602  27.377  1.00  0.00     0.010 A 
ATOM     86  C   UNL A   1      47.610  34.393  29.898  1.00  0.00     0.020 A 
ATOM     87  C   UNL A   1      47.140  34.910  27.570  1.00  0.00     0.020 A 
ATOM     88  C   UNL A   1      47.587  35.301  28.834  1.00  0.00     0.054 A 
BRANCH  88  89
ATOM     89  S   UNL A   1      48.194  36.986  29.114  1.00  0.00     0.124 S 
ATOM     90  O   UNL A   1      49.359  37.041  28.235  1.00  0.00    -0.237 OA
ATOM     91  O   UNL A   1      47.058  37.808  28.703  1.00  0.00    -0.237 OA
ATOM     92  O   UNL A   1      48.492  37.014  30.545  1.00  0.00    -0.744 OA
ENDBRANCH  88  89
ENDBRANCH  62  83
ENDBRANCH  36  37
ENDBRANCH  28  31
ENDBRANCH  26  27
ENDBRANCH  25  26
ENDBRANCH  24  25
ENDBRANCH   1  24
TORSDOF 20
ENDMDL
MODEL 3
REMARK VINA RESULT:     -10.0      2.431      3.117
REMARK SMILES CC[C@](C)(NC(=O)Cc1cccc(F)c1)C(=O)NCCCCCCNC(=O)c1ccc(-c2c3nc(c(-c4ccc(S(=O)(=O)[O-])cc4)c4ccc([nH]4)c(-c4ccc(S(=O)(=O)[O-])cc4)c4nc(c(-c5ccc(S(=O)(=O)[O-])cc5)c5ccc2[nH]5)C=C4)C=C3)cc1
REMARK SMILES IDX 21 1 20 2 19 3 18 4 16 5 17 6 3 8 4 9 2 10 1 11 5 12 6 13
REMARK SMILES IDX 7 15 8 16 9 17 10 18 15 19 11 20 13 21 12 22 14 23 22 24
REMARK SMILES IDX 23 25 24 26 25 27 26 28 27 30 28 31 29 32 87 33 30 34 86 35
REMARK SMILES IDX 31 36 32 37 33 38 80 39 34 40 85 41 79 42 81 43 35 44 84 45
REMARK SMILES IDX 78 46 77 47 36 49 66 50 47 51 65 52 48 53 51 54 64 55 82 56
REMARK SMILES IDX 49 57 50 58 63 60 83 61 52 62 37 63 38 64 46 65 39 66 45 67
REMARK SMILES IDX 40 68 41 69 42 70 43 71 44 72 67 73 68 74 76 75 69 76 75 77
REMARK SMILES IDX 70 78 71 79 72 80 73 81 74 82 53 83 54 84 62 85 55 86 61 87
REMARK SMILES IDX 56 88 57 89 58 90 59 91 60 92
REMARK H PARENT 18 7 5 14 25 29 81 48 51 59
REMARK Flexibility Score: inf
ROOT
ATOM      1  C   UNL A   1      31.330  26.493  26.418  1.00  0.00     0.002 C 
ENDROOT
BRANCH   1   2
ATOM      2  C   UNL A   1      30.346  25.463  25.859  1.00  0.00     0.021 C 
BRANCH   2   3
ATOM      3  C   UNL A   1      30.924  24.065  25.646  1.00  0.00     0.116 C 
BRANCH   3   4
ATOM      4  N   UNL A   1      31.458  23.463  26.859  1.00  0.00    -0.354 N 
ATOM      5  C   UNL A   1      32.658  22.855  27.111  1.00  0.00     0.245 C 
ATOM      6  O   UNL A   1      32.900  22.574  28.288  1.00  0.00    -0.272 OA
ATOM      7  H   UNL A   1      30.850  23.499  27.632  1.00  0.00     0.163 HD
BRANCH   5   8
ATOM      8  C   UNL A   1      33.719  22.677  25.983  1.00  0.00     0.116 C 
ATOM      9  C   UNL A   1      34.792  21.594  26.228  1.00  0.00     0.045 C 
BRANCH   8  10
ATOM     10  C   UNL A   1      34.481  24.045  25.937  1.00  0.00     0.035 C 
ATOM     11  C   UNL A   1      35.991  23.901  25.702  1.00  0.00     0.007 C 
ENDBRANCH   8  10
BRANCH   8  12
ATOM     12  N   UNL A   1      33.070  22.358  24.687  1.00  0.00    -0.342 N 
ATOM     13  C   UNL A   1      32.748  21.126  24.160  1.00  0.00     0.225 C 
ATOM     14  H   UNL A   1      32.839  23.132  24.126  1.00  0.00     0.164 HD
ATOM     15  O   UNL A   1      32.765  21.029  22.930  1.00  0.00    -0.275 OA
BRANCH  13  16
ATOM     16  C   UNL A   1      32.230  19.969  25.018  1.00  0.00     0.135 C 
BRANCH  16  17
ATOM     17  C   UNL A   1      32.966  18.648  25.000  1.00  0.00    -0.036 A 
ATOM     18  C   UNL A   1      34.257  18.549  24.458  1.00  0.00     0.004 A 
ATOM     19  C   UNL A   1      32.338  17.458  25.378  1.00  0.00     0.043 A 
ATOM     20  C   UNL A   1      34.895  17.306  24.337  1.00  0.00     0.003 A 
ATOM     21  C   UNL A   1      32.988  16.234  25.300  1.00  0.00     0.123 A 
ATOM     22  C   UNL A   1      34.264  16.144  24.777  1.00  0.00     0.039 A 
ATOM     23  F   UNL A   1      32.355  15.129  25.716  1.00  0.00    -0.207 F 
ENDBRANCH  16  17
ENDBRANCH  13  16
ENDBRANCH   8  12
ENDBRANCH   5   8
ENDBRANCH   3   4
ENDBRANCH   2   3
ENDBRANCH   1   2
BRANCH   1  24
ATOM     24  C   UNL A   1      32.533  26.791  25.519  1.00  0.00     0.002 C 
BRANCH  24  25
ATOM     25  C   UNL A   1      32.930  28.266  25.441  1.00  0.00     0.021 C 
BRANCH  25  26
ATOM     26  C   UNL A   1      33.948  28.701  26.486  1.00  0.00     0.116 C 
BRANCH  26  27
ATOM     27  N   UNL A   1      33.911  30.136  26.713  1.00  0.00    -0.352 N 
ATOM     28  C   UNL A   1      34.725  30.893  27.519  1.00  0.00     0.251 C 
ATOM     29  H   UNL A   1      33.213  30.630  26.226  1.00  0.00     0.163 HD
ATOM     30  O   UNL A   1      34.437  32.059  27.774  1.00  0.00    -0.269 OA
BRANCH  28  31
ATOM     31  C   UNL A   1      35.937  30.277  28.096  1.00  0.00     0.039 A 
ATOM     32  C   UNL A   1      37.153  30.412  27.425  1.00  0.00     0.014 A 
ATOM     33  C   UNL A   1      35.874  29.609  29.324  1.00  0.00     0.014 A 
ATOM     34  C   UNL A   1      38.322  29.934  28.020  1.00  0.00     0.010 A 
ATOM     35  C   UNL A   1      37.049  29.202  29.947  1.00  0.00     0.010 A 
ATOM     36  C   UNL A   1      38.285  29.362  29.303  1.00  0.00    -0.014 A 
BRANCH  36  37
ATOM     37  C   UNL A   1      39.532  28.953  29.997  1.00  0.00     0.031 A 
ATOM     38  C   UNL A   1      39.990  29.682  31.230  1.00  0.00     0.074 A 
ATOM     39  C   UNL A   1      40.289  27.968  29.475  1.00  0.00     0.049 A 
ATOM     40  N   UNL A   1      41.076  29.503  31.937  1.00  0.00    -0.248 NA
ATOM     41  C   UNL A   1      39.128  30.770  31.716  1.00  0.00     0.031 C 
ATOM     42  C   UNL A   1      39.978  27.217  28.256  1.00  0.00     0.029 A 
ATOM     43  N   UNL A   1      41.483  27.436  29.896  1.00  0.00    -0.354 N 
ATOM     44  C   UNL A   1      41.032  30.457  32.946  1.00  0.00     0.074 A 
ATOM     45  C   UNL A   1      39.843  31.251  32.722  1.00  0.00     0.031 C 
ATOM     46  C   UNL A   1      40.945  26.314  28.037  1.00  0.00     0.029 A 
ATOM     47  C   UNL A   1      41.967  26.448  29.071  1.00  0.00     0.049 A 
ATOM     48  H   UNL A   1      41.948  27.734  30.710  1.00  0.00     0.167 HD
ATOM     49  C   UNL A   1      41.891  30.644  33.977  1.00  0.00     0.031 A 
ATOM     50  C   UNL A   1      43.112  25.741  29.125  1.00  0.00     0.031 A 
ATOM     51  C   UNL A   1      43.081  29.861  34.184  1.00  0.00     0.049 A 
ATOM     52  C   UNL A   1      44.069  25.981  30.259  1.00  0.00     0.074 A 
ATOM     53  C   UNL A   1      43.993  29.939  35.222  1.00  0.00     0.029 A 
ATOM     54  N   UNL A   1      43.533  28.864  33.331  1.00  0.00    -0.354 N 
ATOM     55  N   UNL A   1      43.970  26.836  31.250  1.00  0.00    -0.248 NA
ATOM     56  C   UNL A   1      45.283  25.157  30.291  1.00  0.00     0.031 C 
ATOM     57  C   UNL A   1      45.029  29.036  34.961  1.00  0.00     0.029 A 
ATOM     58  C   UNL A   1      44.728  28.345  33.798  1.00  0.00     0.049 A 
ATOM     59  H   UNL A   1      43.071  28.571  32.512  1.00  0.00     0.167 HD
ATOM     60  C   UNL A   1      45.103  26.643  32.031  1.00  0.00     0.074 A 
ATOM     61  C   UNL A   1      45.861  25.575  31.409  1.00  0.00     0.031 C 
ATOM     62  C   UNL A   1      45.481  27.292  33.161  1.00  0.00     0.031 A 
BRANCH  49  63
ATOM     63  C   UNL A   1      41.574  31.755  34.947  1.00  0.00    -0.014 A 
ATOM     64  C   UNL A   1      42.125  33.040  34.788  1.00  0.00     0.010 A 
ATOM     65  C   UNL A   1      40.709  31.513  36.030  1.00  0.00     0.010 A 
ATOM     66  C   UNL A   1      41.867  34.043  35.725  1.00  0.00     0.020 A 
ATOM     67  C   UNL A   1      40.421  32.525  36.952  1.00  0.00     0.020 A 
ATOM     68  C   UNL A   1      41.022  33.777  36.807  1.00  0.00     0.054 A 
BRANCH  68  69
ATOM     69  S   UNL A   1      40.716  35.094  38.015  1.00  0.00     0.124 S 
ATOM     70  O   UNL A   1      39.312  35.411  37.764  1.00  0.00    -0.237 OA
ATOM     71  O   UNL A   1      40.991  34.431  39.287  1.00  0.00    -0.237 OA
ATOM     72  O   UNL A   1      41.668  36.137  37.641  1.00  0.00    -0.744 OA
ENDBRANCH  68  69
ENDBRANCH  49  63
BRANCH  50  73
ATOM     73  C   UNL A   1      43.408  24.744  28.058  1.00  0.00    -0.014 A 
ATOM     74  C   UNL A   1      44.150  25.105  26.921  1.00  0.00     0.010 A 
ATOM     75  C   UNL A   1      42.988  23.409  28.206  1.00  0.00     0.010 A 
ATOM     76  C   UNL A   1      44.467  24.148  25.950  1.00  0.00     0.020 A 
ATOM     77  C   UNL A   1      43.326  22.445  27.252  1.00  0.00     0.020 A 
ATOM     78  C   UNL A   1      44.059  22.823  26.127  1.00  0.00     0.054 A 
BRANCH  78  79
ATOM     79  S   UNL A   1      44.554  21.583  24.898  1.00  0.00     0.124 S 
ATOM     80  O   UNL A   1      44.425  22.326  23.648  1.00  0.00    -0.237 OA
ATOM     81  O   UNL A   1      45.919  21.262  25.307  1.00  0.00    -0.237 OA
ATOM     82  O   UNL A   1      43.585  20.506  25.089  1.00  0.00    -0.744 OA
ENDBRANCH  78  79
ENDBRANCH  50  73
BRANCH  62  83
ATOM     83  C   UNL A   1      46.771  26.860  33.810  1.00  0.00    -0.014 A 
ATOM     84  C   UNL A   1      46.789  25.870  34.807  1.00  0.00     0.010 A 
ATOM     85  C   UNL A   1      47.989  27.408  33.367  1.00  0.00     0.010 A 
ATOM     86  C   UNL A   1      47.999  25.452  35.368  1.00  0.00     0.020 A 
ATOM     87  C   UNL A   1      49.203  26.973  33.903  1.00  0.00     0.020 A 
ATOM     88  C   UNL A   1      49.200  26.005  34.909  1.00  0.00     0.054 A 
BRANCH  88  89
ATOM     89  S   UNL A   1      50.759  25.404  35.613  1.00  0.00     0.124 S 
ATOM     90  O   UNL A   1      50.328  24.210  36.336  1.00  0.00    -0.237 OA
ATOM     91  O   UNL A   1      51.573  25.159  34.425  1.00  0.00    -0.237 OA
ATOM     92  O   UNL A   1      51.210  26.511  36.454  1.00  0.00    -0.744 OA
ENDBRANCH  88  89
ENDBRANCH  62  83
ENDBRANCH  36  37
ENDBRANCH  28  31
ENDBRANCH  26  27
ENDBRANCH  25  26
ENDBRANCH  24  25
ENDBRANCH   1  24
TORSDOF 20
ENDMDL
