MODEL 1
REMARK VINA RESULT:     -11.9      0.000      0.000
REMARK SMILES O=C(NCCCCCCNC(=O)c1cc(-c2cccc(F)c2)nc2c(F)cccc12)c1ccc(-c2c3nc(c(-c4ccc(S(=O)(=O)[O-])cc4)c4ccc([nH]4)c(-c4ccc(S(=O)(=O)[O-])cc4)c4nc(c(-c5ccc(S(=O)(=O)[O-])cc5)c5ccc2[nH]5)C=C4)C=C3)cc1
REMARK SMILES IDX 5 1 4 2 3 3 1 4 2 5 31 7 32 8 90 9 33 10 89 11 34 12 35 13
REMARK SMILES IDX 36 14 83 15 37 16 88 17 82 18 84 19 38 20 87 21 81 22 80 23
REMARK SMILES IDX 39 25 69 26 50 27 68 28 51 29 54 30 67 31 85 32 52 33 53 34
REMARK SMILES IDX 66 36 86 37 55 38 40 39 41 40 49 41 42 42 48 43 43 44 44 45
REMARK SMILES IDX 45 46 46 47 47 48 70 49 71 50 79 51 72 52 78 53 73 54 74 55
REMARK SMILES IDX 75 56 76 57 77 58 56 59 57 60 65 61 58 62 64 63 59 64 60 65
REMARK SMILES IDX 61 66 62 67 63 68 6 69 7 70 8 71 9 72 10 73 11 74 12 76
REMARK SMILES IDX 13 77 14 78 30 79 15 80 24 81 29 82 23 83 25 84 28 85 26 86
REMARK SMILES IDX 27 87 16 88 17 89 22 90 18 91 20 92 19 93 21 94
REMARK H PARENT 3 6 84 24 54 35 10 75
REMARK Flexibility Score: inf
ROOT
ATOM      1  C   UNL A   1      32.491  27.937  26.516  1.00  0.00     0.021 C 
ENDROOT
BRANCH   1   2
ATOM      2  C   UNL A   1      33.718  28.441  27.263  1.00  0.00     0.116 C 
BRANCH   2   3
ATOM      3  N   UNL A   1      33.598  29.837  27.643  1.00  0.00    -0.352 N 
ATOM      4  O   UNL A   1      34.205  31.754  28.661  1.00  0.00    -0.269 OA
ATOM      5  C   UNL A   1      34.528  30.642  28.252  1.00  0.00     0.251 C 
ATOM      6  H   UNL A   1      32.735  30.263  27.436  1.00  0.00     0.163 HD
BRANCH   5   7
ATOM      7  C   UNL A   1      35.913  30.155  28.428  1.00  0.00     0.039 A 
ATOM      8  C   UNL A   1      36.827  30.215  27.370  1.00  0.00     0.014 A 
ATOM      9  C   UNL A   1      36.311  29.661  29.673  1.00  0.00     0.014 A 
ATOM     10  C   UNL A   1      38.107  29.695  27.530  1.00  0.00     0.010 A 
ATOM     11  C   UNL A   1      37.621  29.208  29.853  1.00  0.00     0.010 A 
ATOM     12  C   UNL A   1      38.528  29.220  28.782  1.00  0.00    -0.014 A 
BRANCH  12  13
ATOM     13  C   UNL A   1      39.956  28.881  28.988  1.00  0.00     0.031 A 
ATOM     14  C   UNL A   1      40.517  27.550  28.577  1.00  0.00     0.074 A 
ATOM     15  C   UNL A   1      40.742  29.802  29.582  1.00  0.00     0.049 A 
ATOM     16  N   UNL A   1      41.738  27.100  28.718  1.00  0.00    -0.248 NA
ATOM     17  C   UNL A   1      39.598  26.599  27.932  1.00  0.00     0.031 C 
ATOM     18  C   UNL A   1      40.293  31.121  30.042  1.00  0.00     0.029 A 
ATOM     19  N   UNL A   1      42.074  29.778  29.905  1.00  0.00    -0.354 N 
ATOM     20  C   UNL A   1      41.732  25.810  28.205  1.00  0.00     0.074 A 
ATOM     21  C   UNL A   1      40.383  25.542  27.752  1.00  0.00     0.031 C 
ATOM     22  C   UNL A   1      41.333  31.785  30.566  1.00  0.00     0.029 A 
ATOM     23  C   UNL A   1      42.505  30.918  30.542  1.00  0.00     0.049 A 
ATOM     24  H   UNL A   1      42.666  29.018  29.700  1.00  0.00     0.167 HD
ATOM     25  C   UNL A   1      42.762  24.933  28.126  1.00  0.00     0.031 A 
ATOM     26  C   UNL A   1      43.697  31.223  31.086  1.00  0.00     0.031 A 
ATOM     27  C   UNL A   1      44.101  25.217  28.574  1.00  0.00     0.049 A 
ATOM     28  C   UNL A   1      44.804  30.212  31.015  1.00  0.00     0.074 A 
ATOM     29  C   UNL A   1      45.229  24.421  28.464  1.00  0.00     0.029 A 
ATOM     30  N   UNL A   1      44.491  26.372  29.233  1.00  0.00    -0.354 N 
ATOM     31  N   UNL A   1      44.800  29.031  30.445  1.00  0.00    -0.248 NA
ATOM     32  C   UNL A   1      46.070  30.569  31.665  1.00  0.00     0.031 C 
ATOM     33  C   UNL A   1      46.284  25.064  29.116  1.00  0.00     0.029 A 
ATOM     34  C   UNL A   1      45.829  26.288  29.581  1.00  0.00     0.049 A 
ATOM     35  H   UNL A   1      43.905  27.139  29.425  1.00  0.00     0.167 HD
ATOM     36  C   UNL A   1      46.067  28.505  30.666  1.00  0.00     0.074 A 
ATOM     37  C   UNL A   1      46.818  29.508  31.391  1.00  0.00     0.031 C 
ATOM     38  C   UNL A   1      46.559  27.293  30.310  1.00  0.00     0.031 A 
BRANCH  25  39
ATOM     39  C   UNL A   1      42.496  23.563  27.558  1.00  0.00    -0.014 A 
ATOM     40  C   UNL A   1      42.802  23.255  26.222  1.00  0.00     0.010 A 
ATOM     41  C   UNL A   1      42.050  22.537  28.412  1.00  0.00     0.010 A 
ATOM     42  C   UNL A   1      42.658  21.947  25.748  1.00  0.00     0.020 A 
ATOM     43  C   UNL A   1      41.923  21.225  27.948  1.00  0.00     0.020 A 
ATOM     44  C   UNL A   1      42.224  20.939  26.616  1.00  0.00     0.054 A 
BRANCH  44  45
ATOM     45  S   UNL A   1      42.115  19.239  25.991  1.00  0.00     0.124 S 
ATOM     46  O   UNL A   1      40.689  19.116  25.699  1.00  0.00    -0.237 OA
ATOM     47  O   UNL A   1      42.993  19.271  24.823  1.00  0.00    -0.237 OA
ATOM     48  O   UNL A   1      42.595  18.426  27.105  1.00  0.00    -0.744 OA
ENDBRANCH  44  45
ENDBRANCH  25  39
BRANCH  26  49
ATOM     49  C   UNL A   1      43.880  32.514  31.803  1.00  0.00    -0.014 A 
ATOM     50  C   UNL A   1      43.595  32.626  33.173  1.00  0.00     0.010 A 
ATOM     51  C   UNL A   1      44.339  33.646  31.103  1.00  0.00     0.010 A 
ATOM     52  C   UNL A   1      43.736  33.855  33.825  1.00  0.00     0.020 A 
ATOM     53  C   UNL A   1      44.513  34.867  31.758  1.00  0.00     0.020 A 
ATOM     54  C   UNL A   1      44.191  34.968  33.111  1.00  0.00     0.054 A 
BRANCH  54  55
ATOM     55  S   UNL A   1      44.384  36.548  33.978  1.00  0.00     0.124 S 
ATOM     56  O   UNL A   1      42.998  36.984  34.125  1.00  0.00    -0.237 OA
ATOM     57  O   UNL A   1      45.058  36.154  35.212  1.00  0.00    -0.237 OA
ATOM     58  O   UNL A   1      45.197  37.344  33.061  1.00  0.00    -0.744 OA
ENDBRANCH  54  55
ENDBRANCH  26  49
BRANCH  38  59
ATOM     59  C   UNL A   1      47.978  26.989  30.700  1.00  0.00    -0.014 A 
ATOM     60  C   UNL A   1      49.052  27.426  29.904  1.00  0.00     0.010 A 
ATOM     61  C   UNL A   1      48.244  26.309  31.902  1.00  0.00     0.010 A 
ATOM     62  C   UNL A   1      50.368  27.168  30.292  1.00  0.00     0.020 A 
ATOM     63  C   UNL A   1      49.560  26.074  32.308  1.00  0.00     0.020 A 
ATOM     64  C   UNL A   1      50.614  26.496  31.494  1.00  0.00     0.054 A 
BRANCH  64  65
ATOM     65  S   UNL A   1      52.332  26.227  32.005  1.00  0.00     0.124 S 
ATOM     66  O   UNL A   1      52.572  27.370  32.880  1.00  0.00    -0.237 OA
ATOM     67  O   UNL A   1      52.268  24.928  32.670  1.00  0.00    -0.237 OA
ATOM     68  O   UNL A   1      53.074  26.240  30.746  1.00  0.00    -0.744 OA
ENDBRANCH  64  65
ENDBRANCH  38  59
ENDBRANCH  12  13
ENDBRANCH   5   7
ENDBRANCH   2   3
ENDBRANCH   1   2
BRANCH   1  69
ATOM     69  C   UNL A   1      31.715  29.007  25.748  1.00  0.00     0.002 C 
BRANCH  69  70
ATOM     70  C   UNL A   1      32.451  29.637  24.560  1.00  0.00     0.002 C 
BRANCH  70  71
ATOM     71  C   UNL A   1      32.374  28.865  23.239  1.00  0.00     0.021 C 
BRANCH  71  72
ATOM     72  C   UNL A   1      33.627  28.079  22.870  1.00  0.00     0.116 C 
BRANCH  72  73
ATOM     73  N   UNL A   1      33.422  27.181  21.746  1.00  0.00    -0.352 N 
ATOM     74  C   UNL A   1      33.287  25.816  21.757  1.00  0.00     0.252 C 
ATOM     75  H   UNL A   1      33.375  27.608  20.861  1.00  0.00     0.163 HD
ATOM     76  O   UNL A   1      33.151  25.186  20.713  1.00  0.00    -0.269 OA
BRANCH  74  77
ATOM     77  C   UNL A   1      33.369  25.091  23.039  1.00  0.00     0.051 A 
ATOM     78  C   UNL A   1      34.596  24.495  23.316  1.00  0.00     0.043 A 
ATOM     79  C   UNL A   1      32.296  25.035  23.954  1.00  0.00     0.016 A 
ATOM     80  C   UNL A   1      34.752  23.873  24.538  1.00  0.00     0.072 A 
ATOM     81  C   UNL A   1      32.569  24.431  25.194  1.00  0.00     0.107 A 
ATOM     82  C   UNL A   1      31.001  25.559  23.702  1.00  0.00     0.011 A 
ATOM     83  N   UNL A   1      33.763  23.851  25.462  1.00  0.00    -0.245 NA
ATOM     84  C   UNL A   1      31.561  24.460  26.160  1.00  0.00     0.149 A 
ATOM     85  C   UNL A   1      30.018  25.570  24.688  1.00  0.00     0.004 A 
ATOM     86  F   UNL A   1      31.790  23.934  27.376  1.00  0.00    -0.205 F 
ATOM     87  C   UNL A   1      30.309  25.033  25.932  1.00  0.00     0.041 A 
BRANCH  80  88
ATOM     88  C   UNL A   1      35.996  23.191  24.913  1.00  0.00     0.003 A 
ATOM     89  C   UNL A   1      36.972  23.859  25.675  1.00  0.00     0.010 A 
ATOM     90  C   UNL A   1      36.244  21.860  24.541  1.00  0.00     0.049 A 
ATOM     91  C   UNL A   1      38.149  23.214  26.072  1.00  0.00     0.004 A 
ATOM     92  C   UNL A   1      37.422  21.230  24.932  1.00  0.00     0.123 A 
ATOM     93  C   UNL A   1      38.372  21.892  25.700  1.00  0.00     0.039 A 
ATOM     94  F   UNL A   1      37.641  19.960  24.565  1.00  0.00    -0.207 F 
ENDBRANCH  80  88
ENDBRANCH  74  77
ENDBRANCH  72  73
ENDBRANCH  71  72
ENDBRANCH  70  71
ENDBRANCH  69  70
ENDBRANCH   1  69
TORSDOF 17
ENDMDL
MODEL 2
REMARK VINA RESULT:     -11.7      2.746      9.157
REMARK SMILES O=C(NCCCCCCNC(=O)c1cc(-c2cccc(F)c2)nc2c(F)cccc12)c1ccc(-c2c3nc(c(-c4ccc(S(=O)(=O)[O-])cc4)c4ccc([nH]4)c(-c4ccc(S(=O)(=O)[O-])cc4)c4nc(c(-c5ccc(S(=O)(=O)[O-])cc5)c5ccc2[nH]5)C=C4)C=C3)cc1
REMARK SMILES IDX 5 1 4 2 3 3 1 4 2 5 31 7 32 8 90 9 33 10 89 11 34 12 35 13
REMARK SMILES IDX 36 14 83 15 37 16 88 17 82 18 84 19 38 20 87 21 81 22 80 23
REMARK SMILES IDX 39 25 69 26 50 27 68 28 51 29 54 30 67 31 85 32 52 33 53 34
REMARK SMILES IDX 66 36 86 37 55 38 40 39 41 40 49 41 42 42 48 43 43 44 44 45
REMARK SMILES IDX 45 46 46 47 47 48 70 49 71 50 79 51 72 52 78 53 73 54 74 55
REMARK SMILES IDX 75 56 76 57 77 58 56 59 57 60 65 61 58 62 64 63 59 64 60 65
REMARK SMILES IDX 61 66 62 67 63 68 6 69 7 70 8 71 9 72 10 73 11 74 12 76
REMARK SMILES IDX 13 77 14 78 30 79 15 80 24 81 29 82 23 83 25 84 28 85 26 86
REMARK SMILES IDX 27 87 16 88 17 89 22 90 18 91 20 92 19 93 21 94
REMARK H PARENT 3 6 84 24 54 35 10 75
REMARK Flexibility Score: inf
ROOT
ATOM      1  C   UNL A   1      35.677  23.006  24.650  1.00  0.00     0.021 C 
ENDROOT
BRANCH   1   2
ATOM      2  C   UNL A   1      36.868  23.601  25.389  1.00  0.00     0.116 C 
BRANCH   2   3
ATOM      3  N   UNL A   1      37.948  22.645  25.556  1.00  0.00    -0.352 N 
ATOM      4  O   UNL A   1      40.052  21.971  26.005  1.00  0.00    -0.269 OA
ATOM      5  C   UNL A   1      39.194  22.846  26.095  1.00  0.00     0.251 C 
ATOM      6  H   UNL A   1      37.761  21.731  25.241  1.00  0.00     0.163 HD
BRANCH   5   7
ATOM      7  C   UNL A   1      39.501  24.126  26.770  1.00  0.00     0.039 A 
ATOM      8  C   UNL A   1      39.123  24.337  28.100  1.00  0.00     0.014 A 
ATOM      9  C   UNL A   1      40.201  25.114  26.072  1.00  0.00     0.014 A 
ATOM     10  C   UNL A   1      39.362  25.569  28.701  1.00  0.00     0.010 A 
ATOM     11  C   UNL A   1      40.506  26.324  26.702  1.00  0.00     0.010 A 
ATOM     12  C   UNL A   1      40.087  26.560  28.021  1.00  0.00    -0.014 A 
BRANCH  12  13
ATOM     13  C   UNL A   1      40.523  27.773  28.754  1.00  0.00     0.031 A 
ATOM     14  C   UNL A   1      39.597  28.934  28.976  1.00  0.00     0.074 A 
ATOM     15  C   UNL A   1      41.795  27.815  29.200  1.00  0.00     0.049 A 
ATOM     16  N   UNL A   1      39.844  30.072  29.574  1.00  0.00    -0.248 NA
ATOM     17  C   UNL A   1      38.224  28.813  28.463  1.00  0.00     0.031 C 
ATOM     18  C   UNL A   1      42.787  26.749  29.018  1.00  0.00     0.029 A 
ATOM     19  N   UNL A   1      42.476  28.782  29.892  1.00  0.00    -0.354 N 
ATOM     20  C   UNL A   1      38.672  30.812  29.489  1.00  0.00     0.074 A 
ATOM     21  C   UNL A   1      37.710  29.997  28.777  1.00  0.00     0.031 C 
ATOM     22  C   UNL A   1      43.938  27.112  29.601  1.00  0.00     0.029 A 
ATOM     23  C   UNL A   1      43.790  28.458  30.138  1.00  0.00     0.049 A 
ATOM     24  H   UNL A   1      42.065  29.627  30.186  1.00  0.00     0.167 HD
ATOM     25  C   UNL A   1      38.429  32.058  29.963  1.00  0.00     0.031 A 
ATOM     26  C   UNL A   1      44.781  29.176  30.696  1.00  0.00     0.031 A 
ATOM     27  C   UNL A   1      39.394  32.853  30.677  1.00  0.00     0.049 A 
ATOM     28  C   UNL A   1      44.487  30.568  31.173  1.00  0.00     0.074 A 
ATOM     29  C   UNL A   1      39.217  34.095  31.263  1.00  0.00     0.029 A 
ATOM     30  N   UNL A   1      40.718  32.499  30.886  1.00  0.00    -0.354 N 
ATOM     31  N   UNL A   1      43.345  31.214  31.163  1.00  0.00    -0.248 NA
ATOM     32  C   UNL A   1      45.611  31.329  31.730  1.00  0.00     0.031 C 
ATOM     33  C   UNL A   1      40.448  34.521  31.767  1.00  0.00     0.029 A 
ATOM     34  C   UNL A   1      41.382  33.520  31.547  1.00  0.00     0.049 A 
ATOM     35  H   UNL A   1      41.127  31.648  30.607  1.00  0.00     0.167 HD
ATOM     36  C   UNL A   1      43.615  32.459  31.715  1.00  0.00     0.074 A 
ATOM     37  C   UNL A   1      45.017  32.463  32.079  1.00  0.00     0.031 C 
ATOM     38  C   UNL A   1      42.779  33.510  31.893  1.00  0.00     0.031 A 
BRANCH  25  39
ATOM     39  C   UNL A   1      37.076  32.670  29.711  1.00  0.00    -0.014 A 
ATOM     40  C   UNL A   1      36.105  32.738  30.724  1.00  0.00     0.010 A 
ATOM     41  C   UNL A   1      36.823  33.297  28.476  1.00  0.00     0.010 A 
ATOM     42  C   UNL A   1      34.901  33.416  30.504  1.00  0.00     0.020 A 
ATOM     43  C   UNL A   1      35.629  33.992  28.258  1.00  0.00     0.020 A 
ATOM     44  C   UNL A   1      34.673  34.043  29.274  1.00  0.00     0.054 A 
BRANCH  44  45
ATOM     45  S   UNL A   1      33.132  34.973  29.043  1.00  0.00     0.124 S 
ATOM     46  O   UNL A   1      32.540  34.910  30.377  1.00  0.00    -0.237 OA
ATOM     47  O   UNL A   1      33.613  36.291  28.633  1.00  0.00    -0.237 OA
ATOM     48  O   UNL A   1      32.423  34.222  28.011  1.00  0.00    -0.744 OA
ENDBRANCH  44  45
ENDBRANCH  25  39
BRANCH  26  49
ATOM     49  C   UNL A   1      46.157  28.613  30.769  1.00  0.00    -0.014 A 
ATOM     50  C   UNL A   1      46.577  27.871  31.884  1.00  0.00     0.010 A 
ATOM     51  C   UNL A   1      47.060  28.829  29.710  1.00  0.00     0.010 A 
ATOM     52  C   UNL A   1      47.884  27.381  31.954  1.00  0.00     0.020 A 
ATOM     53  C   UNL A   1      48.356  28.313  29.762  1.00  0.00     0.020 A 
ATOM     54  C   UNL A   1      48.767  27.610  30.894  1.00  0.00     0.054 A 
BRANCH  54  55
ATOM     55  S   UNL A   1      50.453  26.951  30.996  1.00  0.00     0.124 S 
ATOM     56  O   UNL A   1      51.240  28.051  30.448  1.00  0.00    -0.237 OA
ATOM     57  O   UNL A   1      50.613  26.709  32.427  1.00  0.00    -0.237 OA
ATOM     58  O   UNL A   1      50.400  25.746  30.171  1.00  0.00    -0.744 OA
ENDBRANCH  54  55
ENDBRANCH  26  49
BRANCH  38  59
ATOM     59  C   UNL A   1      43.360  34.752  32.511  1.00  0.00    -0.014 A 
ATOM     60  C   UNL A   1      43.237  34.993  33.891  1.00  0.00     0.010 A 
ATOM     61  C   UNL A   1      44.084  35.657  31.715  1.00  0.00     0.010 A 
ATOM     62  C   UNL A   1      43.810  36.131  34.461  1.00  0.00     0.020 A 
ATOM     63  C   UNL A   1      44.682  36.783  32.287  1.00  0.00     0.020 A 
ATOM     64  C   UNL A   1      44.532  37.017  33.656  1.00  0.00     0.054 A 
BRANCH  64  65
ATOM     65  S   UNL A   1      45.316  38.457  34.431  1.00  0.00     0.124 S 
ATOM     66  O   UNL A   1      46.722  38.253  34.098  1.00  0.00    -0.237 OA
ATOM     67  O   UNL A   1      44.665  39.578  33.757  1.00  0.00    -0.237 OA
ATOM     68  O   UNL A   1      44.985  38.311  35.847  1.00  0.00    -0.744 OA
ENDBRANCH  64  65
ENDBRANCH  38  59
ENDBRANCH  12  13
ENDBRANCH   5   7
ENDBRANCH   2   3
ENDBRANCH   1   2
BRANCH   1  69
ATOM     69  C   UNL A   1      35.486  21.501  24.836  1.00  0.00     0.002 C 
BRANCH  69  70
ATOM     70  C   UNL A   1      34.103  21.062  25.329  1.00  0.00     0.002 C 
BRANCH  70  71
ATOM     71  C   UNL A   1      33.869  21.159  26.840  1.00  0.00     0.021 C 
BRANCH  71  72
ATOM     72  C   UNL A   1      33.473  22.539  27.351  1.00  0.00     0.116 C 
BRANCH  72  73
ATOM     73  N   UNL A   1      32.035  22.702  27.486  1.00  0.00    -0.352 N 
ATOM     74  C   UNL A   1      31.223  23.643  26.905  1.00  0.00     0.252 C 
ATOM     75  H   UNL A   1      31.584  22.052  28.072  1.00  0.00     0.163 HD
ATOM     76  O   UNL A   1      30.020  23.674  27.143  1.00  0.00    -0.269 OA
BRANCH  74  77
ATOM     77  C   UNL A   1      31.819  24.671  26.031  1.00  0.00     0.051 A 
ATOM     78  C   UNL A   1      32.049  25.908  26.627  1.00  0.00     0.043 A 
ATOM     79  C   UNL A   1      32.177  24.418  24.690  1.00  0.00     0.016 A 
ATOM     80  C   UNL A   1      32.679  26.880  25.877  1.00  0.00     0.072 A 
ATOM     81  C   UNL A   1      32.865  25.450  24.026  1.00  0.00     0.107 A 
ATOM     82  C   UNL A   1      31.904  23.205  24.004  1.00  0.00     0.011 A 
ATOM     83  N   UNL A   1      33.088  26.652  24.607  1.00  0.00    -0.245 NA
ATOM     84  C   UNL A   1      33.330  25.187  22.736  1.00  0.00     0.149 A 
ATOM     85  C   UNL A   1      32.382  22.977  22.716  1.00  0.00     0.004 A 
ATOM     86  F   UNL A   1      34.030  26.126  22.077  1.00  0.00    -0.205 F 
ATOM     87  C   UNL A   1      33.116  23.970  22.086  1.00  0.00     0.041 A 
BRANCH  80  88
ATOM     88  C   UNL A   1      32.941  28.224  26.404  1.00  0.00     0.003 A 
ATOM     89  C   UNL A   1      34.211  28.556  26.911  1.00  0.00     0.010 A 
ATOM     90  C   UNL A   1      31.949  29.218  26.406  1.00  0.00     0.049 A 
ATOM     91  C   UNL A   1      34.491  29.842  27.385  1.00  0.00     0.004 A 
ATOM     92  C   UNL A   1      32.233  30.492  26.889  1.00  0.00     0.123 A 
ATOM     93  C   UNL A   1      33.495  30.815  27.371  1.00  0.00     0.039 A 
ATOM     94  F   UNL A   1      31.272  31.425  26.886  1.00  0.00    -0.207 F 
ENDBRANCH  80  88
ENDBRANCH  74  77
ENDBRANCH  72  73
ENDBRANCH  71  72
ENDBRANCH  70  71
ENDBRANCH  69  70
ENDBRANCH   1  69
TORSDOF 17
ENDMDL
MODEL 3
REMARK VINA RESULT:     -11.4      2.044      8.484
REMARK SMILES O=C(NCCCCCCNC(=O)c1cc(-c2cccc(F)c2)nc2c(F)cccc12)c1ccc(-c2c3nc(c(-c4ccc(S(=O)(=O)[O-])cc4)c4ccc([nH]4)c(-c4ccc(S(=O)(=O)[O-])cc4)c4nc(c(-c5ccc(S(=O)(=O)[O-])cc5)c5ccc2[nH]5)C=C4)C=C3)cc1
REMARK SMILES IDX 5 1 4 2 3 3 1 4 2 5 31 7 32 8 90 9 33 10 89 11 34 12 35 13
REMARK SMILES IDX 36 14 83 15 37 16 88 17 82 18 84 19 38 20 87 21 81 22 80 23
REMARK SMILES IDX 39 25 69 26 50 27 68 28 51 29 54 30 67 31 85 32 52 33 53 34
REMARK SMILES IDX 66 36 86 37 55 38 40 39 41 40 49 41 42 42 48 43 43 44 44 45
REMARK SMILES IDX 45 46 46 47 47 48 70 49 71 50 79 51 72 52 78 53 73 54 74 55
REMARK SMILES IDX 75 56 76 57 77 58 56 59 57 60 65 61 58 62 64 63 59 64 60 65
REMARK SMILES IDX 61 66 62 67 63 68 6 69 7 70 8 71 9 72 10 73 11 74 12 76
REMARK SMILES IDX 13 77 14 78 30 79 15 80 24 81 29 82 23 83 25 84 28 85 26 86
REMARK SMILES IDX 27 87 16 88 17 89 22 90 18 91 20 92 19 93 21 94
REMARK H PARENT 3 6 84 24 54 35 10 75
REMARK Flexibility Score: inf
ROOT
ATOM      1  C   UNL A   1      32.341  27.551  26.757  1.00  0.00     0.021 C 
ENDROOT
BRANCH   1   2
ATOM      2  C   UNL A   1      33.663  28.248  27.052  1.00  0.00     0.116 C 
BRANCH   2   3
ATOM      3  N   UNL A   1      33.490  29.659  27.344  1.00  0.00    -0.352 N 
ATOM      4  O   UNL A   1      33.990  31.644  28.288  1.00  0.00    -0.269 OA
ATOM      5  C   UNL A   1      34.361  30.519  27.965  1.00  0.00     0.251 C 
ATOM      6  H   UNL A   1      32.634  30.053  27.057  1.00  0.00     0.163 HD
BRANCH   5   7
ATOM      7  C   UNL A   1      35.741  30.076  28.258  1.00  0.00     0.039 A 
ATOM      8  C   UNL A   1      36.731  30.133  27.270  1.00  0.00     0.014 A 
ATOM      9  C   UNL A   1      36.056  29.626  29.543  1.00  0.00     0.014 A 
ATOM     10  C   UNL A   1      38.008  29.653  27.541  1.00  0.00     0.010 A 
ATOM     11  C   UNL A   1      37.359  29.214  29.834  1.00  0.00     0.010 A 
ATOM     12  C   UNL A   1      38.344  29.223  28.834  1.00  0.00    -0.014 A 
BRANCH  12  13
ATOM     13  C   UNL A   1      39.762  28.930  29.157  1.00  0.00     0.031 A 
ATOM     14  C   UNL A   1      40.666  29.973  29.748  1.00  0.00     0.074 A 
ATOM     15  C   UNL A   1      40.227  27.695  28.881  1.00  0.00     0.049 A 
ATOM     16  N   UNL A   1      41.934  29.872  30.058  1.00  0.00    -0.248 NA
ATOM     17  C   UNL A   1      40.085  31.296  30.025  1.00  0.00     0.031 C 
ATOM     18  C   UNL A   1      39.438  26.612  28.284  1.00  0.00     0.029 A 
ATOM     19  N   UNL A   1      41.467  27.138  29.059  1.00  0.00    -0.354 N 
ATOM     20  C   UNL A   1      42.310  31.119  30.541  1.00  0.00     0.074 A 
ATOM     21  C   UNL A   1      41.137  31.966  30.480  1.00  0.00     0.031 C 
ATOM     22  C   UNL A   1      40.205  25.519  28.166  1.00  0.00     0.029 A 
ATOM     23  C   UNL A   1      41.554  25.840  28.613  1.00  0.00     0.049 A 
ATOM     24  H   UNL A   1      42.223  27.621  29.466  1.00  0.00     0.167 HD
ATOM     25  C   UNL A   1      43.526  31.515  30.989  1.00  0.00     0.031 A 
ATOM     26  C   UNL A   1      42.608  25.009  28.533  1.00  0.00     0.031 A 
ATOM     27  C   UNL A   1      44.682  30.657  31.051  1.00  0.00     0.049 A 
ATOM     28  C   UNL A   1      43.949  25.493  29.002  1.00  0.00     0.074 A 
ATOM     29  C   UNL A   1      45.936  30.945  31.562  1.00  0.00     0.029 A 
ATOM     30  N   UNL A   1      44.735  29.358  30.571  1.00  0.00    -0.354 N 
ATOM     31  N   UNL A   1      44.262  26.648  29.538  1.00  0.00    -0.248 NA
ATOM     32  C   UNL A   1      45.079  24.568  28.849  1.00  0.00     0.031 C 
ATOM     33  C   UNL A   1      46.766  29.845  31.330  1.00  0.00     0.029 A 
ATOM     34  C   UNL A   1      46.014  28.849  30.727  1.00  0.00     0.049 A 
ATOM     35  H   UNL A   1      43.977  28.869  30.177  1.00  0.00     0.167 HD
ATOM     36  C   UNL A   1      45.627  26.587  29.790  1.00  0.00     0.074 A 
ATOM     37  C   UNL A   1      46.071  25.271  29.379  1.00  0.00     0.031 C 
ATOM     38  C   UNL A   1      46.441  27.540  30.304  1.00  0.00     0.031 A 
BRANCH  25  39
ATOM     39  C   UNL A   1      43.699  32.944  31.430  1.00  0.00    -0.014 A 
ATOM     40  C   UNL A   1      43.376  33.349  32.736  1.00  0.00     0.010 A 
ATOM     41  C   UNL A   1      44.309  33.865  30.558  1.00  0.00     0.010 A 
ATOM     42  C   UNL A   1      43.654  34.653  33.160  1.00  0.00     0.020 A 
ATOM     43  C   UNL A   1      44.607  35.163  30.984  1.00  0.00     0.020 A 
ATOM     44  C   UNL A   1      44.273  35.550  32.283  1.00  0.00     0.054 A 
BRANCH  44  45
ATOM     45  S   UNL A   1      44.685  37.212  32.884  1.00  0.00     0.124 S 
ATOM     46  O   UNL A   1      43.436  37.934  32.654  1.00  0.00    -0.237 OA
ATOM     47  O   UNL A   1      45.021  36.970  34.286  1.00  0.00    -0.237 OA
ATOM     48  O   UNL A   1      45.805  37.621  32.039  1.00  0.00    -0.744 OA
ENDBRANCH  44  45
ENDBRANCH  25  39
BRANCH  26  49
ATOM     49  C   UNL A   1      42.448  23.660  27.923  1.00  0.00    -0.014 A 
ATOM     50  C   UNL A   1      42.264  22.523  28.724  1.00  0.00     0.010 A 
ATOM     51  C   UNL A   1      42.487  23.515  26.523  1.00  0.00     0.010 A 
ATOM     52  C   UNL A   1      42.153  21.258  28.138  1.00  0.00     0.020 A 
ATOM     53  C   UNL A   1      42.344  22.258  25.933  1.00  0.00     0.020 A 
ATOM     54  C   UNL A   1      42.198  21.134  26.746  1.00  0.00     0.054 A 
BRANCH  54  55
ATOM     55  S   UNL A   1      42.034  19.488  26.005  1.00  0.00     0.124 S 
ATOM     56  O   UNL A   1      40.598  19.410  25.755  1.00  0.00    -0.237 OA
ATOM     57  O   UNL A   1      42.879  19.587  24.818  1.00  0.00    -0.237 OA
ATOM     58  O   UNL A   1      42.539  18.593  27.045  1.00  0.00    -0.744 OA
ENDBRANCH  54  55
ENDBRANCH  26  49
BRANCH  38  59
ATOM     59  C   UNL A   1      47.896  27.192  30.453  1.00  0.00    -0.014 A 
ATOM     60  C   UNL A   1      48.827  27.558  29.465  1.00  0.00     0.010 A 
ATOM     61  C   UNL A   1      48.345  26.543  31.617  1.00  0.00     0.010 A 
ATOM     62  C   UNL A   1      50.182  27.261  29.627  1.00  0.00     0.020 A 
ATOM     63  C   UNL A   1      49.704  26.270  31.796  1.00  0.00     0.020 A 
ATOM     64  C   UNL A   1      50.612  26.621  30.794  1.00  0.00     0.054 A 
BRANCH  64  65
ATOM     65  S   UNL A   1      52.383  26.300  31.008  1.00  0.00     0.124 S 
ATOM     66  O   UNL A   1      52.376  25.091  31.825  1.00  0.00    -0.237 OA
ATOM     67  O   UNL A   1      52.845  26.128  29.633  1.00  0.00    -0.237 OA
ATOM     68  O   UNL A   1      52.874  27.502  31.678  1.00  0.00    -0.744 OA
ENDBRANCH  64  65
ENDBRANCH  38  59
ENDBRANCH  12  13
ENDBRANCH   5   7
ENDBRANCH   2   3
ENDBRANCH   1   2
BRANCH   1  69
ATOM     69  C   UNL A   1      31.991  27.430  25.274  1.00  0.00     0.002 C 
BRANCH  69  70
ATOM     70  C   UNL A   1      30.891  26.421  24.931  1.00  0.00     0.002 C 
BRANCH  70  71
ATOM     71  C   UNL A   1      31.199  25.459  23.778  1.00  0.00     0.021 C 
BRANCH  71  72
ATOM     72  C   UNL A   1      30.826  24.003  24.027  1.00  0.00     0.116 C 
BRANCH  72  73
ATOM     73  N   UNL A   1      30.505  23.729  25.418  1.00  0.00    -0.352 N 
ATOM     74  C   UNL A   1      31.185  22.942  26.313  1.00  0.00     0.252 C 
ATOM     75  H   UNL A   1      29.693  24.166  25.763  1.00  0.00     0.163 HD
ATOM     76  O   UNL A   1      30.769  22.781  27.456  1.00  0.00    -0.269 OA
BRANCH  74  77
ATOM     77  C   UNL A   1      32.400  22.231  25.873  1.00  0.00     0.051 A 
ATOM     78  C   UNL A   1      32.254  20.863  25.664  1.00  0.00     0.043 A 
ATOM     79  C   UNL A   1      33.624  22.890  25.634  1.00  0.00     0.016 A 
ATOM     80  C   UNL A   1      33.339  20.164  25.175  1.00  0.00     0.072 A 
ATOM     81  C   UNL A   1      34.653  22.105  25.082  1.00  0.00     0.107 A 
ATOM     82  C   UNL A   1      33.859  24.266  25.895  1.00  0.00     0.011 A 
ATOM     83  N   UNL A   1      34.510  20.774  24.879  1.00  0.00    -0.245 NA
ATOM     84  C   UNL A   1      35.840  22.754  24.730  1.00  0.00     0.149 A 
ATOM     85  C   UNL A   1      35.055  24.880  25.533  1.00  0.00     0.004 A 
ATOM     86  F   UNL A   1      36.835  22.055  24.160  1.00  0.00    -0.205 F 
ATOM     87  C   UNL A   1      36.044  24.119  24.930  1.00  0.00     0.041 A 
BRANCH  80  88
ATOM     88  C   UNL A   1      33.295  18.715  24.948  1.00  0.00     0.003 A 
ATOM     89  C   UNL A   1      32.606  17.874  25.842  1.00  0.00     0.010 A 
ATOM     90  C   UNL A   1      33.918  18.127  23.836  1.00  0.00     0.049 A 
ATOM     91  C   UNL A   1      32.523  16.495  25.623  1.00  0.00     0.004 A 
ATOM     92  C   UNL A   1      33.839  16.753  23.632  1.00  0.00     0.123 A 
ATOM     93  C   UNL A   1      33.142  15.933  24.511  1.00  0.00     0.039 A 
ATOM     94  F   UNL A   1      34.444  16.211  22.566  1.00  0.00    -0.207 F 
ENDBRANCH  80  88
ENDBRANCH  74  77
ENDBRANCH  72  73
ENDBRANCH  71  72
ENDBRANCH  70  71
ENDBRANCH  69  70
ENDBRANCH   1  69
TORSDOF 17
ENDMDL
