MODEL 1
REMARK VINA RESULT:     -11.6      0.000      0.000
REMARK SMILES COc1cccc(-c2c(C(=O)NCCCCCCNC(=O)c3ccc(-c4c5nc(c(-c6ccc(S(=O)(=O)[O-])cc6)c6ccc([nH]6)c(-c6ccc(S(=O)(=O)[O-])cc6)c6nc(c(-c7ccc(S(=O)(=O)[O-])cc7)c7ccc4[nH]7)C=C6)C=C5)cc3)nnn2Cc2ccc(OC(F)(F)F)cc2)c1
REMARK SMILES IDX 15 1 14 2 13 3 12 4 10 5 11 6 9 8 8 9 84 10 82 11 83 12 7 13
REMARK SMILES IDX 3 14 4 15 97 16 5 17 6 18 2 19 1 20 85 21 86 22 87 23 96 24
REMARK SMILES IDX 88 25 95 26 89 27 90 28 91 29 92 30 93 31 94 32 16 33 17 34
REMARK SMILES IDX 18 35 19 36 20 37 21 39 22 40 23 41 81 42 24 43 80 44 25 45
REMARK SMILES IDX 26 46 27 47 74 48 28 49 79 50 73 51 75 52 29 53 78 54 72 55
REMARK SMILES IDX 71 56 30 58 60 59 41 60 59 61 42 62 45 63 58 64 76 65 43 66
REMARK SMILES IDX 44 67 57 69 77 70 46 71 31 72 32 73 40 74 33 75 39 76 34 77
REMARK SMILES IDX 35 78 36 79 37 80 38 81 61 82 62 83 70 84 63 85 69 86 64 87
REMARK SMILES IDX 65 88 66 89 67 90 68 91 47 92 48 93 56 94 49 95 55 96 50 97
REMARK SMILES IDX 51 98 52 99 53 100 54 101
REMARK H PARENT 12 7 19 38 75 57 45 68
REMARK Flexibility Score: inf
ROOT
ATOM      1  C   UNL A   1      36.951  23.664  25.390  1.00  0.00     0.002 C 
ENDROOT
BRANCH   1   2
ATOM      2  C   UNL A   1      36.063  22.435  25.533  1.00  0.00     0.021 C 
BRANCH   2   3
ATOM      3  C   UNL A   1      34.620  22.661  25.941  1.00  0.00     0.116 C 
BRANCH   3   4
ATOM      4  N   UNL A   1      33.687  21.603  25.705  1.00  0.00    -0.351 N 
ATOM      5  C   UNL A   1      32.321  21.679  25.526  1.00  0.00     0.274 C 
ATOM      6  O   UNL A   1      31.779  20.603  25.249  1.00  0.00    -0.267 OA
ATOM      7  H   UNL A   1      34.072  20.697  25.664  1.00  0.00     0.163 HD
BRANCH   5   8
ATOM      8  C   UNL A   1      31.513  22.908  25.687  1.00  0.00     0.178 A 
ATOM      9  C   UNL A   1      31.448  24.175  25.083  1.00  0.00     0.102 A 
ATOM     10  N   UNL A   1      30.438  24.811  25.783  1.00  0.00    -0.239 N 
ATOM     11  N   UNL A   1      30.545  22.864  26.678  1.00  0.00    -0.124 NA
ATOM     12  N   UNL A   1      29.942  24.031  26.754  1.00  0.00    -0.066 NA
BRANCH   9  13
ATOM     13  C   UNL A   1      32.176  24.853  24.010  1.00  0.00     0.006 A 
ATOM     14  C   UNL A   1      32.194  25.732  21.734  1.00  0.00     0.119 A 
ATOM     15  C   UNL A   1      33.438  26.312  21.988  1.00  0.00     0.046 A 
ATOM     16  C   UNL A   1      31.574  24.990  22.739  1.00  0.00     0.056 A 
ATOM     17  C   UNL A   1      34.053  26.166  23.234  1.00  0.00     0.005 A 
ATOM     18  C   UNL A   1      33.427  25.431  24.244  1.00  0.00     0.011 A 
BRANCH  14  19
ATOM     19  O   UNL A   1      31.707  25.939  20.474  1.00  0.00    -0.497 OA
ATOM     20  C   UNL A   1      32.492  25.454  19.387  1.00  0.00     0.278 C 
ENDBRANCH  14  19
ENDBRANCH   9  13
BRANCH  10  21
ATOM     21  C   UNL A   1      29.919  26.165  25.635  1.00  0.00     0.182 C 
BRANCH  21  22
ATOM     22  C   UNL A   1      30.938  27.212  26.016  1.00  0.00    -0.026 A 
ATOM     23  C   UNL A   1      31.447  27.291  27.317  1.00  0.00     0.009 A 
ATOM     24  C   UNL A   1      31.384  28.140  25.065  1.00  0.00     0.009 A 
ATOM     25  C   UNL A   1      32.382  28.278  27.648  1.00  0.00     0.047 A 
ATOM     26  C   UNL A   1      32.328  29.115  25.393  1.00  0.00     0.047 A 
ATOM     27  C   UNL A   1      32.832  29.192  26.690  1.00  0.00     0.129 A 
BRANCH  27  28
ATOM     28  O   UNL A   1      33.745  30.101  27.144  1.00  0.00    -0.406 OA
BRANCH  28  29
ATOM     29  C   UNL A   1      35.044  29.621  27.447  1.00  0.00     0.573 C 
ATOM     30  F   UNL A   1      35.230  29.515  28.779  1.00  0.00    -0.132 F 
ATOM     31  F   UNL A   1      35.280  28.428  26.859  1.00  0.00    -0.132 F 
ATOM     32  F   UNL A   1      35.952  30.504  26.970  1.00  0.00    -0.132 F 
ENDBRANCH  28  29
ENDBRANCH  27  28
ENDBRANCH  21  22
ENDBRANCH  10  21
ENDBRANCH   5   8
ENDBRANCH   3   4
ENDBRANCH   2   3
ENDBRANCH   1   2
BRANCH   1  33
ATOM     33  C   UNL A   1      38.384  23.587  25.936  1.00  0.00     0.002 C 
BRANCH  33  34
ATOM     34  C   UNL A   1      38.950  22.220  26.351  1.00  0.00     0.021 C 
BRANCH  34  35
ATOM     35  C   UNL A   1      40.222  22.260  27.178  1.00  0.00     0.116 C 
BRANCH  35  36
ATOM     36  N   UNL A   1      41.448  22.130  26.383  1.00  0.00    -0.352 N 
ATOM     37  C   UNL A   1      42.203  23.130  25.782  1.00  0.00     0.251 C 
ATOM     38  H   UNL A   1      41.779  21.212  26.260  1.00  0.00     0.163 HD
ATOM     39  O   UNL A   1      42.955  22.872  24.855  1.00  0.00    -0.269 OA
BRANCH  37  40
ATOM     40  C   UNL A   1      42.086  24.510  26.296  1.00  0.00     0.039 A 
ATOM     41  C   UNL A   1      41.341  25.509  25.662  1.00  0.00     0.014 A 
ATOM     42  C   UNL A   1      42.745  24.782  27.484  1.00  0.00     0.014 A 
ATOM     43  C   UNL A   1      41.245  26.759  26.279  1.00  0.00     0.010 A 
ATOM     44  C   UNL A   1      42.397  25.872  28.218  1.00  0.00     0.010 A 
ATOM     45  C   UNL A   1      41.782  26.922  27.564  1.00  0.00    -0.014 A 
BRANCH  45  46
ATOM     46  C   UNL A   1      41.688  28.154  28.328  1.00  0.00     0.031 A 
ATOM     47  C   UNL A   1      42.774  29.113  28.039  1.00  0.00     0.074 A 
ATOM     48  C   UNL A   1      40.568  28.502  29.003  1.00  0.00     0.049 A 
ATOM     49  N   UNL A   1      43.795  29.380  28.780  1.00  0.00    -0.248 NA
ATOM     50  C   UNL A   1      42.842  29.701  26.689  1.00  0.00     0.031 C 
ATOM     51  C   UNL A   1      39.279  27.795  29.074  1.00  0.00     0.029 A 
ATOM     52  N   UNL A   1      40.304  29.648  29.682  1.00  0.00    -0.354 N 
ATOM     53  C   UNL A   1      44.490  30.374  28.105  1.00  0.00     0.074 A 
ATOM     54  C   UNL A   1      44.014  30.338  26.746  1.00  0.00     0.031 C 
ATOM     55  C   UNL A   1      38.325  28.629  29.547  1.00  0.00     0.029 A 
ATOM     56  C   UNL A   1      38.960  29.861  29.975  1.00  0.00     0.049 A 
ATOM     57  H   UNL A   1      41.009  30.281  29.946  1.00  0.00     0.167 HD
ATOM     58  C   UNL A   1      45.164  31.344  28.786  1.00  0.00     0.031 A 
ATOM     59  C   UNL A   1      38.413  30.985  30.509  1.00  0.00     0.031 A 
ATOM     60  C   UNL A   1      45.262  31.024  30.191  1.00  0.00     0.049 A 
ATOM     61  C   UNL A   1      39.520  31.721  31.169  1.00  0.00     0.074 A 
ATOM     62  C   UNL A   1      45.790  29.975  30.918  1.00  0.00     0.029 A 
ATOM     63  N   UNL A   1      44.372  31.657  31.030  1.00  0.00    -0.354 N 
ATOM     64  N   UNL A   1      40.170  31.254  32.199  1.00  0.00    -0.248 NA
ATOM     65  C   UNL A   1      40.227  32.729  30.393  1.00  0.00     0.031 C 
ATOM     66  C   UNL A   1      44.851  29.747  31.969  1.00  0.00     0.029 A 
ATOM     67  C   UNL A   1      43.851  30.718  31.882  1.00  0.00     0.049 A 
ATOM     68  H   UNL A   1      44.149  32.616  31.019  1.00  0.00     0.167 HD
ATOM     69  C   UNL A   1      41.501  31.560  31.948  1.00  0.00     0.074 A 
ATOM     70  C   UNL A   1      41.461  32.552  30.873  1.00  0.00     0.031 C 
ATOM     71  C   UNL A   1      42.509  30.772  32.429  1.00  0.00     0.031 A 
BRANCH  58  72
ATOM     72  C   UNL A   1      45.327  32.761  28.288  1.00  0.00    -0.014 A 
ATOM     73  C   UNL A   1      46.626  33.309  28.252  1.00  0.00     0.010 A 
ATOM     74  C   UNL A   1      44.252  33.658  28.121  1.00  0.00     0.010 A 
ATOM     75  C   UNL A   1      46.830  34.690  28.152  1.00  0.00     0.020 A 
ATOM     76  C   UNL A   1      44.445  35.032  27.976  1.00  0.00     0.020 A 
ATOM     77  C   UNL A   1      45.733  35.543  28.032  1.00  0.00     0.054 A 
BRANCH  77  78
ATOM     78  S   UNL A   1      45.998  37.331  28.022  1.00  0.00     0.124 S 
ATOM     79  O   UNL A   1      47.445  37.416  27.856  1.00  0.00    -0.237 OA
ATOM     80  O   UNL A   1      45.199  37.753  26.875  1.00  0.00    -0.237 OA
ATOM     81  O   UNL A   1      45.489  37.758  29.323  1.00  0.00    -0.744 OA
ENDBRANCH  77  78
ENDBRANCH  58  72
BRANCH  59  82
ATOM     82  C   UNL A   1      37.100  31.614  30.201  1.00  0.00    -0.014 A 
ATOM     83  C   UNL A   1      36.069  31.664  31.161  1.00  0.00     0.010 A 
ATOM     84  C   UNL A   1      36.963  32.430  29.059  1.00  0.00     0.010 A 
ATOM     85  C   UNL A   1      34.984  32.551  31.019  1.00  0.00     0.020 A 
ATOM     86  C   UNL A   1      35.885  33.311  28.909  1.00  0.00     0.020 A 
ATOM     87  C   UNL A   1      34.913  33.389  29.904  1.00  0.00     0.054 A 
BRANCH  87  88
ATOM     88  S   UNL A   1      33.626  34.673  29.817  1.00  0.00     0.124 S 
ATOM     89  O   UNL A   1      33.202  34.785  31.210  1.00  0.00    -0.237 OA
ATOM     90  O   UNL A   1      34.355  35.819  29.282  1.00  0.00    -0.237 OA
ATOM     91  O   UNL A   1      32.633  34.100  28.909  1.00  0.00    -0.744 OA
ENDBRANCH  87  88
ENDBRANCH  59  82
BRANCH  71  92
ATOM     92  C   UNL A   1      42.168  29.724  33.468  1.00  0.00    -0.014 A 
ATOM     93  C   UNL A   1      41.694  28.431  33.164  1.00  0.00     0.010 A 
ATOM     94  C   UNL A   1      42.489  30.018  34.804  1.00  0.00     0.010 A 
ATOM     95  C   UNL A   1      41.523  27.472  34.176  1.00  0.00     0.020 A 
ATOM     96  C   UNL A   1      42.338  29.063  35.812  1.00  0.00     0.020 A 
ATOM     97  C   UNL A   1      41.846  27.797  35.496  1.00  0.00     0.054 A 
BRANCH  97  98
ATOM     98  S   UNL A   1      41.657  26.550  36.802  1.00  0.00     0.124 S 
ATOM     99  O   UNL A   1      42.866  26.737  37.598  1.00  0.00    -0.237 OA
ATOM    100  O   UNL A   1      40.409  26.945  37.451  1.00  0.00    -0.237 OA
ATOM    101  O   UNL A   1      41.589  25.285  36.070  1.00  0.00    -0.744 OA
ENDBRANCH  97  98
ENDBRANCH  71  92
ENDBRANCH  45  46
ENDBRANCH  37  40
ENDBRANCH  35  36
ENDBRANCH  34  35
ENDBRANCH  33  34
ENDBRANCH   1  33
TORSDOF 22
ENDMDL
MODEL 2
REMARK VINA RESULT:     -11.5      2.289      3.209
REMARK SMILES COc1cccc(-c2c(C(=O)NCCCCCCNC(=O)c3ccc(-c4c5nc(c(-c6ccc(S(=O)(=O)[O-])cc6)c6ccc([nH]6)c(-c6ccc(S(=O)(=O)[O-])cc6)c6nc(c(-c7ccc(S(=O)(=O)[O-])cc7)c7ccc4[nH]7)C=C6)C=C5)cc3)nnn2Cc2ccc(OC(F)(F)F)cc2)c1
REMARK SMILES IDX 15 1 14 2 13 3 12 4 10 5 11 6 9 8 8 9 84 10 82 11 83 12 7 13
REMARK SMILES IDX 3 14 4 15 97 16 5 17 6 18 2 19 1 20 85 21 86 22 87 23 96 24
REMARK SMILES IDX 88 25 95 26 89 27 90 28 91 29 92 30 93 31 94 32 16 33 17 34
REMARK SMILES IDX 18 35 19 36 20 37 21 39 22 40 23 41 81 42 24 43 80 44 25 45
REMARK SMILES IDX 26 46 27 47 74 48 28 49 79 50 73 51 75 52 29 53 78 54 72 55
REMARK SMILES IDX 71 56 30 58 60 59 41 60 59 61 42 62 45 63 58 64 76 65 43 66
REMARK SMILES IDX 44 67 57 69 77 70 46 71 31 72 32 73 40 74 33 75 39 76 34 77
REMARK SMILES IDX 35 78 36 79 37 80 38 81 61 82 62 83 70 84 63 85 69 86 64 87
REMARK SMILES IDX 65 88 66 89 67 90 68 91 47 92 48 93 56 94 49 95 55 96 50 97
REMARK SMILES IDX 51 98 52 99 53 100 54 101
REMARK H PARENT 12 7 19 38 75 57 45 68
REMARK Flexibility Score: inf
ROOT
ATOM      1  C   UNL A   1      35.079  22.663  24.751  1.00  0.00     0.002 C 
ENDROOT
BRANCH   1   2
ATOM      2  C   UNL A   1      34.727  22.671  26.233  1.00  0.00     0.021 C 
BRANCH   2   3
ATOM      3  C   UNL A   1      33.685  21.677  26.708  1.00  0.00     0.116 C 
BRANCH   3   4
ATOM      4  N   UNL A   1      32.497  22.194  27.312  1.00  0.00    -0.351 N 
ATOM      5  C   UNL A   1      31.629  23.154  26.831  1.00  0.00     0.274 C 
ATOM      6  O   UNL A   1      30.628  23.338  27.533  1.00  0.00    -0.267 OA
ATOM      7  H   UNL A   1      32.266  21.814  28.191  1.00  0.00     0.163 HD
BRANCH   5   8
ATOM      8  C   UNL A   1      31.849  23.958  25.610  1.00  0.00     0.178 A 
ATOM      9  C   UNL A   1      32.159  25.295  25.308  1.00  0.00     0.102 A 
ATOM     10  N   UNL A   1      32.191  25.311  23.925  1.00  0.00    -0.239 N 
ATOM     11  N   UNL A   1      31.736  23.272  24.411  1.00  0.00    -0.124 NA
ATOM     12  N   UNL A   1      31.896  24.109  23.409  1.00  0.00    -0.066 NA
BRANCH   9  13
ATOM     13  C   UNL A   1      32.394  26.509  26.090  1.00  0.00     0.006 A 
ATOM     14  C   UNL A   1      33.893  28.334  26.707  1.00  0.00     0.119 A 
ATOM     15  C   UNL A   1      32.844  28.934  27.404  1.00  0.00     0.046 A 
ATOM     16  C   UNL A   1      33.671  27.114  26.066  1.00  0.00     0.056 A 
ATOM     17  C   UNL A   1      31.583  28.335  27.452  1.00  0.00     0.005 A 
ATOM     18  C   UNL A   1      31.358  27.119  26.803  1.00  0.00     0.011 A 
BRANCH  14  19
ATOM     19  O   UNL A   1      35.077  29.014  26.746  1.00  0.00    -0.497 OA
ATOM     20  C   UNL A   1      35.556  29.410  28.029  1.00  0.00     0.278 C 
ENDBRANCH  14  19
ENDBRANCH   9  13
BRANCH  10  21
ATOM     21  C   UNL A   1      32.438  26.424  23.017  1.00  0.00     0.182 C 
BRANCH  21  22
ATOM     22  C   UNL A   1      31.409  27.520  23.163  1.00  0.00    -0.026 A 
ATOM     23  C   UNL A   1      30.061  27.295  22.866  1.00  0.00     0.009 A 
ATOM     24  C   UNL A   1      31.798  28.797  23.591  1.00  0.00     0.009 A 
ATOM     25  C   UNL A   1      29.129  28.331  22.998  1.00  0.00     0.047 A 
ATOM     26  C   UNL A   1      30.864  29.825  23.737  1.00  0.00     0.047 A 
ATOM     27  C   UNL A   1      29.522  29.599  23.438  1.00  0.00     0.129 A 
BRANCH  27  28
ATOM     28  O   UNL A   1      28.514  30.516  23.525  1.00  0.00    -0.406 OA
BRANCH  28  29
ATOM     29  C   UNL A   1      28.185  31.234  22.348  1.00  0.00     0.573 C 
ATOM     30  F   UNL A   1      27.595  30.435  21.435  1.00  0.00    -0.132 F 
ATOM     31  F   UNL A   1      27.382  32.286  22.618  1.00  0.00    -0.132 F 
ATOM     32  F   UNL A   1      29.326  31.714  21.803  1.00  0.00    -0.132 F 
ENDBRANCH  28  29
ENDBRANCH  27  28
ENDBRANCH  21  22
ENDBRANCH  10  21
ENDBRANCH   5   8
ENDBRANCH   3   4
ENDBRANCH   2   3
ENDBRANCH   1   2
BRANCH   1  33
ATOM     33  C   UNL A   1      36.540  22.917  24.355  1.00  0.00     0.002 C 
BRANCH  33  34
ATOM     34  C   UNL A   1      37.635  21.997  24.918  1.00  0.00     0.021 C 
BRANCH  34  35
ATOM     35  C   UNL A   1      38.429  22.558  26.083  1.00  0.00     0.116 C 
BRANCH  35  36
ATOM     36  N   UNL A   1      39.762  21.964  26.231  1.00  0.00    -0.352 N 
ATOM     37  C   UNL A   1      40.986  22.604  26.388  1.00  0.00     0.251 C 
ATOM     38  H   UNL A   1      39.793  20.981  26.217  1.00  0.00     0.163 HD
ATOM     39  O   UNL A   1      42.029  22.029  26.118  1.00  0.00    -0.269 OA
BRANCH  37  40
ATOM     40  C   UNL A   1      40.998  23.990  26.900  1.00  0.00     0.039 A 
ATOM     41  C   UNL A   1      40.039  24.948  26.558  1.00  0.00     0.014 A 
ATOM     42  C   UNL A   1      42.019  24.310  27.781  1.00  0.00     0.014 A 
ATOM     43  C   UNL A   1      40.113  26.206  27.160  1.00  0.00     0.010 A 
ATOM     44  C   UNL A   1      41.903  25.402  28.583  1.00  0.00     0.010 A 
ATOM     45  C   UNL A   1      41.057  26.416  28.177  1.00  0.00    -0.014 A 
BRANCH  45  46
ATOM     46  C   UNL A   1      41.184  27.659  28.916  1.00  0.00     0.031 A 
ATOM     47  C   UNL A   1      42.229  28.559  28.384  1.00  0.00     0.074 A 
ATOM     48  C   UNL A   1      40.250  28.071  29.804  1.00  0.00     0.049 A 
ATOM     49  N   UNL A   1      43.395  28.782  28.888  1.00  0.00    -0.248 NA
ATOM     50  C   UNL A   1      42.037  29.127  27.038  1.00  0.00     0.031 C 
ATOM     51  C   UNL A   1      38.972  27.430  30.160  1.00  0.00     0.029 A 
ATOM     52  N   UNL A   1      40.189  29.236  30.498  1.00  0.00    -0.354 N 
ATOM     53  C   UNL A   1      43.977  29.732  28.060  1.00  0.00     0.074 A 
ATOM     54  C   UNL A   1      43.223  29.704  26.833  1.00  0.00     0.031 C 
ATOM     55  C   UNL A   1      38.180  28.317  30.805  1.00  0.00     0.029 A 
ATOM     56  C   UNL A   1      38.948  29.521  31.063  1.00  0.00     0.049 A 
ATOM     57  H   UNL A   1      40.963  29.836  30.594  1.00  0.00     0.167 HD
ATOM     58  C   UNL A   1      44.825  30.674  28.563  1.00  0.00     0.031 A 
ATOM     59  C   UNL A   1      38.580  30.677  31.675  1.00  0.00     0.031 A 
ATOM     60  C   UNL A   1      45.202  30.365  29.923  1.00  0.00     0.049 A 
ATOM     61  C   UNL A   1      39.835  31.363  32.071  1.00  0.00     0.074 A 
ATOM     62  C   UNL A   1      45.821  29.299  30.545  1.00  0.00     0.029 A 
ATOM     63  N   UNL A   1      44.540  31.052  30.916  1.00  0.00    -0.354 N 
ATOM     64  N   UNL A   1      40.665  30.875  32.951  1.00  0.00    -0.248 NA
ATOM     65  C   UNL A   1      40.409  32.325  31.142  1.00  0.00     0.031 C 
ATOM     66  C   UNL A   1      45.116  29.131  31.775  1.00  0.00     0.029 A 
ATOM     67  C   UNL A   1      44.167  30.151  31.879  1.00  0.00     0.049 A 
ATOM     68  H   UNL A   1      44.365  32.021  30.932  1.00  0.00     0.167 HD
ATOM     69  C   UNL A   1      41.926  31.110  32.419  1.00  0.00     0.074 A 
ATOM     70  C   UNL A   1      41.707  32.091  31.355  1.00  0.00     0.031 C 
ATOM     71  C   UNL A   1      42.975  30.278  32.694  1.00  0.00     0.031 A 
BRANCH  58  72
ATOM     72  C   UNL A   1      44.945  32.076  28.011  1.00  0.00    -0.014 A 
ATOM     73  C   UNL A   1      46.233  32.564  27.709  1.00  0.00     0.010 A 
ATOM     74  C   UNL A   1      43.897  33.018  28.039  1.00  0.00     0.010 A 
ATOM     75  C   UNL A   1      46.471  33.933  27.540  1.00  0.00     0.020 A 
ATOM     76  C   UNL A   1      44.114  34.380  27.827  1.00  0.00     0.020 A 
ATOM     77  C   UNL A   1      45.408  34.833  27.619  1.00  0.00     0.054 A 
BRANCH  77  78
ATOM     78  S   UNL A   1      45.740  36.607  27.517  1.00  0.00     0.124 S 
ATOM     79  O   UNL A   1      46.305  36.726  26.176  1.00  0.00    -0.237 OA
ATOM     80  O   UNL A   1      44.410  37.179  27.702  1.00  0.00    -0.237 OA
ATOM     81  O   UNL A   1      46.675  36.841  28.616  1.00  0.00    -0.744 OA
ENDBRANCH  77  78
ENDBRANCH  58  72
BRANCH  59  82
ATOM     82  C   UNL A   1      37.263  31.368  31.637  1.00  0.00    -0.014 A 
ATOM     83  C   UNL A   1      36.487  31.529  32.802  1.00  0.00     0.010 A 
ATOM     84  C   UNL A   1      36.904  32.131  30.508  1.00  0.00     0.010 A 
ATOM     85  C   UNL A   1      35.442  32.472  32.857  1.00  0.00     0.020 A 
ATOM     86  C   UNL A   1      35.863  33.068  30.552  1.00  0.00     0.020 A 
ATOM     87  C   UNL A   1      35.153  33.255  31.736  1.00  0.00     0.054 A 
BRANCH  87  88
ATOM     88  S   UNL A   1      33.943  34.608  31.865  1.00  0.00     0.124 S 
ATOM     89  O   UNL A   1      32.972  34.070  32.813  1.00  0.00    -0.237 OA
ATOM     90  O   UNL A   1      34.757  35.718  32.353  1.00  0.00    -0.237 OA
ATOM     91  O   UNL A   1      33.456  34.761  30.495  1.00  0.00    -0.744 OA
ENDBRANCH  87  88
ENDBRANCH  59  82
BRANCH  71  92
ATOM     92  C   UNL A   1      42.813  29.261  33.805  1.00  0.00    -0.014 A 
ATOM     93  C   UNL A   1      43.091  29.519  35.163  1.00  0.00     0.010 A 
ATOM     94  C   UNL A   1      42.207  28.038  33.471  1.00  0.00     0.010 A 
ATOM     95  C   UNL A   1      42.795  28.566  36.152  1.00  0.00     0.020 A 
ATOM     96  C   UNL A   1      41.894  27.093  34.451  1.00  0.00     0.020 A 
ATOM     97  C   UNL A   1      42.198  27.357  35.786  1.00  0.00     0.054 A 
BRANCH  97  98
ATOM     98  S   UNL A   1      41.782  26.136  37.065  1.00  0.00     0.124 S 
ATOM     99  O   UNL A   1      42.935  26.207  37.958  1.00  0.00    -0.237 OA
ATOM    100  O   UNL A   1      40.530  26.652  37.612  1.00  0.00    -0.237 OA
ATOM    101  O   UNL A   1      41.653  24.883  36.322  1.00  0.00    -0.744 OA
ENDBRANCH  97  98
ENDBRANCH  71  92
ENDBRANCH  45  46
ENDBRANCH  37  40
ENDBRANCH  35  36
ENDBRANCH  34  35
ENDBRANCH  33  34
ENDBRANCH   1  33
TORSDOF 22
ENDMDL
MODEL 3
REMARK VINA RESULT:     -11.2      2.930      4.287
REMARK SMILES COc1cccc(-c2c(C(=O)NCCCCCCNC(=O)c3ccc(-c4c5nc(c(-c6ccc(S(=O)(=O)[O-])cc6)c6ccc([nH]6)c(-c6ccc(S(=O)(=O)[O-])cc6)c6nc(c(-c7ccc(S(=O)(=O)[O-])cc7)c7ccc4[nH]7)C=C6)C=C5)cc3)nnn2Cc2ccc(OC(F)(F)F)cc2)c1
REMARK SMILES IDX 15 1 14 2 13 3 12 4 10 5 11 6 9 8 8 9 84 10 82 11 83 12 7 13
REMARK SMILES IDX 3 14 4 15 97 16 5 17 6 18 2 19 1 20 85 21 86 22 87 23 96 24
REMARK SMILES IDX 88 25 95 26 89 27 90 28 91 29 92 30 93 31 94 32 16 33 17 34
REMARK SMILES IDX 18 35 19 36 20 37 21 39 22 40 23 41 81 42 24 43 80 44 25 45
REMARK SMILES IDX 26 46 27 47 74 48 28 49 79 50 73 51 75 52 29 53 78 54 72 55
REMARK SMILES IDX 71 56 30 58 60 59 41 60 59 61 42 62 45 63 58 64 76 65 43 66
REMARK SMILES IDX 44 67 57 69 77 70 46 71 31 72 32 73 40 74 33 75 39 76 34 77
REMARK SMILES IDX 35 78 36 79 37 80 38 81 61 82 62 83 70 84 63 85 69 86 64 87
REMARK SMILES IDX 65 88 66 89 67 90 68 91 47 92 48 93 56 94 49 95 55 96 50 97
REMARK SMILES IDX 51 98 52 99 53 100 54 101
REMARK H PARENT 12 7 19 38 75 57 45 68
REMARK Flexibility Score: inf
ROOT
ATOM      1  C   UNL A   1      40.257  21.881  26.077  1.00  0.00     0.002 C 
ENDROOT
BRANCH   1   2
ATOM      2  C   UNL A   1      39.195  22.752  26.735  1.00  0.00     0.021 C 
BRANCH   2   3
ATOM      3  C   UNL A   1      37.810  22.749  26.118  1.00  0.00     0.116 C 
BRANCH   3   4
ATOM      4  N   UNL A   1      37.715  22.695  24.692  1.00  0.00    -0.351 N 
ATOM      5  C   UNL A   1      36.691  23.134  23.876  1.00  0.00     0.274 C 
ATOM      6  O   UNL A   1      36.924  23.038  22.666  1.00  0.00    -0.267 OA
ATOM      7  H   UNL A   1      38.484  22.288  24.229  1.00  0.00     0.163 HD
BRANCH   5   8
ATOM      8  C   UNL A   1      35.388  23.643  24.353  1.00  0.00     0.178 A 
ATOM      9  C   UNL A   1      34.047  23.227  24.302  1.00  0.00     0.102 A 
ATOM     10  N   UNL A   1      33.373  24.238  24.963  1.00  0.00    -0.239 N 
ATOM     11  N   UNL A   1      35.429  24.844  25.044  1.00  0.00    -0.124 NA
ATOM     12  N   UNL A   1      34.206  25.211  25.360  1.00  0.00    -0.066 NA
BRANCH   9  13
ATOM     13  C   UNL A   1      33.334  22.084  23.729  1.00  0.00     0.006 A 
ATOM     14  C   UNL A   1      32.420  19.840  24.017  1.00  0.00     0.119 A 
ATOM     15  C   UNL A   1      31.816  19.946  22.764  1.00  0.00     0.046 A 
ATOM     16  C   UNL A   1      33.192  20.901  24.490  1.00  0.00     0.056 A 
ATOM     17  C   UNL A   1      31.966  21.102  21.994  1.00  0.00     0.005 A 
ATOM     18  C   UNL A   1      32.731  22.169  22.471  1.00  0.00     0.011 A 
BRANCH  14  19
ATOM     19  O   UNL A   1      32.206  18.655  24.664  1.00  0.00    -0.497 OA
ATOM     20  C   UNL A   1      33.357  17.892  25.019  1.00  0.00     0.278 C 
ENDBRANCH  14  19
ENDBRANCH   9  13
BRANCH  10  21
ATOM     21  C   UNL A   1      31.945  24.389  25.215  1.00  0.00     0.182 C 
BRANCH  21  22
ATOM     22  C   UNL A   1      31.338  25.515  24.410  1.00  0.00    -0.026 A 
ATOM     23  C   UNL A   1      31.405  25.526  23.012  1.00  0.00     0.009 A 
ATOM     24  C   UNL A   1      30.705  26.583  25.060  1.00  0.00     0.009 A 
ATOM     25  C   UNL A   1      30.846  26.586  22.290  1.00  0.00     0.047 A 
ATOM     26  C   UNL A   1      30.134  27.631  24.336  1.00  0.00     0.047 A 
ATOM     27  C   UNL A   1      30.203  27.641  22.945  1.00  0.00     0.129 A 
BRANCH  27  28
ATOM     28  O   UNL A   1      29.699  28.608  22.122  1.00  0.00    -0.406 OA
BRANCH  28  29
ATOM     29  C   UNL A   1      28.473  29.210  22.500  1.00  0.00     0.573 C 
ATOM     30  F   UNL A   1      27.577  28.285  22.904  1.00  0.00    -0.132 F 
ATOM     31  F   UNL A   1      28.652  30.126  23.477  1.00  0.00    -0.132 F 
ATOM     32  F   UNL A   1      27.956  29.847  21.425  1.00  0.00    -0.132 F 
ENDBRANCH  28  29
ENDBRANCH  27  28
ENDBRANCH  21  22
ENDBRANCH  10  21
ENDBRANCH   5   8
ENDBRANCH   3   4
ENDBRANCH   2   3
ENDBRANCH   1   2
BRANCH   1  33
ATOM     33  C   UNL A   1      40.532  20.497  26.682  1.00  0.00     0.002 C 
BRANCH  33  34
ATOM     34  C   UNL A   1      41.564  19.581  26.005  1.00  0.00     0.021 C 
BRANCH  34  35
ATOM     35  C   UNL A   1      42.935  19.545  26.653  1.00  0.00     0.116 C 
BRANCH  35  36
ATOM     36  N   UNL A   1      44.044  19.538  25.692  1.00  0.00    -0.352 N 
ATOM     37  C   UNL A   1      44.548  20.592  24.941  1.00  0.00     0.251 C 
ATOM     38  H   UNL A   1      44.489  18.670  25.563  1.00  0.00     0.163 HD
ATOM     39  O   UNL A   1      45.193  20.382  23.925  1.00  0.00    -0.269 OA
BRANCH  37  40
ATOM     40  C   UNL A   1      44.298  21.973  25.403  1.00  0.00     0.039 A 
ATOM     41  C   UNL A   1      43.380  22.836  24.796  1.00  0.00     0.014 A 
ATOM     42  C   UNL A   1      45.015  22.390  26.513  1.00  0.00     0.014 A 
ATOM     43  C   UNL A   1      43.176  24.095  25.363  1.00  0.00     0.010 A 
ATOM     44  C   UNL A   1      44.593  23.467  27.227  1.00  0.00     0.010 A 
ATOM     45  C   UNL A   1      43.795  24.395  26.587  1.00  0.00    -0.014 A 
BRANCH  45  46
ATOM     46  C   UNL A   1      43.608  25.645  27.301  1.00  0.00     0.031 A 
ATOM     47  C   UNL A   1      44.591  26.687  26.938  1.00  0.00     0.074 A 
ATOM     48  C   UNL A   1      42.480  25.918  27.997  1.00  0.00     0.049 A 
ATOM     49  N   UNL A   1      45.603  27.078  27.634  1.00  0.00    -0.248 NA
ATOM     50  C   UNL A   1      44.565  27.217  25.563  1.00  0.00     0.031 C 
ATOM     51  C   UNL A   1      41.264  25.099  28.139  1.00  0.00     0.029 A 
ATOM     52  N   UNL A   1      42.129  27.064  28.635  1.00  0.00    -0.354 N 
ATOM     53  C   UNL A   1      46.183  28.102  26.896  1.00  0.00     0.074 A 
ATOM     54  C   UNL A   1      45.674  27.961  25.555  1.00  0.00     0.031 C 
ATOM     55  C   UNL A   1      40.250  25.862  28.607  1.00  0.00     0.029 A 
ATOM     56  C   UNL A   1      40.779  27.165  28.963  1.00  0.00     0.049 A 
ATOM     57  H   UNL A   1      42.779  27.770  28.851  1.00  0.00     0.167 HD
ATOM     58  C   UNL A   1      46.782  29.159  27.514  1.00  0.00     0.031 A 
ATOM     59  C   UNL A   1      40.145  28.257  29.467  1.00  0.00     0.031 A 
ATOM     60  C   UNL A   1      46.950  28.911  28.927  1.00  0.00     0.049 A 
ATOM     61  C   UNL A   1      41.197  29.120  30.060  1.00  0.00     0.074 A 
ATOM     62  C   UNL A   1      47.593  27.948  29.680  1.00  0.00     0.029 A 
ATOM     63  N   UNL A   1      46.029  29.496  29.768  1.00  0.00    -0.354 N 
ATOM     64  N   UNL A   1      41.917  28.760  31.087  1.00  0.00    -0.248 NA
ATOM     65  C   UNL A   1      41.785  30.153  29.221  1.00  0.00     0.031 C 
ATOM     66  C   UNL A   1      46.710  27.682  30.769  1.00  0.00     0.029 A 
ATOM     67  C   UNL A   1      45.621  28.552  30.674  1.00  0.00     0.049 A 
ATOM     68  H   UNL A   1      45.717  30.429  29.724  1.00  0.00     0.167 HD
ATOM     69  C   UNL A   1      43.206  29.176  30.781  1.00  0.00     0.074 A 
ATOM     70  C   UNL A   1      43.043  30.112  29.667  1.00  0.00     0.031 C 
ATOM     71  C   UNL A   1      44.296  28.506  31.261  1.00  0.00     0.031 A 
BRANCH  58  72
ATOM     72  C   UNL A   1      46.798  30.561  26.953  1.00  0.00    -0.014 A 
ATOM     73  C   UNL A   1      47.999  31.296  27.031  1.00  0.00     0.010 A 
ATOM     74  C   UNL A   1      45.633  31.278  26.612  1.00  0.00     0.010 A 
ATOM     75  C   UNL A   1      48.012  32.687  26.870  1.00  0.00     0.020 A 
ATOM     76  C   UNL A   1      45.642  32.658  26.406  1.00  0.00     0.020 A 
ATOM     77  C   UNL A   1      46.826  33.359  26.576  1.00  0.00     0.054 A 
BRANCH  77  78
ATOM     78  S   UNL A   1      46.831  35.165  26.488  1.00  0.00     0.124 S 
ATOM     79  O   UNL A   1      45.435  35.450  26.169  1.00  0.00    -0.237 OA
ATOM     80  O   UNL A   1      47.267  35.536  27.831  1.00  0.00    -0.237 OA
ATOM     81  O   UNL A   1      47.790  35.451  25.423  1.00  0.00    -0.744 OA
ENDBRANCH  77  78
ENDBRANCH  58  72
BRANCH  59  82
ATOM     82  C   UNL A   1      38.771  28.748  29.176  1.00  0.00    -0.014 A 
ATOM     83  C   UNL A   1      37.854  29.015  30.213  1.00  0.00     0.010 A 
ATOM     84  C   UNL A   1      38.459  29.237  27.892  1.00  0.00     0.010 A 
ATOM     85  C   UNL A   1      36.710  29.804  29.987  1.00  0.00     0.020 A 
ATOM     86  C   UNL A   1      37.321  30.020  27.658  1.00  0.00     0.020 A 
ATOM     87  C   UNL A   1      36.464  30.324  28.714  1.00  0.00     0.054 A 
BRANCH  87  88
ATOM     88  S   UNL A   1      35.102  31.506  28.466  1.00  0.00     0.124 S 
ATOM     89  O   UNL A   1      34.048  30.656  27.919  1.00  0.00    -0.237 OA
ATOM     90  O   UNL A   1      34.871  32.013  29.815  1.00  0.00    -0.237 OA
ATOM     91  O   UNL A   1      35.663  32.480  27.531  1.00  0.00    -0.744 OA
ENDBRANCH  87  88
ENDBRANCH  59  82
BRANCH  71  92
ATOM     92  C   UNL A   1      44.085  27.479  32.354  1.00  0.00    -0.014 A 
ATOM     93  C   UNL A   1      43.575  27.777  33.634  1.00  0.00     0.010 A 
ATOM     94  C   UNL A   1      44.271  26.129  32.010  1.00  0.00     0.010 A 
ATOM     95  C   UNL A   1      43.286  26.752  34.550  1.00  0.00     0.020 A 
ATOM     96  C   UNL A   1      43.970  25.104  32.909  1.00  0.00     0.020 A 
ATOM     97  C   UNL A   1      43.488  25.420  34.180  1.00  0.00     0.054 A 
BRANCH  97  98
ATOM     98  S   UNL A   1      43.085  24.090  35.349  1.00  0.00     0.124 S 
ATOM     99  O   UNL A   1      41.724  24.427  35.756  1.00  0.00    -0.237 OA
ATOM    100  O   UNL A   1      43.218  22.887  34.531  1.00  0.00    -0.237 OA
ATOM    101  O   UNL A   1      44.095  24.229  36.398  1.00  0.00    -0.744 OA
ENDBRANCH  97  98
ENDBRANCH  71  92
ENDBRANCH  45  46
ENDBRANCH  37  40
ENDBRANCH  35  36
ENDBRANCH  34  35
ENDBRANCH  33  34
ENDBRANCH   1  33
TORSDOF 22
ENDMDL
