MODEL 1
REMARK VINA RESULT:     -10.4      0.000      0.000
REMARK SMILES O=C(NCCCCCCNC(=O)[C@]1(O)C[C@@H]2C=C[C@H]1C2)c1ccc(-c2c3nc(c(-c4ccc(S(=O)(=O)[O-])cc4)c4ccc([nH]4)c(-c4ccc(S(=O)(=O)[O-])cc4)c4nc(c(-c5ccc(S(=O)(=O)[O-])cc5)c5ccc2[nH]5)C=C4)C=C3)cc1
REMARK SMILES IDX 5 1 4 2 3 3 1 4 2 5 21 7 22 8 80 9 23 10 79 11 24 12 25 13
REMARK SMILES IDX 26 14 73 15 27 16 78 17 72 18 74 19 28 20 77 21 71 22 70 23
REMARK SMILES IDX 29 25 59 26 40 27 58 28 41 29 44 30 57 31 75 32 42 33 43 34
REMARK SMILES IDX 56 36 76 37 45 38 30 39 31 40 39 41 32 42 38 43 33 44 34 45
REMARK SMILES IDX 35 46 36 47 37 48 60 49 61 50 69 51 62 52 68 53 63 54 64 55
REMARK SMILES IDX 65 56 66 57 67 58 46 59 47 60 55 61 48 62 54 63 49 64 50 65
REMARK SMILES IDX 51 66 52 67 53 68 6 69 7 70 8 71 9 72 10 73 11 74 12 76
REMARK SMILES IDX 13 77 15 78 19 79 16 80 18 81 20 82 17 83 14 84
REMARK H PARENT 3 6 74 24 44 35 10 75 14 85
REMARK Flexibility Score: inf
ROOT
ATOM      1  C   UNL A   1      34.981  32.507  27.805  1.00  0.00     0.021 C 
ENDROOT
BRANCH   1   2
ATOM      2  C   UNL A   1      36.157  32.119  28.690  1.00  0.00     0.116 C 
BRANCH   2   3
ATOM      3  N   UNL A   1      35.756  31.223  29.760  1.00  0.00    -0.352 N 
ATOM      4  O   UNL A   1      35.863  29.354  31.019  1.00  0.00    -0.269 OA
ATOM      5  C   UNL A   1      36.429  30.137  30.261  1.00  0.00     0.251 C 
ATOM      6  H   UNL A   1      34.889  31.421  30.182  1.00  0.00     0.163 HD
BRANCH   5   7
ATOM      7  C   UNL A   1      37.837  29.916  29.872  1.00  0.00     0.039 A 
ATOM      8  C   UNL A   1      38.842  29.900  30.844  1.00  0.00     0.014 A 
ATOM      9  C   UNL A   1      38.151  29.699  28.528  1.00  0.00     0.014 A 
ATOM     10  C   UNL A   1      40.171  29.763  30.463  1.00  0.00     0.010 A 
ATOM     11  C   UNL A   1      39.480  29.482  28.155  1.00  0.00     0.010 A 
ATOM     12  C   UNL A   1      40.498  29.515  29.120  1.00  0.00    -0.014 A 
BRANCH  12  13
ATOM     13  C   UNL A   1      41.891  29.147  28.768  1.00  0.00     0.031 A 
ATOM     14  C   UNL A   1      42.987  30.172  28.729  1.00  0.00     0.074 A 
ATOM     15  C   UNL A   1      42.143  27.860  28.455  1.00  0.00     0.049 A 
ATOM     16  N   UNL A   1      44.243  30.010  28.401  1.00  0.00    -0.248 NA
ATOM     17  C   UNL A   1      42.636  31.553  29.095  1.00  0.00     0.031 C 
ATOM     18  C   UNL A   1      41.144  26.784  28.445  1.00  0.00     0.029 A 
ATOM     19  N   UNL A   1      43.303  27.233  28.083  1.00  0.00    -0.354 N 
ATOM     20  C   UNL A   1      44.828  31.267  28.493  1.00  0.00     0.074 A 
ATOM     21  C   UNL A   1      43.788  32.186  28.905  1.00  0.00     0.031 C 
ATOM     22  C   UNL A   1      41.737  25.632  28.107  1.00  0.00     0.029 A 
ATOM     23  C   UNL A   1      43.138  25.896  27.804  1.00  0.00     0.049 A 
ATOM     24  H   UNL A   1      44.170  27.694  28.021  1.00  0.00     0.167 HD
ATOM     25  C   UNL A   1      46.114  31.616  28.249  1.00  0.00     0.031 A 
ATOM     26  C   UNL A   1      44.002  24.988  27.316  1.00  0.00     0.031 A 
ATOM     27  C   UNL A   1      47.138  30.685  27.847  1.00  0.00     0.049 A 
ATOM     28  C   UNL A   1      45.408  25.417  27.016  1.00  0.00     0.074 A 
ATOM     29  C   UNL A   1      48.487  30.928  27.651  1.00  0.00     0.029 A 
ATOM     30  N   UNL A   1      46.928  29.346  27.556  1.00  0.00    -0.354 N 
ATOM     31  N   UNL A   1      45.964  26.592  27.198  1.00  0.00    -0.248 NA
ATOM     32  C   UNL A   1      46.304  24.405  26.441  1.00  0.00     0.031 C 
ATOM     33  C   UNL A   1      49.078  29.755  27.174  1.00  0.00     0.029 A 
ATOM     34  C   UNL A   1      48.110  28.764  27.132  1.00  0.00     0.049 A 
ATOM     35  H   UNL A   1      46.066  28.879  27.639  1.00  0.00     0.167 HD
ATOM     36  C   UNL A   1      47.276  26.458  26.765  1.00  0.00     0.074 A 
ATOM     37  C   UNL A   1      47.440  25.081  26.343  1.00  0.00     0.031 C 
ATOM     38  C   UNL A   1      48.254  27.393  26.712  1.00  0.00     0.031 A 
BRANCH  25  39
ATOM     39  C   UNL A   1      46.502  33.065  28.376  1.00  0.00    -0.014 A 
ATOM     40  C   UNL A   1      46.421  33.945  27.283  1.00  0.00     0.010 A 
ATOM     41  C   UNL A   1      46.843  33.578  29.643  1.00  0.00     0.010 A 
ATOM     42  C   UNL A   1      46.684  35.307  27.452  1.00  0.00     0.020 A 
ATOM     43  C   UNL A   1      47.086  34.942  29.820  1.00  0.00     0.020 A 
ATOM     44  C   UNL A   1      47.010  35.798  28.721  1.00  0.00     0.054 A 
BRANCH  44  45
ATOM     45  S   UNL A   1      47.281  37.582  28.920  1.00  0.00     0.124 S 
ATOM     46  O   UNL A   1      45.942  38.118  28.688  1.00  0.00    -0.237 OA
ATOM     47  O   UNL A   1      47.765  37.679  30.296  1.00  0.00    -0.237 OA
ATOM     48  O   UNL A   1      48.267  37.902  27.891  1.00  0.00    -0.744 OA
ENDBRANCH  44  45
ENDBRANCH  25  39
BRANCH  26  49
ATOM     49  C   UNL A   1      43.539  23.605  27.019  1.00  0.00    -0.014 A 
ATOM     50  C   UNL A   1      43.315  22.680  28.052  1.00  0.00     0.010 A 
ATOM     51  C   UNL A   1      43.323  23.208  25.685  1.00  0.00     0.010 A 
ATOM     52  C   UNL A   1      42.914  21.374  27.754  1.00  0.00     0.020 A 
ATOM     53  C   UNL A   1      42.890  21.915  25.386  1.00  0.00     0.020 A 
ATOM     54  C   UNL A   1      42.707  21.000  26.423  1.00  0.00     0.054 A 
BRANCH  54  55
ATOM     55  S   UNL A   1      42.171  19.305  26.061  1.00  0.00     0.124 S 
ATOM     56  O   UNL A   1      42.997  18.969  24.906  1.00  0.00    -0.237 OA
ATOM     57  O   UNL A   1      42.495  18.600  27.299  1.00  0.00    -0.237 OA
ATOM     58  O   UNL A   1      40.742  19.449  25.791  1.00  0.00    -0.744 OA
ENDBRANCH  54  55
ENDBRANCH  26  49
BRANCH  38  59
ATOM     59  C   UNL A   1      49.594  26.959  26.185  1.00  0.00    -0.014 A 
ATOM     60  C   UNL A   1      50.522  26.309  27.020  1.00  0.00     0.010 A 
ATOM     61  C   UNL A   1      49.902  27.140  24.825  1.00  0.00     0.010 A 
ATOM     62  C   UNL A   1      51.741  25.865  26.507  1.00  0.00     0.020 A 
ATOM     63  C   UNL A   1      51.109  26.671  24.302  1.00  0.00     0.020 A 
ATOM     64  C   UNL A   1      52.024  26.042  25.149  1.00  0.00     0.054 A 
BRANCH  64  65
ATOM     65  S   UNL A   1      53.586  25.392  24.494  1.00  0.00     0.124 S 
ATOM     66  O   UNL A   1      53.468  23.966  24.785  1.00  0.00    -0.237 OA
ATOM     67  O   UNL A   1      53.514  25.753  23.079  1.00  0.00    -0.237 OA
ATOM     68  O   UNL A   1      54.606  26.103  25.261  1.00  0.00    -0.744 OA
ENDBRANCH  64  65
ENDBRANCH  38  59
ENDBRANCH  12  13
ENDBRANCH   5   7
ENDBRANCH   2   3
ENDBRANCH   1   2
BRANCH   1  69
ATOM     69  C   UNL A   1      33.999  33.481  28.457  1.00  0.00     0.002 C 
BRANCH  69  70
ATOM     70  C   UNL A   1      34.372  34.961  28.320  1.00  0.00     0.002 C 
BRANCH  70  71
ATOM     71  C   UNL A   1      33.362  35.945  28.922  1.00  0.00     0.021 C 
BRANCH  71  72
ATOM     72  C   UNL A   1      32.938  35.611  30.351  1.00  0.00     0.116 C 
BRANCH  72  73
ATOM     73  N   UNL A   1      33.603  36.476  31.304  1.00  0.00    -0.354 N 
ATOM     74  C   UNL A   1      34.074  36.192  32.555  1.00  0.00     0.252 C 
ATOM     75  H   UNL A   1      33.736  37.406  31.007  1.00  0.00     0.163 HD
ATOM     76  O   UNL A   1      34.444  37.144  33.248  1.00  0.00    -0.272 OA
BRANCH  74  77
ATOM     77  C   UNL A   1      34.173  34.714  33.023  1.00  0.00     0.149 C 
ATOM     78  C   UNL A   1      34.966  34.544  34.360  1.00  0.00     0.053 C 
ATOM     79  C   UNL A   1      35.043  33.871  32.027  1.00  0.00     0.053 C 
ATOM     80  C   UNL A   1      36.170  33.670  33.944  1.00  0.00     0.015 C 
ATOM     81  C   UNL A   1      36.380  34.554  31.831  1.00  0.00    -0.024 C 
ATOM     82  C   UNL A   1      35.520  32.726  32.932  1.00  0.00     0.019 C 
ATOM     83  C   UNL A   1      37.040  34.459  32.995  1.00  0.00    -0.027 C 
BRANCH  77  84
ATOM     84  O   UNL A   1      32.868  34.159  33.209  1.00  0.00    -0.379 OA
ATOM     85  H   UNL A   1      32.405  34.130  32.357  1.00  0.00     0.212 HD
ENDBRANCH  77  84
ENDBRANCH  74  77
ENDBRANCH  72  73
ENDBRANCH  71  72
ENDBRANCH  70  71
ENDBRANCH  69  70
ENDBRANCH   1  69
TORSDOF 17
ENDMDL
MODEL 2
REMARK VINA RESULT:     -10.3      4.526     10.848
REMARK SMILES O=C(NCCCCCCNC(=O)[C@]1(O)C[C@@H]2C=C[C@H]1C2)c1ccc(-c2c3nc(c(-c4ccc(S(=O)(=O)[O-])cc4)c4ccc([nH]4)c(-c4ccc(S(=O)(=O)[O-])cc4)c4nc(c(-c5ccc(S(=O)(=O)[O-])cc5)c5ccc2[nH]5)C=C4)C=C3)cc1
REMARK SMILES IDX 5 1 4 2 3 3 1 4 2 5 21 7 22 8 80 9 23 10 79 11 24 12 25 13
REMARK SMILES IDX 26 14 73 15 27 16 78 17 72 18 74 19 28 20 77 21 71 22 70 23
REMARK SMILES IDX 29 25 59 26 40 27 58 28 41 29 44 30 57 31 75 32 42 33 43 34
REMARK SMILES IDX 56 36 76 37 45 38 30 39 31 40 39 41 32 42 38 43 33 44 34 45
REMARK SMILES IDX 35 46 36 47 37 48 60 49 61 50 69 51 62 52 68 53 63 54 64 55
REMARK SMILES IDX 65 56 66 57 67 58 46 59 47 60 55 61 48 62 54 63 49 64 50 65
REMARK SMILES IDX 51 66 52 67 53 68 6 69 7 70 8 71 9 72 10 73 11 74 12 76
REMARK SMILES IDX 13 77 15 78 19 79 16 80 18 81 20 82 17 83 14 84
REMARK H PARENT 3 6 74 24 44 35 10 75 14 85
REMARK Flexibility Score: inf
ROOT
ATOM      1  C   UNL A   1      33.652  28.230  25.840  1.00  0.00     0.021 C 
ENDROOT
BRANCH   1   2
ATOM      2  C   UNL A   1      33.650  28.514  27.336  1.00  0.00     0.116 C 
BRANCH   2   3
ATOM      3  N   UNL A   1      33.536  29.935  27.615  1.00  0.00    -0.352 N 
ATOM      4  O   UNL A   1      34.126  31.892  28.570  1.00  0.00    -0.269 OA
ATOM      5  C   UNL A   1      34.453  30.764  28.210  1.00  0.00     0.251 C 
ATOM      6  H   UNL A   1      32.690  30.359  27.343  1.00  0.00     0.163 HD
BRANCH   5   7
ATOM      7  C   UNL A   1      35.834  30.283  28.420  1.00  0.00     0.039 A 
ATOM      8  C   UNL A   1      36.776  30.376  27.391  1.00  0.00     0.014 A 
ATOM      9  C   UNL A   1      36.196  29.756  29.663  1.00  0.00     0.014 A 
ATOM     10  C   UNL A   1      38.053  29.856  27.572  1.00  0.00     0.010 A 
ATOM     11  C   UNL A   1      37.502  29.307  29.869  1.00  0.00     0.010 A 
ATOM     12  C   UNL A   1      38.438  29.352  28.824  1.00  0.00    -0.014 A 
BRANCH  12  13
ATOM     13  C   UNL A   1      39.862  29.013  29.064  1.00  0.00     0.031 A 
ATOM     14  C   UNL A   1      40.431  27.685  28.658  1.00  0.00     0.074 A 
ATOM     15  C   UNL A   1      40.631  29.930  29.686  1.00  0.00     0.049 A 
ATOM     16  N   UNL A   1      41.645  27.229  28.836  1.00  0.00    -0.248 NA
ATOM     17  C   UNL A   1      39.532  26.743  27.974  1.00  0.00     0.031 C 
ATOM     18  C   UNL A   1      40.171  31.248  30.138  1.00  0.00     0.029 A 
ATOM     19  N   UNL A   1      41.951  29.900  30.050  1.00  0.00    -0.354 N 
ATOM     20  C   UNL A   1      41.651  25.942  28.314  1.00  0.00     0.074 A 
ATOM     21  C   UNL A   1      40.318  25.685  27.813  1.00  0.00     0.031 C 
ATOM     22  C   UNL A   1      41.195  31.906  30.698  1.00  0.00     0.029 A 
ATOM     23  C   UNL A   1      42.363  31.033  30.713  1.00  0.00     0.049 A 
ATOM     24  H   UNL A   1      42.549  29.142  29.857  1.00  0.00     0.167 HD
ATOM     25  C   UNL A   1      42.678  25.060  28.265  1.00  0.00     0.031 A 
ATOM     26  C   UNL A   1      43.533  31.327  31.308  1.00  0.00     0.031 A 
ATOM     27  C   UNL A   1      44.002  25.337  28.762  1.00  0.00     0.049 A 
ATOM     28  C   UNL A   1      44.636  30.310  31.272  1.00  0.00     0.074 A 
ATOM     29  C   UNL A   1      45.129  24.536  28.689  1.00  0.00     0.029 A 
ATOM     30  N   UNL A   1      44.373  26.486  29.443  1.00  0.00    -0.354 N 
ATOM     31  N   UNL A   1      44.649  29.134  30.692  1.00  0.00    -0.248 NA
ATOM     32  C   UNL A   1      45.879  30.653  31.975  1.00  0.00     0.031 C 
ATOM     33  C   UNL A   1      46.161  25.170  29.387  1.00  0.00     0.029 A 
ATOM     34  C   UNL A   1      45.695  26.393  29.842  1.00  0.00     0.049 A 
ATOM     35  H   UNL A   1      43.782  27.255  29.618  1.00  0.00     0.167 HD
ATOM     36  C   UNL A   1      45.903  28.599  30.955  1.00  0.00     0.074 A 
ATOM     37  C   UNL A   1      46.631  29.593  31.717  1.00  0.00     0.031 C 
ATOM     38  C   UNL A   1      46.403  27.390  30.604  1.00  0.00     0.031 A 
BRANCH  25  39
ATOM     39  C   UNL A   1      42.425  23.695  27.683  1.00  0.00    -0.014 A 
ATOM     40  C   UNL A   1      42.619  23.432  26.316  1.00  0.00     0.010 A 
ATOM     41  C   UNL A   1      42.101  22.629  28.545  1.00  0.00     0.010 A 
ATOM     42  C   UNL A   1      42.482  22.133  25.821  1.00  0.00     0.020 A 
ATOM     43  C   UNL A   1      41.984  21.325  28.056  1.00  0.00     0.020 A 
ATOM     44  C   UNL A   1      42.170  21.086  26.695  1.00  0.00     0.054 A 
BRANCH  44  45
ATOM     45  S   UNL A   1      42.064  19.400  26.031  1.00  0.00     0.124 S 
ATOM     46  O   UNL A   1      42.929  19.483  24.856  1.00  0.00    -0.237 OA
ATOM     47  O   UNL A   1      42.580  18.591  27.133  1.00  0.00    -0.237 OA
ATOM     48  O   UNL A   1      40.642  19.225  25.746  1.00  0.00    -0.744 OA
ENDBRANCH  44  45
ENDBRANCH  25  39
BRANCH  26  49
ATOM     49  C   UNL A   1      43.692  32.611  32.043  1.00  0.00    -0.014 A 
ATOM     50  C   UNL A   1      43.361  32.711  33.405  1.00  0.00     0.010 A 
ATOM     51  C   UNL A   1      44.180  33.749  31.372  1.00  0.00     0.010 A 
ATOM     52  C   UNL A   1      43.484  33.933  34.073  1.00  0.00     0.020 A 
ATOM     53  C   UNL A   1      44.337  34.962  32.044  1.00  0.00     0.020 A 
ATOM     54  C   UNL A   1      43.969  35.051  33.387  1.00  0.00     0.054 A 
BRANCH  54  55
ATOM     55  S   UNL A   1      44.135  36.622  34.277  1.00  0.00     0.124 S 
ATOM     56  O   UNL A   1      44.032  37.594  33.194  1.00  0.00    -0.237 OA
ATOM     57  O   UNL A   1      43.005  36.582  35.203  1.00  0.00    -0.237 OA
ATOM     58  O   UNL A   1      45.450  36.520  34.906  1.00  0.00    -0.744 OA
ENDBRANCH  54  55
ENDBRANCH  26  49
BRANCH  38  59
ATOM     59  C   UNL A   1      47.809  27.075  31.035  1.00  0.00    -0.014 A 
ATOM     60  C   UNL A   1      48.055  26.323  32.199  1.00  0.00     0.010 A 
ATOM     61  C   UNL A   1      48.892  27.475  30.232  1.00  0.00     0.010 A 
ATOM     62  C   UNL A   1      49.362  25.993  32.561  1.00  0.00     0.020 A 
ATOM     63  C   UNL A   1      50.199  27.121  30.576  1.00  0.00     0.020 A 
ATOM     64  C   UNL A   1      50.425  26.388  31.743  1.00  0.00     0.054 A 
BRANCH  64  65
ATOM     65  S   UNL A   1      52.107  25.884  32.200  1.00  0.00     0.124 S 
ATOM     66  O   UNL A   1      52.598  27.064  32.906  1.00  0.00    -0.237 OA
ATOM     67  O   UNL A   1      51.873  24.706  33.031  1.00  0.00    -0.237 OA
ATOM     68  O   UNL A   1      52.749  25.615  30.915  1.00  0.00    -0.744 OA
ENDBRANCH  64  65
ENDBRANCH  38  59
ENDBRANCH  12  13
ENDBRANCH   5   7
ENDBRANCH   2   3
ENDBRANCH   1   2
BRANCH   1  69
ATOM     69  C   UNL A   1      33.203  26.816  25.470  1.00  0.00     0.002 C 
BRANCH  69  70
ATOM     70  C   UNL A   1      32.034  26.273  26.299  1.00  0.00     0.002 C 
BRANCH  70  71
ATOM     71  C   UNL A   1      31.405  24.979  25.768  1.00  0.00     0.021 C 
BRANCH  71  72
ATOM     72  C   UNL A   1      32.415  23.975  25.213  1.00  0.00     0.116 C 
BRANCH  72  73
ATOM     73  N   UNL A   1      33.113  23.297  26.286  1.00  0.00    -0.354 N 
ATOM     74  C   UNL A   1      34.096  22.349  26.221  1.00  0.00     0.252 C 
ATOM     75  H   UNL A   1      32.840  23.556  27.196  1.00  0.00     0.163 HD
ATOM     76  O   UNL A   1      34.409  21.789  27.275  1.00  0.00    -0.272 OA
BRANCH  74  77
ATOM     77  C   UNL A   1      34.798  22.061  24.866  1.00  0.00     0.149 C 
ATOM     78  C   UNL A   1      36.008  21.078  24.997  1.00  0.00     0.053 C 
ATOM     79  C   UNL A   1      35.494  23.351  24.313  1.00  0.00     0.053 C 
ATOM     80  C   UNL A   1      37.207  21.937  24.538  1.00  0.00     0.015 C 
ATOM     81  C   UNL A   1      36.405  23.923  25.378  1.00  0.00    -0.024 C 
ATOM     82  C   UNL A   1      36.578  22.750  23.406  1.00  0.00     0.019 C 
ATOM     83  C   UNL A   1      37.416  23.054  25.533  1.00  0.00    -0.027 C 
BRANCH  77  84
ATOM     84  O   UNL A   1      33.872  21.499  23.931  1.00  0.00    -0.379 OA
ATOM     85  H   UNL A   1      34.330  20.847  23.376  1.00  0.00     0.212 HD
ENDBRANCH  77  84
ENDBRANCH  74  77
ENDBRANCH  72  73
ENDBRANCH  71  72
ENDBRANCH  70  71
ENDBRANCH  69  70
ENDBRANCH   1  69
TORSDOF 17
ENDMDL
MODEL 3
REMARK VINA RESULT:     -10.3      4.434      6.765
REMARK SMILES O=C(NCCCCCCNC(=O)[C@]1(O)C[C@@H]2C=C[C@H]1C2)c1ccc(-c2c3nc(c(-c4ccc(S(=O)(=O)[O-])cc4)c4ccc([nH]4)c(-c4ccc(S(=O)(=O)[O-])cc4)c4nc(c(-c5ccc(S(=O)(=O)[O-])cc5)c5ccc2[nH]5)C=C4)C=C3)cc1
REMARK SMILES IDX 5 1 4 2 3 3 1 4 2 5 21 7 22 8 80 9 23 10 79 11 24 12 25 13
REMARK SMILES IDX 26 14 73 15 27 16 78 17 72 18 74 19 28 20 77 21 71 22 70 23
REMARK SMILES IDX 29 25 59 26 40 27 58 28 41 29 44 30 57 31 75 32 42 33 43 34
REMARK SMILES IDX 56 36 76 37 45 38 30 39 31 40 39 41 32 42 38 43 33 44 34 45
REMARK SMILES IDX 35 46 36 47 37 48 60 49 61 50 69 51 62 52 68 53 63 54 64 55
REMARK SMILES IDX 65 56 66 57 67 58 46 59 47 60 55 61 48 62 54 63 49 64 50 65
REMARK SMILES IDX 51 66 52 67 53 68 6 69 7 70 8 71 9 72 10 73 11 74 12 76
REMARK SMILES IDX 13 77 15 78 19 79 16 80 18 81 20 82 17 83 14 84
REMARK H PARENT 3 6 74 24 44 35 10 75 14 85
REMARK Flexibility Score: inf
ROOT
ATOM      1  C   UNL A   1      34.029  27.993  25.700  1.00  0.00     0.021 C 
ENDROOT
BRANCH   1   2
ATOM      2  C   UNL A   1      33.774  28.287  27.173  1.00  0.00     0.116 C 
BRANCH   2   3
ATOM      3  N   UNL A   1      33.618  29.709  27.421  1.00  0.00    -0.352 N 
ATOM      4  O   UNL A   1      34.122  31.693  28.369  1.00  0.00    -0.269 OA
ATOM      5  C   UNL A   1      34.488  30.566  28.047  1.00  0.00     0.251 C 
ATOM      6  H   UNL A   1      32.780  30.112  27.098  1.00  0.00     0.163 HD
BRANCH   5   7
ATOM      7  C   UNL A   1      35.866  30.116  28.334  1.00  0.00     0.039 A 
ATOM      8  C   UNL A   1      36.855  30.201  27.350  1.00  0.00     0.014 A 
ATOM      9  C   UNL A   1      36.176  29.628  29.606  1.00  0.00     0.014 A 
ATOM     10  C   UNL A   1      38.130  29.710  27.604  1.00  0.00     0.010 A 
ATOM     11  C   UNL A   1      37.478  29.208  29.886  1.00  0.00     0.010 A 
ATOM     12  C   UNL A   1      38.463  29.244  28.886  1.00  0.00    -0.014 A 
BRANCH  12  13
ATOM     13  C   UNL A   1      39.879  28.938  29.202  1.00  0.00     0.031 A 
ATOM     14  C   UNL A   1      40.794  29.975  29.787  1.00  0.00     0.074 A 
ATOM     15  C   UNL A   1      40.333  27.699  28.924  1.00  0.00     0.049 A 
ATOM     16  N   UNL A   1      42.065  29.869  30.080  1.00  0.00    -0.248 NA
ATOM     17  C   UNL A   1      40.221  31.299  30.074  1.00  0.00     0.031 C 
ATOM     18  C   UNL A   1      39.529  26.620  28.338  1.00  0.00     0.029 A 
ATOM     19  N   UNL A   1      41.570  27.135  29.088  1.00  0.00    -0.354 N 
ATOM     20  C   UNL A   1      42.452  31.114  30.559  1.00  0.00     0.074 A 
ATOM     21  C   UNL A   1      41.283  31.965  30.515  1.00  0.00     0.031 C 
ATOM     22  C   UNL A   1      40.287  25.523  28.212  1.00  0.00     0.029 A 
ATOM     23  C   UNL A   1      41.645  25.838  28.637  1.00  0.00     0.049 A 
ATOM     24  H   UNL A   1      42.333  27.611  29.489  1.00  0.00     0.167 HD
ATOM     25  C   UNL A   1      43.676  31.505  30.989  1.00  0.00     0.031 A 
ATOM     26  C   UNL A   1      42.696  25.004  28.531  1.00  0.00     0.031 A 
ATOM     27  C   UNL A   1      44.828  30.641  31.033  1.00  0.00     0.049 A 
ATOM     28  C   UNL A   1      44.046  25.483  28.978  1.00  0.00     0.074 A 
ATOM     29  C   UNL A   1      46.092  30.922  31.524  1.00  0.00     0.029 A 
ATOM     30  N   UNL A   1      44.869  29.342  30.550  1.00  0.00    -0.354 N 
ATOM     31  N   UNL A   1      44.371  26.636  29.513  1.00  0.00    -0.248 NA
ATOM     32  C   UNL A   1      45.172  24.557  28.801  1.00  0.00     0.031 C 
ATOM     33  C   UNL A   1      46.914  29.820  31.273  1.00  0.00     0.029 A 
ATOM     34  C   UNL A   1      46.148  28.829  30.682  1.00  0.00     0.049 A 
ATOM     35  H   UNL A   1      44.102  28.857  30.168  1.00  0.00     0.167 HD
ATOM     36  C   UNL A   1      45.739  26.570  29.743  1.00  0.00     0.074 A 
ATOM     37  C   UNL A   1      46.173  25.254  29.319  1.00  0.00     0.031 C 
ATOM     38  C   UNL A   1      46.563  27.518  30.251  1.00  0.00     0.031 A 
BRANCH  25  39
ATOM     39  C   UNL A   1      43.862  32.934  31.424  1.00  0.00    -0.014 A 
ATOM     40  C   UNL A   1      44.302  33.923  30.526  1.00  0.00     0.010 A 
ATOM     41  C   UNL A   1      43.476  33.314  32.724  1.00  0.00     0.010 A 
ATOM     42  C   UNL A   1      44.364  35.261  30.926  1.00  0.00     0.020 A 
ATOM     43  C   UNL A   1      43.517  34.653  33.119  1.00  0.00     0.020 A 
ATOM     44  C   UNL A   1      43.966  35.619  32.218  1.00  0.00     0.054 A 
BRANCH  44  45
ATOM     45  S   UNL A   1      43.996  37.373  32.684  1.00  0.00     0.124 S 
ATOM     46  O   UNL A   1      42.927  37.439  33.678  1.00  0.00    -0.237 OA
ATOM     47  O   UNL A   1      45.349  37.541  33.207  1.00  0.00    -0.237 OA
ATOM     48  O   UNL A   1      43.723  38.071  31.430  1.00  0.00    -0.744 OA
ENDBRANCH  44  45
ENDBRANCH  25  39
BRANCH  26  49
ATOM     49  C   UNL A   1      42.520  23.659  27.919  1.00  0.00    -0.014 A 
ATOM     50  C   UNL A   1      42.185  22.544  28.705  1.00  0.00     0.010 A 
ATOM     51  C   UNL A   1      42.692  23.491  26.531  1.00  0.00     0.010 A 
ATOM     52  C   UNL A   1      42.057  21.281  28.120  1.00  0.00     0.020 A 
ATOM     53  C   UNL A   1      42.533  22.238  25.938  1.00  0.00     0.020 A 
ATOM     54  C   UNL A   1      42.235  21.136  26.740  1.00  0.00     0.054 A 
BRANCH  54  55
ATOM     55  S   UNL A   1      42.049  19.491  26.000  1.00  0.00     0.124 S 
ATOM     56  O   UNL A   1      40.611  19.429  25.761  1.00  0.00    -0.237 OA
ATOM     57  O   UNL A   1      42.887  19.585  24.807  1.00  0.00    -0.237 OA
ATOM     58  O   UNL A   1      42.552  18.592  27.036  1.00  0.00    -0.744 OA
ENDBRANCH  54  55
ENDBRANCH  26  49
BRANCH  38  59
ATOM     59  C   UNL A   1      48.019  27.165  30.383  1.00  0.00    -0.014 A 
ATOM     60  C   UNL A   1      48.924  27.433  29.340  1.00  0.00     0.010 A 
ATOM     61  C   UNL A   1      48.500  26.624  31.589  1.00  0.00     0.010 A 
ATOM     62  C   UNL A   1      50.282  27.150  29.495  1.00  0.00     0.020 A 
ATOM     63  C   UNL A   1      49.862  26.366  31.758  1.00  0.00     0.020 A 
ATOM     64  C   UNL A   1      50.743  26.624  30.706  1.00  0.00     0.054 A 
BRANCH  64  65
ATOM     65  S   UNL A   1      52.522  26.330  30.905  1.00  0.00     0.124 S 
ATOM     66  O   UNL A   1      52.974  26.244  29.520  1.00  0.00    -0.237 OA
ATOM     67  O   UNL A   1      52.961  27.517  31.637  1.00  0.00    -0.237 OA
ATOM     68  O   UNL A   1      52.585  25.081  31.661  1.00  0.00    -0.744 OA
ENDBRANCH  64  65
ENDBRANCH  38  59
ENDBRANCH  12  13
ENDBRANCH   5   7
ENDBRANCH   2   3
ENDBRANCH   1   2
BRANCH   1  69
ATOM     69  C   UNL A   1      32.802  28.166  24.805  1.00  0.00     0.002 C 
BRANCH  69  70
ATOM     70  C   UNL A   1      32.330  26.888  24.103  1.00  0.00     0.002 C 
BRANCH  70  71
ATOM     71  C   UNL A   1      32.670  26.801  22.611  1.00  0.00     0.021 C 
BRANCH  71  72
ATOM     72  C   UNL A   1      33.334  25.489  22.196  1.00  0.00     0.116 C 
BRANCH  72  73
ATOM     73  N   UNL A   1      32.663  24.355  22.797  1.00  0.00    -0.354 N 
ATOM     74  C   UNL A   1      33.191  23.278  23.452  1.00  0.00     0.252 C 
ATOM     75  H   UNL A   1      31.680  24.361  22.724  1.00  0.00     0.163 HD
ATOM     76  O   UNL A   1      32.424  22.349  23.719  1.00  0.00    -0.272 OA
BRANCH  74  77
ATOM     77  C   UNL A   1      34.686  23.290  23.870  1.00  0.00     0.149 C 
ATOM     78  C   UNL A   1      35.114  22.010  24.662  1.00  0.00     0.053 C 
ATOM     79  C   UNL A   1      34.963  24.421  24.919  1.00  0.00     0.053 C 
ATOM     80  C   UNL A   1      35.539  22.576  26.036  1.00  0.00     0.015 C 
ATOM     81  C   UNL A   1      33.994  24.280  26.073  1.00  0.00    -0.024 C 
ATOM     82  C   UNL A   1      36.216  23.884  25.626  1.00  0.00     0.019 C 
ATOM     83  C   UNL A   1      34.324  23.153  26.722  1.00  0.00    -0.027 C 
BRANCH  77  84
ATOM     84  O   UNL A   1      35.529  23.398  22.718  1.00  0.00    -0.379 OA
ATOM     85  H   UNL A   1      34.980  23.541  21.930  1.00  0.00     0.212 HD
ENDBRANCH  77  84
ENDBRANCH  74  77
ENDBRANCH  72  73
ENDBRANCH  71  72
ENDBRANCH  70  71
ENDBRANCH  69  70
ENDBRANCH   1  69
TORSDOF 17
ENDMDL
