MODEL 1
REMARK VINA RESULT:     -10.5      0.000      0.000
REMARK SMILES CCc1ccc2c(c1)C=C(C(=O)NCCCCCCNC(=O)c1ccc(-c3c4nc(c(-c5ccc(S(=O)(=O)[O-])cc5)c5ccc([nH]5)c(-c5ccc(S(=O)(=O)[O-])cc5)c5nc(c(-c6ccc(S(=O)(=O)[O-])cc6)c6ccc3[nH]6)C=C5)C=C4)cc1)[C@H](C(F)(F)F)O2
REMARK SMILES IDX 17 1 16 2 15 3 14 4 13 5 11 6 12 7 10 9 3 10 4 11 8 12 5 13
REMARK SMILES IDX 7 14 6 15 9 16 88 17 83 18 2 19 1 20 84 21 85 22 86 23 87 24
REMARK SMILES IDX 18 25 19 26 20 27 21 28 22 30 23 31 24 32 82 33 25 34 81 35
REMARK SMILES IDX 26 36 27 37 28 38 75 39 29 40 80 41 74 42 76 43 30 44 79 45
REMARK SMILES IDX 73 46 72 47 31 49 61 50 42 51 60 52 43 53 46 54 59 55 77 56
REMARK SMILES IDX 44 57 45 58 58 60 78 61 47 62 32 63 33 64 41 65 34 66 40 67
REMARK SMILES IDX 35 68 36 69 37 70 38 71 39 72 62 73 63 74 71 75 64 76 70 77
REMARK SMILES IDX 65 78 66 79 67 80 68 81 69 82 48 83 49 84 57 85 50 86 56 87
REMARK SMILES IDX 51 88 52 89 53 90 54 91 55 92
REMARK H PARENT 13 8 20 29 76 48 46 59
REMARK Flexibility Score: inf
ROOT
ATOM      1  C   UNL A   1      34.013  28.137  23.906  1.00  0.00     0.002 C 
ENDROOT
BRANCH   1   2
ATOM      2  C   UNL A   1      33.086  27.753  22.747  1.00  0.00     0.002 C 
BRANCH   2   3
ATOM      3  C   UNL A   1      33.342  26.357  22.160  1.00  0.00     0.021 C 
BRANCH   3   4
ATOM      4  C   UNL A   1      32.131  25.422  22.279  1.00  0.00     0.116 C 
BRANCH   4   5
ATOM      5  N   UNL A   1      31.747  25.304  23.676  1.00  0.00    -0.352 N 
ATOM      6  C   UNL A   1      32.217  24.545  24.702  1.00  0.00     0.251 C 
ATOM      7  O   UNL A   1      31.557  24.504  25.737  1.00  0.00    -0.270 OA
ATOM      8  H   UNL A   1      30.999  25.890  23.931  1.00  0.00     0.163 HD
BRANCH   6   9
ATOM      9  C   UNL A   1      33.528  23.847  24.648  1.00  0.00     0.067 C 
ATOM     10  C   UNL A   1      38.097  23.172  26.090  1.00  0.00    -0.047 A 
ATOM     11  C   UNL A   1      38.067  21.883  25.542  1.00  0.00     0.007 A 
ATOM     12  C   UNL A   1      36.980  24.004  25.917  1.00  0.00     0.015 A 
ATOM     13  C   UNL A   1      36.929  21.423  24.874  1.00  0.00     0.047 A 
ATOM     14  C   UNL A   1      35.838  23.542  25.253  1.00  0.00     0.017 A 
ATOM     15  C   UNL A   1      35.813  22.247  24.741  1.00  0.00     0.128 A 
ATOM     16  C   UNL A   1      34.634  24.355  25.208  1.00  0.00     0.025 C 
ATOM     17  O   UNL A   1      34.706  21.693  24.171  1.00  0.00    -0.475 OA
ATOM     18  C   UNL A   1      33.617  22.586  23.791  1.00  0.00     0.314 C 
BRANCH  10  19
ATOM     19  C   UNL A   1      39.307  23.657  26.853  1.00  0.00     0.032 C 
ATOM     20  C   UNL A   1      40.040  24.797  26.156  1.00  0.00     0.009 C 
ENDBRANCH  10  19
BRANCH  18  21
ATOM     21  C   UNL A   1      32.346  21.714  23.666  1.00  0.00     0.429 C 
ATOM     22  F   UNL A   1      31.490  22.163  22.720  1.00  0.00    -0.167 F 
ATOM     23  F   UNL A   1      32.667  20.449  23.277  1.00  0.00    -0.167 F 
ATOM     24  F   UNL A   1      31.672  21.600  24.833  1.00  0.00    -0.167 F 
ENDBRANCH  18  21
ENDBRANCH   6   9
ENDBRANCH   4   5
ENDBRANCH   3   4
ENDBRANCH   2   3
ENDBRANCH   1   2
BRANCH   1  25
ATOM     25  C   UNL A   1      33.318  28.287  25.262  1.00  0.00     0.021 C 
BRANCH  25  26
ATOM     26  C   UNL A   1      34.196  28.896  26.350  1.00  0.00     0.116 C 
BRANCH  26  27
ATOM     27  N   UNL A   1      33.837  30.280  26.613  1.00  0.00    -0.352 N 
ATOM     28  C   UNL A   1      34.337  31.139  27.560  1.00  0.00     0.251 C 
ATOM     29  H   UNL A   1      33.137  30.653  26.031  1.00  0.00     0.163 HD
ATOM     30  O   UNL A   1      33.751  32.188  27.804  1.00  0.00    -0.269 OA
BRANCH  28  31
ATOM     31  C   UNL A   1      35.575  30.789  28.288  1.00  0.00     0.039 A 
ATOM     32  C   UNL A   1      35.570  29.685  29.141  1.00  0.00     0.014 A 
ATOM     33  C   UNL A   1      36.733  31.562  28.143  1.00  0.00     0.014 A 
ATOM     34  C   UNL A   1      36.739  29.331  29.818  1.00  0.00     0.010 A 
ATOM     35  C   UNL A   1      37.915  31.162  28.756  1.00  0.00     0.010 A 
ATOM     36  C   UNL A   1      37.928  30.051  29.611  1.00  0.00    -0.014 A 
BRANCH  36  37
ATOM     37  C   UNL A   1      39.187  29.652  30.292  1.00  0.00     0.031 A 
ATOM     38  C   UNL A   1      39.624  30.350  31.553  1.00  0.00     0.074 A 
ATOM     39  C   UNL A   1      39.955  28.684  29.754  1.00  0.00     0.049 A 
ATOM     40  N   UNL A   1      40.686  30.135  32.286  1.00  0.00    -0.248 NA
ATOM     41  C   UNL A   1      38.774  31.450  32.037  1.00  0.00     0.031 C 
ATOM     42  C   UNL A   1      39.664  27.967  28.509  1.00  0.00     0.029 A 
ATOM     43  N   UNL A   1      41.133  28.130  30.187  1.00  0.00    -0.354 N 
ATOM     44  C   UNL A   1      40.635  31.075  33.311  1.00  0.00     0.074 A 
ATOM     45  C   UNL A   1      39.473  31.901  33.069  1.00  0.00     0.031 C 
ATOM     46  C   UNL A   1      40.616  27.044  28.301  1.00  0.00     0.029 A 
ATOM     47  C   UNL A   1      41.602  27.126  29.373  1.00  0.00     0.049 A 
ATOM     48  H   UNL A   1      41.599  28.425  31.003  1.00  0.00     0.167 HD
ATOM     49  C   UNL A   1      41.469  31.224  34.368  1.00  0.00     0.031 A 
ATOM     50  C   UNL A   1      42.699  26.352  29.481  1.00  0.00     0.031 A 
ATOM     51  C   UNL A   1      42.619  30.394  34.609  1.00  0.00     0.049 A 
ATOM     52  C   UNL A   1      43.605  26.530  30.669  1.00  0.00     0.074 A 
ATOM     53  C   UNL A   1      43.498  30.429  35.678  1.00  0.00     0.029 A 
ATOM     54  N   UNL A   1      43.053  29.379  33.768  1.00  0.00    -0.354 N 
ATOM     55  N   UNL A   1      43.502  27.380  31.663  1.00  0.00    -0.248 NA
ATOM     56  C   UNL A   1      44.761  25.629  30.761  1.00  0.00     0.031 C 
ATOM     57  C   UNL A   1      44.493  29.471  35.457  1.00  0.00     0.029 A 
ATOM     58  C   UNL A   1      44.197  28.794  34.285  1.00  0.00     0.049 A 
ATOM     59  H   UNL A   1      42.613  29.115  32.928  1.00  0.00     0.167 HD
ATOM     60  C   UNL A   1      44.562  27.092  32.517  1.00  0.00     0.074 A 
ATOM     61  C   UNL A   1      45.282  25.982  31.928  1.00  0.00     0.031 C 
ATOM     62  C   UNL A   1      44.904  27.690  33.686  1.00  0.00     0.031 A 
BRANCH  49  63
ATOM     63  C   UNL A   1      41.164  32.330  35.347  1.00  0.00    -0.014 A 
ATOM     64  C   UNL A   1      41.609  33.645  35.121  1.00  0.00     0.010 A 
ATOM     65  C   UNL A   1      40.390  32.059  36.489  1.00  0.00     0.010 A 
ATOM     66  C   UNL A   1      41.324  34.659  36.040  1.00  0.00     0.020 A 
ATOM     67  C   UNL A   1      40.075  33.077  37.396  1.00  0.00     0.020 A 
ATOM     68  C   UNL A   1      40.561  34.367  37.173  1.00  0.00     0.054 A 
BRANCH  68  69
ATOM     69  S   UNL A   1      40.188  35.706  38.338  1.00  0.00     0.124 S 
ATOM     70  O   UNL A   1      40.042  36.852  37.443  1.00  0.00    -0.237 OA
ATOM     71  O   UNL A   1      38.956  35.245  38.973  1.00  0.00    -0.237 OA
ATOM     72  O   UNL A   1      41.359  35.745  39.211  1.00  0.00    -0.744 OA
ENDBRANCH  68  69
ENDBRANCH  49  63
BRANCH  50  73
ATOM     73  C   UNL A   1      42.982  25.317  28.450  1.00  0.00    -0.014 A 
ATOM     74  C   UNL A   1      43.620  25.659  27.245  1.00  0.00     0.010 A 
ATOM     75  C   UNL A   1      42.625  23.973  28.675  1.00  0.00     0.010 A 
ATOM     76  C   UNL A   1      43.877  24.685  26.275  1.00  0.00     0.020 A 
ATOM     77  C   UNL A   1      42.908  22.991  27.721  1.00  0.00     0.020 A 
ATOM     78  C   UNL A   1      43.522  23.356  26.522  1.00  0.00     0.054 A 
BRANCH  78  79
ATOM     79  S   UNL A   1      43.908  22.100  25.271  1.00  0.00     0.124 S 
ATOM     80  O   UNL A   1      43.801  22.863  24.031  1.00  0.00    -0.237 OA
ATOM     81  O   UNL A   1      45.258  21.686  25.647  1.00  0.00    -0.237 OA
ATOM     82  O   UNL A   1      42.874  21.087  25.474  1.00  0.00    -0.744 OA
ENDBRANCH  78  79
ENDBRANCH  50  73
BRANCH  62  83
ATOM     83  C   UNL A   1      46.083  27.122  34.433  1.00  0.00    -0.014 A 
ATOM     84  C   UNL A   1      45.931  26.083  35.367  1.00  0.00     0.010 A 
ATOM     85  C   UNL A   1      47.371  27.616  34.162  1.00  0.00     0.010 A 
ATOM     86  C   UNL A   1      47.042  25.580  36.051  1.00  0.00     0.020 A 
ATOM     87  C   UNL A   1      48.488  27.095  34.819  1.00  0.00     0.020 A 
ATOM     88  C   UNL A   1      48.313  26.093  35.774  1.00  0.00     0.054 A 
BRANCH  88  89
ATOM     89  S   UNL A   1      49.742  25.409  36.657  1.00  0.00     0.124 S 
ATOM     90  O   UNL A   1      50.822  25.620  35.697  1.00  0.00    -0.237 OA
ATOM     91  O   UNL A   1      49.799  26.235  37.861  1.00  0.00    -0.237 OA
ATOM     92  O   UNL A   1      49.374  24.013  36.884  1.00  0.00    -0.744 OA
ENDBRANCH  88  89
ENDBRANCH  62  83
ENDBRANCH  36  37
ENDBRANCH  28  31
ENDBRANCH  26  27
ENDBRANCH  25  26
ENDBRANCH   1  25
TORSDOF 18
ENDMDL
MODEL 2
REMARK VINA RESULT:     -10.4      5.098      9.294
REMARK SMILES CCc1ccc2c(c1)C=C(C(=O)NCCCCCCNC(=O)c1ccc(-c3c4nc(c(-c5ccc(S(=O)(=O)[O-])cc5)c5ccc([nH]5)c(-c5ccc(S(=O)(=O)[O-])cc5)c5nc(c(-c6ccc(S(=O)(=O)[O-])cc6)c6ccc3[nH]6)C=C5)C=C4)cc1)[C@H](C(F)(F)F)O2
REMARK SMILES IDX 17 1 16 2 15 3 14 4 13 5 11 6 12 7 10 9 3 10 4 11 8 12 5 13
REMARK SMILES IDX 7 14 6 15 9 16 88 17 83 18 2 19 1 20 84 21 85 22 86 23 87 24
REMARK SMILES IDX 18 25 19 26 20 27 21 28 22 30 23 31 24 32 82 33 25 34 81 35
REMARK SMILES IDX 26 36 27 37 28 38 75 39 29 40 80 41 74 42 76 43 30 44 79 45
REMARK SMILES IDX 73 46 72 47 31 49 61 50 42 51 60 52 43 53 46 54 59 55 77 56
REMARK SMILES IDX 44 57 45 58 58 60 78 61 47 62 32 63 33 64 41 65 34 66 40 67
REMARK SMILES IDX 35 68 36 69 37 70 38 71 39 72 62 73 63 74 71 75 64 76 70 77
REMARK SMILES IDX 65 78 66 79 67 80 68 81 69 82 48 83 49 84 57 85 50 86 56 87
REMARK SMILES IDX 51 88 52 89 53 90 54 91 55 92
REMARK H PARENT 13 8 20 29 76 48 46 59
REMARK Flexibility Score: inf
ROOT
ATOM      1  C   UNL A   1      33.818  28.483  25.402  1.00  0.00     0.002 C 
ENDROOT
BRANCH   1   2
ATOM      2  C   UNL A   1      32.606  29.168  24.759  1.00  0.00     0.002 C 
BRANCH   2   3
ATOM      3  C   UNL A   1      31.246  28.618  25.213  1.00  0.00     0.021 C 
BRANCH   3   4
ATOM      4  C   UNL A   1      30.967  27.200  24.696  1.00  0.00     0.116 C 
BRANCH   4   5
ATOM      5  N   UNL A   1      30.795  26.299  25.824  1.00  0.00    -0.352 N 
ATOM      6  C   UNL A   1      31.373  25.115  26.157  1.00  0.00     0.251 C 
ATOM      7  O   UNL A   1      30.876  24.471  27.078  1.00  0.00    -0.270 OA
ATOM      8  H   UNL A   1      30.127  26.609  26.478  1.00  0.00     0.163 HD
BRANCH   6   9
ATOM      9  C   UNL A   1      32.620  24.622  25.515  1.00  0.00     0.067 C 
ATOM     10  C   UNL A   1      37.325  23.499  25.575  1.00  0.00    -0.047 A 
ATOM     11  C   UNL A   1      37.139  22.712  24.431  1.00  0.00     0.007 A 
ATOM     12  C   UNL A   1      36.239  24.236  26.069  1.00  0.00     0.015 A 
ATOM     13  C   UNL A   1      35.885  22.631  23.821  1.00  0.00     0.047 A 
ATOM     14  C   UNL A   1      34.980  24.151  25.463  1.00  0.00     0.017 A 
ATOM     15  C   UNL A   1      34.805  23.341  24.345  1.00  0.00     0.128 A 
ATOM     16  C   UNL A   1      33.828  24.800  26.068  1.00  0.00     0.025 C 
ATOM     17  O   UNL A   1      33.592  23.130  23.760  1.00  0.00    -0.475 OA
ATOM     18  C   UNL A   1      32.500  24.032  24.112  1.00  0.00     0.314 C 
BRANCH  10  19
ATOM     19  C   UNL A   1      38.668  23.552  26.264  1.00  0.00     0.032 C 
ATOM     20  C   UNL A   1      39.348  22.192  26.364  1.00  0.00     0.009 C 
ENDBRANCH  10  19
BRANCH  18  21
ATOM     21  C   UNL A   1      31.185  23.305  23.749  1.00  0.00     0.429 C 
ATOM     22  F   UNL A   1      30.650  22.631  24.793  1.00  0.00    -0.167 F 
ATOM     23  F   UNL A   1      30.226  24.201  23.382  1.00  0.00    -0.167 F 
ATOM     24  F   UNL A   1      31.329  22.447  22.714  1.00  0.00    -0.167 F 
ENDBRANCH  18  21
ENDBRANCH   6   9
ENDBRANCH   4   5
ENDBRANCH   3   4
ENDBRANCH   2   3
ENDBRANCH   1   2
BRANCH   1  25
ATOM     25  C   UNL A   1      33.881  28.590  26.929  1.00  0.00     0.021 C 
BRANCH  25  26
ATOM     26  C   UNL A   1      35.270  28.900  27.475  1.00  0.00     0.116 C 
BRANCH  26  27
ATOM     27  N   UNL A   1      35.207  29.810  28.609  1.00  0.00    -0.352 N 
ATOM     28  C   UNL A   1      36.183  30.127  29.520  1.00  0.00     0.251 C 
ATOM     29  H   UNL A   1      34.342  30.261  28.740  1.00  0.00     0.163 HD
ATOM     30  O   UNL A   1      35.887  30.720  30.552  1.00  0.00    -0.269 OA
BRANCH  28  31
ATOM     31  C   UNL A   1      37.585  29.742  29.257  1.00  0.00     0.039 A 
ATOM     32  C   UNL A   1      38.098  29.890  27.968  1.00  0.00     0.014 A 
ATOM     33  C   UNL A   1      38.387  29.218  30.278  1.00  0.00     0.014 A 
ATOM     34  C   UNL A   1      39.428  29.549  27.711  1.00  0.00     0.010 A 
ATOM     35  C   UNL A   1      39.731  28.954  30.038  1.00  0.00     0.010 A 
ATOM     36  C   UNL A   1      40.263  29.103  28.749  1.00  0.00    -0.014 A 
BRANCH  36  37
ATOM     37  C   UNL A   1      41.691  28.784  28.494  1.00  0.00     0.031 A 
ATOM     38  C   UNL A   1      42.100  27.390  28.098  1.00  0.00     0.074 A 
ATOM     39  C   UNL A   1      42.625  29.743  28.653  1.00  0.00     0.049 A 
ATOM     40  N   UNL A   1      43.294  26.927  27.830  1.00  0.00    -0.248 NA
ATOM     41  C   UNL A   1      41.034  26.377  28.021  1.00  0.00     0.031 C 
ATOM     42  C   UNL A   1      42.360  31.119  29.082  1.00  0.00     0.029 A 
ATOM     43  N   UNL A   1      43.983  29.711  28.467  1.00  0.00    -0.354 N 
ATOM     44  C   UNL A   1      43.125  25.573  27.561  1.00  0.00     0.074 A 
ATOM     45  C   UNL A   1      41.724  25.276  27.759  1.00  0.00     0.031 C 
ATOM     46  C   UNL A   1      43.513  31.808  29.088  1.00  0.00     0.029 A 
ATOM     47  C   UNL A   1      44.601  30.917  28.701  1.00  0.00     0.049 A 
ATOM     48  H   UNL A   1      44.471  28.899  28.194  1.00  0.00     0.167 HD
ATOM     49  C   UNL A   1      44.048  24.664  27.164  1.00  0.00     0.031 A 
ATOM     50  C   UNL A   1      45.897  31.269  28.607  1.00  0.00     0.031 A 
ATOM     51  C   UNL A   1      45.439  24.967  26.961  1.00  0.00     0.049 A 
ATOM     52  C   UNL A   1      46.902  30.245  28.155  1.00  0.00     0.074 A 
ATOM     53  C   UNL A   1      46.446  24.131  26.510  1.00  0.00     0.029 A 
ATOM     54  N   UNL A   1      46.023  26.204  27.195  1.00  0.00    -0.354 N 
ATOM     55  N   UNL A   1      46.711  28.986  27.840  1.00  0.00    -0.248 NA
ATOM     56  C   UNL A   1      48.294  30.696  28.025  1.00  0.00     0.031 C 
ATOM     57  C   UNL A   1      47.647  24.847  26.522  1.00  0.00     0.029 A 
ATOM     58  C   UNL A   1      47.378  26.148  26.916  1.00  0.00     0.049 A 
ATOM     59  H   UNL A   1      45.543  27.003  27.513  1.00  0.00     0.167 HD
ATOM     60  C   UNL A   1      47.953  28.503  27.441  1.00  0.00     0.074 A 
ATOM     61  C   UNL A   1      48.882  29.609  27.543  1.00  0.00     0.031 C 
ATOM     62  C   UNL A   1      48.291  27.258  27.023  1.00  0.00     0.031 A 
BRANCH  49  63
ATOM     63  C   UNL A   1      43.578  23.251  26.925  1.00  0.00    -0.014 A 
ATOM     64  C   UNL A   1      43.576  22.693  25.634  1.00  0.00     0.010 A 
ATOM     65  C   UNL A   1      43.167  22.458  28.011  1.00  0.00     0.010 A 
ATOM     66  C   UNL A   1      43.132  21.384  25.427  1.00  0.00     0.020 A 
ATOM     67  C   UNL A   1      42.751  21.137  27.813  1.00  0.00     0.020 A 
ATOM     68  C   UNL A   1      42.720  20.615  26.519  1.00  0.00     0.054 A 
BRANCH  68  69
ATOM     69  S   UNL A   1      42.168  18.913  26.224  1.00  0.00     0.124 S 
ATOM     70  O   UNL A   1      40.796  19.116  25.766  1.00  0.00    -0.237 OA
ATOM     71  O   UNL A   1      43.106  18.444  25.207  1.00  0.00    -0.237 OA
ATOM     72  O   UNL A   1      42.299  18.273  27.531  1.00  0.00    -0.744 OA
ENDBRANCH  68  69
ENDBRANCH  49  63
BRANCH  50  73
ATOM     73  C   UNL A   1      46.312  32.665  28.915  1.00  0.00    -0.014 A 
ATOM     74  C   UNL A   1      46.317  33.651  27.912  1.00  0.00     0.010 A 
ATOM     75  C   UNL A   1      46.692  33.021  30.224  1.00  0.00     0.010 A 
ATOM     76  C   UNL A   1      46.714  34.959  28.205  1.00  0.00     0.020 A 
ATOM     77  C   UNL A   1      47.060  34.335  30.526  1.00  0.00     0.020 A 
ATOM     78  C   UNL A   1      47.080  35.294  29.511  1.00  0.00     0.054 A 
BRANCH  78  79
ATOM     79  S   UNL A   1      47.545  37.008  29.879  1.00  0.00     0.124 S 
ATOM     80  O   UNL A   1      48.855  37.110  29.241  1.00  0.00    -0.237 OA
ATOM     81  O   UNL A   1      46.470  37.768  29.247  1.00  0.00    -0.237 OA
ATOM     82  O   UNL A   1      47.555  37.053  31.340  1.00  0.00    -0.744 OA
ENDBRANCH  78  79
ENDBRANCH  50  73
BRANCH  62  83
ATOM     83  C   UNL A   1      49.719  27.037  26.595  1.00  0.00    -0.014 A 
ATOM     84  C   UNL A   1      50.715  26.673  27.517  1.00  0.00     0.010 A 
ATOM     85  C   UNL A   1      50.056  27.160  25.235  1.00  0.00     0.010 A 
ATOM     86  C   UNL A   1      52.034  26.481  27.093  1.00  0.00     0.020 A 
ATOM     87  C   UNL A   1      51.366  26.939  24.802  1.00  0.00     0.020 A 
ATOM     88  C   UNL A   1      52.350  26.619  25.737  1.00  0.00     0.054 A 
BRANCH  88  89
ATOM     89  S   UNL A   1      54.062  26.344  25.208  1.00  0.00     0.124 S 
ATOM     90  O   UNL A   1      54.566  27.709  25.087  1.00  0.00    -0.237 OA
ATOM     91  O   UNL A   1      54.617  25.563  26.311  1.00  0.00    -0.237 OA
ATOM     92  O   UNL A   1      53.923  25.618  23.948  1.00  0.00    -0.744 OA
ENDBRANCH  88  89
ENDBRANCH  62  83
ENDBRANCH  36  37
ENDBRANCH  28  31
ENDBRANCH  26  27
ENDBRANCH  25  26
ENDBRANCH   1  25
TORSDOF 18
ENDMDL
MODEL 3
REMARK VINA RESULT:     -10.3      2.820      3.414
REMARK SMILES CCc1ccc2c(c1)C=C(C(=O)NCCCCCCNC(=O)c1ccc(-c3c4nc(c(-c5ccc(S(=O)(=O)[O-])cc5)c5ccc([nH]5)c(-c5ccc(S(=O)(=O)[O-])cc5)c5nc(c(-c6ccc(S(=O)(=O)[O-])cc6)c6ccc3[nH]6)C=C5)C=C4)cc1)[C@H](C(F)(F)F)O2
REMARK SMILES IDX 17 1 16 2 15 3 14 4 13 5 11 6 12 7 10 9 3 10 4 11 8 12 5 13
REMARK SMILES IDX 7 14 6 15 9 16 88 17 83 18 2 19 1 20 84 21 85 22 86 23 87 24
REMARK SMILES IDX 18 25 19 26 20 27 21 28 22 30 23 31 24 32 82 33 25 34 81 35
REMARK SMILES IDX 26 36 27 37 28 38 75 39 29 40 80 41 74 42 76 43 30 44 79 45
REMARK SMILES IDX 73 46 72 47 31 49 61 50 42 51 60 52 43 53 46 54 59 55 77 56
REMARK SMILES IDX 44 57 45 58 58 60 78 61 47 62 32 63 33 64 41 65 34 66 40 67
REMARK SMILES IDX 35 68 36 69 37 70 38 71 39 72 62 73 63 74 71 75 64 76 70 77
REMARK SMILES IDX 65 78 66 79 67 80 68 81 69 82 48 83 49 84 57 85 50 86 56 87
REMARK SMILES IDX 51 88 52 89 53 90 54 91 55 92
REMARK H PARENT 13 8 20 29 76 48 46 59
REMARK Flexibility Score: inf
ROOT
ATOM      1  C   UNL A   1      33.107  28.283  24.699  1.00  0.00     0.002 C 
ENDROOT
BRANCH   1   2
ATOM      2  C   UNL A   1      31.893  28.864  23.965  1.00  0.00     0.002 C 
BRANCH   2   3
ATOM      3  C   UNL A   1      30.546  28.245  24.369  1.00  0.00     0.021 C 
BRANCH   3   4
ATOM      4  C   UNL A   1      30.456  26.745  24.061  1.00  0.00     0.116 C 
BRANCH   4   5
ATOM      5  N   UNL A   1      30.394  25.998  25.307  1.00  0.00    -0.352 N 
ATOM      6  C   UNL A   1      31.101  24.941  25.786  1.00  0.00     0.251 C 
ATOM      7  O   UNL A   1      30.687  24.383  26.799  1.00  0.00    -0.270 OA
ATOM      8  H   UNL A   1      29.703  26.323  25.927  1.00  0.00     0.163 HD
BRANCH   6   9
ATOM      9  C   UNL A   1      32.388  24.499  25.188  1.00  0.00     0.067 C 
ATOM     10  C   UNL A   1      37.156  23.696  25.370  1.00  0.00    -0.047 A 
ATOM     11  C   UNL A   1      37.041  22.840  24.267  1.00  0.00     0.007 A 
ATOM     12  C   UNL A   1      36.015  24.384  25.810  1.00  0.00     0.015 A 
ATOM     13  C   UNL A   1      35.805  22.644  23.647  1.00  0.00     0.047 A 
ATOM     14  C   UNL A   1      34.775  24.184  25.192  1.00  0.00     0.017 A 
ATOM     15  C   UNL A   1      34.673  23.306  24.117  1.00  0.00     0.128 A 
ATOM     16  C   UNL A   1      33.573  24.785  25.746  1.00  0.00     0.025 C 
ATOM     17  O   UNL A   1      33.486  22.985  23.528  1.00  0.00    -0.475 OA
ATOM     18  C   UNL A   1      32.332  23.829  23.817  1.00  0.00     0.314 C 
BRANCH  10  19
ATOM     19  C   UNL A   1      38.481  23.874  26.073  1.00  0.00     0.032 C 
ATOM     20  C   UNL A   1      39.091  22.562  26.549  1.00  0.00     0.009 C 
ENDBRANCH  10  19
BRANCH  18  21
ATOM     21  C   UNL A   1      31.073  22.999  23.476  1.00  0.00     0.429 C 
ATOM     22  F   UNL A   1      30.075  23.746  22.953  1.00  0.00    -0.167 F 
ATOM     23  F   UNL A   1      31.354  22.069  22.521  1.00  0.00    -0.167 F 
ATOM     24  F   UNL A   1      30.587  22.324  24.542  1.00  0.00    -0.167 F 
ENDBRANCH  18  21
ENDBRANCH   6   9
ENDBRANCH   4   5
ENDBRANCH   3   4
ENDBRANCH   2   3
ENDBRANCH   1   2
BRANCH   1  25
ATOM     25  C   UNL A   1      32.948  28.174  26.218  1.00  0.00     0.021 C 
BRANCH  25  26
ATOM     26  C   UNL A   1      34.168  28.636  27.007  1.00  0.00     0.116 C 
BRANCH  26  27
ATOM     27  N   UNL A   1      33.977  29.970  27.554  1.00  0.00    -0.352 N 
ATOM     28  C   UNL A   1      34.795  30.690  28.388  1.00  0.00     0.251 C 
ATOM     29  H   UNL A   1      33.142  30.420  27.287  1.00  0.00     0.163 HD
ATOM     30  O   UNL A   1      34.367  31.694  28.947  1.00  0.00    -0.269 OA
BRANCH  28  31
ATOM     31  C   UNL A   1      36.185  30.244  28.617  1.00  0.00     0.039 A 
ATOM     32  C   UNL A   1      37.114  30.366  27.583  1.00  0.00     0.014 A 
ATOM     33  C   UNL A   1      36.565  29.689  29.844  1.00  0.00     0.014 A 
ATOM     34  C   UNL A   1      38.436  29.968  27.794  1.00  0.00     0.010 A 
ATOM     35  C   UNL A   1      37.899  29.367  30.076  1.00  0.00     0.010 A 
ATOM     36  C   UNL A   1      38.845  29.489  29.049  1.00  0.00    -0.014 A 
BRANCH  36  37
ATOM     37  C   UNL A   1      40.260  29.108  29.294  1.00  0.00     0.031 A 
ATOM     38  C   UNL A   1      41.210  30.082  29.938  1.00  0.00     0.074 A 
ATOM     39  C   UNL A   1      40.697  27.894  28.903  1.00  0.00     0.049 A 
ATOM     40  N   UNL A   1      42.475  29.924  30.235  1.00  0.00    -0.248 NA
ATOM     41  C   UNL A   1      40.681  31.416  30.266  1.00  0.00     0.031 C 
ATOM     42  C   UNL A   1      39.886  26.880  28.223  1.00  0.00     0.029 A 
ATOM     43  N   UNL A   1      41.929  27.303  29.026  1.00  0.00    -0.354 N 
ATOM     44  C   UNL A   1      42.892  31.136  30.775  1.00  0.00     0.074 A 
ATOM     45  C   UNL A   1      41.764  32.038  30.708  1.00  0.00     0.031 C 
ATOM     46  C   UNL A   1      40.631  25.781  28.025  1.00  0.00     0.029 A 
ATOM     47  C   UNL A   1      41.979  26.022  28.528  1.00  0.00     0.049 A 
ATOM     48  H   UNL A   1      42.706  27.755  29.431  1.00  0.00     0.167 HD
ATOM     49  C   UNL A   1      44.098  31.462  31.299  1.00  0.00     0.031 A 
ATOM     50  C   UNL A   1      42.993  25.138  28.488  1.00  0.00     0.031 A 
ATOM     51  C   UNL A   1      45.214  30.558  31.371  1.00  0.00     0.049 A 
ATOM     52  C   UNL A   1      44.321  25.519  29.085  1.00  0.00     0.074 A 
ATOM     53  C   UNL A   1      46.463  30.774  31.930  1.00  0.00     0.029 A 
ATOM     54  N   UNL A   1      45.220  29.265  30.868  1.00  0.00    -0.354 N 
ATOM     55  N   UNL A   1      44.675  26.648  29.652  1.00  0.00    -0.248 NA
ATOM     56  C   UNL A   1      45.377  24.500  29.055  1.00  0.00     0.031 C 
ATOM     57  C   UNL A   1      47.240  29.631  31.718  1.00  0.00     0.029 A 
ATOM     58  C   UNL A   1      46.455  28.678  31.087  1.00  0.00     0.049 A 
ATOM     59  H   UNL A   1      44.458  28.830  30.422  1.00  0.00     0.167 HD
ATOM     60  C   UNL A   1      45.986  26.461  30.078  1.00  0.00     0.074 A 
ATOM     61  C   UNL A   1      46.353  25.109  29.714  1.00  0.00     0.031 C 
ATOM     62  C   UNL A   1      46.808  27.330  30.718  1.00  0.00     0.031 A 
BRANCH  49  63
ATOM     63  C   UNL A   1      44.270  32.861  31.836  1.00  0.00    -0.014 A 
ATOM     64  C   UNL A   1      44.680  33.917  31.001  1.00  0.00     0.010 A 
ATOM     65  C   UNL A   1      43.982  33.133  33.186  1.00  0.00     0.010 A 
ATOM     66  C   UNL A   1      44.841  35.207  31.514  1.00  0.00     0.020 A 
ATOM     67  C   UNL A   1      44.112  34.428  33.696  1.00  0.00     0.020 A 
ATOM     68  C   UNL A   1      44.558  35.453  32.860  1.00  0.00     0.054 A 
BRANCH  68  69
ATOM     69  S   UNL A   1      44.756  37.141  33.494  1.00  0.00     0.124 S 
ATOM     70  O   UNL A   1      45.813  36.968  34.487  1.00  0.00    -0.237 OA
ATOM     71  O   UNL A   1      45.134  37.889  32.299  1.00  0.00    -0.237 OA
ATOM     72  O   UNL A   1      43.439  37.465  34.038  1.00  0.00    -0.744 OA
ENDBRANCH  68  69
ENDBRANCH  49  63
BRANCH  50  73
ATOM     73  C   UNL A   1      42.781  23.791  27.889  1.00  0.00    -0.014 A 
ATOM     74  C   UNL A   1      43.041  23.564  26.526  1.00  0.00     0.010 A 
ATOM     75  C   UNL A   1      42.330  22.722  28.686  1.00  0.00     0.010 A 
ATOM     76  C   UNL A   1      42.833  22.300  25.965  1.00  0.00     0.020 A 
ATOM     77  C   UNL A   1      42.150  21.450  28.135  1.00  0.00     0.020 A 
ATOM     78  C   UNL A   1      42.391  21.250  26.775  1.00  0.00     0.054 A 
BRANCH  78  79
ATOM     79  S   UNL A   1      42.174  19.606  26.038  1.00  0.00     0.124 S 
ATOM     80  O   UNL A   1      40.743  19.589  25.751  1.00  0.00    -0.237 OA
ATOM     81  O   UNL A   1      43.054  19.666  24.873  1.00  0.00    -0.237 OA
ATOM     82  O   UNL A   1      42.613  18.698  27.095  1.00  0.00    -0.744 OA
ENDBRANCH  78  79
ENDBRANCH  50  73
BRANCH  62  83
ATOM     83  C   UNL A   1      48.172  26.828  31.112  1.00  0.00    -0.014 A 
ATOM     84  C   UNL A   1      48.371  26.081  32.286  1.00  0.00     0.010 A 
ATOM     85  C   UNL A   1      49.268  27.077  30.266  1.00  0.00     0.010 A 
ATOM     86  C   UNL A   1      49.650  25.634  32.631  1.00  0.00     0.020 A 
ATOM     87  C   UNL A   1      50.541  26.605  30.590  1.00  0.00     0.020 A 
ATOM     88  C   UNL A   1      50.727  25.902  31.780  1.00  0.00     0.054 A 
BRANCH  88  89
ATOM     89  S   UNL A   1      52.373  25.291  32.237  1.00  0.00     0.124 S 
ATOM     90  O   UNL A   1      52.125  23.865  32.430  1.00  0.00    -0.237 OA
ATOM     91  O   UNL A   1      53.178  25.637  31.068  1.00  0.00    -0.237 OA
ATOM     92  O   UNL A   1      52.694  26.037  33.451  1.00  0.00    -0.744 OA
ENDBRANCH  88  89
ENDBRANCH  62  83
ENDBRANCH  36  37
ENDBRANCH  28  31
ENDBRANCH  26  27
ENDBRANCH  25  26
ENDBRANCH   1  25
TORSDOF 18
ENDMDL
