MODEL 1
REMARK VINA RESULT:     -11.9      0.000      0.000
REMARK SMILES CC(C)(C)OC(=O)N1C[C@@H](C(=O)NCCCCCCNC(=O)c2ccc(-c3c4nc(c(-c5ccc(S(=O)(=O)[O-])cc5)c5ccc([nH]5)c(-c5ccc(S(=O)(=O)[O-])cc5)c5nc(c(-c6ccc(S(=O)(=O)[O-])cc6)c6ccc3[nH]6)C=C5)C=C4)cc2)[C@@]2(C1)C(=O)Nc1ccccc12
REMARK SMILES IDX 16 1 15 2 14 3 13 4 11 5 12 6 10 8 8 9 9 10 84 11 83 12
REMARK SMILES IDX 85 13 93 14 86 15 87 16 88 17 92 18 89 20 91 21 90 22 6 23
REMARK SMILES IDX 7 24 5 25 2 26 1 27 3 28 4 29 17 30 18 31 19 32 20 33 21 34
REMARK SMILES IDX 22 36 23 37 24 38 82 39 25 40 81 41 26 42 27 43 28 44 75 45
REMARK SMILES IDX 29 46 80 47 74 48 76 49 30 50 79 51 73 52 72 53 31 55 61 56
REMARK SMILES IDX 42 57 60 58 43 59 46 60 59 61 77 62 44 63 45 64 58 66 78 67
REMARK SMILES IDX 47 68 32 69 33 70 41 71 34 72 40 73 35 74 36 75 37 76 38 77
REMARK SMILES IDX 39 78 62 79 63 80 71 81 64 82 70 83 65 84 66 85 67 86 68 87
REMARK SMILES IDX 69 88 48 89 49 90 57 91 50 92 56 93 51 94 52 95 53 96 54 97
REMARK SMILES IDX 55 98
REMARK H PARENT 13 7 87 19 20 35 76 54 46 65
REMARK Flexibility Score: inf
ROOT
ATOM      1  C   UNL A   1      39.538  21.022  25.932  1.00  0.00     0.002 C 
ENDROOT
BRANCH   1   2
ATOM      2  C   UNL A   1      38.524  22.170  26.003  1.00  0.00     0.021 C 
BRANCH   2   3
ATOM      3  C   UNL A   1      37.152  21.828  25.416  1.00  0.00     0.116 C 
BRANCH   3   4
ATOM      4  N   UNL A   1      36.075  21.983  26.383  1.00  0.00    -0.356 N 
ATOM      5  C   UNL A   1      34.835  22.531  26.356  1.00  0.00     0.226 C 
ATOM      6  O   UNL A   1      34.202  22.456  27.417  1.00  0.00    -0.275 OA
ATOM      7  H   UNL A   1      36.300  21.600  27.262  1.00  0.00     0.163 HD
BRANCH   5   8
ATOM      8  C   UNL A   1      34.184  23.225  25.166  1.00  0.00     0.120 C 
ATOM      9  N   UNL A   1      32.456  24.809  25.534  1.00  0.00    -0.306 N 
ATOM     10  C   UNL A   1      33.898  24.692  25.425  1.00  0.00     0.138 C 
ATOM     11  C   UNL A   1      31.771  23.548  25.226  1.00  0.00     0.145 C 
ATOM     12  C   UNL A   1      32.872  22.665  24.594  1.00  0.00     0.107 C 
ATOM     13  C   UNL A   1      32.786  22.995  23.066  1.00  0.00     0.237 C 
ATOM     14  C   UNL A   1      32.711  21.155  24.547  1.00  0.00    -0.006 A 
ATOM     15  O   UNL A   1      32.977  24.071  22.522  1.00  0.00    -0.274 OA
ATOM     16  N   UNL A   1      32.425  21.843  22.395  1.00  0.00    -0.325 N 
ATOM     17  C   UNL A   1      32.414  20.753  23.242  1.00  0.00     0.045 A 
ATOM     18  C   UNL A   1      32.933  20.163  25.489  1.00  0.00     0.007 A 
ATOM     19  H   UNL A   1      32.204  21.803  21.437  1.00  0.00     0.169 HD
ATOM     20  C   UNL A   1      32.258  19.435  22.854  1.00  0.00     0.026 A 
ATOM     21  C   UNL A   1      32.799  18.815  25.127  1.00  0.00     0.000 A 
ATOM     22  C   UNL A   1      32.452  18.453  23.820  1.00  0.00     0.002 A 
BRANCH   9  23
ATOM     23  C   UNL A   1      31.915  26.061  25.721  1.00  0.00     0.410 C 
ATOM     24  O   UNL A   1      31.359  26.365  26.769  1.00  0.00    -0.224 OA
BRANCH  23  25
ATOM     25  O   UNL A   1      32.020  26.865  24.635  1.00  0.00    -0.444 OA
BRANCH  25  26
ATOM     26  C   UNL A   1      30.846  27.157  23.813  1.00  0.00     0.106 C 
ATOM     27  C   UNL A   1      29.679  26.414  24.478  1.00  0.00     0.056 C 
ATOM     28  C   UNL A   1      31.092  26.578  22.417  1.00  0.00     0.056 C 
ATOM     29  C   UNL A   1      30.446  28.642  23.718  1.00  0.00     0.056 C 
ENDBRANCH  25  26
ENDBRANCH  23  25
ENDBRANCH   9  23
ENDBRANCH   5   8
ENDBRANCH   3   4
ENDBRANCH   2   3
ENDBRANCH   1   2
BRANCH   1  30
ATOM     30  C   UNL A   1      40.648  21.097  26.984  1.00  0.00     0.002 C 
BRANCH  30  31
ATOM     31  C   UNL A   1      40.690  22.401  27.789  1.00  0.00     0.021 C 
BRANCH  31  32
ATOM     32  C   UNL A   1      41.956  23.230  27.594  1.00  0.00     0.116 C 
BRANCH  32  33
ATOM     33  N   UNL A   1      41.892  24.016  26.374  1.00  0.00    -0.352 N 
ATOM     34  C   UNL A   1      41.477  25.312  26.207  1.00  0.00     0.251 C 
ATOM     35  H   UNL A   1      42.190  23.557  25.556  1.00  0.00     0.163 HD
ATOM     36  O   UNL A   1      41.249  25.739  25.079  1.00  0.00    -0.269 OA
BRANCH  34  37
ATOM     37  C   UNL A   1      41.299  26.192  27.385  1.00  0.00     0.039 A 
ATOM     38  C   UNL A   1      40.146  26.054  28.160  1.00  0.00     0.014 A 
ATOM     39  C   UNL A   1      42.238  27.182  27.690  1.00  0.00     0.014 A 
ATOM     40  C   UNL A   1      39.943  26.898  29.255  1.00  0.00     0.010 A 
ATOM     41  C   UNL A   1      42.064  27.983  28.818  1.00  0.00     0.010 A 
ATOM     42  C   UNL A   1      40.903  27.865  29.597  1.00  0.00    -0.014 A 
BRANCH  42  43
ATOM     43  C   UNL A   1      40.676  28.787  30.738  1.00  0.00     0.031 A 
ATOM     44  C   UNL A   1      41.520  28.674  31.981  1.00  0.00     0.074 A 
ATOM     45  C   UNL A   1      39.698  29.712  30.667  1.00  0.00     0.049 A 
ATOM     46  N   UNL A   1      41.484  29.397  33.071  1.00  0.00    -0.248 NA
ATOM     47  C   UNL A   1      42.519  27.594  32.012  1.00  0.00     0.031 C 
ATOM     48  C   UNL A   1      38.783  29.892  29.538  1.00  0.00     0.029 A 
ATOM     49  N   UNL A   1      39.315  30.677  31.562  1.00  0.00    -0.354 N 
ATOM     50  C   UNL A   1      42.442  28.853  33.919  1.00  0.00     0.074 A 
ATOM     51  C   UNL A   1      43.007  27.709  33.238  1.00  0.00     0.031 C 
ATOM     52  C   UNL A   1      37.967  30.926  29.795  1.00  0.00     0.029 A 
ATOM     53  C   UNL A   1      38.283  31.467  31.114  1.00  0.00     0.049 A 
ATOM     54  H   UNL A   1      39.739  30.794  32.444  1.00  0.00     0.167 HD
ATOM     55  C   UNL A   1      42.835  29.279  35.144  1.00  0.00     0.031 A 
ATOM     56  C   UNL A   1      37.671  32.517  31.693  1.00  0.00     0.031 A 
ATOM     57  C   UNL A   1      42.283  30.427  35.813  1.00  0.00     0.049 A 
ATOM     58  C   UNL A   1      38.145  32.992  33.039  1.00  0.00     0.074 A 
ATOM     59  C   UNL A   1      42.642  30.968  37.036  1.00  0.00     0.029 A 
ATOM     60  N   UNL A   1      41.258  31.216  35.313  1.00  0.00    -0.354 N 
ATOM     61  N   UNL A   1      39.093  32.499  33.801  1.00  0.00    -0.248 NA
ATOM     62  C   UNL A   1      37.483  34.182  33.590  1.00  0.00     0.031 C 
ATOM     63  C   UNL A   1      41.810  32.065  37.290  1.00  0.00     0.029 A 
ATOM     64  C   UNL A   1      40.967  32.235  36.204  1.00  0.00     0.049 A 
ATOM     65  H   UNL A   1      40.805  31.072  34.451  1.00  0.00     0.167 HD
ATOM     66  C   UNL A   1      39.162  33.337  34.908  1.00  0.00     0.074 A 
ATOM     67  C   UNL A   1      38.170  34.375  34.708  1.00  0.00     0.031 C 
ATOM     68  C   UNL A   1      39.975  33.258  35.990  1.00  0.00     0.031 A 
BRANCH  55  69
ATOM     69  C   UNL A   1      43.916  28.491  35.837  1.00  0.00    -0.014 A 
ATOM     70  C   UNL A   1      43.598  27.413  36.682  1.00  0.00     0.010 A 
ATOM     71  C   UNL A   1      45.267  28.816  35.623  1.00  0.00     0.010 A 
ATOM     72  C   UNL A   1      44.609  26.706  37.340  1.00  0.00     0.020 A 
ATOM     73  C   UNL A   1      46.283  28.093  36.257  1.00  0.00     0.020 A 
ATOM     74  C   UNL A   1      45.945  27.055  37.128  1.00  0.00     0.054 A 
BRANCH  74  75
ATOM     75  S   UNL A   1      47.238  26.116  37.985  1.00  0.00     0.124 S 
ATOM     76  O   UNL A   1      48.377  27.026  37.899  1.00  0.00    -0.237 OA
ATOM     77  O   UNL A   1      46.675  25.939  39.322  1.00  0.00    -0.237 OA
ATOM     78  O   UNL A   1      47.358  24.892  37.198  1.00  0.00    -0.744 OA
ENDBRANCH  74  75
ENDBRANCH  55  69
BRANCH  56  79
ATOM     79  C   UNL A   1      36.569  33.218  30.981  1.00  0.00    -0.014 A 
ATOM     80  C   UNL A   1      35.236  33.056  31.396  1.00  0.00     0.010 A 
ATOM     81  C   UNL A   1      36.850  34.064  29.893  1.00  0.00     0.010 A 
ATOM     82  C   UNL A   1      34.200  33.710  30.722  1.00  0.00     0.020 A 
ATOM     83  C   UNL A   1      35.820  34.739  29.233  1.00  0.00     0.020 A 
ATOM     84  C   UNL A   1      34.498  34.548  29.645  1.00  0.00     0.054 A 
BRANCH  84  85
ATOM     85  S   UNL A   1      33.145  35.429  28.817  1.00  0.00     0.124 S 
ATOM     86  O   UNL A   1      33.870  36.379  27.979  1.00  0.00    -0.237 OA
ATOM     87  O   UNL A   1      32.454  34.356  28.107  1.00  0.00    -0.237 OA
ATOM     88  O   UNL A   1      32.394  36.016  29.925  1.00  0.00    -0.744 OA
ENDBRANCH  84  85
ENDBRANCH  56  79
BRANCH  68  89
ATOM     89  C   UNL A   1      39.852  34.348  37.020  1.00  0.00    -0.014 A 
ATOM     90  C   UNL A   1      38.977  34.226  38.115  1.00  0.00     0.010 A 
ATOM     91  C   UNL A   1      40.640  35.508  36.896  1.00  0.00     0.010 A 
ATOM     92  C   UNL A   1      38.856  35.268  39.038  1.00  0.00     0.020 A 
ATOM     93  C   UNL A   1      40.540  36.539  37.832  1.00  0.00     0.020 A 
ATOM     94  C   UNL A   1      39.632  36.421  38.886  1.00  0.00     0.054 A 
BRANCH  94  95
ATOM     95  S   UNL A   1      39.463  37.759  40.100  1.00  0.00     0.124 S 
ATOM     96  O   UNL A   1      40.719  38.482  39.928  1.00  0.00    -0.237 OA
ATOM     97  O   UNL A   1      38.266  38.460  39.643  1.00  0.00    -0.237 OA
ATOM     98  O   UNL A   1      39.318  37.054  41.371  1.00  0.00    -0.744 OA
ENDBRANCH  94  95
ENDBRANCH  68  89
ENDBRANCH  42  43
ENDBRANCH  34  37
ENDBRANCH  32  33
ENDBRANCH  31  32
ENDBRANCH  30  31
ENDBRANCH   1  30
TORSDOF 19
ENDMDL
MODEL 2
REMARK VINA RESULT:     -11.8      5.726      7.920
REMARK SMILES CC(C)(C)OC(=O)N1C[C@@H](C(=O)NCCCCCCNC(=O)c2ccc(-c3c4nc(c(-c5ccc(S(=O)(=O)[O-])cc5)c5ccc([nH]5)c(-c5ccc(S(=O)(=O)[O-])cc5)c5nc(c(-c6ccc(S(=O)(=O)[O-])cc6)c6ccc3[nH]6)C=C5)C=C4)cc2)[C@@]2(C1)C(=O)Nc1ccccc12
REMARK SMILES IDX 16 1 15 2 14 3 13 4 11 5 12 6 10 8 8 9 9 10 84 11 83 12
REMARK SMILES IDX 85 13 93 14 86 15 87 16 88 17 92 18 89 20 91 21 90 22 6 23
REMARK SMILES IDX 7 24 5 25 2 26 1 27 3 28 4 29 17 30 18 31 19 32 20 33 21 34
REMARK SMILES IDX 22 36 23 37 24 38 82 39 25 40 81 41 26 42 27 43 28 44 75 45
REMARK SMILES IDX 29 46 80 47 74 48 76 49 30 50 79 51 73 52 72 53 31 55 61 56
REMARK SMILES IDX 42 57 60 58 43 59 46 60 59 61 77 62 44 63 45 64 58 66 78 67
REMARK SMILES IDX 47 68 32 69 33 70 41 71 34 72 40 73 35 74 36 75 37 76 38 77
REMARK SMILES IDX 39 78 62 79 63 80 71 81 64 82 70 83 65 84 66 85 67 86 68 87
REMARK SMILES IDX 69 88 48 89 49 90 57 91 50 92 56 93 51 94 52 95 53 96 54 97
REMARK SMILES IDX 55 98
REMARK H PARENT 13 7 87 19 20 35 76 54 46 65
REMARK Flexibility Score: inf
ROOT
ATOM      1  C   UNL A   1      36.345  21.496  24.498  1.00  0.00     0.002 C 
ENDROOT
BRANCH   1   2
ATOM      2  C   UNL A   1      37.302  22.692  24.547  1.00  0.00     0.021 C 
BRANCH   2   3
ATOM      3  C   UNL A   1      36.984  23.702  25.654  1.00  0.00     0.116 C 
BRANCH   3   4
ATOM      4  N   UNL A   1      35.842  23.304  26.463  1.00  0.00    -0.356 N 
ATOM      5  C   UNL A   1      34.498  23.453  26.361  1.00  0.00     0.226 C 
ATOM      6  O   UNL A   1      33.840  22.951  27.282  1.00  0.00    -0.275 OA
ATOM      7  H   UNL A   1      36.107  22.812  27.273  1.00  0.00     0.163 HD
BRANCH   5   8
ATOM      8  C   UNL A   1      33.755  24.181  25.248  1.00  0.00     0.120 C 
ATOM      9  N   UNL A   1      31.885  25.541  25.779  1.00  0.00    -0.306 N 
ATOM     10  C   UNL A   1      33.328  25.581  25.642  1.00  0.00     0.138 C 
ATOM     11  C   UNL A   1      31.324  24.248  25.366  1.00  0.00     0.145 C 
ATOM     12  C   UNL A   1      32.494  23.543  24.643  1.00  0.00     0.107 C 
ATOM     13  C   UNL A   1      32.343  23.997  23.152  1.00  0.00     0.237 C 
ATOM     14  C   UNL A   1      32.485  22.034  24.461  1.00  0.00    -0.006 A 
ATOM     15  O   UNL A   1      32.412  25.131  22.706  1.00  0.00    -0.274 OA
ATOM     16  N   UNL A   1      32.085  22.878  22.384  1.00  0.00    -0.325 N 
ATOM     17  C   UNL A   1      32.202  21.723  23.128  1.00  0.00     0.045 A 
ATOM     18  C   UNL A   1      32.826  20.990  25.306  1.00  0.00     0.007 A 
ATOM     19  H   UNL A   1      31.848  22.902  21.429  1.00  0.00     0.169 HD
ATOM     20  C   UNL A   1      32.171  20.435  22.624  1.00  0.00     0.026 A 
ATOM     21  C   UNL A   1      32.820  19.673  24.825  1.00  0.00     0.000 A 
ATOM     22  C   UNL A   1      32.483  19.396  23.495  1.00  0.00     0.002 A 
BRANCH   9  23
ATOM     23  C   UNL A   1      31.224  26.709  26.086  1.00  0.00     0.410 C 
ATOM     24  O   UNL A   1      31.055  27.060  27.247  1.00  0.00    -0.224 OA
BRANCH  23  25
ATOM     25  O   UNL A   1      30.758  27.370  24.998  1.00  0.00    -0.444 OA
BRANCH  25  26
ATOM     26  C   UNL A   1      31.373  28.630  24.578  1.00  0.00     0.106 C 
ATOM     27  C   UNL A   1      31.789  29.340  25.874  1.00  0.00     0.056 C 
ATOM     28  C   UNL A   1      30.304  29.458  23.860  1.00  0.00     0.056 C 
ATOM     29  C   UNL A   1      32.634  28.502  23.703  1.00  0.00     0.056 C 
ENDBRANCH  25  26
ENDBRANCH  23  25
ENDBRANCH   9  23
ENDBRANCH   5   8
ENDBRANCH   3   4
ENDBRANCH   2   3
ENDBRANCH   1   2
BRANCH   1  30
ATOM     30  C   UNL A   1      36.854  20.252  25.233  1.00  0.00     0.002 C 
BRANCH  30  31
ATOM     31  C   UNL A   1      38.306  19.867  24.923  1.00  0.00     0.021 C 
BRANCH  31  32
ATOM     32  C   UNL A   1      39.318  20.298  25.980  1.00  0.00     0.116 C 
BRANCH  32  33
ATOM     33  N   UNL A   1      40.438  19.376  26.050  1.00  0.00    -0.352 N 
ATOM     34  C   UNL A   1      41.779  19.654  26.124  1.00  0.00     0.251 C 
ATOM     35  H   UNL A   1      40.202  18.420  26.047  1.00  0.00     0.163 HD
ATOM     36  O   UNL A   1      42.598  18.763  25.923  1.00  0.00    -0.269 OA
BRANCH  34  37
ATOM     37  C   UNL A   1      42.235  21.027  26.440  1.00  0.00     0.039 A 
ATOM     38  C   UNL A   1      42.426  21.931  25.394  1.00  0.00     0.014 A 
ATOM     39  C   UNL A   1      42.525  21.402  27.756  1.00  0.00     0.014 A 
ATOM     40  C   UNL A   1      42.889  23.220  25.669  1.00  0.00     0.010 A 
ATOM     41  C   UNL A   1      42.928  22.707  28.035  1.00  0.00     0.010 A 
ATOM     42  C   UNL A   1      43.139  23.621  26.992  1.00  0.00    -0.014 A 
BRANCH  42  43
ATOM     43  C   UNL A   1      43.664  24.978  27.285  1.00  0.00     0.031 A 
ATOM     44  C   UNL A   1      45.121  25.288  27.067  1.00  0.00     0.074 A 
ATOM     45  C   UNL A   1      42.836  25.926  27.767  1.00  0.00     0.049 A 
ATOM     46  N   UNL A   1      45.761  26.416  27.247  1.00  0.00    -0.248 NA
ATOM     47  C   UNL A   1      45.976  24.182  26.606  1.00  0.00     0.031 C 
ATOM     48  C   UNL A   1      41.414  25.737  28.066  1.00  0.00     0.029 A 
ATOM     49  N   UNL A   1      43.071  27.239  28.087  1.00  0.00    -0.354 N 
ATOM     50  C   UNL A   1      47.090  26.152  26.937  1.00  0.00     0.074 A 
ATOM     51  C   UNL A   1      47.175  24.747  26.606  1.00  0.00     0.031 C 
ATOM     52  C   UNL A   1      40.897  26.900  28.493  1.00  0.00     0.029 A 
ATOM     53  C   UNL A   1      41.953  27.909  28.522  1.00  0.00     0.049 A 
ATOM     54  H   UNL A   1      43.957  27.661  28.011  1.00  0.00     0.167 HD
ATOM     55  C   UNL A   1      48.142  27.005  26.906  1.00  0.00     0.031 A 
ATOM     56  C   UNL A   1      41.792  29.194  28.889  1.00  0.00     0.031 A 
ATOM     57  C   UNL A   1      48.054  28.407  27.221  1.00  0.00     0.049 A 
ATOM     58  C   UNL A   1      42.966  30.131  28.817  1.00  0.00     0.074 A 
ATOM     59  C   UNL A   1      49.051  29.365  27.177  1.00  0.00     0.029 A 
ATOM     60  N   UNL A   1      46.897  29.052  27.631  1.00  0.00    -0.354 N 
ATOM     61  N   UNL A   1      44.205  29.875  28.465  1.00  0.00    -0.248 NA
ATOM     62  C   UNL A   1      42.715  31.535  29.167  1.00  0.00     0.031 C 
ATOM     63  C   UNL A   1      48.504  30.585  27.595  1.00  0.00     0.029 A 
ATOM     64  C   UNL A   1      47.156  30.394  27.851  1.00  0.00     0.049 A 
ATOM     65  H   UNL A   1      46.020  28.619  27.749  1.00  0.00     0.167 HD
ATOM     66  C   UNL A   1      44.873  31.093  28.521  1.00  0.00     0.074 A 
ATOM     67  C   UNL A   1      43.897  32.086  28.927  1.00  0.00     0.031 C 
ATOM     68  C   UNL A   1      46.174  31.367  28.257  1.00  0.00     0.031 A 
BRANCH  55  69
ATOM     69  C   UNL A   1      49.483  26.437  26.519  1.00  0.00    -0.014 A 
ATOM     70  C   UNL A   1      50.318  25.833  27.477  1.00  0.00     0.010 A 
ATOM     71  C   UNL A   1      49.904  26.485  25.178  1.00  0.00     0.010 A 
ATOM     72  C   UNL A   1      51.571  25.332  27.110  1.00  0.00     0.020 A 
ATOM     73  C   UNL A   1      51.145  25.960  24.803  1.00  0.00     0.020 A 
ATOM     74  C   UNL A   1      51.979  25.405  25.776  1.00  0.00     0.054 A 
BRANCH  74  75
ATOM     75  S   UNL A   1      53.605  24.740  25.324  1.00  0.00     0.124 S 
ATOM     76  O   UNL A   1      53.944  25.545  24.153  1.00  0.00    -0.237 OA
ATOM     77  O   UNL A   1      54.403  25.002  26.519  1.00  0.00    -0.237 OA
ATOM     78  O   UNL A   1      53.340  23.330  25.054  1.00  0.00    -0.744 OA
ENDBRANCH  74  75
ENDBRANCH  55  69
BRANCH  56  79
ATOM     79  C   UNL A   1      40.453  29.682  29.318  1.00  0.00    -0.014 A 
ATOM     80  C   UNL A   1      40.195  29.958  30.672  1.00  0.00     0.010 A 
ATOM     81  C   UNL A   1      39.433  29.886  28.371  1.00  0.00     0.010 A 
ATOM     82  C   UNL A   1      38.935  30.409  31.075  1.00  0.00     0.020 A 
ATOM     83  C   UNL A   1      38.180  30.361  28.767  1.00  0.00     0.020 A 
ATOM     84  C   UNL A   1      37.935  30.608  30.120  1.00  0.00     0.054 A 
BRANCH  84  85
ATOM     85  S   UNL A   1      36.323  31.245  30.656  1.00  0.00     0.124 S 
ATOM     86  O   UNL A   1      36.672  32.573  31.152  1.00  0.00    -0.237 OA
ATOM     87  O   UNL A   1      35.543  31.215  29.422  1.00  0.00    -0.237 OA
ATOM     88  O   UNL A   1      35.900  30.286  31.674  1.00  0.00    -0.744 OA
ENDBRANCH  84  85
ENDBRANCH  56  79
BRANCH  68  89
ATOM     89  C   UNL A   1      46.605  32.805  28.359  1.00  0.00    -0.014 A 
ATOM     90  C   UNL A   1      46.508  33.679  27.260  1.00  0.00     0.010 A 
ATOM     91  C   UNL A   1      47.102  33.293  29.582  1.00  0.00     0.010 A 
ATOM     92  C   UNL A   1      46.948  35.000  27.370  1.00  0.00     0.020 A 
ATOM     93  C   UNL A   1      47.517  34.620  29.702  1.00  0.00     0.020 A 
ATOM     94  C   UNL A   1      47.458  35.460  28.589  1.00  0.00     0.054 A 
BRANCH  94  95
ATOM     95  S   UNL A   1      48.018  37.181  28.712  1.00  0.00     0.124 S 
ATOM     96  O   UNL A   1      48.207  37.334  30.151  1.00  0.00    -0.237 OA
ATOM     97  O   UNL A   1      49.241  37.181  27.913  1.00  0.00    -0.237 OA
ATOM     98  O   UNL A   1      46.910  37.945  28.143  1.00  0.00    -0.744 OA
ENDBRANCH  94  95
ENDBRANCH  68  89
ENDBRANCH  42  43
ENDBRANCH  34  37
ENDBRANCH  32  33
ENDBRANCH  31  32
ENDBRANCH  30  31
ENDBRANCH   1  30
TORSDOF 19
ENDMDL
MODEL 3
REMARK VINA RESULT:     -11.8      6.034     11.849
REMARK SMILES CC(C)(C)OC(=O)N1C[C@@H](C(=O)NCCCCCCNC(=O)c2ccc(-c3c4nc(c(-c5ccc(S(=O)(=O)[O-])cc5)c5ccc([nH]5)c(-c5ccc(S(=O)(=O)[O-])cc5)c5nc(c(-c6ccc(S(=O)(=O)[O-])cc6)c6ccc3[nH]6)C=C5)C=C4)cc2)[C@@]2(C1)C(=O)Nc1ccccc12
REMARK SMILES IDX 16 1 15 2 14 3 13 4 11 5 12 6 10 8 8 9 9 10 84 11 83 12
REMARK SMILES IDX 85 13 93 14 86 15 87 16 88 17 92 18 89 20 91 21 90 22 6 23
REMARK SMILES IDX 7 24 5 25 2 26 1 27 3 28 4 29 17 30 18 31 19 32 20 33 21 34
REMARK SMILES IDX 22 36 23 37 24 38 82 39 25 40 81 41 26 42 27 43 28 44 75 45
REMARK SMILES IDX 29 46 80 47 74 48 76 49 30 50 79 51 73 52 72 53 31 55 61 56
REMARK SMILES IDX 42 57 60 58 43 59 46 60 59 61 77 62 44 63 45 64 58 66 78 67
REMARK SMILES IDX 47 68 32 69 33 70 41 71 34 72 40 73 35 74 36 75 37 76 38 77
REMARK SMILES IDX 39 78 62 79 63 80 71 81 64 82 70 83 65 84 66 85 67 86 68 87
REMARK SMILES IDX 69 88 48 89 49 90 57 91 50 92 56 93 51 94 52 95 53 96 54 97
REMARK SMILES IDX 55 98
REMARK H PARENT 13 7 87 19 20 35 76 54 46 65
REMARK Flexibility Score: inf
ROOT
ATOM      1  C   UNL A   1      34.600  31.487  28.215  1.00  0.00     0.002 C 
ENDROOT
BRANCH   1   2
ATOM      2  C   UNL A   1      33.442  31.236  27.243  1.00  0.00     0.021 C 
BRANCH   2   3
ATOM      3  C   UNL A   1      33.214  29.758  26.912  1.00  0.00     0.116 C 
BRANCH   3   4
ATOM      4  N   UNL A   1      33.728  29.392  25.600  1.00  0.00    -0.356 N 
ATOM      5  C   UNL A   1      33.689  28.274  24.835  1.00  0.00     0.226 C 
ATOM      6  O   UNL A   1      34.259  28.365  23.739  1.00  0.00    -0.275 OA
ATOM      7  H   UNL A   1      34.217  30.130  25.168  1.00  0.00     0.163 HD
BRANCH   5   8
ATOM      8  C   UNL A   1      33.035  26.949  25.208  1.00  0.00     0.120 C 
ATOM      9  N   UNL A   1      33.873  24.928  24.292  1.00  0.00    -0.306 N 
ATOM     10  C   UNL A   1      34.042  25.834  25.412  1.00  0.00     0.138 C 
ATOM     11  C   UNL A   1      32.733  25.299  23.444  1.00  0.00     0.145 C 
ATOM     12  C   UNL A   1      31.967  26.349  24.281  1.00  0.00     0.107 C 
ATOM     13  C   UNL A   1      30.962  25.496  25.125  1.00  0.00     0.237 C 
ATOM     14  C   UNL A   1      30.999  27.308  23.607  1.00  0.00    -0.006 A 
ATOM     15  O   UNL A   1      31.222  24.645  25.959  1.00  0.00    -0.274 OA
ATOM     16  N   UNL A   1      29.679  25.849  24.753  1.00  0.00    -0.325 N 
ATOM     17  C   UNL A   1      29.685  26.930  23.897  1.00  0.00     0.045 A 
ATOM     18  C   UNL A   1      31.189  28.495  22.917  1.00  0.00     0.007 A 
ATOM     19  H   UNL A   1      28.865  25.389  25.060  1.00  0.00     0.169 HD
ATOM     20  C   UNL A   1      28.568  27.628  23.475  1.00  0.00     0.026 A 
ATOM     21  C   UNL A   1      30.079  29.237  22.488  1.00  0.00     0.000 A 
ATOM     22  C   UNL A   1      28.776  28.800  22.755  1.00  0.00     0.002 A 
BRANCH   9  23
ATOM     23  C   UNL A   1      34.639  23.785  24.254  1.00  0.00     0.410 C 
ATOM     24  O   UNL A   1      35.853  23.825  24.415  1.00  0.00    -0.224 OA
BRANCH  23  25
ATOM     25  O   UNL A   1      33.928  22.664  23.980  1.00  0.00    -0.444 OA
BRANCH  25  26
ATOM     26  C   UNL A   1      33.721  21.647  25.011  1.00  0.00     0.106 C 
ATOM     27  C   UNL A   1      32.271  21.171  24.840  1.00  0.00     0.056 C 
ATOM     28  C   UNL A   1      33.880  22.322  26.376  1.00  0.00     0.056 C 
ATOM     29  C   UNL A   1      34.623  20.403  24.916  1.00  0.00     0.056 C 
ENDBRANCH  25  26
ENDBRANCH  23  25
ENDBRANCH   9  23
ENDBRANCH   5   8
ENDBRANCH   3   4
ENDBRANCH   2   3
ENDBRANCH   1   2
BRANCH   1  30
ATOM     30  C   UNL A   1      35.318  32.824  28.006  1.00  0.00     0.002 C 
BRANCH  30  31
ATOM     31  C   UNL A   1      35.532  33.650  29.279  1.00  0.00     0.021 C 
BRANCH  31  32
ATOM     32  C   UNL A   1      36.703  33.193  30.146  1.00  0.00     0.116 C 
BRANCH  32  33
ATOM     33  N   UNL A   1      36.286  32.197  31.118  1.00  0.00    -0.352 N 
ATOM     34  C   UNL A   1      36.811  30.951  31.351  1.00  0.00     0.251 C 
ATOM     35  H   UNL A   1      35.525  32.451  31.688  1.00  0.00     0.163 HD
ATOM     36  O   UNL A   1      36.185  30.145  32.032  1.00  0.00    -0.269 OA
BRANCH  34  37
ATOM     37  C   UNL A   1      38.125  30.581  30.781  1.00  0.00     0.039 A 
ATOM     38  C   UNL A   1      38.244  30.441  29.396  1.00  0.00     0.014 A 
ATOM     39  C   UNL A   1      39.221  30.321  31.610  1.00  0.00     0.014 A 
ATOM     40  C   UNL A   1      39.467  30.059  28.841  1.00  0.00     0.010 A 
ATOM     41  C   UNL A   1      40.457  29.998  31.051  1.00  0.00     0.010 A 
ATOM     42  C   UNL A   1      40.586  29.839  29.663  1.00  0.00    -0.014 A 
BRANCH  42  43
ATOM     43  C   UNL A   1      41.878  29.399  29.081  1.00  0.00     0.031 A 
ATOM     44  C   UNL A   1      43.023  30.371  28.959  1.00  0.00     0.074 A 
ATOM     45  C   UNL A   1      42.017  28.133  28.642  1.00  0.00     0.049 A 
ATOM     46  N   UNL A   1      44.230  30.169  28.497  1.00  0.00    -0.248 NA
ATOM     47  C   UNL A   1      42.772  31.754  29.395  1.00  0.00     0.031 C 
ATOM     48  C   UNL A   1      40.969  27.109  28.661  1.00  0.00     0.029 A 
ATOM     49  N   UNL A   1      43.099  27.490  28.098  1.00  0.00    -0.354 N 
ATOM     50  C   UNL A   1      44.876  31.398  28.572  1.00  0.00     0.074 A 
ATOM     51  C   UNL A   1      43.911  32.351  29.077  1.00  0.00     0.031 C 
ATOM     52  C   UNL A   1      41.470  25.959  28.183  1.00  0.00     0.029 A 
ATOM     53  C   UNL A   1      42.864  26.168  27.802  1.00  0.00     0.049 A 
ATOM     54  H   UNL A   1      43.964  27.933  27.935  1.00  0.00     0.167 HD
ATOM     55  C   UNL A   1      46.161  31.705  28.271  1.00  0.00     0.031 A 
ATOM     56  C   UNL A   1      43.683  25.228  27.294  1.00  0.00     0.031 A 
ATOM     57  C   UNL A   1      47.124  30.753  27.783  1.00  0.00     0.049 A 
ATOM     58  C   UNL A   1      45.114  25.582  26.997  1.00  0.00     0.074 A 
ATOM     59  C   UNL A   1      48.461  30.953  27.491  1.00  0.00     0.029 A 
ATOM     60  N   UNL A   1      46.852  29.419  27.523  1.00  0.00    -0.354 N 
ATOM     61  N   UNL A   1      45.722  26.738  27.130  1.00  0.00    -0.248 NA
ATOM     62  C   UNL A   1      45.975  24.498  26.507  1.00  0.00     0.031 C 
ATOM     63  C   UNL A   1      48.991  29.745  27.020  1.00  0.00     0.029 A 
ATOM     64  C   UNL A   1      47.995  28.784  27.066  1.00  0.00     0.049 A 
ATOM     65  H   UNL A   1      45.976  28.987  27.644  1.00  0.00     0.167 HD
ATOM     66  C   UNL A   1      47.045  26.512  26.768  1.00  0.00     0.074 A 
ATOM     67  C   UNL A   1      47.151  25.107  26.427  1.00  0.00     0.031 C 
ATOM     68  C   UNL A   1      48.081  27.386  26.728  1.00  0.00     0.031 A 
BRANCH  55  69
ATOM     69  C   UNL A   1      46.594  33.136  28.463  1.00  0.00    -0.014 A 
ATOM     70  C   UNL A   1      47.114  33.576  29.693  1.00  0.00     0.010 A 
ATOM     71  C   UNL A   1      46.502  34.045  27.394  1.00  0.00     0.010 A 
ATOM     72  C   UNL A   1      47.488  34.912  29.867  1.00  0.00     0.020 A 
ATOM     73  C   UNL A   1      46.902  35.376  27.555  1.00  0.00     0.020 A 
ATOM     74  C   UNL A   1      47.374  35.805  28.798  1.00  0.00     0.054 A 
BRANCH  74  75
ATOM     75  S   UNL A   1      47.875  37.530  29.045  1.00  0.00     0.124 S 
ATOM     76  O   UNL A   1      46.651  38.125  29.578  1.00  0.00    -0.237 OA
ATOM     77  O   UNL A   1      48.980  37.412  29.994  1.00  0.00    -0.237 OA
ATOM     78  O   UNL A   1      48.253  37.977  27.708  1.00  0.00    -0.744 OA
ENDBRANCH  74  75
ENDBRANCH  55  69
BRANCH  56  79
ATOM     79  C   UNL A   1      43.178  23.845  27.074  1.00  0.00    -0.014 A 
ATOM     80  C   UNL A   1      42.725  23.446  25.804  1.00  0.00     0.010 A 
ATOM     81  C   UNL A   1      43.161  22.917  28.130  1.00  0.00     0.010 A 
ATOM     82  C   UNL A   1      42.244  22.150  25.599  1.00  0.00     0.020 A 
ATOM     83  C   UNL A   1      42.705  21.613  27.923  1.00  0.00     0.020 A 
ATOM     84  C   UNL A   1      42.237  21.240  26.660  1.00  0.00     0.054 A 
BRANCH  84  85
ATOM     85  S   UNL A   1      41.659  19.546  26.361  1.00  0.00     0.124 S 
ATOM     86  O   UNL A   1      42.025  18.878  27.606  1.00  0.00    -0.237 OA
ATOM     87  O   UNL A   1      40.228  19.734  26.139  1.00  0.00    -0.237 OA
ATOM     88  O   UNL A   1      42.416  19.133  25.181  1.00  0.00    -0.744 OA
ENDBRANCH  84  85
ENDBRANCH  56  79
BRANCH  68  89
ATOM     89  C   UNL A   1      49.426  26.836  26.338  1.00  0.00    -0.014 A 
ATOM     90  C   UNL A   1      50.227  26.136  27.259  1.00  0.00     0.010 A 
ATOM     91  C   UNL A   1      49.889  27.010  25.020  1.00  0.00     0.010 A 
ATOM     92  C   UNL A   1      51.487  25.666  26.883  1.00  0.00     0.020 A 
ATOM     93  C   UNL A   1      51.137  26.517  24.634  1.00  0.00     0.020 A 
ATOM     94  C   UNL A   1      51.937  25.867  25.574  1.00  0.00     0.054 A 
BRANCH  94  95
ATOM     95  S   UNL A   1      53.575  25.243  25.104  1.00  0.00     0.124 S 
ATOM     96  O   UNL A   1      53.638  25.599  23.690  1.00  0.00    -0.237 OA
ATOM     97  O   UNL A   1      54.470  25.991  25.982  1.00  0.00    -0.237 OA
ATOM     98  O   UNL A   1      53.491  23.811  25.384  1.00  0.00    -0.744 OA
ENDBRANCH  94  95
ENDBRANCH  68  89
ENDBRANCH  42  43
ENDBRANCH  34  37
ENDBRANCH  32  33
ENDBRANCH  31  32
ENDBRANCH  30  31
ENDBRANCH   1  30
TORSDOF 19
ENDMDL
