MODEL 1
REMARK VINA RESULT:     -11.1      0.000      0.000
REMARK SMILES Nc1nonc1C(=O)N1[C@@H]2CC[C@H]1C[C@H](CC(=O)NCCCCCCNC(=O)c1ccc(-c3c4nc(c(-c5ccc(S(=O)(=O)[O-])cc5)c5ccc([nH]5)c(-c5ccc(S(=O)(=O)[O-])cc5)c5nc(c(-c6ccc(S(=O)(=O)[O-])cc6)c6ccc3[nH]6)C=C5)C=C4)cc1)C2
REMARK SMILES IDX 22 1 21 2 20 3 19 4 17 5 18 6 16 8 15 9 9 10 10 11 13 12
REMARK SMILES IDX 11 13 89 14 12 15 14 16 7 17 8 18 6 19 2 20 3 21 4 22 5 23
REMARK SMILES IDX 1 24 23 27 24 28 25 29 26 30 27 31 28 33 29 34 30 35 88 36
REMARK SMILES IDX 31 37 87 38 32 39 33 40 34 41 81 42 35 43 86 44 80 45 82 46
REMARK SMILES IDX 36 47 85 48 79 49 78 50 37 52 67 53 48 54 66 55 49 56 52 57
REMARK SMILES IDX 65 58 83 59 50 60 51 61 64 63 84 64 53 65 38 66 39 67 47 68
REMARK SMILES IDX 40 69 46 70 41 71 42 72 43 73 44 74 45 75 68 76 69 77 77 78
REMARK SMILES IDX 70 79 76 80 71 81 72 82 73 83 74 84 75 85 54 86 55 87 63 88
REMARK SMILES IDX 56 89 62 90 57 91 58 92 59 93 60 94 61 95
REMARK H PARENT 19 7 1 25 1 26 26 32 82 51 52 62
REMARK Flexibility Score: inf
ROOT
ATOM      1  C   UNL A   1      31.533  28.181  24.520  1.00  0.00     0.002 C 
ENDROOT
BRANCH   1   2
ATOM      2  C   UNL A   1      30.240  27.728  23.843  1.00  0.00     0.021 C 
BRANCH   2   3
ATOM      3  C   UNL A   1      30.379  27.431  22.344  1.00  0.00     0.116 C 
BRANCH   3   4
ATOM      4  N   UNL A   1      31.783  27.374  21.960  1.00  0.00    -0.356 N 
ATOM      5  C   UNL A   1      32.672  26.341  21.965  1.00  0.00     0.220 C 
ATOM      6  O   UNL A   1      33.852  26.584  21.704  1.00  0.00    -0.275 OA
ATOM      7  H   UNL A   1      32.153  28.229  21.643  1.00  0.00     0.163 HD
BRANCH   5   8
ATOM      8  C   UNL A   1      32.228  24.922  22.270  1.00  0.00     0.103 C 
BRANCH   8   9
ATOM      9  C   UNL A   1      31.994  24.638  23.770  1.00  0.00     0.002 C 
ATOM     10  N   UNL A   1      32.598  22.232  25.206  1.00  0.00    -0.331 N 
ATOM     11  C   UNL A   1      33.267  23.440  25.666  1.00  0.00     0.086 C 
ATOM     12  C   UNL A   1      31.195  22.590  25.187  1.00  0.00     0.086 C 
ATOM     13  C   UNL A   1      32.343  24.009  26.756  1.00  0.00     0.027 C 
ATOM     14  C   UNL A   1      33.362  24.370  24.453  1.00  0.00     0.029 C 
ATOM     15  C   UNL A   1      30.984  23.358  26.490  1.00  0.00     0.027 C 
ATOM     16  C   UNL A   1      30.973  23.491  23.965  1.00  0.00     0.029 C 
BRANCH  10  17
ATOM     17  C   UNL A   1      33.006  21.017  25.758  1.00  0.00     0.280 C 
ATOM     18  O   UNL A   1      33.646  20.986  26.807  1.00  0.00    -0.267 OA
BRANCH  17  19
ATOM     19  C   UNL A   1      32.734  19.835  24.942  1.00  0.00     0.216 A 
ATOM     20  C   UNL A   1      32.583  18.463  25.276  1.00  0.00     0.201 A 
ATOM     21  N   UNL A   1      32.271  17.770  24.184  1.00  0.00    -0.032 NA
ATOM     22  O   UNL A   1      32.278  18.690  23.151  1.00  0.00    -0.242 OA
ATOM     23  N   UNL A   1      32.561  19.963  23.617  1.00  0.00    -0.042 NA
BRANCH  20  24
ATOM     24  N   UNL A   1      32.748  17.875  26.474  1.00  0.00    -0.379 N 
ATOM     25  H   UNL A   1      32.113  18.057  27.204  1.00  0.00     0.158 HD
ATOM     26  H   UNL A   1      33.505  17.262  26.622  1.00  0.00     0.158 HD
ENDBRANCH  20  24
ENDBRANCH  17  19
ENDBRANCH  10  17
ENDBRANCH   8   9
ENDBRANCH   5   8
ENDBRANCH   3   4
ENDBRANCH   2   3
ENDBRANCH   1   2
BRANCH   1  27
ATOM     27  C   UNL A   1      31.613  27.874  26.018  1.00  0.00     0.002 C 
BRANCH  27  28
ATOM     28  C   UNL A   1      32.988  27.438  26.545  1.00  0.00     0.021 C 
BRANCH  28  29
ATOM     29  C   UNL A   1      34.160  28.356  26.193  1.00  0.00     0.116 C 
BRANCH  29  30
ATOM     30  N   UNL A   1      33.928  29.733  26.595  1.00  0.00    -0.352 N 
ATOM     31  C   UNL A   1      34.652  30.544  27.435  1.00  0.00     0.251 C 
ATOM     32  H   UNL A   1      33.126  30.149  26.205  1.00  0.00     0.163 HD
ATOM     33  O   UNL A   1      34.180  31.620  27.790  1.00  0.00    -0.269 OA
BRANCH  31  34
ATOM     34  C   UNL A   1      35.984  30.127  27.927  1.00  0.00     0.039 A 
ATOM     35  C   UNL A   1      36.092  29.616  29.225  1.00  0.00     0.014 A 
ATOM     36  C   UNL A   1      37.129  30.278  27.139  1.00  0.00     0.014 A 
ATOM     37  C   UNL A   1      37.336  29.204  29.711  1.00  0.00     0.010 A 
ATOM     38  C   UNL A   1      38.361  29.819  27.606  1.00  0.00     0.010 A 
ATOM     39  C   UNL A   1      38.477  29.279  28.896  1.00  0.00    -0.014 A 
BRANCH  39  40
ATOM     40  C   UNL A   1      39.799  28.800  29.377  1.00  0.00     0.031 A 
ATOM     41  C   UNL A   1      40.657  29.678  30.245  1.00  0.00     0.074 A 
ATOM     42  C   UNL A   1      40.255  27.595  28.984  1.00  0.00     0.049 A 
ATOM     43  N   UNL A   1      41.856  29.451  30.717  1.00  0.00    -0.248 NA
ATOM     44  C   UNL A   1      40.103  30.990  30.611  1.00  0.00     0.031 C 
ATOM     45  C   UNL A   1      39.533  26.655  28.123  1.00  0.00     0.029 A 
ATOM     46  N   UNL A   1      41.439  26.955  29.253  1.00  0.00    -0.354 N 
ATOM     47  C   UNL A   1      42.212  30.600  31.414  1.00  0.00     0.074 A 
ATOM     48  C   UNL A   1      41.114  31.534  31.274  1.00  0.00     0.031 C 
ATOM     49  C   UNL A   1      40.276  25.548  27.961  1.00  0.00     0.029 A 
ATOM     50  C   UNL A   1      41.540  25.713  28.675  1.00  0.00     0.049 A 
ATOM     51  H   UNL A   1      42.150  27.350  29.810  1.00  0.00     0.167 HD
ATOM     52  C   UNL A   1      43.343  30.855  32.117  1.00  0.00     0.031 A 
ATOM     53  C   UNL A   1      42.534  24.805  28.714  1.00  0.00     0.031 A 
ATOM     54  C   UNL A   1      44.428  29.924  32.270  1.00  0.00     0.049 A 
ATOM     55  C   UNL A   1      43.782  25.109  29.494  1.00  0.00     0.074 A 
ATOM     56  C   UNL A   1      45.587  30.064  33.016  1.00  0.00     0.029 A 
ATOM     57  N   UNL A   1      44.494  28.680  31.662  1.00  0.00    -0.354 N 
ATOM     58  N   UNL A   1      44.075  26.180  30.193  1.00  0.00    -0.248 NA
ATOM     59  C   UNL A   1      44.830  24.080  29.493  1.00  0.00     0.031 C 
ATOM     60  C   UNL A   1      46.369  28.918  32.829  1.00  0.00     0.029 A 
ATOM     61  C   UNL A   1      45.680  28.049  31.999  1.00  0.00     0.049 A 
ATOM     62  H   UNL A   1      43.799  28.300  31.077  1.00  0.00     0.167 HD
ATOM     63  C   UNL A   1      45.332  25.942  30.737  1.00  0.00     0.074 A 
ATOM     64  C   UNL A   1      45.741  24.625  30.289  1.00  0.00     0.031 C 
ATOM     65  C   UNL A   1      46.076  26.741  31.540  1.00  0.00     0.031 A 
BRANCH  52  66
ATOM     66  C   UNL A   1      43.459  32.213  32.755  1.00  0.00    -0.014 A 
ATOM     67  C   UNL A   1      44.027  33.297  32.060  1.00  0.00     0.010 A 
ATOM     68  C   UNL A   1      43.008  32.406  34.073  1.00  0.00     0.010 A 
ATOM     69  C   UNL A   1      44.204  34.529  32.695  1.00  0.00     0.020 A 
ATOM     70  C   UNL A   1      43.161  33.644  34.703  1.00  0.00     0.020 A 
ATOM     71  C   UNL A   1      43.785  34.689  34.019  1.00  0.00     0.054 A 
BRANCH  71  72
ATOM     72  S   UNL A   1      44.054  36.286  34.837  1.00  0.00     0.124 S 
ATOM     73  O   UNL A   1      43.386  37.207  33.920  1.00  0.00    -0.237 OA
ATOM     74  O   UNL A   1      43.397  36.105  36.130  1.00  0.00    -0.237 OA
ATOM     75  O   UNL A   1      45.508  36.404  34.892  1.00  0.00    -0.744 OA
ENDBRANCH  71  72
ENDBRANCH  52  66
BRANCH  53  76
ATOM     76  C   UNL A   1      42.363  23.500  28.026  1.00  0.00    -0.014 A 
ATOM     77  C   UNL A   1      43.005  23.266  26.797  1.00  0.00     0.010 A 
ATOM     78  C   UNL A   1      41.603  22.471  28.610  1.00  0.00     0.010 A 
ATOM     79  C   UNL A   1      42.892  22.026  26.164  1.00  0.00     0.020 A 
ATOM     80  C   UNL A   1      41.502  21.223  27.988  1.00  0.00     0.020 A 
ATOM     81  C   UNL A   1      42.145  21.010  26.766  1.00  0.00     0.054 A 
BRANCH  81  82
ATOM     82  S   UNL A   1      42.084  19.381  25.969  1.00  0.00     0.124 S 
ATOM     83  O   UNL A   1      42.652  18.518  26.998  1.00  0.00    -0.237 OA
ATOM     84  O   UNL A   1      40.656  19.206  25.713  1.00  0.00    -0.237 OA
ATOM     85  O   UNL A   1      42.903  19.556  24.772  1.00  0.00    -0.744 OA
ENDBRANCH  81  82
ENDBRANCH  53  76
BRANCH  65  86
ATOM     86  C   UNL A   1      47.399  26.203  32.010  1.00  0.00    -0.014 A 
ATOM     87  C   UNL A   1      47.510  25.513  33.230  1.00  0.00     0.010 A 
ATOM     88  C   UNL A   1      48.537  26.348  31.196  1.00  0.00     0.010 A 
ATOM     89  C   UNL A   1      48.744  25.000  33.641  1.00  0.00     0.020 A 
ATOM     90  C   UNL A   1      49.768  25.819  31.594  1.00  0.00     0.020 A 
ATOM     91  C   UNL A   1      49.866  25.159  32.821  1.00  0.00     0.054 A 
BRANCH  91  92
ATOM     92  S   UNL A   1      51.448  24.446  33.350  1.00  0.00     0.124 S 
ATOM     93  O   UNL A   1      52.346  25.595  33.252  1.00  0.00    -0.237 OA
ATOM     94  O   UNL A   1      51.160  23.987  34.707  1.00  0.00    -0.237 OA
ATOM     95  O   UNL A   1      51.688  23.382  32.379  1.00  0.00    -0.744 OA
ENDBRANCH  91  92
ENDBRANCH  65  86
ENDBRANCH  39  40
ENDBRANCH  31  34
ENDBRANCH  29  30
ENDBRANCH  28  29
ENDBRANCH  27  28
ENDBRANCH   1  27
TORSDOF 20
ENDMDL
MODEL 2
REMARK VINA RESULT:     -10.6      2.000      2.649
REMARK SMILES Nc1nonc1C(=O)N1[C@@H]2CC[C@H]1C[C@H](CC(=O)NCCCCCCNC(=O)c1ccc(-c3c4nc(c(-c5ccc(S(=O)(=O)[O-])cc5)c5ccc([nH]5)c(-c5ccc(S(=O)(=O)[O-])cc5)c5nc(c(-c6ccc(S(=O)(=O)[O-])cc6)c6ccc3[nH]6)C=C5)C=C4)cc1)C2
REMARK SMILES IDX 22 1 21 2 20 3 19 4 17 5 18 6 16 8 15 9 9 10 10 11 13 12
REMARK SMILES IDX 11 13 89 14 12 15 14 16 7 17 8 18 6 19 2 20 3 21 4 22 5 23
REMARK SMILES IDX 1 24 23 27 24 28 25 29 26 30 27 31 28 33 29 34 30 35 88 36
REMARK SMILES IDX 31 37 87 38 32 39 33 40 34 41 81 42 35 43 86 44 80 45 82 46
REMARK SMILES IDX 36 47 85 48 79 49 78 50 37 52 67 53 48 54 66 55 49 56 52 57
REMARK SMILES IDX 65 58 83 59 50 60 51 61 64 63 84 64 53 65 38 66 39 67 47 68
REMARK SMILES IDX 40 69 46 70 41 71 42 72 43 73 44 74 45 75 68 76 69 77 77 78
REMARK SMILES IDX 70 79 76 80 71 81 72 82 73 83 74 84 75 85 54 86 55 87 63 88
REMARK SMILES IDX 56 89 62 90 57 91 58 92 59 93 60 94 61 95
REMARK H PARENT 19 7 1 25 1 26 26 32 82 51 52 62
REMARK Flexibility Score: inf
ROOT
ATOM      1  C   UNL A   1      32.241  28.031  24.275  1.00  0.00     0.002 C 
ENDROOT
BRANCH   1   2
ATOM      2  C   UNL A   1      30.879  28.240  23.612  1.00  0.00     0.021 C 
BRANCH   2   3
ATOM      3  C   UNL A   1      30.457  27.113  22.659  1.00  0.00     0.116 C 
BRANCH   3   4
ATOM      4  N   UNL A   1      31.471  26.901  21.635  1.00  0.00    -0.356 N 
ATOM      5  C   UNL A   1      32.315  25.854  21.413  1.00  0.00     0.220 C 
ATOM      6  O   UNL A   1      33.175  25.973  20.539  1.00  0.00    -0.275 OA
ATOM      7  H   UNL A   1      31.562  27.641  20.993  1.00  0.00     0.163 HD
BRANCH   5   8
ATOM      8  C   UNL A   1      32.197  24.567  22.208  1.00  0.00     0.103 C 
BRANCH   8   9
ATOM      9  C   UNL A   1      33.053  24.534  23.494  1.00  0.00     0.002 C 
ATOM     10  N   UNL A   1      34.082  22.226  24.847  1.00  0.00    -0.331 N 
ATOM     11  C   UNL A   1      35.069  23.180  24.363  1.00  0.00     0.086 C 
ATOM     12  C   UNL A   1      33.167  23.031  25.631  1.00  0.00     0.086 C 
ATOM     13  C   UNL A   1      35.304  24.135  25.546  1.00  0.00     0.027 C 
ATOM     14  C   UNL A   1      34.429  23.895  23.168  1.00  0.00     0.029 C 
ATOM     15  C   UNL A   1      34.075  23.954  26.440  1.00  0.00     0.027 C 
ATOM     16  C   UNL A   1      32.299  23.822  24.644  1.00  0.00     0.029 C 
BRANCH  10  17
ATOM     17  C   UNL A   1      34.549  21.009  25.344  1.00  0.00     0.280 C 
ATOM     18  O   UNL A   1      35.631  20.939  25.924  1.00  0.00    -0.267 OA
BRANCH  17  19
ATOM     19  C   UNL A   1      33.735  19.842  25.009  1.00  0.00     0.216 A 
ATOM     20  C   UNL A   1      34.079  18.496  24.712  1.00  0.00     0.201 A 
ATOM     21  N   UNL A   1      32.971  17.780  24.540  1.00  0.00    -0.032 NA
ATOM     22  O   UNL A   1      31.929  18.680  24.672  1.00  0.00    -0.242 OA
ATOM     23  N   UNL A   1      32.398  19.950  24.964  1.00  0.00    -0.042 NA
BRANCH  20  24
ATOM     24  N   UNL A   1      35.306  17.961  24.574  1.00  0.00    -0.379 N 
ATOM     25  H   UNL A   1      35.534  17.455  23.761  1.00  0.00     0.158 HD
ATOM     26  H   UNL A   1      35.976  18.077  25.287  1.00  0.00     0.158 HD
ENDBRANCH  20  24
ENDBRANCH  17  19
ENDBRANCH  10  17
ENDBRANCH   8   9
ENDBRANCH   5   8
ENDBRANCH   3   4
ENDBRANCH   2   3
ENDBRANCH   1   2
BRANCH   1  27
ATOM     27  C   UNL A   1      32.181  27.446  25.688  1.00  0.00     0.002 C 
BRANCH  27  28
ATOM     28  C   UNL A   1      33.014  28.172  26.754  1.00  0.00     0.021 C 
BRANCH  28  29
ATOM     29  C   UNL A   1      34.036  29.182  26.229  1.00  0.00     0.116 C 
BRANCH  29  30
ATOM     30  N   UNL A   1      33.769  30.533  26.690  1.00  0.00    -0.352 N 
ATOM     31  C   UNL A   1      34.384  31.272  27.672  1.00  0.00     0.251 C 
ATOM     32  H   UNL A   1      33.032  30.991  26.226  1.00  0.00     0.163 HD
ATOM     33  O   UNL A   1      33.881  32.332  28.034  1.00  0.00    -0.269 OA
BRANCH  31  34
ATOM     34  C   UNL A   1      35.633  30.794  28.308  1.00  0.00     0.039 A 
ATOM     35  C   UNL A   1      36.824  31.479  28.047  1.00  0.00     0.014 A 
ATOM     36  C   UNL A   1      35.645  29.654  29.118  1.00  0.00     0.014 A 
ATOM     37  C   UNL A   1      38.016  31.056  28.642  1.00  0.00     0.010 A 
ATOM     38  C   UNL A   1      36.825  29.265  29.752  1.00  0.00     0.010 A 
ATOM     39  C   UNL A   1      38.022  29.960  29.519  1.00  0.00    -0.014 A 
BRANCH  39  40
ATOM     40  C   UNL A   1      39.269  29.528  30.201  1.00  0.00     0.031 A 
ATOM     41  C   UNL A   1      39.729  30.217  31.456  1.00  0.00     0.074 A 
ATOM     42  C   UNL A   1      40.022  28.552  29.658  1.00  0.00     0.049 A 
ATOM     43  N   UNL A   1      40.813  30.012  32.160  1.00  0.00    -0.248 NA
ATOM     44  C   UNL A   1      38.868  31.291  31.974  1.00  0.00     0.031 C 
ATOM     45  C   UNL A   1      39.704  27.818  28.431  1.00  0.00     0.029 A 
ATOM     46  N   UNL A   1      41.216  28.010  30.067  1.00  0.00    -0.354 N 
ATOM     47  C   UNL A   1      40.779  30.946  33.189  1.00  0.00     0.074 A 
ATOM     48  C   UNL A   1      39.583  31.740  32.995  1.00  0.00     0.031 C 
ATOM     49  C   UNL A   1      40.660  26.904  28.205  1.00  0.00     0.029 A 
ATOM     50  C   UNL A   1      41.678  27.009  29.248  1.00  0.00     0.049 A 
ATOM     51  H   UNL A   1      41.696  28.312  30.873  1.00  0.00     0.167 HD
ATOM     52  C   UNL A   1      41.655  31.124  34.208  1.00  0.00     0.031 A 
ATOM     53  C   UNL A   1      42.792  26.257  29.325  1.00  0.00     0.031 A 
ATOM     54  C   UNL A   1      42.835  30.328  34.410  1.00  0.00     0.049 A 
ATOM     55  C   UNL A   1      43.753  26.473  30.460  1.00  0.00     0.074 A 
ATOM     56  C   UNL A   1      43.749  30.388  35.449  1.00  0.00     0.029 A 
ATOM     57  N   UNL A   1      43.270  29.328  33.553  1.00  0.00    -0.354 N 
ATOM     58  N   UNL A   1      43.673  27.325  31.454  1.00  0.00    -0.248 NA
ATOM     59  C   UNL A   1      44.951  25.624  30.483  1.00  0.00     0.031 C 
ATOM     60  C   UNL A   1      44.756  29.447  35.200  1.00  0.00     0.029 A 
ATOM     61  C   UNL A   1      44.448  28.777  34.027  1.00  0.00     0.049 A 
ATOM     62  H   UNL A   1      42.808  29.051  32.729  1.00  0.00     0.167 HD
ATOM     63  C   UNL A   1      44.799  27.096  32.237  1.00  0.00     0.074 A 
ATOM     64  C   UNL A   1      45.540  26.024  31.603  1.00  0.00     0.031 C 
ATOM     65  C   UNL A   1      45.179  27.714  33.382  1.00  0.00     0.031 A 
BRANCH  52  66
ATOM     66  C   UNL A   1      41.364  32.245  35.169  1.00  0.00    -0.014 A 
ATOM     67  C   UNL A   1      41.867  33.541  34.948  1.00  0.00     0.010 A 
ATOM     68  C   UNL A   1      40.592  31.997  36.318  1.00  0.00     0.010 A 
ATOM     69  C   UNL A   1      41.659  34.550  35.893  1.00  0.00     0.020 A 
ATOM     70  C   UNL A   1      40.361  33.010  37.253  1.00  0.00     0.020 A 
ATOM     71  C   UNL A   1      40.921  34.273  37.047  1.00  0.00     0.054 A 
BRANCH  71  72
ATOM     72  S   UNL A   1      40.691  35.586  38.277  1.00  0.00     0.124 S 
ATOM     73  O   UNL A   1      42.056  35.784  38.761  1.00  0.00    -0.237 OA
ATOM     74  O   UNL A   1      40.143  36.684  37.483  1.00  0.00    -0.237 OA
ATOM     75  O   UNL A   1      39.766  34.998  39.241  1.00  0.00    -0.744 OA
ENDBRANCH  71  72
ENDBRANCH  52  66
BRANCH  53  76
ATOM     76  C   UNL A   1      43.031  25.193  28.315  1.00  0.00    -0.014 A 
ATOM     77  C   UNL A   1      43.831  25.462  27.190  1.00  0.00     0.010 A 
ATOM     78  C   UNL A   1      42.504  23.902  28.490  1.00  0.00     0.010 A 
ATOM     79  C   UNL A   1      44.103  24.457  26.259  1.00  0.00     0.020 A 
ATOM     80  C   UNL A   1      42.789  22.889  27.569  1.00  0.00     0.020 A 
ATOM     81  C   UNL A   1      43.584  23.175  26.457  1.00  0.00     0.054 A 
BRANCH  81  82
ATOM     82  S   UNL A   1      44.022  21.864  25.281  1.00  0.00     0.124 S 
ATOM     83  O   UNL A   1      43.847  22.536  23.998  1.00  0.00    -0.237 OA
ATOM     84  O   UNL A   1      45.401  21.553  25.650  1.00  0.00    -0.237 OA
ATOM     85  O   UNL A   1      43.056  20.807  25.574  1.00  0.00    -0.744 OA
ENDBRANCH  81  82
ENDBRANCH  53  76
BRANCH  65  86
ATOM     86  C   UNL A   1      46.441  27.229  34.039  1.00  0.00    -0.014 A 
ATOM     87  C   UNL A   1      47.685  27.811  33.740  1.00  0.00     0.010 A 
ATOM     88  C   UNL A   1      46.373  26.208  35.005  1.00  0.00     0.010 A 
ATOM     89  C   UNL A   1      48.845  27.362  34.377  1.00  0.00     0.020 A 
ATOM     90  C   UNL A   1      47.528  25.770  35.657  1.00  0.00     0.020 A 
ATOM     91  C   UNL A   1      48.759  26.342  35.330  1.00  0.00     0.054 A 
BRANCH  91  92
ATOM     92  S   UNL A   1      50.270  25.804  36.179  1.00  0.00     0.124 S 
ATOM     93  O   UNL A   1      49.904  25.968  37.583  1.00  0.00    -0.237 OA
ATOM     94  O   UNL A   1      50.424  24.424  35.726  1.00  0.00    -0.237 OA
ATOM     95  O   UNL A   1      51.289  26.729  35.688  1.00  0.00    -0.744 OA
ENDBRANCH  91  92
ENDBRANCH  65  86
ENDBRANCH  39  40
ENDBRANCH  31  34
ENDBRANCH  29  30
ENDBRANCH  28  29
ENDBRANCH  27  28
ENDBRANCH   1  27
TORSDOF 20
ENDMDL
MODEL 3
REMARK VINA RESULT:     -10.5      1.818      4.387
REMARK SMILES Nc1nonc1C(=O)N1[C@@H]2CC[C@H]1C[C@H](CC(=O)NCCCCCCNC(=O)c1ccc(-c3c4nc(c(-c5ccc(S(=O)(=O)[O-])cc5)c5ccc([nH]5)c(-c5ccc(S(=O)(=O)[O-])cc5)c5nc(c(-c6ccc(S(=O)(=O)[O-])cc6)c6ccc3[nH]6)C=C5)C=C4)cc1)C2
REMARK SMILES IDX 22 1 21 2 20 3 19 4 17 5 18 6 16 8 15 9 9 10 10 11 13 12
REMARK SMILES IDX 11 13 89 14 12 15 14 16 7 17 8 18 6 19 2 20 3 21 4 22 5 23
REMARK SMILES IDX 1 24 23 27 24 28 25 29 26 30 27 31 28 33 29 34 30 35 88 36
REMARK SMILES IDX 31 37 87 38 32 39 33 40 34 41 81 42 35 43 86 44 80 45 82 46
REMARK SMILES IDX 36 47 85 48 79 49 78 50 37 52 67 53 48 54 66 55 49 56 52 57
REMARK SMILES IDX 65 58 83 59 50 60 51 61 64 63 84 64 53 65 38 66 39 67 47 68
REMARK SMILES IDX 40 69 46 70 41 71 42 72 43 73 44 74 45 75 68 76 69 77 77 78
REMARK SMILES IDX 70 79 76 80 71 81 72 82 73 83 74 84 75 85 54 86 55 87 63 88
REMARK SMILES IDX 56 89 62 90 57 91 58 92 59 93 60 94 61 95
REMARK H PARENT 19 7 1 25 1 26 26 32 82 51 52 62
REMARK Flexibility Score: inf
ROOT
ATOM      1  C   UNL A   1      33.873  24.985  26.114  1.00  0.00     0.002 C 
ENDROOT
BRANCH   1   2
ATOM      2  C   UNL A   1      32.516  24.324  26.356  1.00  0.00     0.021 C 
BRANCH   2   3
ATOM      3  C   UNL A   1      32.256  23.078  25.500  1.00  0.00     0.116 C 
BRANCH   3   4
ATOM      4  N   UNL A   1      32.886  23.212  24.194  1.00  0.00    -0.356 N 
ATOM      5  C   UNL A   1      32.430  23.757  23.031  1.00  0.00     0.220 C 
ATOM      6  O   UNL A   1      33.122  23.636  22.018  1.00  0.00    -0.275 OA
ATOM      7  H   UNL A   1      33.797  22.845  24.142  1.00  0.00     0.163 HD
BRANCH   5   8
ATOM      8  C   UNL A   1      31.113  24.509  22.978  1.00  0.00     0.103 C 
BRANCH   8   9
ATOM      9  C   UNL A   1      31.229  26.015  23.305  1.00  0.00     0.002 C 
ATOM     10  N   UNL A   1      29.183  28.011  23.086  1.00  0.00    -0.331 N 
ATOM     11  C   UNL A   1      29.741  27.806  24.414  1.00  0.00     0.086 C 
ATOM     12  C   UNL A   1      30.341  28.235  22.245  1.00  0.00     0.086 C 
ATOM     13  C   UNL A   1      30.894  28.819  24.514  1.00  0.00     0.027 C 
ATOM     14  C   UNL A   1      30.244  26.360  24.454  1.00  0.00     0.029 C 
ATOM     15  C   UNL A   1      31.222  29.177  23.063  1.00  0.00     0.027 C 
ATOM     16  C   UNL A   1      31.020  26.876  22.035  1.00  0.00     0.029 C 
BRANCH  10  17
ATOM     17  C   UNL A   1      28.064  28.836  22.975  1.00  0.00     0.280 C 
ATOM     18  O   UNL A   1      26.958  28.453  23.353  1.00  0.00    -0.267 OA
BRANCH  17  19
ATOM     19  C   UNL A   1      28.283  30.099  22.272  1.00  0.00     0.216 A 
ATOM     20  C   UNL A   1      28.757  31.364  22.713  1.00  0.00     0.201 A 
ATOM     21  N   UNL A   1      28.851  32.192  21.675  1.00  0.00    -0.032 NA
ATOM     22  O   UNL A   1      28.386  31.472  20.589  1.00  0.00    -0.242 OA
ATOM     23  N   UNL A   1      28.038  30.183  20.954  1.00  0.00    -0.042 NA
BRANCH  20  24
ATOM     24  N   UNL A   1      29.052  31.750  23.967  1.00  0.00    -0.379 N 
ATOM     25  H   UNL A   1      29.329  31.083  24.636  1.00  0.00     0.158 HD
ATOM     26  H   UNL A   1      28.991  32.701  24.216  1.00  0.00     0.158 HD
ENDBRANCH  20  24
ENDBRANCH  17  19
ENDBRANCH  10  17
ENDBRANCH   8   9
ENDBRANCH   5   8
ENDBRANCH   3   4
ENDBRANCH   2   3
ENDBRANCH   1   2
BRANCH   1  27
ATOM     27  C   UNL A   1      33.807  26.340  25.405  1.00  0.00     0.002 C 
BRANCH  27  28
ATOM     28  C   UNL A   1      33.717  27.574  26.314  1.00  0.00     0.021 C 
BRANCH  28  29
ATOM     29  C   UNL A   1      34.314  28.865  25.750  1.00  0.00     0.116 C 
BRANCH  29  30
ATOM     30  N   UNL A   1      33.992  30.026  26.560  1.00  0.00    -0.352 N 
ATOM     31  C   UNL A   1      34.644  30.558  27.646  1.00  0.00     0.251 C 
ATOM     32  H   UNL A   1      33.177  30.508  26.289  1.00  0.00     0.163 HD
ATOM     33  O   UNL A   1      34.101  31.439  28.305  1.00  0.00    -0.269 OA
BRANCH  31  34
ATOM     34  C   UNL A   1      35.986  30.067  28.037  1.00  0.00     0.039 A 
ATOM     35  C   UNL A   1      37.059  30.279  27.165  1.00  0.00     0.014 A 
ATOM     36  C   UNL A   1      36.182  29.363  29.229  1.00  0.00     0.014 A 
ATOM     37  C   UNL A   1      38.338  29.835  27.514  1.00  0.00     0.010 A 
ATOM     38  C   UNL A   1      37.467  28.967  29.599  1.00  0.00     0.010 A 
ATOM     39  C   UNL A   1      38.558  29.198  28.745  1.00  0.00    -0.014 A 
BRANCH  39  40
ATOM     40  C   UNL A   1      39.918  28.765  29.156  1.00  0.00     0.031 A 
ATOM     41  C   UNL A   1      40.812  29.695  29.929  1.00  0.00     0.074 A 
ATOM     42  C   UNL A   1      40.375  27.554  28.781  1.00  0.00     0.049 A 
ATOM     43  N   UNL A   1      42.044  29.512  30.330  1.00  0.00    -0.248 NA
ATOM     44  C   UNL A   1      40.253  31.010  30.279  1.00  0.00     0.031 C 
ATOM     45  C   UNL A   1      39.620  26.565  28.008  1.00  0.00     0.029 A 
ATOM     46  N   UNL A   1      41.589  26.950  28.997  1.00  0.00    -0.354 N 
ATOM     47  C   UNL A   1      42.418  30.695  30.956  1.00  0.00     0.074 A 
ATOM     48  C   UNL A   1      41.292  31.600  30.851  1.00  0.00     0.031 C 
ATOM     49  C   UNL A   1      40.376  25.468  27.841  1.00  0.00     0.029 A 
ATOM     50  C   UNL A   1      41.679  25.687  28.462  1.00  0.00     0.049 A 
ATOM     51  H   UNL A   1      42.325  27.382  29.489  1.00  0.00     0.167 HD
ATOM     52  C   UNL A   1      43.587  31.002  31.571  1.00  0.00     0.031 A 
ATOM     53  C   UNL A   1      42.695  24.803  28.471  1.00  0.00     0.031 A 
ATOM     54  C   UNL A   1      44.700  30.100  31.688  1.00  0.00     0.049 A 
ATOM     55  C   UNL A   1      43.984  25.164  29.154  1.00  0.00     0.074 A 
ATOM     56  C   UNL A   1      45.902  30.294  32.350  1.00  0.00     0.029 A 
ATOM     57  N   UNL A   1      44.754  28.833  31.128  1.00  0.00    -0.354 N 
ATOM     58  N   UNL A   1      44.297  26.268  29.789  1.00  0.00    -0.248 NA
ATOM     59  C   UNL A   1      45.053  24.156  29.124  1.00  0.00     0.031 C 
ATOM     60  C   UNL A   1      46.696  29.156  32.157  1.00  0.00     0.029 A 
ATOM     61  C   UNL A   1      45.974  28.241  31.409  1.00  0.00     0.049 A 
ATOM     62  H   UNL A   1      44.031  28.416  30.605  1.00  0.00     0.167 HD
ATOM     63  C   UNL A   1      45.593  26.078  30.257  1.00  0.00     0.074 A 
ATOM     64  C   UNL A   1      46.001  24.752  29.836  1.00  0.00     0.031 C 
ATOM     65  C   UNL A   1      46.369  26.923  30.977  1.00  0.00     0.031 A 
BRANCH  52  66
ATOM     66  C   UNL A   1      43.713  32.387  32.146  1.00  0.00    -0.014 A 
ATOM     67  C   UNL A   1      44.203  33.454  31.370  1.00  0.00     0.010 A 
ATOM     68  C   UNL A   1      43.352  32.623  33.485  1.00  0.00     0.010 A 
ATOM     69  C   UNL A   1      44.393  34.715  31.943  1.00  0.00     0.020 A 
ATOM     70  C   UNL A   1      43.517  33.889  34.053  1.00  0.00     0.020 A 
ATOM     71  C   UNL A   1      44.065  34.919  33.286  1.00  0.00     0.054 A 
BRANCH  71  72
ATOM     72  S   UNL A   1      44.350  36.553  34.020  1.00  0.00     0.124 S 
ATOM     73  O   UNL A   1      43.880  37.442  32.960  1.00  0.00    -0.237 OA
ATOM     74  O   UNL A   1      43.521  36.520  35.222  1.00  0.00    -0.237 OA
ATOM     75  O   UNL A   1      45.790  36.576  34.261  1.00  0.00    -0.744 OA
ENDBRANCH  71  72
ENDBRANCH  52  66
BRANCH  53  76
ATOM     76  C   UNL A   1      42.509  23.467  27.848  1.00  0.00    -0.014 A 
ATOM     77  C   UNL A   1      42.797  23.284  26.484  1.00  0.00     0.010 A 
ATOM     78  C   UNL A   1      42.091  22.365  28.615  1.00  0.00     0.010 A 
ATOM     79  C   UNL A   1      42.673  22.022  25.898  1.00  0.00     0.020 A 
ATOM     80  C   UNL A   1      41.983  21.098  28.036  1.00  0.00     0.020 A 
ATOM     81  C   UNL A   1      42.272  20.935  26.679  1.00  0.00     0.054 A 
BRANCH  81  82
ATOM     82  S   UNL A   1      42.202  19.289  25.916  1.00  0.00     0.124 S 
ATOM     83  O   UNL A   1      40.781  19.154  25.617  1.00  0.00    -0.237 OA
ATOM     84  O   UNL A   1      43.081  19.438  24.759  1.00  0.00    -0.237 OA
ATOM     85  O   UNL A   1      42.712  18.407  26.964  1.00  0.00    -0.744 OA
ENDBRANCH  81  82
ENDBRANCH  53  76
BRANCH  65  86
ATOM     86  C   UNL A   1      47.732  26.431  31.379  1.00  0.00    -0.014 A 
ATOM     87  C   UNL A   1      47.942  25.813  32.624  1.00  0.00     0.010 A 
ATOM     88  C   UNL A   1      48.806  26.548  30.478  1.00  0.00     0.010 A 
ATOM     89  C   UNL A   1      49.211  25.342  32.972  1.00  0.00     0.020 A 
ATOM     90  C   UNL A   1      50.072  26.060  30.815  1.00  0.00     0.020 A 
ATOM     91  C   UNL A   1      50.269  25.471  32.066  1.00  0.00     0.054 A 
BRANCH  91  92
ATOM     92  S   UNL A   1      51.898  24.812  32.518  1.00  0.00     0.124 S 
ATOM     93  O   UNL A   1      52.018  25.232  33.912  1.00  0.00    -0.237 OA
ATOM     94  O   UNL A   1      51.738  23.376  32.306  1.00  0.00    -0.237 OA
ATOM     95  O   UNL A   1      52.808  25.474  31.586  1.00  0.00    -0.744 OA
ENDBRANCH  91  92
ENDBRANCH  65  86
ENDBRANCH  39  40
ENDBRANCH  31  34
ENDBRANCH  29  30
ENDBRANCH  28  29
ENDBRANCH  27  28
ENDBRANCH   1  27
TORSDOF 20
ENDMDL
