MODEL 1
REMARK VINA RESULT:     -10.4      0.000      0.000
REMARK SMILES CC(C)CS(=O)(=O)Cc1c(C(=O)NCCCCCCNC(=O)c2ccc(-c3c4nc(c(-c5ccc(S(=O)(=O)[O-])cc5)c5ccc([nH]5)c(-c5ccc(S(=O)(=O)[O-])cc5)c5nc(c(-c6ccc(S(=O)(=O)[O-])cc6)c6ccc3[nH]6)C=C5)C=C4)cc2)oc2ccccc12
REMARK SMILES IDX 16 1 15 2 14 3 13 4 11 5 12 6 10 8 9 9 89 10 83 11 84 12
REMARK SMILES IDX 88 13 85 14 87 15 86 16 8 17 5 18 6 19 7 20 4 21 2 22 1 23
REMARK SMILES IDX 3 24 17 25 18 26 19 27 20 28 21 29 22 31 23 32 24 33 82 34
REMARK SMILES IDX 25 35 81 36 26 37 27 38 28 39 75 40 29 41 80 42 74 43 76 44
REMARK SMILES IDX 30 45 79 46 73 47 72 48 31 50 61 51 42 52 60 53 43 54 46 55
REMARK SMILES IDX 59 56 77 57 44 58 45 59 58 61 78 62 47 63 32 64 33 65 41 66
REMARK SMILES IDX 34 67 40 68 35 69 36 70 37 71 38 72 39 73 62 74 63 75 71 76
REMARK SMILES IDX 64 77 70 78 65 79 66 80 67 81 68 82 69 83 48 84 49 85 57 86
REMARK SMILES IDX 50 87 56 88 51 89 52 90 53 91 54 92 55 93
REMARK H PARENT 13 7 20 30 76 49 46 60
REMARK Flexibility Score: inf
ROOT
ATOM      1  C   UNL A   1      34.216  25.836  25.293  1.00  0.00     0.002 C 
ENDROOT
BRANCH   1   2
ATOM      2  C   UNL A   1      33.719  27.022  26.134  1.00  0.00     0.021 C 
BRANCH   2   3
ATOM      3  C   UNL A   1      33.663  28.344  25.368  1.00  0.00     0.116 C 
BRANCH   3   4
ATOM      4  N   UNL A   1      33.950  28.100  23.966  1.00  0.00    -0.349 N 
ATOM      5  C   UNL A   1      33.161  27.767  22.900  1.00  0.00     0.287 C 
ATOM      6  O   UNL A   1      33.758  27.417  21.882  1.00  0.00    -0.266 OA
ATOM      7  H   UNL A   1      34.903  28.192  23.737  1.00  0.00     0.163 HD
BRANCH   5   8
ATOM      8  C   UNL A   1      31.724  27.948  22.915  1.00  0.00     0.196 A 
ATOM      9  C   UNL A   1      30.701  27.149  23.432  1.00  0.00     0.027 A 
ATOM     10  C   UNL A   1      29.484  27.892  23.191  1.00  0.00     0.025 A 
ATOM     11  O   UNL A   1      31.193  29.076  22.363  1.00  0.00    -0.451 OA
ATOM     12  C   UNL A   1      29.854  29.053  22.534  1.00  0.00     0.135 A 
ATOM     13  C   UNL A   1      28.117  27.717  23.490  1.00  0.00     0.012 A 
ATOM     14  C   UNL A   1      28.975  30.055  22.132  1.00  0.00     0.048 A 
ATOM     15  C   UNL A   1      27.202  28.710  23.107  1.00  0.00     0.001 A 
ATOM     16  C   UNL A   1      27.625  29.859  22.436  1.00  0.00     0.004 A 
BRANCH   9  17
ATOM     17  C   UNL A   1      30.722  25.865  24.214  1.00  0.00     0.177 C 
BRANCH  17  18
ATOM     18  S   UNL A   1      31.123  24.251  23.548  1.00  0.00     0.154 S 
ATOM     19  O   UNL A   1      32.310  24.428  22.723  1.00  0.00    -0.228 OA
ATOM     20  O   UNL A   1      29.930  23.733  22.899  1.00  0.00    -0.228 OA
BRANCH  18  21
ATOM     21  C   UNL A   1      31.562  23.119  24.870  1.00  0.00     0.140 C 
BRANCH  21  22
ATOM     22  C   UNL A   1      32.566  22.027  24.500  1.00  0.00    -0.002 C 
ATOM     23  C   UNL A   1      32.649  20.947  25.577  1.00  0.00     0.008 C 
ATOM     24  C   UNL A   1      32.149  21.396  23.167  1.00  0.00     0.008 C 
ENDBRANCH  21  22
ENDBRANCH  18  21
ENDBRANCH  17  18
ENDBRANCH   9  17
ENDBRANCH   5   8
ENDBRANCH   3   4
ENDBRANCH   2   3
ENDBRANCH   1   2
BRANCH   1  25
ATOM     25  C   UNL A   1      35.164  24.878  26.020  1.00  0.00     0.002 C 
BRANCH  25  26
ATOM     26  C   UNL A   1      35.682  23.713  25.173  1.00  0.00     0.021 C 
BRANCH  26  27
ATOM     27  C   UNL A   1      37.156  23.807  24.793  1.00  0.00     0.116 C 
BRANCH  27  28
ATOM     28  N   UNL A   1      37.947  22.727  25.355  1.00  0.00    -0.352 N 
ATOM     29  C   UNL A   1      38.992  22.810  26.241  1.00  0.00     0.251 C 
ATOM     30  H   UNL A   1      37.702  21.819  25.063  1.00  0.00     0.163 HD
ATOM     31  O   UNL A   1      39.653  21.812  26.513  1.00  0.00    -0.269 OA
BRANCH  29  32
ATOM     32  C   UNL A   1      39.334  24.118  26.840  1.00  0.00     0.039 A 
ATOM     33  C   UNL A   1      38.878  24.408  28.127  1.00  0.00     0.014 A 
ATOM     34  C   UNL A   1      40.106  25.047  26.135  1.00  0.00     0.014 A 
ATOM     35  C   UNL A   1      39.240  25.614  28.732  1.00  0.00     0.010 A 
ATOM     36  C   UNL A   1      40.507  26.227  26.759  1.00  0.00     0.010 A 
ATOM     37  C   UNL A   1      40.075  26.521  28.061  1.00  0.00    -0.014 A 
BRANCH  37  38
ATOM     38  C   UNL A   1      40.499  27.788  28.704  1.00  0.00     0.031 A 
ATOM     39  C   UNL A   1      41.877  27.909  29.296  1.00  0.00     0.074 A 
ATOM     40  C   UNL A   1      39.627  28.809  28.808  1.00  0.00     0.049 A 
ATOM     41  N   UNL A   1      42.408  28.913  29.944  1.00  0.00    -0.248 NA
ATOM     42  C   UNL A   1      42.762  26.741  29.160  1.00  0.00     0.031 C 
ATOM     43  C   UNL A   1      38.248  28.800  28.312  1.00  0.00     0.029 A 
ATOM     44  N   UNL A   1      39.769  30.051  29.373  1.00  0.00    -0.354 N 
ATOM     45  C   UNL A   1      43.680  28.492  30.313  1.00  0.00     0.074 A 
ATOM     46  C   UNL A   1      43.827  27.130  29.845  1.00  0.00     0.031 C 
ATOM     47  C   UNL A   1      37.679  29.987  28.579  1.00  0.00     0.029 A 
ATOM     48  C   UNL A   1      38.640  30.829  29.285  1.00  0.00     0.049 A 
ATOM     49  H   UNL A   1      40.601  30.355  29.801  1.00  0.00     0.167 HD
ATOM     50  C   UNL A   1      44.644  29.180  30.971  1.00  0.00     0.031 A 
ATOM     51  C   UNL A   1      38.405  32.081  29.723  1.00  0.00     0.031 A 
ATOM     52  C   UNL A   1      44.507  30.539  31.418  1.00  0.00     0.049 A 
ATOM     53  C   UNL A   1      39.500  32.837  30.419  1.00  0.00     0.074 A 
ATOM     54  C   UNL A   1      45.445  31.337  32.049  1.00  0.00     0.029 A 
ATOM     55  N   UNL A   1      43.361  31.306  31.273  1.00  0.00    -0.354 N 
ATOM     56  N   UNL A   1      40.714  32.438  30.715  1.00  0.00    -0.248 NA
ATOM     57  C   UNL A   1      39.200  34.217  30.826  1.00  0.00     0.031 C 
ATOM     58  C   UNL A   1      44.856  32.581  32.309  1.00  0.00     0.029 A 
ATOM     59  C   UNL A   1      43.564  32.565  31.809  1.00  0.00     0.049 A 
ATOM     60  H   UNL A   1      42.526  30.999  30.853  1.00  0.00     0.167 HD
ATOM     61  C   UNL A   1      41.329  33.525  31.324  1.00  0.00     0.074 A 
ATOM     62  C   UNL A   1      40.359  34.601  31.346  1.00  0.00     0.031 C 
ATOM     63  C   UNL A   1      42.588  33.624  31.818  1.00  0.00     0.031 A 
BRANCH  50  64
ATOM     64  C   UNL A   1      45.935  28.460  31.246  1.00  0.00    -0.014 A 
ATOM     65  C   UNL A   1      47.028  28.576  30.369  1.00  0.00     0.010 A 
ATOM     66  C   UNL A   1      46.062  27.669  32.401  1.00  0.00     0.010 A 
ATOM     67  C   UNL A   1      48.211  27.877  30.619  1.00  0.00     0.020 A 
ATOM     68  C   UNL A   1      47.251  26.985  32.666  1.00  0.00     0.020 A 
ATOM     69  C   UNL A   1      48.312  27.077  31.761  1.00  0.00     0.054 A 
BRANCH  69  70
ATOM     70  S   UNL A   1      49.858  26.180  32.069  1.00  0.00     0.124 S 
ATOM     71  O   UNL A   1      50.803  26.920  31.236  1.00  0.00    -0.237 OA
ATOM     72  O   UNL A   1      50.041  26.331  33.510  1.00  0.00    -0.237 OA
ATOM     73  O   UNL A   1      49.563  24.821  31.621  1.00  0.00    -0.744 OA
ENDBRANCH  69  70
ENDBRANCH  50  64
BRANCH  51  74
ATOM     74  C   UNL A   1      37.078  32.707  29.486  1.00  0.00    -0.014 A 
ATOM     75  C   UNL A   1      36.110  32.724  30.504  1.00  0.00     0.010 A 
ATOM     76  C   UNL A   1      36.787  33.309  28.249  1.00  0.00     0.010 A 
ATOM     77  C   UNL A   1      34.868  33.327  30.289  1.00  0.00     0.020 A 
ATOM     78  C   UNL A   1      35.552  33.929  28.037  1.00  0.00     0.020 A 
ATOM     79  C   UNL A   1      34.596  33.925  29.055  1.00  0.00     0.054 A 
BRANCH  79  80
ATOM     80  S   UNL A   1      33.004  34.761  28.813  1.00  0.00     0.124 S 
ATOM     81  O   UNL A   1      33.416  36.038  28.240  1.00  0.00    -0.237 OA
ATOM     82  O   UNL A   1      32.301  33.856  27.906  1.00  0.00    -0.237 OA
ATOM     83  O   UNL A   1      32.449  34.828  30.164  1.00  0.00    -0.744 OA
ENDBRANCH  79  80
ENDBRANCH  51  74
BRANCH  63  84
ATOM     84  C   UNL A   1      42.998  34.948  32.396  1.00  0.00    -0.014 A 
ATOM     85  C   UNL A   1      43.558  35.950  31.585  1.00  0.00     0.010 A 
ATOM     86  C   UNL A   1      42.771  35.211  33.759  1.00  0.00     0.010 A 
ATOM     87  C   UNL A   1      43.908  37.187  32.134  1.00  0.00     0.020 A 
ATOM     88  C   UNL A   1      43.104  36.452  34.307  1.00  0.00     0.020 A 
ATOM     89  C   UNL A   1      43.682  37.428  33.493  1.00  0.00     0.054 A 
BRANCH  89  90
ATOM     90  S   UNL A   1      44.099  39.056  34.178  1.00  0.00     0.124 S 
ATOM     91  O   UNL A   1      44.118  38.784  35.612  1.00  0.00    -0.237 OA
ATOM     92  O   UNL A   1      45.398  39.339  33.574  1.00  0.00    -0.237 OA
ATOM     93  O   UNL A   1      43.007  39.911  33.718  1.00  0.00    -0.744 OA
ENDBRANCH  89  90
ENDBRANCH  63  84
ENDBRANCH  37  38
ENDBRANCH  29  32
ENDBRANCH  27  28
ENDBRANCH  26  27
ENDBRANCH  25  26
ENDBRANCH   1  25
TORSDOF 20
ENDMDL
MODEL 2
REMARK VINA RESULT:      -9.8      3.867      9.353
REMARK SMILES CC(C)CS(=O)(=O)Cc1c(C(=O)NCCCCCCNC(=O)c2ccc(-c3c4nc(c(-c5ccc(S(=O)(=O)[O-])cc5)c5ccc([nH]5)c(-c5ccc(S(=O)(=O)[O-])cc5)c5nc(c(-c6ccc(S(=O)(=O)[O-])cc6)c6ccc3[nH]6)C=C5)C=C4)cc2)oc2ccccc12
REMARK SMILES IDX 16 1 15 2 14 3 13 4 11 5 12 6 10 8 9 9 89 10 83 11 84 12
REMARK SMILES IDX 88 13 85 14 87 15 86 16 8 17 5 18 6 19 7 20 4 21 2 22 1 23
REMARK SMILES IDX 3 24 17 25 18 26 19 27 20 28 21 29 22 31 23 32 24 33 82 34
REMARK SMILES IDX 25 35 81 36 26 37 27 38 28 39 75 40 29 41 80 42 74 43 76 44
REMARK SMILES IDX 30 45 79 46 73 47 72 48 31 50 61 51 42 52 60 53 43 54 46 55
REMARK SMILES IDX 59 56 77 57 44 58 45 59 58 61 78 62 47 63 32 64 33 65 41 66
REMARK SMILES IDX 34 67 40 68 35 69 36 70 37 71 38 72 39 73 62 74 63 75 71 76
REMARK SMILES IDX 64 77 70 78 65 79 66 80 67 81 68 82 69 83 48 84 49 85 57 86
REMARK SMILES IDX 50 87 56 88 51 89 52 90 53 91 54 92 55 93
REMARK H PARENT 13 7 20 30 76 49 46 60
REMARK Flexibility Score: inf
ROOT
ATOM      1  C   UNL A   1      38.894  21.327  25.965  1.00  0.00     0.002 C 
ENDROOT
BRANCH   1   2
ATOM      2  C   UNL A   1      37.754  21.687  25.001  1.00  0.00     0.021 C 
BRANCH   2   3
ATOM      3  C   UNL A   1      36.742  22.676  25.580  1.00  0.00     0.116 C 
BRANCH   3   4
ATOM      4  N   UNL A   1      35.881  21.986  26.524  1.00  0.00    -0.349 N 
ATOM      5  C   UNL A   1      34.549  22.094  26.817  1.00  0.00     0.287 C 
ATOM      6  O   UNL A   1      34.178  21.506  27.833  1.00  0.00    -0.266 OA
ATOM      7  H   UNL A   1      36.348  21.305  27.059  1.00  0.00     0.163 HD
BRANCH   5   8
ATOM      8  C   UNL A   1      33.610  22.735  25.921  1.00  0.00     0.196 A 
ATOM      9  C   UNL A   1      32.586  22.208  25.129  1.00  0.00     0.027 A 
ATOM     10  C   UNL A   1      31.965  23.354  24.504  1.00  0.00     0.025 A 
ATOM     11  O   UNL A   1      33.653  24.090  25.775  1.00  0.00    -0.451 OA
ATOM     12  C   UNL A   1      32.664  24.467  24.937  1.00  0.00     0.135 A 
ATOM     13  C   UNL A   1      30.865  23.565  23.647  1.00  0.00     0.012 A 
ATOM     14  C   UNL A   1      32.374  25.780  24.576  1.00  0.00     0.048 A 
ATOM     15  C   UNL A   1      30.537  24.875  23.267  1.00  0.00     0.001 A 
ATOM     16  C   UNL A   1      31.282  25.965  23.723  1.00  0.00     0.004 A 
BRANCH   9  17
ATOM     17  C   UNL A   1      32.045  20.813  24.978  1.00  0.00     0.177 C 
BRANCH  17  18
ATOM     18  S   UNL A   1      32.995  19.380  24.473  1.00  0.00     0.154 S 
ATOM     19  O   UNL A   1      34.398  19.764  24.558  1.00  0.00    -0.228 OA
ATOM     20  O   UNL A   1      32.497  18.957  23.175  1.00  0.00    -0.228 OA
BRANCH  18  21
ATOM     21  C   UNL A   1      32.746  18.026  25.624  1.00  0.00     0.140 C 
BRANCH  21  22
ATOM     22  C   UNL A   1      33.575  16.769  25.355  1.00  0.00    -0.002 C 
ATOM     23  C   UNL A   1      32.705  15.513  25.330  1.00  0.00     0.008 C 
ATOM     24  C   UNL A   1      34.297  16.924  24.012  1.00  0.00     0.008 C 
ENDBRANCH  21  22
ENDBRANCH  18  21
ENDBRANCH  17  18
ENDBRANCH   9  17
ENDBRANCH   5   8
ENDBRANCH   3   4
ENDBRANCH   2   3
ENDBRANCH   1   2
BRANCH   1  25
ATOM     25  C   UNL A   1      39.604  22.524  26.604  1.00  0.00     0.002 C 
BRANCH  25  26
ATOM     26  C   UNL A   1      40.952  22.204  27.256  1.00  0.00     0.021 C 
BRANCH  26  27
ATOM     27  C   UNL A   1      41.917  23.383  27.333  1.00  0.00     0.116 C 
BRANCH  27  28
ATOM     28  N   UNL A   1      41.860  24.228  26.154  1.00  0.00    -0.352 N 
ATOM     29  C   UNL A   1      41.593  25.572  26.082  1.00  0.00     0.251 C 
ATOM     30  H   UNL A   1      42.036  23.779  25.295  1.00  0.00     0.163 HD
ATOM     31  O   UNL A   1      41.442  26.116  24.993  1.00  0.00    -0.269 OA
BRANCH  29  32
ATOM     32  C   UNL A   1      41.458  26.352  27.331  1.00  0.00     0.039 A 
ATOM     33  C   UNL A   1      42.416  27.325  27.624  1.00  0.00     0.014 A 
ATOM     34  C   UNL A   1      40.386  26.129  28.202  1.00  0.00     0.014 A 
ATOM     35  C   UNL A   1      42.274  28.112  28.769  1.00  0.00     0.010 A 
ATOM     36  C   UNL A   1      40.219  26.948  29.316  1.00  0.00     0.010 A 
ATOM     37  C   UNL A   1      41.162  27.945  29.610  1.00  0.00    -0.014 A 
BRANCH  37  38
ATOM     38  C   UNL A   1      40.977  28.798  30.809  1.00  0.00     0.031 A 
ATOM     39  C   UNL A   1      39.879  29.825  30.840  1.00  0.00     0.074 A 
ATOM     40  C   UNL A   1      41.831  28.689  31.844  1.00  0.00     0.049 A 
ATOM     41  N   UNL A   1      39.594  30.697  31.772  1.00  0.00    -0.248 NA
ATOM     42  C   UNL A   1      39.002  29.895  29.660  1.00  0.00     0.031 C 
ATOM     43  C   UNL A   1      42.962  27.761  31.917  1.00  0.00     0.029 A 
ATOM     44  N   UNL A   1      41.884  29.373  33.033  1.00  0.00    -0.354 N 
ATOM     45  C   UNL A   1      38.522  31.433  31.285  1.00  0.00     0.074 A 
ATOM     46  C   UNL A   1      38.228  30.927  29.961  1.00  0.00     0.031 C 
ATOM     47  C   UNL A   1      43.585  27.922  33.097  1.00  0.00     0.029 A 
ATOM     48  C   UNL A   1      42.916  28.978  33.850  1.00  0.00     0.049 A 
ATOM     49  H   UNL A   1      41.244  30.080  33.277  1.00  0.00     0.167 HD
ATOM     50  C   UNL A   1      37.833  32.432  31.888  1.00  0.00     0.031 A 
ATOM     51  C   UNL A   1      43.282  29.417  35.069  1.00  0.00     0.031 A 
ATOM     52  C   UNL A   1      38.109  32.921  33.212  1.00  0.00     0.049 A 
ATOM     53  C   UNL A   1      42.482  30.501  35.734  1.00  0.00     0.074 A 
ATOM     54  C   UNL A   1      37.437  33.896  33.928  1.00  0.00     0.029 A 
ATOM     55  N   UNL A   1      39.138  32.466  34.022  1.00  0.00    -0.354 N 
ATOM     56  N   UNL A   1      41.441  31.152  35.276  1.00  0.00    -0.248 NA
ATOM     57  C   UNL A   1      42.899  30.899  37.087  1.00  0.00     0.031 C 
ATOM     58  C   UNL A   1      38.076  34.048  35.165  1.00  0.00     0.029 A 
ATOM     59  C   UNL A   1      39.124  33.144  35.228  1.00  0.00     0.049 A 
ATOM     60  H   UNL A   1      39.784  31.765  33.775  1.00  0.00     0.167 HD
ATOM     61  C   UNL A   1      41.063  32.021  36.292  1.00  0.00     0.074 A 
ATOM     62  C   UNL A   1      41.982  31.808  37.392  1.00  0.00     0.031 C 
ATOM     63  C   UNL A   1      40.044  32.915  36.313  1.00  0.00     0.031 A 
BRANCH  50  64
ATOM     64  C   UNL A   1      36.712  33.062  31.109  1.00  0.00    -0.014 A 
ATOM     65  C   UNL A   1      36.971  33.798  29.939  1.00  0.00     0.010 A 
ATOM     66  C   UNL A   1      35.384  32.907  31.544  1.00  0.00     0.010 A 
ATOM     67  C   UNL A   1      35.924  34.405  29.241  1.00  0.00     0.020 A 
ATOM     68  C   UNL A   1      34.332  33.496  30.837  1.00  0.00     0.020 A 
ATOM     69  C   UNL A   1      34.612  34.259  29.701  1.00  0.00     0.054 A 
BRANCH  69  70
ATOM     70  S   UNL A   1      33.268  35.054  28.779  1.00  0.00     0.124 S 
ATOM     71  O   UNL A   1      33.920  36.263  28.283  1.00  0.00    -0.237 OA
ATOM     72  O   UNL A   1      32.936  34.058  27.763  1.00  0.00    -0.237 OA
ATOM     73  O   UNL A   1      32.237  35.272  29.792  1.00  0.00    -0.744 OA
ENDBRANCH  69  70
ENDBRANCH  50  64
BRANCH  51  74
ATOM     74  C   UNL A   1      44.450  28.803  35.753  1.00  0.00    -0.014 A 
ATOM     75  C   UNL A   1      44.308  27.589  36.446  1.00  0.00     0.010 A 
ATOM     76  C   UNL A   1      45.714  29.417  35.692  1.00  0.00     0.010 A 
ATOM     77  C   UNL A   1      45.409  27.002  37.077  1.00  0.00     0.020 A 
ATOM     78  C   UNL A   1      46.820  28.823  36.306  1.00  0.00     0.020 A 
ATOM     79  C   UNL A   1      46.658  27.624  37.002  1.00  0.00     0.054 A 
BRANCH  79  80
ATOM     80  S   UNL A   1      48.091  26.816  37.769  1.00  0.00     0.124 S 
ATOM     81  O   UNL A   1      48.368  27.697  38.899  1.00  0.00    -0.237 OA
ATOM     82  O   UNL A   1      47.571  25.493  38.108  1.00  0.00    -0.237 OA
ATOM     83  O   UNL A   1      49.093  26.825  36.705  1.00  0.00    -0.744 OA
ENDBRANCH  79  80
ENDBRANCH  51  74
BRANCH  63  84
ATOM     84  C   UNL A   1      39.850  33.708  37.574  1.00  0.00    -0.014 A 
ATOM     85  C   UNL A   1      40.535  34.917  37.782  1.00  0.00     0.010 A 
ATOM     86  C   UNL A   1      38.929  33.262  38.539  1.00  0.00     0.010 A 
ATOM     87  C   UNL A   1      40.320  35.656  38.949  1.00  0.00     0.020 A 
ATOM     88  C   UNL A   1      38.699  34.007  39.698  1.00  0.00     0.020 A 
ATOM     89  C   UNL A   1      39.406  35.193  39.901  1.00  0.00     0.054 A 
BRANCH  89  90
ATOM     90  S   UNL A   1      39.106  36.190  41.387  1.00  0.00     0.124 S 
ATOM     91  O   UNL A   1      37.964  35.504  41.985  1.00  0.00    -0.237 OA
ATOM     92  O   UNL A   1      40.365  36.072  42.118  1.00  0.00    -0.237 OA
ATOM     93  O   UNL A   1      38.825  37.522  40.855  1.00  0.00    -0.744 OA
ENDBRANCH  89  90
ENDBRANCH  63  84
ENDBRANCH  37  38
ENDBRANCH  29  32
ENDBRANCH  27  28
ENDBRANCH  26  27
ENDBRANCH  25  26
ENDBRANCH   1  25
TORSDOF 20
ENDMDL
MODEL 3
REMARK VINA RESULT:      -9.8      3.704      4.934
REMARK SMILES CC(C)CS(=O)(=O)Cc1c(C(=O)NCCCCCCNC(=O)c2ccc(-c3c4nc(c(-c5ccc(S(=O)(=O)[O-])cc5)c5ccc([nH]5)c(-c5ccc(S(=O)(=O)[O-])cc5)c5nc(c(-c6ccc(S(=O)(=O)[O-])cc6)c6ccc3[nH]6)C=C5)C=C4)cc2)oc2ccccc12
REMARK SMILES IDX 16 1 15 2 14 3 13 4 11 5 12 6 10 8 9 9 89 10 83 11 84 12
REMARK SMILES IDX 88 13 85 14 87 15 86 16 8 17 5 18 6 19 7 20 4 21 2 22 1 23
REMARK SMILES IDX 3 24 17 25 18 26 19 27 20 28 21 29 22 31 23 32 24 33 82 34
REMARK SMILES IDX 25 35 81 36 26 37 27 38 28 39 75 40 29 41 80 42 74 43 76 44
REMARK SMILES IDX 30 45 79 46 73 47 72 48 31 50 61 51 42 52 60 53 43 54 46 55
REMARK SMILES IDX 59 56 77 57 44 58 45 59 58 61 78 62 47 63 32 64 33 65 41 66
REMARK SMILES IDX 34 67 40 68 35 69 36 70 37 71 38 72 39 73 62 74 63 75 71 76
REMARK SMILES IDX 64 77 70 78 65 79 66 80 67 81 68 82 69 83 48 84 49 85 57 86
REMARK SMILES IDX 50 87 56 88 51 89 52 90 53 91 54 92 55 93
REMARK H PARENT 13 7 20 30 76 49 46 60
REMARK Flexibility Score: inf
ROOT
ATOM      1  C   UNL A   1      38.639  21.523  25.829  1.00  0.00     0.002 C 
ENDROOT
BRANCH   1   2
ATOM      2  C   UNL A   1      37.521  22.062  24.925  1.00  0.00     0.021 C 
BRANCH   2   3
ATOM      3  C   UNL A   1      36.508  22.946  25.652  1.00  0.00     0.116 C 
BRANCH   3   4
ATOM      4  N   UNL A   1      35.670  22.119  26.502  1.00  0.00    -0.349 N 
ATOM      5  C   UNL A   1      34.338  22.152  26.808  1.00  0.00     0.287 C 
ATOM      6  O   UNL A   1      33.987  21.431  27.742  1.00  0.00    -0.266 OA
ATOM      7  H   UNL A   1      36.159  21.389  26.947  1.00  0.00     0.163 HD
BRANCH   5   8
ATOM      8  C   UNL A   1      33.377  22.873  26.000  1.00  0.00     0.196 A 
ATOM      9  C   UNL A   1      32.414  22.423  25.093  1.00  0.00     0.027 A 
ATOM     10  C   UNL A   1      31.727  23.615  24.650  1.00  0.00     0.025 A 
ATOM     11  O   UNL A   1      33.326  24.233  26.089  1.00  0.00    -0.451 OA
ATOM     12  C   UNL A   1      32.333  24.682  25.291  1.00  0.00     0.135 A 
ATOM     13  C   UNL A   1      30.637  23.897  23.801  1.00  0.00     0.012 A 
ATOM     14  C   UNL A   1      31.958  26.015  25.149  1.00  0.00     0.048 A 
ATOM     15  C   UNL A   1      30.224  25.228  23.639  1.00  0.00     0.001 A 
ATOM     16  C   UNL A   1      30.877  26.270  24.300  1.00  0.00     0.004 A 
BRANCH   9  17
ATOM     17  C   UNL A   1      31.979  21.042  24.688  1.00  0.00     0.177 C 
BRANCH  17  18
ATOM     18  S   UNL A   1      32.997  19.569  24.763  1.00  0.00     0.154 S 
ATOM     19  O   UNL A   1      32.709  18.933  26.041  1.00  0.00    -0.228 OA
ATOM     20  O   UNL A   1      34.371  19.971  24.513  1.00  0.00    -0.228 OA
BRANCH  18  21
ATOM     21  C   UNL A   1      32.520  18.412  23.477  1.00  0.00     0.140 C 
BRANCH  21  22
ATOM     22  C   UNL A   1      33.028  16.981  23.654  1.00  0.00    -0.002 C 
ATOM     23  C   UNL A   1      34.371  16.767  22.958  1.00  0.00     0.008 C 
ATOM     24  C   UNL A   1      33.170  16.682  25.151  1.00  0.00     0.008 C 
ENDBRANCH  21  22
ENDBRANCH  18  21
ENDBRANCH  17  18
ENDBRANCH   9  17
ENDBRANCH   5   8
ENDBRANCH   3   4
ENDBRANCH   2   3
ENDBRANCH   1   2
BRANCH   1  25
ATOM     25  C   UNL A   1      39.444  22.594  26.571  1.00  0.00     0.002 C 
BRANCH  25  26
ATOM     26  C   UNL A   1      40.606  22.063  27.415  1.00  0.00     0.021 C 
BRANCH  26  27
ATOM     27  C   UNL A   1      41.765  23.038  27.588  1.00  0.00     0.116 C 
BRANCH  27  28
ATOM     28  N   UNL A   1      42.128  23.700  26.347  1.00  0.00    -0.352 N 
ATOM     29  C   UNL A   1      42.133  25.044  26.069  1.00  0.00     0.251 C 
ATOM     30  H   UNL A   1      42.405  23.107  25.611  1.00  0.00     0.163 HD
ATOM     31  O   UNL A   1      42.330  25.438  24.924  1.00  0.00    -0.269 OA
BRANCH  29  32
ATOM     32  C   UNL A   1      41.868  26.010  27.157  1.00  0.00     0.039 A 
ATOM     33  C   UNL A   1      40.645  25.949  27.827  1.00  0.00     0.014 A 
ATOM     34  C   UNL A   1      42.826  26.965  27.515  1.00  0.00     0.014 A 
ATOM     35  C   UNL A   1      40.399  26.814  28.895  1.00  0.00     0.010 A 
ATOM     36  C   UNL A   1      42.598  27.793  28.612  1.00  0.00     0.010 A 
ATOM     37  C   UNL A   1      41.383  27.726  29.310  1.00  0.00    -0.014 A 
BRANCH  37  38
ATOM     38  C   UNL A   1      41.152  28.626  30.466  1.00  0.00     0.031 A 
ATOM     39  C   UNL A   1      41.993  28.491  31.706  1.00  0.00     0.074 A 
ATOM     40  C   UNL A   1      40.149  29.524  30.423  1.00  0.00     0.049 A 
ATOM     41  N   UNL A   1      41.906  29.147  32.833  1.00  0.00    -0.248 NA
ATOM     42  C   UNL A   1      43.054  27.471  31.680  1.00  0.00     0.031 C 
ATOM     43  C   UNL A   1      39.236  29.723  29.295  1.00  0.00     0.029 A 
ATOM     44  N   UNL A   1      39.725  30.433  31.359  1.00  0.00    -0.354 N 
ATOM     45  C   UNL A   1      42.883  28.606  33.660  1.00  0.00     0.074 A 
ATOM     46  C   UNL A   1      43.529  27.547  32.914  1.00  0.00     0.031 C 
ATOM     47  C   UNL A   1      38.372  30.706  29.599  1.00  0.00     0.029 A 
ATOM     48  C   UNL A   1      38.652  31.188  30.948  1.00  0.00     0.049 A 
ATOM     49  H   UNL A   1      40.149  30.535  32.242  1.00  0.00     0.167 HD
ATOM     50  C   UNL A   1      43.223  28.966  34.921  1.00  0.00     0.031 A 
ATOM     51  C   UNL A   1      37.971  32.159  31.585  1.00  0.00     0.031 A 
ATOM     52  C   UNL A   1      42.598  30.032  35.655  1.00  0.00     0.049 A 
ATOM     53  C   UNL A   1      38.389  32.566  32.970  1.00  0.00     0.074 A 
ATOM     54  C   UNL A   1      42.905  30.504  36.919  1.00  0.00     0.029 A 
ATOM     55  N   UNL A   1      41.542  30.798  35.187  1.00  0.00    -0.354 N 
ATOM     56  N   UNL A   1      39.348  32.075  33.716  1.00  0.00    -0.248 NA
ATOM     57  C   UNL A   1      37.640  33.668  33.592  1.00  0.00     0.031 C 
ATOM     58  C   UNL A   1      42.016  31.541  37.226  1.00  0.00     0.029 A 
ATOM     59  C   UNL A   1      41.179  31.735  36.139  1.00  0.00     0.049 A 
ATOM     60  H   UNL A   1      41.112  30.691  34.308  1.00  0.00     0.167 HD
ATOM     61  C   UNL A   1      39.334  32.822  34.888  1.00  0.00     0.074 A 
ATOM     62  C   UNL A   1      38.278  33.803  34.748  1.00  0.00     0.031 C 
ATOM     63  C   UNL A   1      40.128  32.707  35.981  1.00  0.00     0.031 A 
BRANCH  50  64
ATOM     64  C   UNL A   1      44.327  28.189  35.583  1.00  0.00    -0.014 A 
ATOM     65  C   UNL A   1      45.668  28.594  35.463  1.00  0.00     0.010 A 
ATOM     66  C   UNL A   1      44.019  27.049  36.345  1.00  0.00     0.010 A 
ATOM     67  C   UNL A   1      46.688  27.846  36.057  1.00  0.00     0.020 A 
ATOM     68  C   UNL A   1      45.034  26.309  36.958  1.00  0.00     0.020 A 
ATOM     69  C   UNL A   1      46.365  26.702  36.792  1.00  0.00     0.054 A 
BRANCH  69  70
ATOM     70  S   UNL A   1      47.703  25.746  37.558  1.00  0.00     0.124 S 
ATOM     71  O   UNL A   1      48.888  26.408  37.019  1.00  0.00    -0.237 OA
ATOM     72  O   UNL A   1      47.470  25.943  38.986  1.00  0.00    -0.237 OA
ATOM     73  O   UNL A   1      47.474  24.386  37.075  1.00  0.00    -0.744 OA
ENDBRANCH  69  70
ENDBRANCH  50  64
BRANCH  51  74
ATOM     74  C   UNL A   1      36.838  32.835  30.901  1.00  0.00    -0.014 A 
ATOM     75  C   UNL A   1      37.073  33.941  30.067  1.00  0.00     0.010 A 
ATOM     76  C   UNL A   1      35.525  32.359  31.062  1.00  0.00     0.010 A 
ATOM     77  C   UNL A   1      36.011  34.569  29.410  1.00  0.00     0.020 A 
ATOM     78  C   UNL A   1      34.463  32.974  30.391  1.00  0.00     0.020 A 
ATOM     79  C   UNL A   1      34.712  34.081  29.577  1.00  0.00     0.054 A 
BRANCH  79  80
ATOM     80  S   UNL A   1      33.352  34.864  28.666  1.00  0.00     0.124 S 
ATOM     81  O   UNL A   1      34.065  35.804  27.807  1.00  0.00    -0.237 OA
ATOM     82  O   UNL A   1      32.727  33.732  27.986  1.00  0.00    -0.237 OA
ATOM     83  O   UNL A   1      32.542  35.468  29.722  1.00  0.00    -0.744 OA
ENDBRANCH  79  80
ENDBRANCH  51  74
BRANCH  63  84
ATOM     84  C   UNL A   1      39.905  33.685  37.099  1.00  0.00    -0.014 A 
ATOM     85  C   UNL A   1      40.379  35.006  37.010  1.00  0.00     0.010 A 
ATOM     86  C   UNL A   1      39.168  33.291  38.230  1.00  0.00     0.010 A 
ATOM     87  C   UNL A   1      40.138  35.910  38.048  1.00  0.00     0.020 A 
ATOM     88  C   UNL A   1      38.911  34.197  39.260  1.00  0.00     0.020 A 
ATOM     89  C   UNL A   1      39.409  35.498  39.168  1.00  0.00     0.054 A 
BRANCH  89  90
ATOM     90  S   UNL A   1      39.066  36.700  40.484  1.00  0.00     0.124 S 
ATOM     91  O   UNL A   1      40.367  36.810  41.139  1.00  0.00    -0.237 OA
ATOM     92  O   UNL A   1      38.635  37.881  39.741  1.00  0.00    -0.237 OA
ATOM     93  O   UNL A   1      38.021  36.055  41.275  1.00  0.00    -0.744 OA
ENDBRANCH  89  90
ENDBRANCH  63  84
ENDBRANCH  37  38
ENDBRANCH  29  32
ENDBRANCH  27  28
ENDBRANCH  26  27
ENDBRANCH  25  26
ENDBRANCH   1  25
TORSDOF 20
ENDMDL
