MODEL 1
REMARK VINA RESULT:     -11.1      0.000      0.000
REMARK SMILES O=C(C[C@H]1N=NC(=O)c2ccccc21)N[C@@H](CC1=c2ccccc2=NC1)C(=O)NCCCCCCNC(=O)c1ccc(-c2c3nc(c(-c4ccc(S(=O)(=O)[O-])cc4)c4ccc([nH]4)c(-c4ccc(S(=O)(=O)[O-])cc4)c4nc(c(-c5ccc(S(=O)(=O)[O-])cc5)c5ccc2[nH]5)C=C4)C=C3)cc1
REMARK SMILES IDX 32 1 31 2 30 3 29 4 27 5 28 6 16 8 15 9 1 10 2 11 3 13 4 14
REMARK SMILES IDX 5 15 14 16 6 17 9 18 13 19 7 20 10 21 12 22 8 23 11 24 17 25
REMARK SMILES IDX 18 26 19 27 26 28 20 29 24 30 25 31 21 32 23 33 22 34 33 35
REMARK SMILES IDX 34 36 35 37 36 38 37 39 38 41 39 42 40 43 98 44 41 45 97 46
REMARK SMILES IDX 42 47 43 48 44 49 91 50 45 51 96 52 90 53 92 54 46 55 95 56
REMARK SMILES IDX 89 57 88 58 47 60 77 61 58 62 76 63 59 64 62 65 75 66 93 67
REMARK SMILES IDX 60 68 61 69 74 71 94 72 63 73 48 74 49 75 57 76 50 77 56 78
REMARK SMILES IDX 51 79 52 80 53 81 54 82 55 83 78 84 79 85 87 86 80 87 86 88
REMARK SMILES IDX 81 89 82 90 83 91 84 92 85 93 64 94 65 95 73 96 66 97 72 98
REMARK SMILES IDX 67 99 68 100 69 101 70 102 71 103
REMARK H PARENT 29 7 15 12 36 40 92 59 62 70
REMARK Flexibility Score: inf
ROOT
ATOM      1  C   UNL A   1      33.620  22.874  26.723  1.00  0.00     0.002 C 
ENDROOT
BRANCH   1   2
ATOM      2  C   UNL A   1      33.141  23.930  25.717  1.00  0.00     0.021 C 
BRANCH   2   3
ATOM      3  C   UNL A   1      31.995  23.414  24.828  1.00  0.00     0.116 C 
BRANCH   3   4
ATOM      4  N   UNL A   1      31.613  24.149  23.589  1.00  0.00    -0.354 N 
ATOM      5  C   UNL A   1      31.377  25.378  23.048  1.00  0.00     0.242 C 
ATOM      6  O   UNL A   1      31.720  25.382  21.844  1.00  0.00    -0.273 OA
ATOM      7  H   UNL A   1      31.476  23.482  22.879  1.00  0.00     0.163 HD
BRANCH   5   8
ATOM      8  C   UNL A   1      30.700  26.732  23.580  1.00  0.00     0.175 C 
BRANCH   8   9
ATOM      9  N   UNL A   1      31.465  27.413  24.639  1.00  0.00    -0.344 N 
ATOM     10  O   UNL A   1      30.558  26.354  26.471  1.00  0.00    -0.275 OA
ATOM     11  C   UNL A   1      31.289  27.217  25.995  1.00  0.00     0.223 C 
ATOM     12  H   UNL A   1      32.154  28.056  24.359  1.00  0.00     0.164 HD
BRANCH  11  13
ATOM     13  C   UNL A   1      32.003  28.228  26.889  1.00  0.00     0.134 C 
BRANCH  13  14
ATOM     14  C   UNL A   1      32.713  29.433  26.229  1.00  0.00     0.169 C 
ATOM     15  N   UNL A   1      31.680  30.425  25.856  1.00  0.00    -0.177 NA
ATOM     16  C   UNL A   1      33.861  29.999  26.999  1.00  0.00    -0.008 A 
ATOM     17  N   UNL A   1      31.628  31.581  26.330  1.00  0.00    -0.111 NA
ATOM     18  C   UNL A   1      33.704  31.234  27.615  1.00  0.00     0.049 A 
ATOM     19  C   UNL A   1      35.041  29.289  27.207  1.00  0.00     0.007 A 
ATOM     20  C   UNL A   1      32.544  32.062  27.240  1.00  0.00     0.295 C 
ATOM     21  C   UNL A   1      34.631  31.689  28.560  1.00  0.00     0.014 A 
ATOM     22  C   UNL A   1      35.933  29.727  28.183  1.00  0.00     0.000 A 
ATOM     23  O   UNL A   1      32.471  33.189  27.724  1.00  0.00    -0.265 OA
ATOM     24  C   UNL A   1      35.721  30.902  28.884  1.00  0.00     0.001 A 
ENDBRANCH  13  14
ENDBRANCH  11  13
ENDBRANCH   8   9
BRANCH   8  25
ATOM     25  C   UNL A   1      29.902  27.773  22.678  1.00  0.00     0.068 C 
BRANCH  25  26
ATOM     26  C   UNL A   1      29.143  28.965  23.314  1.00  0.00    -0.037 C 
ATOM     27  C   UNL A   1      29.324  30.279  23.035  1.00  0.00     0.001 A 
ATOM     28  C   UNL A   1      27.706  28.718  23.106  1.00  0.00     0.174 C 
ATOM     29  C   UNL A   1      28.733  31.409  23.797  1.00  0.00     0.010 A 
ATOM     30  C   UNL A   1      28.484  30.234  21.799  1.00  0.00     0.065 A 
ATOM     31  N   UNL A   1      27.547  29.333  21.758  1.00  0.00    -0.280 NA
ATOM     32  C   UNL A   1      28.207  32.448  23.103  1.00  0.00     0.001 A 
ATOM     33  C   UNL A   1      28.581  31.406  20.928  1.00  0.00     0.028 A 
ATOM     34  C   UNL A   1      28.363  32.521  21.647  1.00  0.00     0.002 A 
ENDBRANCH  25  26
ENDBRANCH   8  25
ENDBRANCH   5   8
ENDBRANCH   3   4
ENDBRANCH   2   3
ENDBRANCH   1   2
BRANCH   1  35
ATOM     35  C   UNL A   1      35.085  22.464  26.523  1.00  0.00     0.002 C 
BRANCH  35  36
ATOM     36  C   UNL A   1      35.879  23.381  25.587  1.00  0.00     0.021 C 
BRANCH  36  37
ATOM     37  C   UNL A   1      37.185  23.890  26.183  1.00  0.00     0.116 C 
BRANCH  37  38
ATOM     38  N   UNL A   1      38.163  22.818  26.312  1.00  0.00    -0.352 N 
ATOM     39  C   UNL A   1      39.523  22.905  26.499  1.00  0.00     0.251 C 
ATOM     40  H   UNL A   1      37.799  21.905  26.258  1.00  0.00     0.163 HD
ATOM     41  O   UNL A   1      40.241  21.941  26.290  1.00  0.00    -0.269 OA
BRANCH  39  42
ATOM     42  C   UNL A   1      40.096  24.190  26.949  1.00  0.00     0.039 A 
ATOM     43  C   UNL A   1      40.121  25.280  26.078  1.00  0.00     0.014 A 
ATOM     44  C   UNL A   1      40.616  24.304  28.240  1.00  0.00     0.014 A 
ATOM     45  C   UNL A   1      40.814  26.426  26.436  1.00  0.00     0.010 A 
ATOM     46  C   UNL A   1      41.215  25.502  28.638  1.00  0.00     0.010 A 
ATOM     47  C   UNL A   1      41.352  26.560  27.727  1.00  0.00    -0.014 A 
BRANCH  47  48
ATOM     48  C   UNL A   1      42.000  27.844  28.098  1.00  0.00     0.031 A 
ATOM     49  C   UNL A   1      41.213  28.970  28.708  1.00  0.00     0.074 A 
ATOM     50  C   UNL A   1      43.333  27.957  27.942  1.00  0.00     0.049 A 
ATOM     51  N   UNL A   1      41.649  30.109  29.182  1.00  0.00    -0.248 NA
ATOM     52  C   UNL A   1      39.754  28.804  28.796  1.00  0.00     0.031 C 
ATOM     53  C   UNL A   1      44.195  26.925  27.360  1.00  0.00     0.029 A 
ATOM     54  N   UNL A   1      44.203  28.955  28.296  1.00  0.00    -0.354 N 
ATOM     55  C   UNL A   1      40.524  30.796  29.620  1.00  0.00     0.074 A 
ATOM     56  C   UNL A   1      39.379  29.969  29.308  1.00  0.00     0.031 C 
ATOM     57  C   UNL A   1      45.473  27.303  27.480  1.00  0.00     0.029 A 
ATOM     58  C   UNL A   1      45.522  28.637  28.069  1.00  0.00     0.049 A 
ATOM     59  H   UNL A   1      43.914  29.815  28.677  1.00  0.00     0.167 HD
ATOM     60  C   UNL A   1      40.455  31.996  30.246  1.00  0.00     0.031 A 
ATOM     61  C   UNL A   1      46.651  29.332  28.304  1.00  0.00     0.031 A 
ATOM     62  C   UNL A   1      41.606  32.816  30.537  1.00  0.00     0.049 A 
ATOM     63  C   UNL A   1      46.549  30.681  28.950  1.00  0.00     0.074 A 
ATOM     64  C   UNL A   1      41.644  34.044  31.176  1.00  0.00     0.029 A 
ATOM     65  N   UNL A   1      42.918  32.498  30.209  1.00  0.00    -0.354 N 
ATOM     66  N   UNL A   1      45.478  31.301  29.385  1.00  0.00    -0.248 NA
ATOM     67  C   UNL A   1      47.801  31.420  29.141  1.00  0.00     0.031 C 
ATOM     68  C   UNL A   1      42.964  34.502  31.165  1.00  0.00     0.029 A 
ATOM     69  C   UNL A   1      43.768  33.523  30.598  1.00  0.00     0.049 A 
ATOM     70  H   UNL A   1      43.203  31.668  29.766  1.00  0.00     0.167 HD
ATOM     71  C   UNL A   1      45.925  32.513  29.896  1.00  0.00     0.074 A 
ATOM     72  C   UNL A   1      47.369  32.515  29.756  1.00  0.00     0.031 C 
ATOM     73  C   UNL A   1      45.202  33.534  30.421  1.00  0.00     0.031 A 
BRANCH  60  74
ATOM     74  C   UNL A   1      39.094  32.500  30.662  1.00  0.00    -0.014 A 
ATOM     75  C   UNL A   1      38.452  31.958  31.791  1.00  0.00     0.010 A 
ATOM     76  C   UNL A   1      38.411  33.459  29.890  1.00  0.00     0.010 A 
ATOM     77  C   UNL A   1      37.154  32.350  32.131  1.00  0.00     0.020 A 
ATOM     78  C   UNL A   1      37.126  33.882  30.247  1.00  0.00     0.020 A 
ATOM     79  C   UNL A   1      36.498  33.309  31.355  1.00  0.00     0.054 A 
BRANCH  79  80
ATOM     80  S   UNL A   1      34.817  33.813  31.815  1.00  0.00     0.124 S 
ATOM     81  O   UNL A   1      34.375  34.532  30.625  1.00  0.00    -0.237 OA
ATOM     82  O   UNL A   1      34.158  32.534  32.065  1.00  0.00    -0.237 OA
ATOM     83  O   UNL A   1      35.022  34.639  33.004  1.00  0.00    -0.744 OA
ENDBRANCH  79  80
ENDBRANCH  60  74
BRANCH  61  84
ATOM     84  C   UNL A   1      47.958  28.706  27.958  1.00  0.00    -0.014 A 
ATOM     85  C   UNL A   1      48.495  28.853  26.663  1.00  0.00     0.010 A 
ATOM     86  C   UNL A   1      48.584  27.831  28.861  1.00  0.00     0.010 A 
ATOM     87  C   UNL A   1      49.567  28.062  26.248  1.00  0.00     0.020 A 
ATOM     88  C   UNL A   1      49.683  27.065  28.460  1.00  0.00     0.020 A 
ATOM     89  C   UNL A   1      50.137  27.154  27.142  1.00  0.00     0.054 A 
BRANCH  89  90
ATOM     90  S   UNL A   1      51.436  26.041  26.538  1.00  0.00     0.124 S 
ATOM     91  O   UNL A   1      52.636  26.647  27.112  1.00  0.00    -0.237 OA
ATOM     92  O   UNL A   1      51.044  24.756  27.110  1.00  0.00    -0.237 OA
ATOM     93  O   UNL A   1      51.322  26.137  25.085  1.00  0.00    -0.744 OA
ENDBRANCH  89  90
ENDBRANCH  61  84
BRANCH  73  94
ATOM     94  C   UNL A   1      45.951  34.772  30.847  1.00  0.00    -0.014 A 
ATOM     95  C   UNL A   1      46.398  34.907  32.174  1.00  0.00     0.010 A 
ATOM     96  C   UNL A   1      46.134  35.844  29.954  1.00  0.00     0.010 A 
ATOM     97  C   UNL A   1      46.988  36.098  32.608  1.00  0.00     0.020 A 
ATOM     98  C   UNL A   1      46.758  37.022  30.373  1.00  0.00     0.020 A 
ATOM     99  C   UNL A   1      47.160  37.150  31.705  1.00  0.00     0.054 A 
BRANCH  99 100
ATOM    100  S   UNL A   1      47.921  38.689  32.288  1.00  0.00     0.124 S 
ATOM    101  O   UNL A   1      47.231  39.695  31.488  1.00  0.00    -0.237 OA
ATOM    102  O   UNL A   1      47.597  38.685  33.713  1.00  0.00    -0.237 OA
ATOM    103  O   UNL A   1      49.339  38.509  31.981  1.00  0.00    -0.744 OA
ENDBRANCH  99 100
ENDBRANCH  73  94
ENDBRANCH  47  48
ENDBRANCH  39  42
ENDBRANCH  37  38
ENDBRANCH  36  37
ENDBRANCH  35  36
ENDBRANCH   1  35
TORSDOF 21
ENDMDL
MODEL 2
REMARK VINA RESULT:     -10.8      5.477     10.779
REMARK SMILES O=C(C[C@H]1N=NC(=O)c2ccccc21)N[C@@H](CC1=c2ccccc2=NC1)C(=O)NCCCCCCNC(=O)c1ccc(-c2c3nc(c(-c4ccc(S(=O)(=O)[O-])cc4)c4ccc([nH]4)c(-c4ccc(S(=O)(=O)[O-])cc4)c4nc(c(-c5ccc(S(=O)(=O)[O-])cc5)c5ccc2[nH]5)C=C4)C=C3)cc1
REMARK SMILES IDX 32 1 31 2 30 3 29 4 27 5 28 6 16 8 15 9 1 10 2 11 3 13 4 14
REMARK SMILES IDX 5 15 14 16 6 17 9 18 13 19 7 20 10 21 12 22 8 23 11 24 17 25
REMARK SMILES IDX 18 26 19 27 26 28 20 29 24 30 25 31 21 32 23 33 22 34 33 35
REMARK SMILES IDX 34 36 35 37 36 38 37 39 38 41 39 42 40 43 98 44 41 45 97 46
REMARK SMILES IDX 42 47 43 48 44 49 91 50 45 51 96 52 90 53 92 54 46 55 95 56
REMARK SMILES IDX 89 57 88 58 47 60 77 61 58 62 76 63 59 64 62 65 75 66 93 67
REMARK SMILES IDX 60 68 61 69 74 71 94 72 63 73 48 74 49 75 57 76 50 77 56 78
REMARK SMILES IDX 51 79 52 80 53 81 54 82 55 83 78 84 79 85 87 86 80 87 86 88
REMARK SMILES IDX 81 89 82 90 83 91 84 92 85 93 64 94 65 95 73 96 66 97 72 98
REMARK SMILES IDX 67 99 68 100 69 101 70 102 71 103
REMARK H PARENT 29 7 15 12 36 40 92 59 62 70
REMARK Flexibility Score: inf
ROOT
ATOM      1  C   UNL A   1      38.215  22.835  26.016  1.00  0.00     0.002 C 
ENDROOT
BRANCH   1   2
ATOM      2  C   UNL A   1      37.742  21.820  24.967  1.00  0.00     0.021 C 
BRANCH   2   3
ATOM      3  C   UNL A   1      36.510  21.025  25.437  1.00  0.00     0.116 C 
BRANCH   3   4
ATOM      4  N   UNL A   1      35.526  21.643  26.370  1.00  0.00    -0.354 N 
ATOM      5  C   UNL A   1      34.204  21.770  26.675  1.00  0.00     0.242 C 
ATOM      6  O   UNL A   1      34.065  21.885  27.914  1.00  0.00    -0.273 OA
ATOM      7  H   UNL A   1      36.033  22.172  27.028  1.00  0.00     0.163 HD
BRANCH   5   8
ATOM      8  C   UNL A   1      32.855  21.886  25.813  1.00  0.00     0.175 C 
BRANCH   8   9
ATOM      9  N   UNL A   1      32.620  23.222  25.240  1.00  0.00    -0.344 N 
ATOM     10  O   UNL A   1      34.401  23.306  23.785  1.00  0.00    -0.275 OA
ATOM     11  C   UNL A   1      33.442  23.848  24.323  1.00  0.00     0.223 C 
ATOM     12  H   UNL A   1      31.814  23.706  25.532  1.00  0.00     0.164 HD
BRANCH  11  13
ATOM     13  C   UNL A   1      33.136  25.326  24.089  1.00  0.00     0.134 C 
BRANCH  13  14
ATOM     14  C   UNL A   1      32.398  26.117  25.193  1.00  0.00     0.169 C 
ATOM     15  N   UNL A   1      33.417  26.743  26.065  1.00  0.00    -0.177 NA
ATOM     16  C   UNL A   1      31.341  27.055  24.711  1.00  0.00    -0.008 A 
ATOM     17  N   UNL A   1      33.541  27.980  26.206  1.00  0.00    -0.111 NA
ATOM     18  C   UNL A   1      31.585  28.421  24.772  1.00  0.00     0.049 A 
ATOM     19  C   UNL A   1      30.168  26.608  24.108  1.00  0.00     0.007 A 
ATOM     20  C   UNL A   1      32.725  28.894  25.576  1.00  0.00     0.295 C 
ATOM     21  C   UNL A   1      30.760  29.330  24.098  1.00  0.00     0.014 A 
ATOM     22  C   UNL A   1      29.380  27.514  23.401  1.00  0.00     0.000 A 
ATOM     23  O   UNL A   1      32.871  30.107  25.697  1.00  0.00    -0.265 OA
ATOM     24  C   UNL A   1      29.685  28.864  23.364  1.00  0.00     0.001 A 
ENDBRANCH  13  14
ENDBRANCH  11  13
ENDBRANCH   8   9
BRANCH   8  25
ATOM     25  C   UNL A   1      32.262  20.740  24.881  1.00  0.00     0.068 C 
BRANCH  25  26
ATOM     26  C   UNL A   1      33.185  19.675  24.236  1.00  0.00    -0.037 C 
ATOM     27  C   UNL A   1      33.748  18.611  24.858  1.00  0.00     0.001 A 
ATOM     28  C   UNL A   1      32.452  19.112  23.089  1.00  0.00     0.174 C 
ATOM     29  C   UNL A   1      34.785  17.723  24.274  1.00  0.00     0.010 A 
ATOM     30  C   UNL A   1      32.508  17.779  24.771  1.00  0.00     0.065 A 
ATOM     31  N   UNL A   1      31.696  18.036  23.789  1.00  0.00    -0.280 NA
ATOM     32  C   UNL A   1      34.661  16.385  24.450  1.00  0.00     0.001 A 
ATOM     33  C   UNL A   1      32.508  16.562  25.585  1.00  0.00     0.028 A 
ATOM     34  C   UNL A   1      33.616  15.847  25.327  1.00  0.00     0.002 A 
ENDBRANCH  25  26
ENDBRANCH   8  25
ENDBRANCH   5   8
ENDBRANCH   3   4
ENDBRANCH   2   3
ENDBRANCH   1   2
BRANCH   1  35
ATOM     35  C   UNL A   1      39.567  22.473  26.646  1.00  0.00     0.002 C 
BRANCH  35  36
ATOM     36  C   UNL A   1      40.270  23.635  27.354  1.00  0.00     0.021 C 
BRANCH  36  37
ATOM     37  C   UNL A   1      39.643  24.996  27.078  1.00  0.00     0.116 C 
BRANCH  37  38
ATOM     38  N   UNL A   1      40.503  25.815  26.234  1.00  0.00    -0.352 N 
ATOM     39  C   UNL A   1      40.856  27.136  26.382  1.00  0.00     0.251 C 
ATOM     40  H   UNL A   1      40.885  25.359  25.450  1.00  0.00     0.163 HD
ATOM     41  O   UNL A   1      41.334  27.760  25.448  1.00  0.00    -0.269 OA
BRANCH  39  42
ATOM     42  C   UNL A   1      40.638  27.786  27.692  1.00  0.00     0.039 A 
ATOM     43  C   UNL A   1      41.279  28.991  27.983  1.00  0.00     0.014 A 
ATOM     44  C   UNL A   1      39.798  27.186  28.632  1.00  0.00     0.014 A 
ATOM     45  C   UNL A   1      41.216  29.507  29.268  1.00  0.00     0.010 A 
ATOM     46  C   UNL A   1      39.646  27.771  29.892  1.00  0.00     0.010 A 
ATOM     47  C   UNL A   1      40.383  28.915  30.233  1.00  0.00    -0.014 A 
BRANCH  47  48
ATOM     48  C   UNL A   1      40.269  29.559  31.566  1.00  0.00     0.031 A 
ATOM     49  C   UNL A   1      41.338  29.393  32.610  1.00  0.00     0.074 A 
ATOM     50  C   UNL A   1      39.212  30.361  31.802  1.00  0.00     0.049 A 
ATOM     51  N   UNL A   1      41.435  29.973  33.779  1.00  0.00    -0.248 NA
ATOM     52  C   UNL A   1      42.434  28.458  32.312  1.00  0.00     0.031 C 
ATOM     53  C   UNL A   1      38.116  30.594  30.857  1.00  0.00     0.029 A 
ATOM     54  N   UNL A   1      38.906  31.163  32.870  1.00  0.00    -0.354 N 
ATOM     55  C   UNL A   1      42.596  29.474  34.357  1.00  0.00     0.074 A 
ATOM     56  C   UNL A   1      43.141  28.504  33.432  1.00  0.00     0.031 C 
ATOM     57  C   UNL A   1      37.310  31.543  31.348  1.00  0.00     0.029 A 
ATOM     58  C   UNL A   1      37.779  31.927  32.675  1.00  0.00     0.049 A 
ATOM     59  H   UNL A   1      39.440  31.190  33.697  1.00  0.00     0.167 HD
ATOM     60  C   UNL A   1      43.166  29.812  35.538  1.00  0.00     0.031 A 
ATOM     61  C   UNL A   1      37.182  32.839  33.467  1.00  0.00     0.031 A 
ATOM     62  C   UNL A   1      42.602  30.772  36.456  1.00  0.00     0.049 A 
ATOM     63  C   UNL A   1      37.802  33.159  34.794  1.00  0.00     0.074 A 
ATOM     64  C   UNL A   1      43.106  31.191  37.676  1.00  0.00     0.029 A 
ATOM     65  N   UNL A   1      41.410  31.459  36.262  1.00  0.00    -0.354 N 
ATOM     66  N   UNL A   1      38.916  32.699  35.310  1.00  0.00    -0.248 NA
ATOM     67  C   UNL A   1      37.090  34.121  35.642  1.00  0.00     0.031 C 
ATOM     68  C   UNL A   1      42.184  32.069  38.251  1.00  0.00     0.029 A 
ATOM     69  C   UNL A   1      41.144  32.269  37.356  1.00  0.00     0.049 A 
ATOM     70  H   UNL A   1      40.839  31.382  35.466  1.00  0.00     0.167 HD
ATOM     71  C   UNL A   1      39.037  33.309  36.552  1.00  0.00     0.074 A 
ATOM     72  C   UNL A   1      37.904  34.206  36.687  1.00  0.00     0.031 C 
ATOM     73  C   UNL A   1      39.993  33.132  37.498  1.00  0.00     0.031 A 
BRANCH  60  74
ATOM     74  C   UNL A   1      44.467  29.143  35.913  1.00  0.00    -0.014 A 
ATOM     75  C   UNL A   1      44.463  27.866  36.503  1.00  0.00     0.010 A 
ATOM     76  C   UNL A   1      45.697  29.810  35.752  1.00  0.00     0.010 A 
ATOM     77  C   UNL A   1      45.654  27.276  36.939  1.00  0.00     0.020 A 
ATOM     78  C   UNL A   1      46.894  29.210  36.153  1.00  0.00     0.020 A 
ATOM     79  C   UNL A   1      46.863  27.954  36.762  1.00  0.00     0.054 A 
BRANCH  79  80
ATOM     80  S   UNL A   1      48.400  27.172  37.326  1.00  0.00     0.124 S 
ATOM     81  O   UNL A   1      47.962  25.813  37.624  1.00  0.00    -0.237 OA
ATOM     82  O   UNL A   1      49.275  27.317  36.166  1.00  0.00    -0.237 OA
ATOM     83  O   UNL A   1      48.784  27.974  38.487  1.00  0.00    -0.744 OA
ENDBRANCH  79  80
ENDBRANCH  60  74
BRANCH  61  84
ATOM     84  C   UNL A   1      35.960  33.526  32.965  1.00  0.00    -0.014 A 
ATOM     85  C   UNL A   1      36.047  34.825  32.425  1.00  0.00     0.010 A 
ATOM     86  C   UNL A   1      34.693  32.957  33.175  1.00  0.00     0.010 A 
ATOM     87  C   UNL A   1      34.893  35.577  32.201  1.00  0.00     0.020 A 
ATOM     88  C   UNL A   1      33.534  33.695  32.916  1.00  0.00     0.020 A 
ATOM     89  C   UNL A   1      33.644  35.015  32.474  1.00  0.00     0.054 A 
BRANCH  89  90
ATOM     90  S   UNL A   1      32.169  36.059  32.309  1.00  0.00     0.124 S 
ATOM     91  O   UNL A   1      32.244  36.458  30.906  1.00  0.00    -0.237 OA
ATOM     92  O   UNL A   1      31.089  35.136  32.645  1.00  0.00    -0.237 OA
ATOM     93  O   UNL A   1      32.397  37.130  33.275  1.00  0.00    -0.744 OA
ENDBRANCH  89  90
ENDBRANCH  61  84
BRANCH  73  94
ATOM     94  C   UNL A   1      39.841  33.888  38.794  1.00  0.00    -0.014 A 
ATOM     95  C   UNL A   1      40.361  35.190  38.920  1.00  0.00     0.010 A 
ATOM     96  C   UNL A   1      39.261  33.275  39.920  1.00  0.00     0.010 A 
ATOM     97  C   UNL A   1      40.330  35.852  40.150  1.00  0.00     0.020 A 
ATOM     98  C   UNL A   1      39.193  33.948  41.143  1.00  0.00     0.020 A 
ATOM     99  C   UNL A   1      39.749  35.224  41.256  1.00  0.00     0.054 A 
BRANCH  99 100
ATOM    100  S   UNL A   1      39.723  36.098  42.845  1.00  0.00     0.124 S 
ATOM    101  O   UNL A   1      40.883  35.531  43.525  1.00  0.00    -0.237 OA
ATOM    102  O   UNL A   1      39.849  37.497  42.442  1.00  0.00    -0.237 OA
ATOM    103  O   UNL A   1      38.426  35.737  43.414  1.00  0.00    -0.744 OA
ENDBRANCH  99 100
ENDBRANCH  73  94
ENDBRANCH  47  48
ENDBRANCH  39  42
ENDBRANCH  37  38
ENDBRANCH  36  37
ENDBRANCH  35  36
ENDBRANCH   1  35
TORSDOF 21
ENDMDL
MODEL 3
REMARK VINA RESULT:     -10.8      5.101      7.805
REMARK SMILES O=C(C[C@H]1N=NC(=O)c2ccccc21)N[C@@H](CC1=c2ccccc2=NC1)C(=O)NCCCCCCNC(=O)c1ccc(-c2c3nc(c(-c4ccc(S(=O)(=O)[O-])cc4)c4ccc([nH]4)c(-c4ccc(S(=O)(=O)[O-])cc4)c4nc(c(-c5ccc(S(=O)(=O)[O-])cc5)c5ccc2[nH]5)C=C4)C=C3)cc1
REMARK SMILES IDX 32 1 31 2 30 3 29 4 27 5 28 6 16 8 15 9 1 10 2 11 3 13 4 14
REMARK SMILES IDX 5 15 14 16 6 17 9 18 13 19 7 20 10 21 12 22 8 23 11 24 17 25
REMARK SMILES IDX 18 26 19 27 26 28 20 29 24 30 25 31 21 32 23 33 22 34 33 35
REMARK SMILES IDX 34 36 35 37 36 38 37 39 38 41 39 42 40 43 98 44 41 45 97 46
REMARK SMILES IDX 42 47 43 48 44 49 91 50 45 51 96 52 90 53 92 54 46 55 95 56
REMARK SMILES IDX 89 57 88 58 47 60 77 61 58 62 76 63 59 64 62 65 75 66 93 67
REMARK SMILES IDX 60 68 61 69 74 71 94 72 63 73 48 74 49 75 57 76 50 77 56 78
REMARK SMILES IDX 51 79 52 80 53 81 54 82 55 83 78 84 79 85 87 86 80 87 86 88
REMARK SMILES IDX 81 89 82 90 83 91 84 92 85 93 64 94 65 95 73 96 66 97 72 98
REMARK SMILES IDX 67 99 68 100 69 101 70 102 71 103
REMARK H PARENT 29 7 15 12 36 40 92 59 62 70
REMARK Flexibility Score: inf
ROOT
ATOM      1  C   UNL A   1      39.936  22.440  26.942  1.00  0.00     0.002 C 
ENDROOT
BRANCH   1   2
ATOM      2  C   UNL A   1      39.033  21.821  25.866  1.00  0.00     0.021 C 
BRANCH   2   3
ATOM      3  C   UNL A   1      37.663  22.517  25.781  1.00  0.00     0.116 C 
BRANCH   3   4
ATOM      4  N   UNL A   1      36.930  22.582  24.485  1.00  0.00    -0.354 N 
ATOM      5  C   UNL A   1      35.735  22.858  23.890  1.00  0.00     0.242 C 
ATOM      6  O   UNL A   1      35.931  23.341  22.752  1.00  0.00    -0.273 OA
ATOM      7  H   UNL A   1      37.560  22.321  23.775  1.00  0.00     0.163 HD
BRANCH   5   8
ATOM      8  C   UNL A   1      34.198  22.623  24.288  1.00  0.00     0.175 C 
BRANCH   8   9
ATOM      9  N   UNL A   1      33.367  23.837  24.230  1.00  0.00    -0.344 N 
ATOM     10  O   UNL A   1      32.936  24.082  26.478  1.00  0.00    -0.275 OA
ATOM     11  C   UNL A   1      32.753  24.431  25.316  1.00  0.00     0.223 C 
ATOM     12  H   UNL A   1      33.240  24.259  23.350  1.00  0.00     0.164 HD
BRANCH  11  13
ATOM     13  C   UNL A   1      31.732  25.511  24.966  1.00  0.00     0.134 C 
BRANCH  13  14
ATOM     14  C   UNL A   1      32.179  26.700  24.085  1.00  0.00     0.169 C 
ATOM     15  N   UNL A   1      31.241  26.803  22.945  1.00  0.00    -0.177 NA
ATOM     16  C   UNL A   1      32.408  27.984  24.811  1.00  0.00    -0.008 A 
ATOM     17  N   UNL A   1      30.513  27.798  22.736  1.00  0.00    -0.111 NA
ATOM     18  C   UNL A   1      31.494  29.017  24.641  1.00  0.00     0.049 A 
ATOM     19  C   UNL A   1      33.442  28.147  25.730  1.00  0.00     0.007 A 
ATOM     20  C   UNL A   1      30.523  28.918  23.538  1.00  0.00     0.295 C 
ATOM     21  C   UNL A   1      31.502  30.132  25.487  1.00  0.00     0.014 A 
ATOM     22  C   UNL A   1      33.414  29.237  26.598  1.00  0.00     0.000 A 
ATOM     23  O   UNL A   1      29.784  29.880  23.343  1.00  0.00    -0.265 OA
ATOM     24  C   UNL A   1      32.435  30.211  26.506  1.00  0.00     0.001 A 
ENDBRANCH  13  14
ENDBRANCH  11  13
ENDBRANCH   8   9
BRANCH   8  25
ATOM     25  C   UNL A   1      33.351  21.321  23.938  1.00  0.00     0.068 C 
BRANCH  25  26
ATOM     26  C   UNL A   1      33.211  20.161  24.957  1.00  0.00    -0.037 C 
ATOM     27  C   UNL A   1      32.776  18.904  24.695  1.00  0.00     0.001 A 
ATOM     28  C   UNL A   1      34.528  19.991  25.594  1.00  0.00     0.174 C 
ATOM     29  C   UNL A   1      32.460  17.874  25.716  1.00  0.00     0.010 A 
ATOM     30  C   UNL A   1      34.097  18.452  24.161  1.00  0.00     0.065 A 
ATOM     31  N   UNL A   1      35.153  19.059  24.614  1.00  0.00    -0.280 NA
ATOM     32  C   UNL A   1      32.887  16.605  25.505  1.00  0.00     0.001 A 
ATOM     33  C   UNL A   1      34.085  17.169  23.455  1.00  0.00     0.028 A 
ATOM     34  C   UNL A   1      33.504  16.234  24.227  1.00  0.00     0.002 A 
ENDBRANCH  25  26
ENDBRANCH   8  25
ENDBRANCH   5   8
ENDBRANCH   3   4
ENDBRANCH   2   3
ENDBRANCH   1   2
BRANCH   1  35
ATOM     35  C   UNL A   1      41.399  21.987  26.841  1.00  0.00     0.002 C 
BRANCH  35  36
ATOM     36  C   UNL A   1      42.323  22.581  27.909  1.00  0.00     0.021 C 
BRANCH  36  37
ATOM     37  C   UNL A   1      43.299  23.620  27.371  1.00  0.00     0.116 C 
BRANCH  37  38
ATOM     38  N   UNL A   1      42.773  24.276  26.182  1.00  0.00    -0.352 N 
ATOM     39  C   UNL A   1      41.990  25.404  26.090  1.00  0.00     0.251 C 
ATOM     40  H   UNL A   1      43.012  23.854  25.325  1.00  0.00     0.163 HD
ATOM     41  O   UNL A   1      41.387  25.658  25.060  1.00  0.00    -0.269 OA
BRANCH  39  42
ATOM     42  C   UNL A   1      41.889  26.294  27.265  1.00  0.00     0.039 A 
ATOM     43  C   UNL A   1      40.921  26.045  28.240  1.00  0.00     0.014 A 
ATOM     44  C   UNL A   1      42.754  27.382  27.388  1.00  0.00     0.014 A 
ATOM     45  C   UNL A   1      40.709  26.975  29.246  1.00  0.00     0.010 A 
ATOM     46  C   UNL A   1      42.611  28.257  28.468  1.00  0.00     0.010 A 
ATOM     47  C   UNL A   1      41.563  28.083  29.385  1.00  0.00    -0.014 A 
BRANCH  47  48
ATOM     48  C   UNL A   1      41.360  28.999  30.536  1.00  0.00     0.031 A 
ATOM     49  C   UNL A   1      40.218  29.975  30.566  1.00  0.00     0.074 A 
ATOM     50  C   UNL A   1      42.186  28.890  31.595  1.00  0.00     0.049 A 
ATOM     51  N   UNL A   1      39.845  30.766  31.540  1.00  0.00    -0.248 NA
ATOM     52  C   UNL A   1      39.391  30.086  29.355  1.00  0.00     0.031 C 
ATOM     53  C   UNL A   1      43.327  27.973  31.671  1.00  0.00     0.029 A 
ATOM     54  N   UNL A   1      42.172  29.505  32.819  1.00  0.00    -0.354 N 
ATOM     55  C   UNL A   1      38.746  31.469  31.062  1.00  0.00     0.074 A 
ATOM     56  C   UNL A   1      38.544  31.050  29.692  1.00  0.00     0.031 C 
ATOM     57  C   UNL A   1      43.845  28.021  32.904  1.00  0.00     0.029 A 
ATOM     58  C   UNL A   1      43.131  29.028  33.682  1.00  0.00     0.049 A 
ATOM     59  H   UNL A   1      41.537  30.218  33.059  1.00  0.00     0.167 HD
ATOM     60  C   UNL A   1      37.964  32.363  31.714  1.00  0.00     0.031 A 
ATOM     61  C   UNL A   1      43.413  29.355  34.957  1.00  0.00     0.031 A 
ATOM     62  C   UNL A   1      38.188  32.782  33.076  1.00  0.00     0.049 A 
ATOM     63  C   UNL A   1      42.568  30.386  35.643  1.00  0.00     0.074 A 
ATOM     64  C   UNL A   1      37.448  33.676  33.831  1.00  0.00     0.029 A 
ATOM     65  N   UNL A   1      39.226  32.342  33.888  1.00  0.00    -0.354 N 
ATOM     66  N   UNL A   1      41.514  31.018  35.184  1.00  0.00    -0.248 NA
ATOM     67  C   UNL A   1      42.944  30.746  37.014  1.00  0.00     0.031 C 
ATOM     68  C   UNL A   1      38.081  33.834  35.066  1.00  0.00     0.029 A 
ATOM     69  C   UNL A   1      39.168  32.974  35.121  1.00  0.00     0.049 A 
ATOM     70  H   UNL A   1      39.903  31.678  33.627  1.00  0.00     0.167 HD
ATOM     71  C   UNL A   1      41.102  31.860  36.209  1.00  0.00     0.074 A 
ATOM     72  C   UNL A   1      41.996  31.621  37.327  1.00  0.00     0.031 C 
ATOM     73  C   UNL A   1      40.085  32.758  36.217  1.00  0.00     0.031 A 
BRANCH  60  74
ATOM     74  C   UNL A   1      36.792  32.953  30.967  1.00  0.00    -0.014 A 
ATOM     75  C   UNL A   1      37.008  33.833  29.890  1.00  0.00     0.010 A 
ATOM     76  C   UNL A   1      35.470  32.699  31.379  1.00  0.00     0.010 A 
ATOM     77  C   UNL A   1      35.933  34.458  29.251  1.00  0.00     0.020 A 
ATOM     78  C   UNL A   1      34.389  33.294  30.720  1.00  0.00     0.020 A 
ATOM     79  C   UNL A   1      34.628  34.185  29.673  1.00  0.00     0.054 A 
BRANCH  79  80
ATOM     80  S   UNL A   1      33.243  34.998  28.828  1.00  0.00     0.124 S 
ATOM     81  O   UNL A   1      33.907  36.098  28.138  1.00  0.00    -0.237 OA
ATOM     82  O   UNL A   1      32.723  33.935  27.974  1.00  0.00    -0.237 OA
ATOM     83  O   UNL A   1      32.359  35.391  29.925  1.00  0.00    -0.744 OA
ENDBRANCH  79  80
ENDBRANCH  60  74
BRANCH  61  84
ATOM     84  C   UNL A   1      44.523  28.640  35.647  1.00  0.00    -0.014 A 
ATOM     85  C   UNL A   1      44.261  27.472  36.390  1.00  0.00     0.010 A 
ATOM     86  C   UNL A   1      45.806  29.210  35.701  1.00  0.00     0.010 A 
ATOM     87  C   UNL A   1      45.227  26.948  37.251  1.00  0.00     0.020 A 
ATOM     88  C   UNL A   1      46.788  28.666  36.534  1.00  0.00     0.020 A 
ATOM     89  C   UNL A   1      46.476  27.566  37.336  1.00  0.00     0.054 A 
BRANCH  89  90
ATOM     90  S   UNL A   1      47.665  26.952  38.562  1.00  0.00     0.124 S 
ATOM     91  O   UNL A   1      47.769  25.542  38.194  1.00  0.00    -0.237 OA
ATOM     92  O   UNL A   1      48.847  27.764  38.290  1.00  0.00    -0.237 OA
ATOM     93  O   UNL A   1      47.008  27.216  39.839  1.00  0.00    -0.744 OA
ENDBRANCH  89  90
ENDBRANCH  61  84
BRANCH  73  94
ATOM     94  C   UNL A   1      39.900  33.592  37.459  1.00  0.00    -0.014 A 
ATOM     95  C   UNL A   1      39.082  33.132  38.507  1.00  0.00     0.010 A 
ATOM     96  C   UNL A   1      40.467  34.878  37.552  1.00  0.00     0.010 A 
ATOM     97  C   UNL A   1      38.810  33.947  39.609  1.00  0.00     0.020 A 
ATOM     98  C   UNL A   1      40.229  35.682  38.670  1.00  0.00     0.020 A 
ATOM     99  C   UNL A   1      39.383  35.220  39.681  1.00  0.00     0.054 A 
BRANCH  99 100
ATOM    100  S   UNL A   1      39.014  36.266  41.116  1.00  0.00     0.124 S 
ATOM    101  O   UNL A   1      38.666  37.536  40.488  1.00  0.00    -0.237 OA
ATOM    102  O   UNL A   1      37.909  35.554  41.754  1.00  0.00    -0.237 OA
ATOM    103  O   UNL A   1      40.265  36.264  41.872  1.00  0.00    -0.744 OA
ENDBRANCH  99 100
ENDBRANCH  73  94
ENDBRANCH  47  48
ENDBRANCH  39  42
ENDBRANCH  37  38
ENDBRANCH  36  37
ENDBRANCH  35  36
ENDBRANCH   1  35
TORSDOF 21
ENDMDL
