MODEL 1
REMARK VINA RESULT:     -10.8      0.000      0.000
REMARK SMILES O=C(NCCCCCCNC(=O)c1ccc(Cl)cc1-c1ccc(O)c(F)c1)c1ccc(-c2c3nc(c(-c4ccc(S(=O)(=O)[O-])cc4)c4ccc([nH]4)c(-c4ccc(S(=O)(=O)[O-])cc4)c4nc(c(-c5ccc(S(=O)(=O)[O-])cc5)c5ccc2[nH]5)C=C4)C=C3)cc1
REMARK SMILES IDX 6 1 5 2 4 3 3 4 1 5 2 6 28 8 29 9 87 10 30 11 86 12 31 13
REMARK SMILES IDX 32 14 33 15 80 16 34 17 85 18 79 19 81 20 35 21 84 22 78 23
REMARK SMILES IDX 77 24 36 26 66 27 47 28 65 29 48 30 51 31 64 32 82 33 49 34
REMARK SMILES IDX 50 35 63 37 83 38 52 39 37 40 38 41 46 42 39 43 45 44 40 45
REMARK SMILES IDX 41 46 42 47 43 48 44 49 67 50 68 51 76 52 69 53 75 54 70 55
REMARK SMILES IDX 71 56 72 57 73 58 74 59 53 60 54 61 62 62 55 63 61 64 56 65
REMARK SMILES IDX 57 66 58 67 59 68 60 69 7 70 8 71 9 72 10 73 11 74 12 76
REMARK SMILES IDX 13 77 14 78 19 79 15 80 18 81 16 82 17 83 20 84 21 85 27 86
REMARK SMILES IDX 22 87 25 88 23 89 26 90 24 91
REMARK H PARENT 3 7 81 25 51 36 10 75 24 92
REMARK Flexibility Score: inf
ROOT
ATOM      1  C   UNL A   1      32.999  28.688  24.566  1.00  0.00     0.002 C 
ENDROOT
BRANCH   1   2
ATOM      2  C   UNL A   1      33.923  28.063  25.610  1.00  0.00     0.021 C 
BRANCH   2   3
ATOM      3  C   UNL A   1      33.499  28.270  27.058  1.00  0.00     0.116 C 
BRANCH   3   4
ATOM      4  N   UNL A   1      33.390  29.674  27.425  1.00  0.00    -0.352 N 
ATOM      5  O   UNL A   1      34.007  31.627  28.371  1.00  0.00    -0.269 OA
ATOM      6  C   UNL A   1      34.326  30.499  28.006  1.00  0.00     0.251 C 
ATOM      7  H   UNL A   1      32.523  30.094  27.227  1.00  0.00     0.163 HD
BRANCH   6   8
ATOM      8  C   UNL A   1      35.705  30.007  28.223  1.00  0.00     0.039 A 
ATOM      9  C   UNL A   1      36.101  29.528  29.472  1.00  0.00     0.014 A 
ATOM     10  C   UNL A   1      36.622  30.053  27.170  1.00  0.00     0.014 A 
ATOM     11  C   UNL A   1      37.445  29.272  29.718  1.00  0.00     0.010 A 
ATOM     12  C   UNL A   1      37.956  29.697  27.394  1.00  0.00     0.010 A 
ATOM     13  C   UNL A   1      38.391  29.352  28.683  1.00  0.00    -0.014 A 
BRANCH  13  14
ATOM     14  C   UNL A   1      39.818  29.048  28.976  1.00  0.00     0.031 A 
ATOM     15  C   UNL A   1      40.698  30.043  29.688  1.00  0.00     0.074 A 
ATOM     16  C   UNL A   1      40.310  27.840  28.636  1.00  0.00     0.049 A 
ATOM     17  N   UNL A   1      41.944  29.912  30.073  1.00  0.00    -0.248 NA
ATOM     18  C   UNL A   1      40.113  31.355  30.005  1.00  0.00     0.031 C 
ATOM     19  C   UNL A   1      39.559  26.789  27.941  1.00  0.00     0.029 A 
ATOM     20  N   UNL A   1      41.542  27.277  28.851  1.00  0.00    -0.354 N 
ATOM     21  C   UNL A   1      42.299  31.127  30.648  1.00  0.00     0.074 A 
ATOM     22  C   UNL A   1      41.145  31.993  30.541  1.00  0.00     0.031 C 
ATOM     23  C   UNL A   1      40.324  25.693  27.843  1.00  0.00     0.029 A 
ATOM     24  C   UNL A   1      41.639  25.980  28.403  1.00  0.00     0.049 A 
ATOM     25  H   UNL A   1      42.286  27.756  29.283  1.00  0.00     0.167 HD
ATOM     26  C   UNL A   1      43.476  31.488  31.217  1.00  0.00     0.031 A 
ATOM     27  C   UNL A   1      42.670  25.116  28.430  1.00  0.00     0.031 A 
ATOM     28  C   UNL A   1      44.622  30.621  31.324  1.00  0.00     0.049 A 
ATOM     29  C   UNL A   1      43.970  25.550  29.045  1.00  0.00     0.074 A 
ATOM     30  C   UNL A   1      45.845  30.882  31.917  1.00  0.00     0.029 A 
ATOM     31  N   UNL A   1      44.691  29.329  30.823  1.00  0.00    -0.354 N 
ATOM     32  N   UNL A   1      44.270  26.690  29.618  1.00  0.00    -0.248 NA
ATOM     33  C   UNL A   1      45.067  24.574  29.026  1.00  0.00     0.031 C 
ATOM     34  C   UNL A   1      46.674  29.771  31.723  1.00  0.00     0.029 A 
ATOM     35  C   UNL A   1      45.943  28.790  31.072  1.00  0.00     0.049 A 
ATOM     36  H   UNL A   1      43.957  28.864  30.359  1.00  0.00     0.167 HD
ATOM     37  C   UNL A   1      45.582  26.557  30.056  1.00  0.00     0.074 A 
ATOM     38  C   UNL A   1      46.010  25.221  29.694  1.00  0.00     0.031 C 
ATOM     39  C   UNL A   1      46.360  27.460  30.706  1.00  0.00     0.031 A 
BRANCH  26  40
ATOM     40  C   UNL A   1      43.602  32.899  31.736  1.00  0.00    -0.014 A 
ATOM     41  C   UNL A   1      44.004  33.959  30.902  1.00  0.00     0.010 A 
ATOM     42  C   UNL A   1      43.265  33.177  33.075  1.00  0.00     0.010 A 
ATOM     43  C   UNL A   1      44.112  35.258  31.408  1.00  0.00     0.020 A 
ATOM     44  C   UNL A   1      43.343  34.481  33.577  1.00  0.00     0.020 A 
ATOM     45  C   UNL A   1      43.784  35.510  32.744  1.00  0.00     0.054 A 
BRANCH  45  46
ATOM     46  S   UNL A   1      43.924  37.206  33.370  1.00  0.00     0.124 S 
ATOM     47  O   UNL A   1      42.726  37.320  34.199  1.00  0.00    -0.237 OA
ATOM     48  O   UNL A   1      45.190  37.176  34.100  1.00  0.00    -0.237 OA
ATOM     49  O   UNL A   1      43.924  38.025  32.161  1.00  0.00    -0.744 OA
ENDBRANCH  45  46
ENDBRANCH  26  40
BRANCH  27  50
ATOM     50  C   UNL A   1      42.507  23.751  27.859  1.00  0.00    -0.014 A 
ATOM     51  C   UNL A   1      42.117  22.676  28.675  1.00  0.00     0.010 A 
ATOM     52  C   UNL A   1      42.724  23.525  26.487  1.00  0.00     0.010 A 
ATOM     53  C   UNL A   1      41.963  21.396  28.134  1.00  0.00     0.020 A 
ATOM     54  C   UNL A   1      42.540  22.255  25.936  1.00  0.00     0.020 A 
ATOM     55  C   UNL A   1      42.172  21.195  26.767  1.00  0.00     0.054 A 
BRANCH  55  56
ATOM     56  S   UNL A   1      41.919  19.537  26.077  1.00  0.00     0.124 S 
ATOM     57  O   UNL A   1      42.807  19.552  24.919  1.00  0.00    -0.237 OA
ATOM     58  O   UNL A   1      42.330  18.672  27.180  1.00  0.00    -0.237 OA
ATOM     59  O   UNL A   1      40.491  19.508  25.772  1.00  0.00    -0.744 OA
ENDBRANCH  55  56
ENDBRANCH  27  50
BRANCH  39  60
ATOM     60  C   UNL A   1      47.738  27.011  31.116  1.00  0.00    -0.014 A 
ATOM     61  C   UNL A   1      48.867  27.273  30.321  1.00  0.00     0.010 A 
ATOM     62  C   UNL A   1      47.904  26.335  32.339  1.00  0.00     0.010 A 
ATOM     63  C   UNL A   1      50.130  26.826  30.718  1.00  0.00     0.020 A 
ATOM     64  C   UNL A   1      49.169  25.915  32.756  1.00  0.00     0.020 A 
ATOM     65  C   UNL A   1      50.272  26.146  31.932  1.00  0.00     0.054 A 
BRANCH  65  66
ATOM     66  S   UNL A   1      51.924  25.592  32.437  1.00  0.00     0.124 S 
ATOM     67  O   UNL A   1      51.653  24.246  32.933  1.00  0.00    -0.237 OA
ATOM     68  O   UNL A   1      52.681  25.663  31.190  1.00  0.00    -0.237 OA
ATOM     69  O   UNL A   1      52.318  26.563  33.455  1.00  0.00    -0.744 OA
ENDBRANCH  65  66
ENDBRANCH  39  60
ENDBRANCH  13  14
ENDBRANCH   6   8
ENDBRANCH   3   4
ENDBRANCH   2   3
ENDBRANCH   1   2
BRANCH   1  70
ATOM     70  C   UNL A   1      32.093  27.711  23.812  1.00  0.00     0.002 C 
BRANCH  70  71
ATOM     71  C   UNL A   1      32.606  27.240  22.448  1.00  0.00     0.021 C 
BRANCH  71  72
ATOM     72  C   UNL A   1      33.627  26.106  22.487  1.00  0.00     0.116 C 
BRANCH  72  73
ATOM     73  N   UNL A   1      33.063  24.835  22.060  1.00  0.00    -0.352 N 
ATOM     74  C   UNL A   1      33.432  23.559  22.403  1.00  0.00     0.251 C 
ATOM     75  H   UNL A   1      32.307  24.900  21.433  1.00  0.00     0.163 HD
ATOM     76  O   UNL A   1      32.851  22.593  21.913  1.00  0.00    -0.269 OA
BRANCH  74  77
ATOM     77  C   UNL A   1      34.525  23.356  23.379  1.00  0.00     0.047 A 
ATOM     78  C   UNL A   1      35.835  23.254  22.876  1.00  0.00     0.016 A 
ATOM     79  C   UNL A   1      34.276  23.307  24.767  1.00  0.00    -0.004 A 
ATOM     80  C   UNL A   1      36.904  23.028  23.741  1.00  0.00     0.021 A 
ATOM     81  C   UNL A   1      35.376  23.077  25.618  1.00  0.00     0.030 A 
ATOM     82  C   UNL A   1      36.668  22.928  25.107  1.00  0.00     0.041 A 
ATOM     83  Cl  UNL A   1      37.979  22.631  26.180  1.00  0.00    -0.084 Cl
BRANCH  79  84
ATOM     84  C   UNL A   1      32.943  23.504  25.366  1.00  0.00    -0.014 A 
ATOM     85  C   UNL A   1      32.068  22.428  25.597  1.00  0.00     0.013 A 
ATOM     86  C   UNL A   1      32.522  24.793  25.734  1.00  0.00     0.052 A 
ATOM     87  C   UNL A   1      30.805  22.633  26.169  1.00  0.00     0.050 A 
ATOM     88  C   UNL A   1      31.269  24.993  26.307  1.00  0.00     0.165 A 
ATOM     89  C   UNL A   1      30.410  23.920  26.523  1.00  0.00     0.151 A 
ATOM     90  F   UNL A   1      30.903  26.237  26.649  1.00  0.00    -0.203 F 
BRANCH  89  91
ATOM     91  O   UNL A   1      29.187  24.149  27.085  1.00  0.00    -0.505 OA
ATOM     92  H   UNL A   1      28.681  23.432  27.414  1.00  0.00     0.293 HD
ENDBRANCH  89  91
ENDBRANCH  79  84
ENDBRANCH  74  77
ENDBRANCH  72  73
ENDBRANCH  71  72
ENDBRANCH  70  71
ENDBRANCH   1  70
TORSDOF 18
ENDMDL
MODEL 2
REMARK VINA RESULT:     -10.5      0.676      8.156
REMARK SMILES O=C(NCCCCCCNC(=O)c1ccc(Cl)cc1-c1ccc(O)c(F)c1)c1ccc(-c2c3nc(c(-c4ccc(S(=O)(=O)[O-])cc4)c4ccc([nH]4)c(-c4ccc(S(=O)(=O)[O-])cc4)c4nc(c(-c5ccc(S(=O)(=O)[O-])cc5)c5ccc2[nH]5)C=C4)C=C3)cc1
REMARK SMILES IDX 6 1 5 2 4 3 3 4 1 5 2 6 28 8 29 9 87 10 30 11 86 12 31 13
REMARK SMILES IDX 32 14 33 15 80 16 34 17 85 18 79 19 81 20 35 21 84 22 78 23
REMARK SMILES IDX 77 24 36 26 66 27 47 28 65 29 48 30 51 31 64 32 82 33 49 34
REMARK SMILES IDX 50 35 63 37 83 38 52 39 37 40 38 41 46 42 39 43 45 44 40 45
REMARK SMILES IDX 41 46 42 47 43 48 44 49 67 50 68 51 76 52 69 53 75 54 70 55
REMARK SMILES IDX 71 56 72 57 73 58 74 59 53 60 54 61 62 62 55 63 61 64 56 65
REMARK SMILES IDX 57 66 58 67 59 68 60 69 7 70 8 71 9 72 10 73 11 74 12 76
REMARK SMILES IDX 13 77 14 78 19 79 15 80 18 81 16 82 17 83 20 84 21 85 27 86
REMARK SMILES IDX 22 87 25 88 23 89 26 90 24 91
REMARK H PARENT 3 7 81 25 51 36 10 75 24 92
REMARK Flexibility Score: inf
ROOT
ATOM      1  C   UNL A   1      33.034  28.482  23.874  1.00  0.00     0.002 C 
ENDROOT
BRANCH   1   2
ATOM      2  C   UNL A   1      34.008  28.096  24.985  1.00  0.00     0.021 C 
BRANCH   2   3
ATOM      3  C   UNL A   1      33.469  28.244  26.402  1.00  0.00     0.116 C 
BRANCH   3   4
ATOM      4  N   UNL A   1      33.276  29.631  26.795  1.00  0.00    -0.352 N 
ATOM      5  O   UNL A   1      33.718  31.565  27.870  1.00  0.00    -0.269 OA
ATOM      6  C   UNL A   1      34.111  30.459  27.512  1.00  0.00     0.251 C 
ATOM      7  H   UNL A   1      32.427  30.037  26.507  1.00  0.00     0.163 HD
BRANCH   6   8
ATOM      8  C   UNL A   1      35.467  29.993  27.881  1.00  0.00     0.039 A 
ATOM      9  C   UNL A   1      35.736  29.539  29.172  1.00  0.00     0.014 A 
ATOM     10  C   UNL A   1      36.488  30.040  26.929  1.00  0.00     0.014 A 
ATOM     11  C   UNL A   1      37.051  29.309  29.562  1.00  0.00     0.010 A 
ATOM     12  C   UNL A   1      37.797  29.709  27.297  1.00  0.00     0.010 A 
ATOM     13  C   UNL A   1      38.100  29.390  28.630  1.00  0.00    -0.014 A 
BRANCH  13  14
ATOM     14  C   UNL A   1      39.492  29.115  29.076  1.00  0.00     0.031 A 
ATOM     15  C   UNL A   1      40.181  27.820  28.727  1.00  0.00     0.074 A 
ATOM     16  C   UNL A   1      40.157  30.065  29.763  1.00  0.00     0.049 A 
ATOM     17  N   UNL A   1      41.411  27.447  28.985  1.00  0.00    -0.248 NA
ATOM     18  C   UNL A   1      39.393  26.810  28.003  1.00  0.00     0.031 C 
ATOM     19  C   UNL A   1      39.599  31.360  30.165  1.00  0.00     0.029 A 
ATOM     20  N   UNL A   1      41.449  30.106  30.222  1.00  0.00    -0.354 N 
ATOM     21  C   UNL A   1      41.535  26.156  28.483  1.00  0.00     0.074 A 
ATOM     22  C   UNL A   1      40.248  25.799  27.926  1.00  0.00     0.031 C 
ATOM     23  C   UNL A   1      40.558  32.090  30.752  1.00  0.00     0.029 A 
ATOM     24  C   UNL A   1      41.777  31.294  30.832  1.00  0.00     0.049 A 
ATOM     25  H   UNL A   1      42.080  29.357  30.124  1.00  0.00     0.167 HD
ATOM     26  C   UNL A   1      42.621  25.344  28.483  1.00  0.00     0.031 A 
ATOM     27  C   UNL A   1      42.926  31.700  31.402  1.00  0.00     0.031 A 
ATOM     28  C   UNL A   1      43.901  25.705  29.036  1.00  0.00     0.049 A 
ATOM     29  C   UNL A   1      44.107  30.772  31.408  1.00  0.00     0.074 A 
ATOM     30  C   UNL A   1      45.072  24.966  29.049  1.00  0.00     0.029 A 
ATOM     31  N   UNL A   1      44.180  26.902  29.679  1.00  0.00    -0.354 N 
ATOM     32  N   UNL A   1      44.212  29.570  30.892  1.00  0.00    -0.248 NA
ATOM     33  C   UNL A   1      45.326  31.259  32.064  1.00  0.00     0.031 C 
ATOM     34  C   UNL A   1      46.041  25.690  29.751  1.00  0.00     0.029 A 
ATOM     35  C   UNL A   1      45.496  26.912  30.115  1.00  0.00     0.049 A 
ATOM     36  H   UNL A   1      43.537  27.637  29.808  1.00  0.00     0.167 HD
ATOM     37  C   UNL A   1      45.522  29.171  31.135  1.00  0.00     0.074 A 
ATOM     38  C   UNL A   1      46.170  30.265  31.829  1.00  0.00     0.031 C 
ATOM     39  C   UNL A   1      46.132  28.005  30.806  1.00  0.00     0.031 A 
BRANCH  26  40
ATOM     40  C   UNL A   1      42.464  23.962  27.897  1.00  0.00    -0.014 A 
ATOM     41  C   UNL A   1      42.747  23.699  26.544  1.00  0.00     0.010 A 
ATOM     42  C   UNL A   1      42.070  22.897  28.729  1.00  0.00     0.010 A 
ATOM     43  C   UNL A   1      42.595  22.409  26.025  1.00  0.00     0.020 A 
ATOM     44  C   UNL A   1      41.945  21.599  28.222  1.00  0.00     0.020 A 
ATOM     45  C   UNL A   1      42.191  21.368  26.867  1.00  0.00     0.054 A 
BRANCH  45  46
ATOM     46  S   UNL A   1      42.012  19.704  26.169  1.00  0.00     0.124 S 
ATOM     47  O   UNL A   1      42.928  19.755  25.033  1.00  0.00    -0.237 OA
ATOM     48  O   UNL A   1      42.432  18.846  27.275  1.00  0.00    -0.237 OA
ATOM     49  O   UNL A   1      40.595  19.622  25.824  1.00  0.00    -0.744 OA
ENDBRANCH  45  46
ENDBRANCH  26  40
BRANCH  27  50
ATOM     50  C   UNL A   1      43.012  33.057  32.010  1.00  0.00    -0.014 A 
ATOM     51  C   UNL A   1      42.685  33.257  33.362  1.00  0.00     0.010 A 
ATOM     52  C   UNL A   1      43.441  34.153  31.240  1.00  0.00     0.010 A 
ATOM     53  C   UNL A   1      42.768  34.532  33.928  1.00  0.00     0.020 A 
ATOM     54  C   UNL A   1      43.557  35.423  31.810  1.00  0.00     0.020 A 
ATOM     55  C   UNL A   1      43.208  35.606  33.150  1.00  0.00     0.054 A 
BRANCH  55  56
ATOM     56  S   UNL A   1      43.356  37.242  33.919  1.00  0.00     0.124 S 
ATOM     57  O   UNL A   1      42.095  37.349  34.647  1.00  0.00    -0.237 OA
ATOM     58  O   UNL A   1      44.553  37.094  34.744  1.00  0.00    -0.237 OA
ATOM     59  O   UNL A   1      43.502  38.144  32.779  1.00  0.00    -0.744 OA
ENDBRANCH  55  56
ENDBRANCH  27  50
BRANCH  39  60
ATOM     60  C   UNL A   1      47.593  27.874  31.146  1.00  0.00    -0.014 A 
ATOM     61  C   UNL A   1      48.022  27.321  32.365  1.00  0.00     0.010 A 
ATOM     62  C   UNL A   1      48.556  28.291  30.207  1.00  0.00     0.010 A 
ATOM     63  C   UNL A   1      49.385  27.232  32.661  1.00  0.00     0.020 A 
ATOM     64  C   UNL A   1      49.920  28.174  30.485  1.00  0.00     0.020 A 
ATOM     65  C   UNL A   1      50.325  27.662  31.719  1.00  0.00     0.054 A 
BRANCH  65  66
ATOM     66  S   UNL A   1      52.089  27.518  32.115  1.00  0.00     0.124 S 
ATOM     67  O   UNL A   1      52.053  27.121  33.520  1.00  0.00    -0.237 OA
ATOM     68  O   UNL A   1      52.544  26.491  31.183  1.00  0.00    -0.237 OA
ATOM     69  O   UNL A   1      52.612  28.859  31.861  1.00  0.00    -0.744 OA
ENDBRANCH  65  66
ENDBRANCH  39  60
ENDBRANCH  13  14
ENDBRANCH   6   8
ENDBRANCH   3   4
ENDBRANCH   2   3
ENDBRANCH   1   2
BRANCH   1  70
ATOM     70  C   UNL A   1      31.964  27.438  23.538  1.00  0.00     0.002 C 
BRANCH  70  71
ATOM     71  C   UNL A   1      32.121  26.732  22.187  1.00  0.00     0.021 C 
BRANCH  71  72
ATOM     72  C   UNL A   1      33.257  25.716  22.106  1.00  0.00     0.116 C 
BRANCH  72  73
ATOM     73  N   UNL A   1      32.775  24.356  21.927  1.00  0.00    -0.352 N 
ATOM     74  C   UNL A   1      33.240  23.187  22.472  1.00  0.00     0.251 C 
ATOM     75  H   UNL A   1      32.001  24.260  21.324  1.00  0.00     0.163 HD
ATOM     76  O   UNL A   1      32.718  22.114  22.179  1.00  0.00    -0.269 OA
BRANCH  74  77
ATOM     77  C   UNL A   1      34.368  23.231  23.430  1.00  0.00     0.047 A 
ATOM     78  C   UNL A   1      35.671  23.149  22.905  1.00  0.00     0.016 A 
ATOM     79  C   UNL A   1      34.154  23.392  24.815  1.00  0.00    -0.004 A 
ATOM     80  C   UNL A   1      36.773  23.149  23.757  1.00  0.00     0.021 A 
ATOM     81  C   UNL A   1      35.287  23.388  25.653  1.00  0.00     0.030 A 
ATOM     82  C   UNL A   1      36.576  23.257  25.129  1.00  0.00     0.041 A 
ATOM     83  Cl  UNL A   1      37.929  23.241  26.190  1.00  0.00    -0.084 Cl
BRANCH  79  84
ATOM     84  C   UNL A   1      32.823  23.581  25.421  1.00  0.00    -0.014 A 
ATOM     85  C   UNL A   1      31.997  22.493  25.751  1.00  0.00     0.013 A 
ATOM     86  C   UNL A   1      32.354  24.878  25.693  1.00  0.00     0.052 A 
ATOM     87  C   UNL A   1      30.735  22.692  26.328  1.00  0.00     0.050 A 
ATOM     88  C   UNL A   1      31.102  25.072  26.271  1.00  0.00     0.165 A 
ATOM     89  C   UNL A   1      30.292  23.985  26.587  1.00  0.00     0.151 A 
ATOM     90  F   UNL A   1      30.689  26.323  26.520  1.00  0.00    -0.203 F 
BRANCH  89  91
ATOM     91  O   UNL A   1      29.069  24.209  27.150  1.00  0.00    -0.505 OA
ATOM     92  H   UNL A   1      28.878  23.873  28.004  1.00  0.00     0.293 HD
ENDBRANCH  89  91
ENDBRANCH  79  84
ENDBRANCH  74  77
ENDBRANCH  72  73
ENDBRANCH  71  72
ENDBRANCH  70  71
ENDBRANCH   1  70
TORSDOF 18
ENDMDL
MODEL 3
REMARK VINA RESULT:     -10.5      4.547     10.124
REMARK SMILES O=C(NCCCCCCNC(=O)c1ccc(Cl)cc1-c1ccc(O)c(F)c1)c1ccc(-c2c3nc(c(-c4ccc(S(=O)(=O)[O-])cc4)c4ccc([nH]4)c(-c4ccc(S(=O)(=O)[O-])cc4)c4nc(c(-c5ccc(S(=O)(=O)[O-])cc5)c5ccc2[nH]5)C=C4)C=C3)cc1
REMARK SMILES IDX 6 1 5 2 4 3 3 4 1 5 2 6 28 8 29 9 87 10 30 11 86 12 31 13
REMARK SMILES IDX 32 14 33 15 80 16 34 17 85 18 79 19 81 20 35 21 84 22 78 23
REMARK SMILES IDX 77 24 36 26 66 27 47 28 65 29 48 30 51 31 64 32 82 33 49 34
REMARK SMILES IDX 50 35 63 37 83 38 52 39 37 40 38 41 46 42 39 43 45 44 40 45
REMARK SMILES IDX 41 46 42 47 43 48 44 49 67 50 68 51 76 52 69 53 75 54 70 55
REMARK SMILES IDX 71 56 72 57 73 58 74 59 53 60 54 61 62 62 55 63 61 64 56 65
REMARK SMILES IDX 57 66 58 67 59 68 60 69 7 70 8 71 9 72 10 73 11 74 12 76
REMARK SMILES IDX 13 77 14 78 19 79 15 80 18 81 16 82 17 83 20 84 21 85 27 86
REMARK SMILES IDX 22 87 25 88 23 89 26 90 24 91
REMARK H PARENT 3 7 81 25 51 36 10 75 24 92
REMARK Flexibility Score: inf
ROOT
ATOM      1  C   UNL A   1      38.346  22.327  25.798  1.00  0.00     0.002 C 
ENDROOT
BRANCH   1   2
ATOM      2  C   UNL A   1      39.604  22.188  26.653  1.00  0.00     0.021 C 
BRANCH   2   3
ATOM      3  C   UNL A   1      40.212  23.499  27.131  1.00  0.00     0.116 C 
BRANCH   3   4
ATOM      4  N   UNL A   1      40.988  24.174  26.102  1.00  0.00    -0.352 N 
ATOM      5  O   UNL A   1      41.876  25.919  24.979  1.00  0.00    -0.269 OA
ATOM      6  C   UNL A   1      41.329  25.504  25.997  1.00  0.00     0.251 C 
ATOM      7  H   UNL A   1      41.318  23.597  25.376  1.00  0.00     0.163 HD
BRANCH   6   8
ATOM      8  C   UNL A   1      40.999  26.436  27.099  1.00  0.00     0.039 A 
ATOM      9  C   UNL A   1      41.648  27.666  27.208  1.00  0.00     0.014 A 
ATOM     10  C   UNL A   1      40.049  26.061  28.051  1.00  0.00     0.014 A 
ATOM     11  C   UNL A   1      41.485  28.432  28.357  1.00  0.00     0.010 A 
ATOM     12  C   UNL A   1      39.811  26.883  29.158  1.00  0.00     0.010 A 
ATOM     13  C   UNL A   1      40.565  28.052  29.348  1.00  0.00    -0.014 A 
BRANCH  13  14
ATOM     14  C   UNL A   1      40.398  28.907  30.554  1.00  0.00     0.031 A 
ATOM     15  C   UNL A   1      41.316  28.768  31.742  1.00  0.00     0.074 A 
ATOM     16  C   UNL A   1      39.437  29.852  30.555  1.00  0.00     0.049 A 
ATOM     17  N   UNL A   1      41.345  29.474  32.845  1.00  0.00    -0.248 NA
ATOM     18  C   UNL A   1      42.325  27.698  31.694  1.00  0.00     0.031 C 
ATOM     19  C   UNL A   1      38.484  30.085  29.466  1.00  0.00     0.029 A 
ATOM     20  N   UNL A   1      39.118  30.809  31.484  1.00  0.00    -0.354 N 
ATOM     21  C   UNL A   1      42.350  28.919  33.631  1.00  0.00     0.074 A 
ATOM     22  C   UNL A   1      42.891  27.801  32.888  1.00  0.00     0.031 C 
ATOM     23  C   UNL A   1      37.731  31.155  29.761  1.00  0.00     0.029 A 
ATOM     24  C   UNL A   1      38.097  31.641  31.086  1.00  0.00     0.049 A 
ATOM     25  H   UNL A   1      39.575  30.892  32.352  1.00  0.00     0.167 HD
ATOM     26  C   UNL A   1      42.785  29.306  34.856  1.00  0.00     0.031 A 
ATOM     27  C   UNL A   1      37.512  32.676  31.715  1.00  0.00     0.031 A 
ATOM     28  C   UNL A   1      42.244  30.422  35.589  1.00  0.00     0.049 A 
ATOM     29  C   UNL A   1      37.998  33.070  33.081  1.00  0.00     0.074 A 
ATOM     30  C   UNL A   1      42.644  30.917  36.819  1.00  0.00     0.029 A 
ATOM     31  N   UNL A   1      41.186  31.214  35.168  1.00  0.00    -0.354 N 
ATOM     32  N   UNL A   1      38.976  32.555  33.787  1.00  0.00    -0.248 NA
ATOM     33  C   UNL A   1      37.307  34.191  33.729  1.00  0.00     0.031 C 
ATOM     34  C   UNL A   1      41.790  31.968  37.169  1.00  0.00     0.029 A 
ATOM     35  C   UNL A   1      40.903  32.177  36.124  1.00  0.00     0.049 A 
ATOM     36  H   UNL A   1      40.707  31.108  34.314  1.00  0.00     0.167 HD
ATOM     37  C   UNL A   1      39.037  33.312  34.951  1.00  0.00     0.074 A 
ATOM     38  C   UNL A   1      38.009  34.326  34.845  1.00  0.00     0.031 C 
ATOM     39  C   UNL A   1      39.876  33.181  36.010  1.00  0.00     0.031 A 
BRANCH  26  40
ATOM     40  C   UNL A   1      43.879  28.493  35.502  1.00  0.00    -0.014 A 
ATOM     41  C   UNL A   1      45.238  28.807  35.316  1.00  0.00     0.010 A 
ATOM     42  C   UNL A   1      43.538  27.422  36.350  1.00  0.00     0.010 A 
ATOM     43  C   UNL A   1      46.234  28.038  35.927  1.00  0.00     0.020 A 
ATOM     44  C   UNL A   1      44.530  26.669  36.987  1.00  0.00     0.020 A 
ATOM     45  C   UNL A   1      45.873  26.971  36.756  1.00  0.00     0.054 A 
BRANCH  45  46
ATOM     46  S   UNL A   1      47.185  25.997  37.543  1.00  0.00     0.124 S 
ATOM     47  O   UNL A   1      46.671  24.637  37.407  1.00  0.00    -0.237 OA
ATOM     48  O   UNL A   1      48.353  26.311  36.723  1.00  0.00    -0.237 OA
ATOM     49  O   UNL A   1      47.229  26.513  38.909  1.00  0.00    -0.744 OA
ENDBRANCH  45  46
ENDBRANCH  26  40
BRANCH  27  50
ATOM     50  C   UNL A   1      36.402  33.415  31.051  1.00  0.00    -0.014 A 
ATOM     51  C   UNL A   1      35.223  33.717  31.754  1.00  0.00     0.010 A 
ATOM     52  C   UNL A   1      36.530  33.836  29.716  1.00  0.00     0.010 A 
ATOM     53  C   UNL A   1      34.185  34.412  31.128  1.00  0.00     0.020 A 
ATOM     54  C   UNL A   1      35.508  34.559  29.095  1.00  0.00     0.020 A 
ATOM     55  C   UNL A   1      34.336  34.832  29.803  1.00  0.00     0.054 A 
BRANCH  55  56
ATOM     56  S   UNL A   1      32.996  35.775  29.026  1.00  0.00     0.124 S 
ATOM     57  O   UNL A   1      32.207  36.188  30.182  1.00  0.00    -0.237 OA
ATOM     58  O   UNL A   1      33.720  36.842  28.340  1.00  0.00    -0.237 OA
ATOM     59  O   UNL A   1      32.357  34.800  28.146  1.00  0.00    -0.744 OA
ENDBRANCH  55  56
ENDBRANCH  27  50
BRANCH  39  60
ATOM     60  C   UNL A   1      39.751  34.195  37.116  1.00  0.00    -0.014 A 
ATOM     61  C   UNL A   1      39.030  33.921  38.292  1.00  0.00     0.010 A 
ATOM     62  C   UNL A   1      40.394  35.440  36.982  1.00  0.00     0.010 A 
ATOM     63  C   UNL A   1      38.914  34.891  39.291  1.00  0.00     0.020 A 
ATOM     64  C   UNL A   1      40.308  36.400  37.992  1.00  0.00     0.020 A 
ATOM     65  C   UNL A   1      39.551  36.126  39.133  1.00  0.00     0.054 A 
BRANCH  65  66
ATOM     66  S   UNL A   1      39.404  37.362  40.453  1.00  0.00     0.124 S 
ATOM     67  O   UNL A   1      38.602  38.398  39.809  1.00  0.00    -0.237 OA
ATOM     68  O   UNL A   1      38.734  36.617  41.516  1.00  0.00    -0.237 OA
ATOM     69  O   UNL A   1      40.789  37.732  40.737  1.00  0.00    -0.744 OA
ENDBRANCH  65  66
ENDBRANCH  39  60
ENDBRANCH  13  14
ENDBRANCH   6   8
ENDBRANCH   3   4
ENDBRANCH   2   3
ENDBRANCH   1   2
BRANCH   1  70
ATOM     70  C   UNL A   1      37.712  23.721  25.772  1.00  0.00     0.002 C 
BRANCH  70  71
ATOM     71  C   UNL A   1      36.191  23.761  25.591  1.00  0.00     0.021 C 
BRANCH  71  72
ATOM     72  C   UNL A   1      35.443  22.514  26.054  1.00  0.00     0.116 C 
BRANCH  72  73
ATOM     73  N   UNL A   1      34.174  22.831  26.690  1.00  0.00    -0.352 N 
ATOM     74  C   UNL A   1      32.918  22.350  26.419  1.00  0.00     0.251 C 
ATOM     75  H   UNL A   1      34.223  23.489  27.422  1.00  0.00     0.163 HD
ATOM     76  O   UNL A   1      31.947  22.761  27.049  1.00  0.00    -0.269 OA
BRANCH  74  77
ATOM     77  C   UNL A   1      32.747  21.321  25.370  1.00  0.00     0.047 A 
ATOM     78  C   UNL A   1      32.896  19.974  25.750  1.00  0.00     0.016 A 
ATOM     79  C   UNL A   1      32.406  21.665  24.045  1.00  0.00    -0.004 A 
ATOM     80  C   UNL A   1      32.782  18.959  24.802  1.00  0.00     0.021 A 
ATOM     81  C   UNL A   1      32.298  20.619  23.107  1.00  0.00     0.030 A 
ATOM     82  C   UNL A   1      32.495  19.287  23.481  1.00  0.00     0.041 A 
ATOM     83  Cl  UNL A   1      32.369  18.043  22.301  1.00  0.00    -0.084 Cl
BRANCH  79  84
ATOM     84  C   UNL A   1      32.140  23.047  23.602  1.00  0.00    -0.014 A 
ATOM     85  C   UNL A   1      30.849  23.601  23.634  1.00  0.00     0.013 A 
ATOM     86  C   UNL A   1      33.197  23.852  23.142  1.00  0.00     0.052 A 
ATOM     87  C   UNL A   1      30.616  24.917  23.211  1.00  0.00     0.050 A 
ATOM     88  C   UNL A   1      32.962  25.160  22.727  1.00  0.00     0.165 A 
ATOM     89  C   UNL A   1      31.678  25.693  22.758  1.00  0.00     0.151 A 
ATOM     90  F   UNL A   1      33.996  25.900  22.299  1.00  0.00    -0.203 F 
BRANCH  89  91
ATOM     91  O   UNL A   1      31.480  26.978  22.342  1.00  0.00    -0.505 OA
ATOM     92  H   UNL A   1      30.624  27.356  22.379  1.00  0.00     0.293 HD
ENDBRANCH  89  91
ENDBRANCH  79  84
ENDBRANCH  74  77
ENDBRANCH  72  73
ENDBRANCH  71  72
ENDBRANCH  70  71
ENDBRANCH   1  70
TORSDOF 18
ENDMDL
