MODEL 1
REMARK VINA RESULT:     -11.2      0.000      0.000
REMARK SMILES NC(=O)c1ccc(N(CC(=O)NCCCCCCNC(=O)c2ccc(-c3c4nc(c(-c5ccc(S(=O)(=O)[O-])cc5)c5ccc([nH]5)c(-c5ccc(S(=O)(=O)[O-])cc5)c5nc(c(-c6ccc(S(=O)(=O)[O-])cc6)c6ccc3[nH]6)C=C5)C=C4)cc2)C2CCCC2)nn1
REMARK SMILES IDX 15 1 14 2 13 3 12 4 10 5 11 6 9 8 8 9 7 10 4 11 5 12 88 13
REMARK SMILES IDX 6 14 87 15 2 16 1 17 3 20 82 21 83 22 86 23 84 24 85 25
REMARK SMILES IDX 16 26 17 27 18 28 19 29 20 30 21 32 22 33 23 34 81 35 24 36
REMARK SMILES IDX 80 37 25 38 26 39 27 40 74 41 28 42 79 43 73 44 75 45 29 46
REMARK SMILES IDX 78 47 72 48 71 49 30 51 60 52 41 53 59 54 42 55 45 56 58 57
REMARK SMILES IDX 76 58 43 59 44 60 57 62 77 63 46 64 31 65 32 66 40 67 33 68
REMARK SMILES IDX 39 69 34 70 35 71 36 72 37 73 38 74 61 75 62 76 70 77 63 78
REMARK SMILES IDX 69 79 64 80 65 81 66 82 67 83 68 84 47 85 48 86 56 87 49 88
REMARK SMILES IDX 55 89 50 90 51 91 52 92 53 93 54 94
REMARK H PARENT 12 7 1 18 1 19 19 31 75 50 45 61
REMARK Flexibility Score: inf
ROOT
ATOM      1  C   UNL A   1      33.101  26.242  24.044  1.00  0.00     0.002 C 
ENDROOT
BRANCH   1   2
ATOM      2  C   UNL A   1      32.949  25.042  23.103  1.00  0.00     0.021 C 
BRANCH   2   3
ATOM      3  C   UNL A   1      31.640  24.275  23.285  1.00  0.00     0.116 C 
BRANCH   3   4
ATOM      4  N   UNL A   1      31.710  22.966  22.664  1.00  0.00    -0.355 N 
ATOM      5  C   UNL A   1      32.106  21.783  23.222  1.00  0.00     0.239 C 
ATOM      6  O   UNL A   1      32.191  20.792  22.491  1.00  0.00    -0.273 OA
ATOM      7  H   UNL A   1      31.438  22.925  21.719  1.00  0.00     0.163 HD
BRANCH   5   8
ATOM      8  C   UNL A   1      32.413  21.701  24.726  1.00  0.00     0.218 C 
BRANCH   8   9
ATOM      9  N   UNL A   1      33.643  20.922  25.018  1.00  0.00    -0.343 N 
BRANCH   9  10
ATOM     10  C   UNL A   1      33.520  19.541  25.002  1.00  0.00     0.151 A 
ATOM     11  C   UNL A   1      33.211  16.775  25.207  1.00  0.00     0.150 A 
ATOM     12  C   UNL A   1      34.372  17.283  24.662  1.00  0.00     0.040 A 
ATOM     13  N   UNL A   1      32.224  17.595  25.596  1.00  0.00    -0.143 NA
ATOM     14  C   UNL A   1      34.511  18.674  24.553  1.00  0.00     0.051 A 
ATOM     15  N   UNL A   1      32.395  18.970  25.488  1.00  0.00    -0.132 NA
BRANCH  11  16
ATOM     16  C   UNL A   1      32.984  15.317  25.397  1.00  0.00     0.269 C 
ATOM     17  N   UNL A   1      31.692  14.890  25.562  1.00  0.00    -0.364 N 
ATOM     18  H   UNL A   1      31.502  13.933  25.691  1.00  0.00     0.160 HD
ATOM     19  H   UNL A   1      30.954  15.541  25.552  1.00  0.00     0.160 HD
ATOM     20  O   UNL A   1      33.909  14.507  25.393  1.00  0.00    -0.268 OA
ENDBRANCH  11  16
ENDBRANCH   9  10
BRANCH   9  21
ATOM     21  C   UNL A   1      34.885  21.702  25.104  1.00  0.00     0.084 C 
ATOM     22  C   UNL A   1      35.365  22.277  23.775  1.00  0.00     0.025 C 
ATOM     23  C   UNL A   1      34.828  22.865  26.094  1.00  0.00     0.025 C 
ATOM     24  C   UNL A   1      36.232  23.461  24.166  1.00  0.00     0.002 C 
ATOM     25  C   UNL A   1      35.679  23.978  25.489  1.00  0.00     0.002 C 
ENDBRANCH   9  21
ENDBRANCH   8   9
ENDBRANCH   5   8
ENDBRANCH   3   4
ENDBRANCH   2   3
ENDBRANCH   1   2
BRANCH   1  26
ATOM     26  C   UNL A   1      32.789  25.946  25.515  1.00  0.00     0.002 C 
BRANCH  26  27
ATOM     27  C   UNL A   1      32.634  27.181  26.408  1.00  0.00     0.021 C 
BRANCH  27  28
ATOM     28  C   UNL A   1      33.893  28.034  26.545  1.00  0.00     0.116 C 
BRANCH  28  29
ATOM     29  N   UNL A   1      33.589  29.391  26.962  1.00  0.00    -0.352 N 
ATOM     30  C   UNL A   1      34.325  30.259  27.730  1.00  0.00     0.251 C 
ATOM     31  H   UNL A   1      32.724  29.742  26.648  1.00  0.00     0.163 HD
ATOM     32  O   UNL A   1      33.803  31.289  28.146  1.00  0.00    -0.269 OA
BRANCH  30  33
ATOM     33  C   UNL A   1      35.733  29.954  28.065  1.00  0.00     0.039 A 
ATOM     34  C   UNL A   1      36.037  29.544  29.365  1.00  0.00     0.014 A 
ATOM     35  C   UNL A   1      36.756  30.105  27.123  1.00  0.00     0.014 A 
ATOM     36  C   UNL A   1      37.358  29.250  29.708  1.00  0.00     0.010 A 
ATOM     37  C   UNL A   1      38.063  29.745  27.447  1.00  0.00     0.010 A 
ATOM     38  C   UNL A   1      38.380  29.323  28.747  1.00  0.00    -0.014 A 
BRANCH  38  39
ATOM     39  C   UNL A   1      39.774  28.950  29.101  1.00  0.00     0.031 A 
ATOM     40  C   UNL A   1      40.661  29.905  29.855  1.00  0.00     0.074 A 
ATOM     41  C   UNL A   1      40.249  27.746  28.725  1.00  0.00     0.049 A 
ATOM     42  N   UNL A   1      41.879  29.723  30.295  1.00  0.00    -0.248 NA
ATOM     43  C   UNL A   1      40.118  31.245  30.130  1.00  0.00     0.031 C 
ATOM     44  C   UNL A   1      39.509  26.752  27.942  1.00  0.00     0.029 A 
ATOM     45  N   UNL A   1      41.460  27.147  28.961  1.00  0.00    -0.354 N 
ATOM     46  C   UNL A   1      42.251  30.921  30.894  1.00  0.00     0.074 A 
ATOM     47  C   UNL A   1      41.150  31.841  30.709  1.00  0.00     0.031 C 
ATOM     48  C   UNL A   1      40.264  25.651  27.804  1.00  0.00     0.029 A 
ATOM     49  C   UNL A   1      41.549  25.869  28.461  1.00  0.00     0.049 A 
ATOM     50  H   UNL A   1      42.196  27.590  29.442  1.00  0.00     0.167 HD
ATOM     51  C   UNL A   1      43.394  31.222  31.559  1.00  0.00     0.031 A 
ATOM     52  C   UNL A   1      42.544  24.966  28.537  1.00  0.00     0.031 A 
ATOM     53  C   UNL A   1      44.487  30.304  31.743  1.00  0.00     0.049 A 
ATOM     54  C   UNL A   1      43.794  25.315  29.295  1.00  0.00     0.074 A 
ATOM     55  C   UNL A   1      45.667  30.497  32.443  1.00  0.00     0.029 A 
ATOM     56  N   UNL A   1      44.537  29.018  31.226  1.00  0.00    -0.354 N 
ATOM     57  N   UNL A   1      44.097  26.431  29.915  1.00  0.00    -0.248 NA
ATOM     58  C   UNL A   1      44.826  24.274  29.381  1.00  0.00     0.031 C 
ATOM     59  C   UNL A   1      46.450  29.344  32.308  1.00  0.00     0.029 A 
ATOM     60  C   UNL A   1      45.735  28.412  31.572  1.00  0.00     0.049 A 
ATOM     61  H   UNL A   1      43.827  28.597  30.690  1.00  0.00     0.167 HD
ATOM     62  C   UNL A   1      45.347  26.217  30.487  1.00  0.00     0.074 A 
ATOM     63  C   UNL A   1      45.730  24.858  30.156  1.00  0.00     0.031 C 
ATOM     64  C   UNL A   1      46.111  27.067  31.218  1.00  0.00     0.031 A 
BRANCH  51  65
ATOM     65  C   UNL A   1      43.517  32.613  32.129  1.00  0.00    -0.014 A 
ATOM     66  C   UNL A   1      42.989  32.927  33.396  1.00  0.00     0.010 A 
ATOM     67  C   UNL A   1      44.189  33.612  31.404  1.00  0.00     0.010 A 
ATOM     68  C   UNL A   1      43.086  34.226  33.902  1.00  0.00     0.020 A 
ATOM     69  C   UNL A   1      44.314  34.906  31.920  1.00  0.00     0.020 A 
ATOM     70  C   UNL A   1      43.743  35.210  33.157  1.00  0.00     0.054 A 
BRANCH  70  71
ATOM     71  S   UNL A   1      43.859  36.886  33.839  1.00  0.00     0.124 S 
ATOM     72  O   UNL A   1      42.760  36.895  34.801  1.00  0.00    -0.237 OA
ATOM     73  O   UNL A   1      45.200  36.906  34.418  1.00  0.00    -0.237 OA
ATOM     74  O   UNL A   1      43.674  37.749  32.675  1.00  0.00    -0.744 OA
ENDBRANCH  70  71
ENDBRANCH  51  65
BRANCH  52  75
ATOM     75  C   UNL A   1      42.376  23.625  27.915  1.00  0.00    -0.014 A 
ATOM     76  C   UNL A   1      43.044  23.305  26.721  1.00  0.00     0.010 A 
ATOM     77  C   UNL A   1      41.564  22.653  28.527  1.00  0.00     0.010 A 
ATOM     78  C   UNL A   1      42.892  22.042  26.140  1.00  0.00     0.020 A 
ATOM     79  C   UNL A   1      41.431  21.380  27.964  1.00  0.00     0.020 A 
ATOM     80  C   UNL A   1      42.088  21.086  26.768  1.00  0.00     0.054 A 
BRANCH  80  81
ATOM     81  S   UNL A   1      41.952  19.435  26.030  1.00  0.00     0.124 S 
ATOM     82  O   UNL A   1      42.782  19.567  24.836  1.00  0.00    -0.237 OA
ATOM     83  O   UNL A   1      42.488  18.574  27.082  1.00  0.00    -0.237 OA
ATOM     84  O   UNL A   1      40.520  19.287  25.784  1.00  0.00    -0.744 OA
ENDBRANCH  80  81
ENDBRANCH  52  75
BRANCH  64  85
ATOM     85  C   UNL A   1      47.425  26.536  31.727  1.00  0.00    -0.014 A 
ATOM     86  C   UNL A   1      48.595  26.617  30.950  1.00  0.00     0.010 A 
ATOM     87  C   UNL A   1      47.489  25.945  33.002  1.00  0.00     0.010 A 
ATOM     88  C   UNL A   1      49.790  26.062  31.414  1.00  0.00     0.020 A 
ATOM     89  C   UNL A   1      48.690  25.415  33.482  1.00  0.00     0.020 A 
ATOM     90  C   UNL A   1      49.828  25.454  32.673  1.00  0.00     0.054 A 
BRANCH  90  91
ATOM     91  S   UNL A   1      51.387  24.732  33.252  1.00  0.00     0.124 S 
ATOM     92  O   UNL A   1      52.304  25.087  32.172  1.00  0.00    -0.237 OA
ATOM     93  O   UNL A   1      51.612  25.421  34.520  1.00  0.00    -0.237 OA
ATOM     94  O   UNL A   1      51.085  23.307  33.369  1.00  0.00    -0.744 OA
ENDBRANCH  90  91
ENDBRANCH  64  85
ENDBRANCH  38  39
ENDBRANCH  30  33
ENDBRANCH  28  29
ENDBRANCH  27  28
ENDBRANCH  26  27
ENDBRANCH   1  26
TORSDOF 20
ENDMDL
MODEL 2
REMARK VINA RESULT:     -10.7      2.115      2.783
REMARK SMILES NC(=O)c1ccc(N(CC(=O)NCCCCCCNC(=O)c2ccc(-c3c4nc(c(-c5ccc(S(=O)(=O)[O-])cc5)c5ccc([nH]5)c(-c5ccc(S(=O)(=O)[O-])cc5)c5nc(c(-c6ccc(S(=O)(=O)[O-])cc6)c6ccc3[nH]6)C=C5)C=C4)cc2)C2CCCC2)nn1
REMARK SMILES IDX 15 1 14 2 13 3 12 4 10 5 11 6 9 8 8 9 7 10 4 11 5 12 88 13
REMARK SMILES IDX 6 14 87 15 2 16 1 17 3 20 82 21 83 22 86 23 84 24 85 25
REMARK SMILES IDX 16 26 17 27 18 28 19 29 20 30 21 32 22 33 23 34 81 35 24 36
REMARK SMILES IDX 80 37 25 38 26 39 27 40 74 41 28 42 79 43 73 44 75 45 29 46
REMARK SMILES IDX 78 47 72 48 71 49 30 51 60 52 41 53 59 54 42 55 45 56 58 57
REMARK SMILES IDX 76 58 43 59 44 60 57 62 77 63 46 64 31 65 32 66 40 67 33 68
REMARK SMILES IDX 39 69 34 70 35 71 36 72 37 73 38 74 61 75 62 76 70 77 63 78
REMARK SMILES IDX 69 79 64 80 65 81 66 82 67 83 68 84 47 85 48 86 56 87 49 88
REMARK SMILES IDX 55 89 50 90 51 91 52 92 53 93 54 94
REMARK H PARENT 12 7 1 18 1 19 19 31 75 50 45 61
REMARK Flexibility Score: inf
ROOT
ATOM      1  C   UNL A   1      33.755  26.532  23.910  1.00  0.00     0.002 C 
ENDROOT
BRANCH   1   2
ATOM      2  C   UNL A   1      33.479  25.348  22.977  1.00  0.00     0.021 C 
BRANCH   2   3
ATOM      3  C   UNL A   1      32.279  24.498  23.393  1.00  0.00     0.116 C 
BRANCH   3   4
ATOM      4  N   UNL A   1      32.100  23.372  22.496  1.00  0.00    -0.355 N 
ATOM      5  C   UNL A   1      32.082  22.041  22.802  1.00  0.00     0.239 C 
ATOM      6  O   UNL A   1      32.015  21.229  21.874  1.00  0.00    -0.273 OA
ATOM      7  H   UNL A   1      31.975  23.597  21.546  1.00  0.00     0.163 HD
BRANCH   5   8
ATOM      8  C   UNL A   1      32.121  21.582  24.268  1.00  0.00     0.218 C 
BRANCH   8   9
ATOM      9  N   UNL A   1      33.330  20.780  24.586  1.00  0.00    -0.343 N 
BRANCH   9  10
ATOM     10  C   UNL A   1      33.158  19.408  24.676  1.00  0.00     0.151 A 
ATOM     11  C   UNL A   1      32.917  16.657  25.079  1.00  0.00     0.150 A 
ATOM     12  C   UNL A   1      33.479  17.118  23.907  1.00  0.00     0.040 A 
ATOM     13  N   UNL A   1      32.452  17.517  25.997  1.00  0.00    -0.143 NA
ATOM     14  C   UNL A   1      33.585  18.502  23.710  1.00  0.00     0.051 A 
ATOM     15  N   UNL A   1      32.581  18.884  25.781  1.00  0.00    -0.132 NA
BRANCH  11  16
ATOM     16  C   UNL A   1      32.794  15.209  25.395  1.00  0.00     0.269 C 
ATOM     17  N   UNL A   1      31.547  14.728  25.704  1.00  0.00    -0.364 N 
ATOM     18  H   UNL A   1      31.426  13.775  25.918  1.00  0.00     0.160 HD
ATOM     19  H   UNL A   1      30.774  15.337  25.711  1.00  0.00     0.160 HD
ATOM     20  O   UNL A   1      33.761  14.450  25.369  1.00  0.00    -0.268 OA
ENDBRANCH  11  16
ENDBRANCH   9  10
BRANCH   9  21
ATOM     21  C   UNL A   1      34.601  21.518  24.582  1.00  0.00     0.084 C 
ATOM     22  C   UNL A   1      34.634  22.726  25.512  1.00  0.00     0.025 C 
ATOM     23  C   UNL A   1      35.822  20.664  24.924  1.00  0.00     0.025 C 
ATOM     24  C   UNL A   1      36.109  22.944  25.799  1.00  0.00     0.002 C 
ATOM     25  C   UNL A   1      36.771  21.574  25.700  1.00  0.00     0.002 C 
ENDBRANCH   9  21
ENDBRANCH   8   9
ENDBRANCH   5   8
ENDBRANCH   3   4
ENDBRANCH   2   3
ENDBRANCH   1   2
BRANCH   1  26
ATOM     26  C   UNL A   1      33.120  26.414  25.300  1.00  0.00     0.002 C 
BRANCH  26  27
ATOM     27  C   UNL A   1      32.889  27.745  26.024  1.00  0.00     0.021 C 
BRANCH  27  28
ATOM     28  C   UNL A   1      34.161  28.516  26.366  1.00  0.00     0.116 C 
BRANCH  28  29
ATOM     29  N   UNL A   1      33.890  29.913  26.656  1.00  0.00    -0.352 N 
ATOM     30  C   UNL A   1      34.502  30.759  27.546  1.00  0.00     0.251 C 
ATOM     31  H   UNL A   1      33.156  30.314  26.136  1.00  0.00     0.163 HD
ATOM     32  O   UNL A   1      33.992  31.848  27.795  1.00  0.00    -0.269 OA
BRANCH  30  33
ATOM     33  C   UNL A   1      35.763  30.363  28.211  1.00  0.00     0.039 A 
ATOM     34  C   UNL A   1      36.974  30.745  27.630  1.00  0.00     0.014 A 
ATOM     35  C   UNL A   1      35.761  29.589  29.376  1.00  0.00     0.014 A 
ATOM     36  C   UNL A   1      38.179  30.385  28.236  1.00  0.00     0.010 A 
ATOM     37  C   UNL A   1      36.962  29.290  30.018  1.00  0.00     0.010 A 
ATOM     38  C   UNL A   1      38.184  29.675  29.449  1.00  0.00    -0.014 A 
BRANCH  38  39
ATOM     39  C   UNL A   1      39.467  29.347  30.123  1.00  0.00     0.031 A 
ATOM     40  C   UNL A   1      39.896  30.079  31.366  1.00  0.00     0.074 A 
ATOM     41  C   UNL A   1      40.261  28.392  29.598  1.00  0.00     0.049 A 
ATOM     42  N   UNL A   1      40.952  29.884  32.114  1.00  0.00    -0.248 NA
ATOM     43  C   UNL A   1      39.040  31.189  31.817  1.00  0.00     0.031 C 
ATOM     44  C   UNL A   1      39.986  27.648  28.366  1.00  0.00     0.029 A 
ATOM     45  N   UNL A   1      41.451  27.873  30.041  1.00  0.00    -0.354 N 
ATOM     46  C   UNL A   1      40.892  30.844  33.117  1.00  0.00     0.074 A 
ATOM     47  C   UNL A   1      39.726  31.658  32.849  1.00  0.00     0.031 C 
ATOM     48  C   UNL A   1      40.955  26.738  28.178  1.00  0.00     0.029 A 
ATOM     49  C   UNL A   1      41.932  26.851  29.256  1.00  0.00     0.049 A 
ATOM     50  H   UNL A   1      41.917  28.202  30.843  1.00  0.00     0.167 HD
ATOM     51  C   UNL A   1      41.717  31.020  34.179  1.00  0.00     0.031 A 
ATOM     52  C   UNL A   1      43.025  26.080  29.396  1.00  0.00     0.031 A 
ATOM     53  C   UNL A   1      42.875  30.207  34.444  1.00  0.00     0.049 A 
ATOM     54  C   UNL A   1      43.915  26.279  30.591  1.00  0.00     0.074 A 
ATOM     55  C   UNL A   1      43.746  30.272  35.519  1.00  0.00     0.029 A 
ATOM     56  N   UNL A   1      43.326  29.180  33.629  1.00  0.00    -0.354 N 
ATOM     57  N   UNL A   1      43.801  27.149  31.567  1.00  0.00    -0.248 NA
ATOM     58  C   UNL A   1      45.068  25.378  30.713  1.00  0.00     0.031 C 
ATOM     59  C   UNL A   1      44.751  29.316  35.328  1.00  0.00     0.029 A 
ATOM     60  C   UNL A   1      44.474  28.617  34.164  1.00  0.00     0.049 A 
ATOM     61  H   UNL A   1      42.894  28.893  32.792  1.00  0.00     0.167 HD
ATOM     62  C   UNL A   1      44.857  26.883  32.433  1.00  0.00     0.074 A 
ATOM     63  C   UNL A   1      45.581  25.758  31.875  1.00  0.00     0.031 C 
ATOM     64  C   UNL A   1      45.196  27.512  33.586  1.00  0.00     0.031 A 
BRANCH  51  65
ATOM     65  C   UNL A   1      41.392  32.145  35.129  1.00  0.00    -0.014 A 
ATOM     66  C   UNL A   1      41.947  33.426  34.953  1.00  0.00     0.010 A 
ATOM     67  C   UNL A   1      40.503  31.928  36.196  1.00  0.00     0.010 A 
ATOM     68  C   UNL A   1      41.660  34.453  35.857  1.00  0.00     0.020 A 
ATOM     69  C   UNL A   1      40.189  32.961  37.085  1.00  0.00     0.020 A 
ATOM     70  C   UNL A   1      40.787  34.212  36.921  1.00  0.00     0.054 A 
BRANCH  70  71
ATOM     71  S   UNL A   1      40.426  35.564  38.075  1.00  0.00     0.124 S 
ATOM     72  O   UNL A   1      41.750  35.855  38.618  1.00  0.00    -0.237 OA
ATOM     73  O   UNL A   1      39.865  36.592  37.202  1.00  0.00    -0.237 OA
ATOM     74  O   UNL A   1      39.483  34.971  39.021  1.00  0.00    -0.744 OA
ENDBRANCH  70  71
ENDBRANCH  51  65
BRANCH  52  75
ATOM     75  C   UNL A   1      43.312  25.014  28.398  1.00  0.00    -0.014 A 
ATOM     76  C   UNL A   1      42.768  23.727  28.553  1.00  0.00     0.010 A 
ATOM     77  C   UNL A   1      44.112  25.288  27.273  1.00  0.00     0.010 A 
ATOM     78  C   UNL A   1      43.031  22.728  27.611  1.00  0.00     0.020 A 
ATOM     79  C   UNL A   1      44.355  24.300  26.315  1.00  0.00     0.020 A 
ATOM     80  C   UNL A   1      43.821  23.022  26.496  1.00  0.00     0.054 A 
BRANCH  80  81
ATOM     81  S   UNL A   1      44.100  21.729  25.256  1.00  0.00     0.124 S 
ATOM     82  O   UNL A   1      45.461  21.301  25.564  1.00  0.00    -0.237 OA
ATOM     83  O   UNL A   1      43.047  20.763  25.563  1.00  0.00    -0.237 OA
ATOM     84  O   UNL A   1      43.937  22.432  23.986  1.00  0.00    -0.744 OA
ENDBRANCH  80  81
ENDBRANCH  52  75
BRANCH  64  85
ATOM     85  C   UNL A   1      46.394  26.976  34.327  1.00  0.00    -0.014 A 
ATOM     86  C   UNL A   1      47.689  27.459  34.068  1.00  0.00     0.010 A 
ATOM     87  C   UNL A   1      46.218  25.972  35.297  1.00  0.00     0.010 A 
ATOM     88  C   UNL A   1      48.793  26.904  34.720  1.00  0.00     0.020 A 
ATOM     89  C   UNL A   1      47.317  25.436  35.974  1.00  0.00     0.020 A 
ATOM     90  C   UNL A   1      48.601  25.888  35.662  1.00  0.00     0.054 A 
BRANCH  90  91
ATOM     91  S   UNL A   1      50.048  25.177  36.490  1.00  0.00     0.124 S 
ATOM     92  O   UNL A   1      50.757  26.371  36.939  1.00  0.00    -0.237 OA
ATOM     93  O   UNL A   1      49.449  24.366  37.547  1.00  0.00    -0.237 OA
ATOM     94  O   UNL A   1      50.712  24.418  35.433  1.00  0.00    -0.744 OA
ENDBRANCH  90  91
ENDBRANCH  64  85
ENDBRANCH  38  39
ENDBRANCH  30  33
ENDBRANCH  28  29
ENDBRANCH  27  28
ENDBRANCH  26  27
ENDBRANCH   1  26
TORSDOF 20
ENDMDL
MODEL 3
REMARK VINA RESULT:     -10.3      1.440      8.279
REMARK SMILES NC(=O)c1ccc(N(CC(=O)NCCCCCCNC(=O)c2ccc(-c3c4nc(c(-c5ccc(S(=O)(=O)[O-])cc5)c5ccc([nH]5)c(-c5ccc(S(=O)(=O)[O-])cc5)c5nc(c(-c6ccc(S(=O)(=O)[O-])cc6)c6ccc3[nH]6)C=C5)C=C4)cc2)C2CCCC2)nn1
REMARK SMILES IDX 15 1 14 2 13 3 12 4 10 5 11 6 9 8 8 9 7 10 4 11 5 12 88 13
REMARK SMILES IDX 6 14 87 15 2 16 1 17 3 20 82 21 83 22 86 23 84 24 85 25
REMARK SMILES IDX 16 26 17 27 18 28 19 29 20 30 21 32 22 33 23 34 81 35 24 36
REMARK SMILES IDX 80 37 25 38 26 39 27 40 74 41 28 42 79 43 73 44 75 45 29 46
REMARK SMILES IDX 78 47 72 48 71 49 30 51 60 52 41 53 59 54 42 55 45 56 58 57
REMARK SMILES IDX 76 58 43 59 44 60 57 62 77 63 46 64 31 65 32 66 40 67 33 68
REMARK SMILES IDX 39 69 34 70 35 71 36 72 37 73 38 74 61 75 62 76 70 77 63 78
REMARK SMILES IDX 69 79 64 80 65 81 66 82 67 83 68 84 47 85 48 86 56 87 49 88
REMARK SMILES IDX 55 89 50 90 51 91 52 92 53 93 54 94
REMARK H PARENT 12 7 1 18 1 19 19 31 75 50 45 61
REMARK Flexibility Score: inf
ROOT
ATOM      1  C   UNL A   1      31.743  27.019  24.087  1.00  0.00     0.002 C 
ENDROOT
BRANCH   1   2
ATOM      2  C   UNL A   1      30.582  26.922  25.083  1.00  0.00     0.021 C 
BRANCH   2   3
ATOM      3  C   UNL A   1      29.988  25.519  25.206  1.00  0.00     0.116 C 
BRANCH   3   4
ATOM      4  N   UNL A   1      30.502  24.835  26.377  1.00  0.00    -0.355 N 
ATOM      5  C   UNL A   1      30.897  23.532  26.492  1.00  0.00     0.239 C 
ATOM      6  O   UNL A   1      31.213  23.113  27.609  1.00  0.00    -0.273 OA
ATOM      7  H   UNL A   1      30.575  25.379  27.194  1.00  0.00     0.163 HD
BRANCH   5   8
ATOM      8  C   UNL A   1      30.963  22.630  25.249  1.00  0.00     0.218 C 
BRANCH   8   9
ATOM      9  N   UNL A   1      32.311  22.046  25.035  1.00  0.00    -0.343 N 
BRANCH   9  10
ATOM     10  C   UNL A   1      32.370  20.673  24.855  1.00  0.00     0.151 A 
ATOM     11  C   UNL A   1      32.682  17.908  24.644  1.00  0.00     0.150 A 
ATOM     12  C   UNL A   1      32.581  18.663  23.494  1.00  0.00     0.040 A 
ATOM     13  N   UNL A   1      32.589  18.487  25.850  1.00  0.00    -0.143 NA
ATOM     14  C   UNL A   1      32.414  20.049  23.612  1.00  0.00     0.051 A 
ATOM     15  N   UNL A   1      32.436  19.865  25.937  1.00  0.00    -0.132 NA
BRANCH  11  16
ATOM     16  C   UNL A   1      32.897  16.436  24.622  1.00  0.00     0.269 C 
ATOM     17  N   UNL A   1      32.141  15.669  25.471  1.00  0.00    -0.364 N 
ATOM     18  H   UNL A   1      32.255  14.692  25.485  1.00  0.00     0.160 HD
ATOM     19  H   UNL A   1      31.484  16.097  26.066  1.00  0.00     0.160 HD
ATOM     20  O   UNL A   1      33.709  15.906  23.865  1.00  0.00    -0.268 OA
ENDBRANCH  11  16
ENDBRANCH   9  10
BRANCH   9  21
ATOM     21  C   UNL A   1      33.402  23.014  24.853  1.00  0.00     0.084 C 
ATOM     22  C   UNL A   1      34.664  22.702  25.652  1.00  0.00     0.025 C 
ATOM     23  C   UNL A   1      33.835  23.204  23.399  1.00  0.00     0.025 C 
ATOM     24  C   UNL A   1      35.775  23.410  24.896  1.00  0.00     0.002 C 
ATOM     25  C   UNL A   1      35.342  23.449  23.435  1.00  0.00     0.002 C 
ENDBRANCH   9  21
ENDBRANCH   8   9
ENDBRANCH   5   8
ENDBRANCH   3   4
ENDBRANCH   2   3
ENDBRANCH   1   2
BRANCH   1  26
ATOM     26  C   UNL A   1      33.106  26.600  24.648  1.00  0.00     0.002 C 
BRANCH  26  27
ATOM     27  C   UNL A   1      33.439  27.166  26.033  1.00  0.00     0.021 C 
BRANCH  27  28
ATOM     28  C   UNL A   1      34.489  28.273  26.037  1.00  0.00     0.116 C 
BRANCH  28  29
ATOM     29  N   UNL A   1      34.033  29.454  26.748  1.00  0.00    -0.352 N 
ATOM     30  C   UNL A   1      34.641  30.164  27.753  1.00  0.00     0.251 C 
ATOM     31  H   UNL A   1      33.154  29.799  26.467  1.00  0.00     0.163 HD
ATOM     32  O   UNL A   1      34.001  31.011  28.368  1.00  0.00    -0.269 OA
BRANCH  30  33
ATOM     33  C   UNL A   1      36.055  29.905  28.103  1.00  0.00     0.039 A 
ATOM     34  C   UNL A   1      36.356  29.483  29.400  1.00  0.00     0.014 A 
ATOM     35  C   UNL A   1      37.084  30.112  27.179  1.00  0.00     0.014 A 
ATOM     36  C   UNL A   1      37.682  29.231  29.758  1.00  0.00     0.010 A 
ATOM     37  C   UNL A   1      38.400  29.794  27.516  1.00  0.00     0.010 A 
ATOM     38  C   UNL A   1      38.714  29.360  28.812  1.00  0.00    -0.014 A 
BRANCH  38  39
ATOM     39  C   UNL A   1      40.115  29.033  29.180  1.00  0.00     0.031 A 
ATOM     40  C   UNL A   1      40.713  27.696  28.831  1.00  0.00     0.074 A 
ATOM     41  C   UNL A   1      40.850  29.943  29.851  1.00  0.00     0.049 A 
ATOM     42  N   UNL A   1      41.934  27.265  29.022  1.00  0.00    -0.248 NA
ATOM     43  C   UNL A   1      39.820  26.708  28.205  1.00  0.00     0.031 C 
ATOM     44  C   UNL A   1      40.370  31.253  30.298  1.00  0.00     0.029 A 
ATOM     45  N   UNL A   1      42.159  29.911  30.261  1.00  0.00    -0.354 N 
ATOM     46  C   UNL A   1      41.955  25.959  28.547  1.00  0.00     0.074 A 
ATOM     47  C   UNL A   1      40.611  25.649  28.111  1.00  0.00     0.031 C 
ATOM     48  C   UNL A   1      41.382  31.917  30.878  1.00  0.00     0.029 A 
ATOM     49  C   UNL A   1      42.573  31.073  30.869  1.00  0.00     0.049 A 
ATOM     50  H   UNL A   1      42.745  29.132  30.132  1.00  0.00     0.167 HD
ATOM     51  C   UNL A   1      43.003  25.102  28.459  1.00  0.00     0.031 A 
ATOM     52  C   UNL A   1      43.778  31.429  31.352  1.00  0.00     0.031 A 
ATOM     53  C   UNL A   1      44.340  25.413  28.892  1.00  0.00     0.049 A 
ATOM     54  C   UNL A   1      44.929  30.469  31.226  1.00  0.00     0.074 A 
ATOM     55  C   UNL A   1      45.480  24.632  28.800  1.00  0.00     0.029 A 
ATOM     56  N   UNL A   1      44.719  26.601  29.499  1.00  0.00    -0.354 N 
ATOM     57  N   UNL A   1      44.944  29.264  30.708  1.00  0.00    -0.248 NA
ATOM     58  C   UNL A   1      46.229  30.930  31.729  1.00  0.00     0.031 C 
ATOM     59  C   UNL A   1      46.538  25.329  29.396  1.00  0.00     0.029 A 
ATOM     60  C   UNL A   1      46.070  26.567  29.807  1.00  0.00     0.049 A 
ATOM     61  H   UNL A   1      44.117  27.357  29.685  1.00  0.00     0.167 HD
ATOM     62  C   UNL A   1      46.262  28.830  30.803  1.00  0.00     0.074 A 
ATOM     63  C   UNL A   1      47.015  29.913  31.406  1.00  0.00     0.031 C 
ATOM     64  C   UNL A   1      46.802  27.643  30.426  1.00  0.00     0.031 A 
BRANCH  51  65
ATOM     65  C   UNL A   1      42.733  23.738  27.875  1.00  0.00    -0.014 A 
ATOM     66  C   UNL A   1      42.395  22.649  28.700  1.00  0.00     0.010 A 
ATOM     67  C   UNL A   1      42.795  23.546  26.483  1.00  0.00     0.010 A 
ATOM     68  C   UNL A   1      42.174  21.384  28.148  1.00  0.00     0.020 A 
ATOM     69  C   UNL A   1      42.545  22.288  25.925  1.00  0.00     0.020 A 
ATOM     70  C   UNL A   1      42.257  21.210  26.763  1.00  0.00     0.054 A 
BRANCH  70  71
ATOM     71  S   UNL A   1      41.960  19.559  26.074  1.00  0.00     0.124 S 
ATOM     72  O   UNL A   1      40.531  19.612  25.775  1.00  0.00    -0.237 OA
ATOM     73  O   UNL A   1      42.844  19.532  24.911  1.00  0.00    -0.237 OA
ATOM     74  O   UNL A   1      42.335  18.657  27.159  1.00  0.00    -0.744 OA
ENDBRANCH  70  71
ENDBRANCH  51  65
BRANCH  52  75
ATOM     75  C   UNL A   1      43.966  32.775  31.956  1.00  0.00    -0.014 A 
ATOM     76  C   UNL A   1      43.826  32.960  33.342  1.00  0.00     0.010 A 
ATOM     77  C   UNL A   1      44.311  33.875  31.149  1.00  0.00     0.010 A 
ATOM     78  C   UNL A   1      44.011  34.224  33.910  1.00  0.00     0.020 A 
ATOM     79  C   UNL A   1      44.523  35.135  31.717  1.00  0.00     0.020 A 
ATOM     80  C   UNL A   1      44.361  35.303  33.094  1.00  0.00     0.054 A 
BRANCH  80  81
ATOM     81  S   UNL A   1      44.655  36.921  33.859  1.00  0.00     0.124 S 
ATOM     82  O   UNL A   1      43.526  37.701  33.363  1.00  0.00    -0.237 OA
ATOM     83  O   UNL A   1      44.629  36.605  35.286  1.00  0.00    -0.237 OA
ATOM     84  O   UNL A   1      45.964  37.311  33.341  1.00  0.00    -0.744 OA
ENDBRANCH  80  81
ENDBRANCH  52  75
BRANCH  64  85
ATOM     85  C   UNL A   1      48.283  27.471  30.637  1.00  0.00    -0.014 A 
ATOM     86  C   UNL A   1      48.788  26.831  31.783  1.00  0.00     0.010 A 
ATOM     87  C   UNL A   1      49.184  27.960  29.673  1.00  0.00     0.010 A 
ATOM     88  C   UNL A   1      50.166  26.737  31.990  1.00  0.00     0.020 A 
ATOM     89  C   UNL A   1      50.563  27.842  29.862  1.00  0.00     0.020 A 
ATOM     90  C   UNL A   1      51.046  27.253  31.033  1.00  0.00     0.054 A 
BRANCH  90  91
ATOM     91  S   UNL A   1      52.831  27.130  31.327  1.00  0.00     0.124 S 
ATOM     92  O   UNL A   1      52.898  26.085  32.344  1.00  0.00    -0.237 OA
ATOM     93  O   UNL A   1      53.350  26.761  30.012  1.00  0.00    -0.237 OA
ATOM     94  O   UNL A   1      53.199  28.469  31.782  1.00  0.00    -0.744 OA
ENDBRANCH  90  91
ENDBRANCH  64  85
ENDBRANCH  38  39
ENDBRANCH  30  33
ENDBRANCH  28  29
ENDBRANCH  27  28
ENDBRANCH  26  27
ENDBRANCH   1  26
TORSDOF 20
ENDMDL
