MODEL 1
REMARK VINA RESULT:     -10.2      0.000      0.000
REMARK SMILES CC(C)[C@H]([NH2+][C@H]1CCCS[C@H]1C)C(=O)NCCCCCCNC(=O)c1ccc(-c2c3nc(c(-c4ccc(S(=O)(=O)[O-])cc4)c4ccc([nH]4)c(-c4ccc(S(=O)(=O)[O-])cc4)c4nc(c(-c5ccc(S(=O)(=O)[O-])cc5)c5ccc2[nH]5)C=C4)C=C3)cc1
REMARK SMILES IDX 19 1 18 2 17 3 16 4 15 5 13 6 14 7 4 9 2 10 1 11 3 12 5 13
REMARK SMILES IDX 6 16 7 17 11 18 8 19 10 20 12 21 9 22 20 23 21 24 22 25
REMARK SMILES IDX 23 26 24 28 25 29 26 30 84 31 27 32 83 33 28 34 29 35 30 36
REMARK SMILES IDX 77 37 31 38 82 39 76 40 78 41 32 42 81 43 75 44 74 45 33 47
REMARK SMILES IDX 63 48 44 49 62 50 45 51 48 52 61 53 79 54 46 55 47 56 60 58
REMARK SMILES IDX 80 59 49 60 34 61 35 62 43 63 36 64 42 65 37 66 38 67 39 68
REMARK SMILES IDX 40 69 41 70 64 71 65 72 73 73 66 74 72 75 67 76 68 77 69 78
REMARK SMILES IDX 70 79 71 80 50 81 51 82 59 83 52 84 58 85 53 86 54 87 55 88
REMARK SMILES IDX 56 89 57 90
REMARK H PARENT 15 8 5 14 5 15 22 27 78 46 48 57
REMARK Flexibility Score: inf
ROOT
ATOM      1  C   UNL A   1      36.373  23.710  25.205  1.00  0.00     0.002 C 
ENDROOT
BRANCH   1   2
ATOM      2  C   UNL A   1      36.121  23.101  23.821  1.00  0.00     0.002 C 
BRANCH   2   3
ATOM      3  C   UNL A   1      34.650  22.914  23.441  1.00  0.00     0.021 C 
BRANCH   3   4
ATOM      4  C   UNL A   1      33.926  24.204  23.086  1.00  0.00     0.116 C 
BRANCH   4   5
ATOM      5  N   UNL A   1      32.519  24.001  22.827  1.00  0.00    -0.351 N 
ATOM      6  C   UNL A   1      31.432  24.098  23.641  1.00  0.00     0.278 C 
ATOM      7  O   UNL A   1      30.328  23.943  23.104  1.00  0.00    -0.268 OA
ATOM      8  H   UNL A   1      32.309  23.750  21.898  1.00  0.00     0.163 HD
BRANCH   6   9
ATOM      9  C   UNL A   1      31.518  24.427  25.158  1.00  0.00     0.275 C 
BRANCH   9  10
ATOM     10  C   UNL A   1      31.561  23.161  26.061  1.00  0.00     0.051 C 
ATOM     11  C   UNL A   1      32.747  23.007  27.006  1.00  0.00     0.014 C 
ATOM     12  C   UNL A   1      30.255  23.032  26.857  1.00  0.00     0.014 C 
ENDBRANCH   9  10
BRANCH   9  13
ATOM     13  N   UNL A   1      30.567  25.508  25.497  1.00  0.00    -0.332 N 
ATOM     14  H   UNL A   1      30.072  25.209  26.337  1.00  0.00     0.347 HD
ATOM     15  H   UNL A   1      30.025  25.615  24.641  1.00  0.00     0.347 HD
BRANCH  13  16
ATOM     16  C   UNL A   1      31.058  26.882  25.757  1.00  0.00     0.195 C 
ATOM     17  C   UNL A   1      32.316  26.853  26.645  1.00  0.00     0.067 C 
ATOM     18  C   UNL A   1      31.118  27.902  24.570  1.00  0.00     0.101 C 
ATOM     19  C   UNL A   1      32.713  28.208  27.218  1.00  0.00     0.017 C 
ATOM     20  S   UNL A   1      31.534  29.595  25.183  1.00  0.00    -0.153 SA
ATOM     21  C   UNL A   1      32.072  27.593  23.416  1.00  0.00     0.026 C 
ATOM     22  C   UNL A   1      33.035  29.207  26.123  1.00  0.00     0.070 C 
ENDBRANCH  13  16
ENDBRANCH   9  13
ENDBRANCH   6   9
ENDBRANCH   4   5
ENDBRANCH   3   4
ENDBRANCH   2   3
ENDBRANCH   1   2
BRANCH   1  23
ATOM     23  C   UNL A   1      37.641  23.231  25.916  1.00  0.00     0.021 C 
BRANCH  23  24
ATOM     24  C   UNL A   1      38.460  24.333  26.573  1.00  0.00     0.116 C 
BRANCH  24  25
ATOM     25  N   UNL A   1      39.808  24.405  26.036  1.00  0.00    -0.352 N 
ATOM     26  C   UNL A   1      40.801  25.306  26.322  1.00  0.00     0.251 C 
ATOM     27  H   UNL A   1      40.041  23.712  25.377  1.00  0.00     0.163 HD
ATOM     28  O   UNL A   1      41.819  25.343  25.636  1.00  0.00    -0.269 OA
BRANCH  26  29
ATOM     29  C   UNL A   1      40.622  26.247  27.446  1.00  0.00     0.039 A 
ATOM     30  C   UNL A   1      39.730  25.918  28.469  1.00  0.00     0.014 A 
ATOM     31  C   UNL A   1      41.346  27.441  27.495  1.00  0.00     0.014 A 
ATOM     32  C   UNL A   1      39.603  26.766  29.569  1.00  0.00     0.010 A 
ATOM     33  C   UNL A   1      41.278  28.243  28.629  1.00  0.00     0.010 A 
ATOM     34  C   UNL A   1      40.400  27.918  29.674  1.00  0.00    -0.014 A 
BRANCH  34  35
ATOM     35  C   UNL A   1      40.325  28.800  30.865  1.00  0.00     0.031 A 
ATOM     36  C   UNL A   1      39.318  29.919  30.911  1.00  0.00     0.074 A 
ATOM     37  C   UNL A   1      41.198  28.631  31.877  1.00  0.00     0.049 A 
ATOM     38  N   UNL A   1      39.138  30.827  31.835  1.00  0.00    -0.248 NA
ATOM     39  C   UNL A   1      38.414  30.049  29.756  1.00  0.00     0.031 C 
ATOM     40  C   UNL A   1      42.241  27.604  31.933  1.00  0.00     0.029 A 
ATOM     41  N   UNL A   1      41.354  29.324  33.050  1.00  0.00    -0.354 N 
ATOM     42  C   UNL A   1      38.113  31.641  31.368  1.00  0.00     0.074 A 
ATOM     43  C   UNL A   1      37.750  31.156  30.056  1.00  0.00     0.031 C 
ATOM     44  C   UNL A   1      42.905  27.714  33.094  1.00  0.00     0.029 A 
ATOM     45  C   UNL A   1      42.371  28.847  33.843  1.00  0.00     0.049 A 
ATOM     46  H   UNL A   1      40.788  30.090  33.303  1.00  0.00     0.167 HD
ATOM     47  C   UNL A   1      37.513  32.687  31.985  1.00  0.00     0.031 A 
ATOM     48  C   UNL A   1      42.832  29.279  35.033  1.00  0.00     0.031 A 
ATOM     49  C   UNL A   1      37.878  33.165  33.292  1.00  0.00     0.049 A 
ATOM     50  C   UNL A   1      42.169  30.462  35.686  1.00  0.00     0.074 A 
ATOM     51  C   UNL A   1      37.302  34.186  34.027  1.00  0.00     0.029 A 
ATOM     52  N   UNL A   1      38.917  32.657  34.060  1.00  0.00    -0.354 N 
ATOM     53  N   UNL A   1      41.159  31.181  35.257  1.00  0.00    -0.248 NA
ATOM     54  C   UNL A   1      42.703  30.886  36.987  1.00  0.00     0.031 C 
ATOM     55  C   UNL A   1      38.032  34.337  35.210  1.00  0.00     0.029 A 
ATOM     56  C   UNL A   1      39.018  33.364  35.246  1.00  0.00     0.049 A 
ATOM     57  H   UNL A   1      39.497  31.905  33.799  1.00  0.00     0.167 HD
ATOM     58  C   UNL A   1      40.916  32.123  36.251  1.00  0.00     0.074 A 
ATOM     59  C   UNL A   1      41.876  31.873  37.307  1.00  0.00     0.031 C 
ATOM     60  C   UNL A   1      39.980  33.103  36.288  1.00  0.00     0.031 A 
BRANCH  47  61
ATOM     61  C   UNL A   1      36.408  33.394  31.243  1.00  0.00    -0.014 A 
ATOM     62  C   UNL A   1      35.133  33.556  31.817  1.00  0.00     0.010 A 
ATOM     63  C   UNL A   1      36.655  33.935  29.968  1.00  0.00     0.010 A 
ATOM     64  C   UNL A   1      34.114  34.202  31.111  1.00  0.00     0.020 A 
ATOM     65  C   UNL A   1      35.648  34.610  29.272  1.00  0.00     0.020 A 
ATOM     66  C   UNL A   1      34.379  34.723  29.841  1.00  0.00     0.054 A 
BRANCH  66  67
ATOM     67  S   UNL A   1      33.041  35.570  28.956  1.00  0.00     0.124 S 
ATOM     68  O   UNL A   1      32.455  34.478  28.181  1.00  0.00    -0.237 OA
ATOM     69  O   UNL A   1      32.214  36.083  30.043  1.00  0.00    -0.237 OA
ATOM     70  O   UNL A   1      33.735  36.587  28.169  1.00  0.00    -0.744 OA
ENDBRANCH  66  67
ENDBRANCH  47  61
BRANCH  48  71
ATOM     71  C   UNL A   1      43.970  28.578  35.688  1.00  0.00    -0.014 A 
ATOM     72  C   UNL A   1      43.741  27.495  36.554  1.00  0.00     0.010 A 
ATOM     73  C   UNL A   1      45.295  28.981  35.434  1.00  0.00     0.010 A 
ATOM     74  C   UNL A   1      44.813  26.839  37.168  1.00  0.00     0.020 A 
ATOM     75  C   UNL A   1      46.370  28.308  36.021  1.00  0.00     0.020 A 
ATOM     76  C   UNL A   1      46.121  27.247  36.894  1.00  0.00     0.054 A 
BRANCH  76  77
ATOM     77  S   UNL A   1      47.497  26.347  37.659  1.00  0.00     0.124 S 
ATOM     78  O   UNL A   1      46.940  25.005  37.804  1.00  0.00    -0.237 OA
ATOM     79  O   UNL A   1      48.557  26.490  36.663  1.00  0.00    -0.237 OA
ATOM     80  O   UNL A   1      47.726  27.068  38.909  1.00  0.00    -0.744 OA
ENDBRANCH  76  77
ENDBRANCH  48  71
BRANCH  60  81
ATOM     81  C   UNL A   1      39.918  33.960  37.525  1.00  0.00    -0.014 A 
ATOM     82  C   UNL A   1      40.606  35.183  37.606  1.00  0.00     0.010 A 
ATOM     83  C   UNL A   1      39.099  33.562  38.599  1.00  0.00     0.010 A 
ATOM     84  C   UNL A   1      40.498  35.979  38.749  1.00  0.00     0.020 A 
ATOM     85  C   UNL A   1      38.963  34.371  39.730  1.00  0.00     0.020 A 
ATOM     86  C   UNL A   1      39.675  35.569  39.802  1.00  0.00     0.054 A 
BRANCH  86  87
ATOM     87  S   UNL A   1      39.510  36.649  41.251  1.00  0.00     0.124 S 
ATOM     88  O   UNL A   1      40.892  36.755  41.711  1.00  0.00    -0.237 OA
ATOM     89  O   UNL A   1      38.944  37.868  40.677  1.00  0.00    -0.237 OA
ATOM     90  O   UNL A   1      38.614  35.909  42.136  1.00  0.00    -0.744 OA
ENDBRANCH  86  87
ENDBRANCH  60  81
ENDBRANCH  34  35
ENDBRANCH  26  29
ENDBRANCH  24  25
ENDBRANCH  23  24
ENDBRANCH   1  23
TORSDOF 19
ENDMDL
MODEL 2
REMARK VINA RESULT:     -10.2      1.655      8.607
REMARK SMILES CC(C)[C@H]([NH2+][C@H]1CCCS[C@H]1C)C(=O)NCCCCCCNC(=O)c1ccc(-c2c3nc(c(-c4ccc(S(=O)(=O)[O-])cc4)c4ccc([nH]4)c(-c4ccc(S(=O)(=O)[O-])cc4)c4nc(c(-c5ccc(S(=O)(=O)[O-])cc5)c5ccc2[nH]5)C=C4)C=C3)cc1
REMARK SMILES IDX 19 1 18 2 17 3 16 4 15 5 13 6 14 7 4 9 2 10 1 11 3 12 5 13
REMARK SMILES IDX 6 16 7 17 11 18 8 19 10 20 12 21 9 22 20 23 21 24 22 25
REMARK SMILES IDX 23 26 24 28 25 29 26 30 84 31 27 32 83 33 28 34 29 35 30 36
REMARK SMILES IDX 77 37 31 38 82 39 76 40 78 41 32 42 81 43 75 44 74 45 33 47
REMARK SMILES IDX 63 48 44 49 62 50 45 51 48 52 61 53 79 54 46 55 47 56 60 58
REMARK SMILES IDX 80 59 49 60 34 61 35 62 43 63 36 64 42 65 37 66 38 67 39 68
REMARK SMILES IDX 40 69 41 70 64 71 65 72 73 73 66 74 72 75 67 76 68 77 69 78
REMARK SMILES IDX 70 79 71 80 50 81 51 82 59 83 52 84 58 85 53 86 54 87 55 88
REMARK SMILES IDX 56 89 57 90
REMARK H PARENT 15 8 5 14 5 15 22 27 78 46 48 57
REMARK Flexibility Score: inf
ROOT
ATOM      1  C   UNL A   1      38.269  23.793  26.167  1.00  0.00     0.002 C 
ENDROOT
BRANCH   1   2
ATOM      2  C   UNL A   1      36.940  23.272  25.606  1.00  0.00     0.002 C 
BRANCH   2   3
ATOM      3  C   UNL A   1      37.053  22.124  24.600  1.00  0.00     0.021 C 
BRANCH   3   4
ATOM      4  C   UNL A   1      36.265  20.878  24.980  1.00  0.00     0.116 C 
BRANCH   4   5
ATOM      5  N   UNL A   1      35.387  21.095  26.107  1.00  0.00    -0.351 N 
ATOM      6  C   UNL A   1      34.033  21.012  26.220  1.00  0.00     0.278 C 
ATOM      7  O   UNL A   1      33.565  21.178  27.353  1.00  0.00    -0.268 OA
ATOM      8  H   UNL A   1      35.849  21.346  26.940  1.00  0.00     0.163 HD
BRANCH   6   9
ATOM      9  C   UNL A   1      33.087  20.687  25.029  1.00  0.00     0.275 C 
BRANCH   9  10
ATOM     10  C   UNL A   1      33.217  19.221  24.522  1.00  0.00     0.051 C 
ATOM     11  C   UNL A   1      32.822  18.105  25.482  1.00  0.00     0.014 C 
ATOM     12  C   UNL A   1      32.458  19.049  23.199  1.00  0.00     0.014 C 
ENDBRANCH   9  10
BRANCH   9  13
ATOM     13  N   UNL A   1      33.122  21.785  24.039  1.00  0.00    -0.332 N 
ATOM     14  H   UNL A   1      32.359  21.615  23.385  1.00  0.00     0.347 HD
ATOM     15  H   UNL A   1      34.074  21.739  23.678  1.00  0.00     0.347 HD
BRANCH  13  16
ATOM     16  C   UNL A   1      32.999  23.194  24.481  1.00  0.00     0.195 C 
ATOM     17  C   UNL A   1      33.976  24.097  23.704  1.00  0.00     0.067 C 
ATOM     18  C   UNL A   1      31.570  23.801  24.687  1.00  0.00     0.101 C 
ATOM     19  C   UNL A   1      34.145  25.492  24.293  1.00  0.00     0.017 C 
ATOM     20  S   UNL A   1      31.676  25.478  25.458  1.00  0.00    -0.153 SA
ATOM     21  C   UNL A   1      30.668  23.926  23.458  1.00  0.00     0.026 C 
ATOM     22  C   UNL A   1      32.836  26.259  24.305  1.00  0.00     0.070 C 
ENDBRANCH  13  16
ENDBRANCH   9  13
ENDBRANCH   6   9
ENDBRANCH   4   5
ENDBRANCH   3   4
ENDBRANCH   2   3
ENDBRANCH   1   2
BRANCH   1  23
ATOM     23  C   UNL A   1      39.304  22.720  26.514  1.00  0.00     0.021 C 
BRANCH  23  24
ATOM     24  C   UNL A   1      40.629  23.258  27.036  1.00  0.00     0.116 C 
BRANCH  24  25
ATOM     25  N   UNL A   1      41.380  23.953  26.005  1.00  0.00    -0.352 N 
ATOM     26  C   UNL A   1      41.796  25.259  25.977  1.00  0.00     0.251 C 
ATOM     27  H   UNL A   1      41.625  23.412  25.220  1.00  0.00     0.163 HD
ATOM     28  O   UNL A   1      42.254  25.739  24.943  1.00  0.00    -0.269 OA
BRANCH  26  29
ATOM     29  C   UNL A   1      41.665  26.087  27.192  1.00  0.00     0.039 A 
ATOM     30  C   UNL A   1      42.580  27.118  27.411  1.00  0.00     0.014 A 
ATOM     31  C   UNL A   1      40.632  25.852  28.104  1.00  0.00     0.014 A 
ATOM     32  C   UNL A   1      42.426  27.950  28.520  1.00  0.00     0.010 A 
ATOM     33  C   UNL A   1      40.433  26.730  29.163  1.00  0.00     0.010 A 
ATOM     34  C   UNL A   1      41.334  27.783  29.387  1.00  0.00    -0.014 A 
BRANCH  34  35
ATOM     35  C   UNL A   1      41.118  28.695  30.538  1.00  0.00     0.031 A 
ATOM     36  C   UNL A   1      41.962  28.556  31.777  1.00  0.00     0.074 A 
ATOM     37  C   UNL A   1      40.127  29.607  30.489  1.00  0.00     0.049 A 
ATOM     38  N   UNL A   1      41.886  29.218  32.902  1.00  0.00    -0.248 NA
ATOM     39  C   UNL A   1      43.009  27.522  31.757  1.00  0.00     0.031 C 
ATOM     40  C   UNL A   1      39.221  29.814  29.357  1.00  0.00     0.029 A 
ATOM     41  N   UNL A   1      39.711  30.526  31.418  1.00  0.00    -0.354 N 
ATOM     42  C   UNL A   1      42.864  28.673  33.726  1.00  0.00     0.074 A 
ATOM     43  C   UNL A   1      43.479  27.589  32.994  1.00  0.00     0.031 C 
ATOM     44  C   UNL A   1      38.378  30.819  29.646  1.00  0.00     0.029 A 
ATOM     45  C   UNL A   1      38.649  31.294  31.000  1.00  0.00     0.049 A 
ATOM     46  H   UNL A   1      40.133  30.629  32.302  1.00  0.00     0.167 HD
ATOM     47  C   UNL A   1      43.230  29.053  34.974  1.00  0.00     0.031 A 
ATOM     48  C   UNL A   1      37.963  32.263  31.636  1.00  0.00     0.031 A 
ATOM     49  C   UNL A   1      42.614  30.134  35.697  1.00  0.00     0.049 A 
ATOM     50  C   UNL A   1      38.369  32.648  33.032  1.00  0.00     0.074 A 
ATOM     51  C   UNL A   1      42.943  30.630  36.946  1.00  0.00     0.029 A 
ATOM     52  N   UNL A   1      41.539  30.883  35.239  1.00  0.00    -0.354 N 
ATOM     53  N   UNL A   1      39.337  32.163  33.772  1.00  0.00    -0.248 NA
ATOM     54  C   UNL A   1      37.595  33.718  33.676  1.00  0.00     0.031 C 
ATOM     55  C   UNL A   1      42.027  31.636  37.270  1.00  0.00     0.029 A 
ATOM     56  C   UNL A   1      41.173  31.817  36.193  1.00  0.00     0.049 A 
ATOM     57  H   UNL A   1      41.102  30.767  34.364  1.00  0.00     0.167 HD
ATOM     58  C   UNL A   1      39.309  32.890  34.957  1.00  0.00     0.074 A 
ATOM     59  C   UNL A   1      38.236  33.855  34.829  1.00  0.00     0.031 C 
ATOM     60  C   UNL A   1      40.102  32.772  36.051  1.00  0.00     0.031 A 
BRANCH  47  61
ATOM     61  C   UNL A   1      44.342  28.283  35.639  1.00  0.00    -0.014 A 
ATOM     62  C   UNL A   1      44.072  27.143  36.420  1.00  0.00     0.010 A 
ATOM     63  C   UNL A   1      45.678  28.682  35.456  1.00  0.00     0.010 A 
ATOM     64  C   UNL A   1      45.112  26.447  37.042  1.00  0.00     0.020 A 
ATOM     65  C   UNL A   1      46.724  27.970  36.050  1.00  0.00     0.020 A 
ATOM     66  C   UNL A   1      46.432  26.868  36.854  1.00  0.00     0.054 A 
BRANCH  66  67
ATOM     67  S   UNL A   1      47.762  25.936  37.662  1.00  0.00     0.124 S 
ATOM     68  O   UNL A   1      47.330  25.943  39.058  1.00  0.00    -0.237 OA
ATOM     69  O   UNL A   1      47.697  24.640  36.991  1.00  0.00    -0.237 OA
ATOM     70  O   UNL A   1      48.960  26.723  37.377  1.00  0.00    -0.744 OA
ENDBRANCH  66  67
ENDBRANCH  47  61
BRANCH  48  71
ATOM     71  C   UNL A   1      36.832  32.945  30.949  1.00  0.00    -0.014 A 
ATOM     72  C   UNL A   1      37.027  33.588  29.713  1.00  0.00     0.010 A 
ATOM     73  C   UNL A   1      35.545  32.941  31.520  1.00  0.00     0.010 A 
ATOM     74  C   UNL A   1      35.961  34.227  29.072  1.00  0.00     0.020 A 
ATOM     75  C   UNL A   1      34.472  33.552  30.867  1.00  0.00     0.020 A 
ATOM     76  C   UNL A   1      34.690  34.201  29.650  1.00  0.00     0.054 A 
BRANCH  76  77
ATOM     77  S   UNL A   1      33.313  34.991  28.772  1.00  0.00     0.124 S 
ATOM     78  O   UNL A   1      32.332  35.166  29.840  1.00  0.00    -0.237 OA
ATOM     79  O   UNL A   1      33.926  36.218  28.267  1.00  0.00    -0.237 OA
ATOM     80  O   UNL A   1      32.955  34.014  27.747  1.00  0.00    -0.744 OA
ENDBRANCH  76  77
ENDBRANCH  48  71
BRANCH  60  81
ATOM     81  C   UNL A   1      39.870  33.733  37.187  1.00  0.00    -0.014 A 
ATOM     82  C   UNL A   1      39.081  33.381  38.296  1.00  0.00     0.010 A 
ATOM     83  C   UNL A   1      40.509  34.987  37.171  1.00  0.00     0.010 A 
ATOM     84  C   UNL A   1      38.915  34.276  39.356  1.00  0.00     0.020 A 
ATOM     85  C   UNL A   1      40.373  35.871  38.244  1.00  0.00     0.020 A 
ATOM     86  C   UNL A   1      39.565  35.514  39.324  1.00  0.00     0.054 A 
BRANCH  86  87
ATOM     87  S   UNL A   1      39.376  36.634  40.739  1.00  0.00     0.124 S 
ATOM     88  O   UNL A   1      38.271  36.019  41.469  1.00  0.00    -0.237 OA
ATOM     89  O   UNL A   1      40.683  36.550  41.388  1.00  0.00    -0.237 OA
ATOM     90  O   UNL A   1      39.075  37.924  40.123  1.00  0.00    -0.744 OA
ENDBRANCH  86  87
ENDBRANCH  60  81
ENDBRANCH  34  35
ENDBRANCH  26  29
ENDBRANCH  24  25
ENDBRANCH  23  24
ENDBRANCH   1  23
TORSDOF 19
ENDMDL
MODEL 3
REMARK VINA RESULT:     -10.2      0.588      8.387
REMARK SMILES CC(C)[C@H]([NH2+][C@H]1CCCS[C@H]1C)C(=O)NCCCCCCNC(=O)c1ccc(-c2c3nc(c(-c4ccc(S(=O)(=O)[O-])cc4)c4ccc([nH]4)c(-c4ccc(S(=O)(=O)[O-])cc4)c4nc(c(-c5ccc(S(=O)(=O)[O-])cc5)c5ccc2[nH]5)C=C4)C=C3)cc1
REMARK SMILES IDX 19 1 18 2 17 3 16 4 15 5 13 6 14 7 4 9 2 10 1 11 3 12 5 13
REMARK SMILES IDX 6 16 7 17 11 18 8 19 10 20 12 21 9 22 20 23 21 24 22 25
REMARK SMILES IDX 23 26 24 28 25 29 26 30 84 31 27 32 83 33 28 34 29 35 30 36
REMARK SMILES IDX 77 37 31 38 82 39 76 40 78 41 32 42 81 43 75 44 74 45 33 47
REMARK SMILES IDX 63 48 44 49 62 50 45 51 48 52 61 53 79 54 46 55 47 56 60 58
REMARK SMILES IDX 80 59 49 60 34 61 35 62 43 63 36 64 42 65 37 66 38 67 39 68
REMARK SMILES IDX 40 69 41 70 64 71 65 72 73 73 66 74 72 75 67 76 68 77 69 78
REMARK SMILES IDX 70 79 71 80 50 81 51 82 59 83 52 84 58 85 53 86 54 87 55 88
REMARK SMILES IDX 56 89 57 90
REMARK H PARENT 15 8 5 14 5 15 22 27 78 46 48 57
REMARK Flexibility Score: inf
ROOT
ATOM      1  C   UNL A   1      37.478  22.618  25.074  1.00  0.00     0.002 C 
ENDROOT
BRANCH   1   2
ATOM      2  C   UNL A   1      36.721  22.700  23.743  1.00  0.00     0.002 C 
BRANCH   2   3
ATOM      3  C   UNL A   1      35.196  22.760  23.854  1.00  0.00     0.021 C 
BRANCH   3   4
ATOM      4  C   UNL A   1      34.591  24.098  23.454  1.00  0.00     0.116 C 
BRANCH   4   5
ATOM      5  N   UNL A   1      33.213  23.985  23.037  1.00  0.00    -0.351 N 
ATOM      6  C   UNL A   1      32.052  24.037  23.747  1.00  0.00     0.278 C 
ATOM      7  O   UNL A   1      31.004  23.989  23.092  1.00  0.00    -0.268 OA
ATOM      8  H   UNL A   1      33.090  23.847  22.070  1.00  0.00     0.163 HD
BRANCH   6   9
ATOM      9  C   UNL A   1      31.994  24.192  25.294  1.00  0.00     0.275 C 
BRANCH   9  10
ATOM     10  C   UNL A   1      31.758  22.846  26.039  1.00  0.00     0.051 C 
ATOM     11  C   UNL A   1      32.819  22.394  27.034  1.00  0.00     0.014 C 
ATOM     12  C   UNL A   1      30.385  22.854  26.725  1.00  0.00     0.014 C 
ENDBRANCH   9  10
BRANCH   9  13
ATOM     13  N   UNL A   1      31.161  25.359  25.656  1.00  0.00    -0.332 N 
ATOM     14  H   UNL A   1      31.104  25.374  26.674  1.00  0.00     0.347 HD
ATOM     15  H   UNL A   1      30.299  25.196  25.136  1.00  0.00     0.347 HD
BRANCH  13  16
ATOM     16  C   UNL A   1      31.557  26.721  25.230  1.00  0.00     0.195 C 
ATOM     17  C   UNL A   1      30.394  27.427  24.508  1.00  0.00     0.067 C 
ATOM     18  C   UNL A   1      32.352  27.626  26.231  1.00  0.00     0.101 C 
ATOM     19  C   UNL A   1      30.793  28.698  23.768  1.00  0.00     0.017 C 
ATOM     20  S   UNL A   1      32.932  29.171  25.398  1.00  0.00    -0.153 SA
ATOM     21  C   UNL A   1      31.647  28.046  27.521  1.00  0.00     0.026 C 
ATOM     22  C   UNL A   1      31.354  29.745  24.712  1.00  0.00     0.070 C 
ENDBRANCH  13  16
ENDBRANCH   9  13
ENDBRANCH   6   9
ENDBRANCH   4   5
ENDBRANCH   3   4
ENDBRANCH   2   3
ENDBRANCH   1   2
BRANCH   1  23
ATOM     23  C   UNL A   1      37.319  23.827  25.999  1.00  0.00     0.021 C 
BRANCH  23  24
ATOM     24  C   UNL A   1      38.555  24.171  26.818  1.00  0.00     0.116 C 
BRANCH  24  25
ATOM     25  N   UNL A   1      39.713  24.428  25.979  1.00  0.00    -0.352 N 
ATOM     26  C   UNL A   1      40.639  25.434  26.076  1.00  0.00     0.251 C 
ATOM     27  H   UNL A   1      39.851  23.793  25.239  1.00  0.00     0.163 HD
ATOM     28  O   UNL A   1      41.446  25.620  25.169  1.00  0.00    -0.269 OA
BRANCH  26  29
ATOM     29  C   UNL A   1      40.640  26.304  27.269  1.00  0.00     0.039 A 
ATOM     30  C   UNL A   1      41.475  27.422  27.291  1.00  0.00     0.014 A 
ATOM     31  C   UNL A   1      39.807  26.021  28.355  1.00  0.00     0.014 A 
ATOM     32  C   UNL A   1      41.435  28.289  28.383  1.00  0.00     0.010 A 
ATOM     33  C   UNL A   1      39.709  26.928  29.404  1.00  0.00     0.010 A 
ATOM     34  C   UNL A   1      40.529  28.067  29.434  1.00  0.00    -0.014 A 
BRANCH  34  35
ATOM     35  C   UNL A   1      40.427  29.010  30.574  1.00  0.00     0.031 A 
ATOM     36  C   UNL A   1      41.319  28.838  31.775  1.00  0.00     0.074 A 
ATOM     37  C   UNL A   1      39.495  29.982  30.555  1.00  0.00     0.049 A 
ATOM     38  N   UNL A   1      41.340  29.522  32.890  1.00  0.00    -0.248 NA
ATOM     39  C   UNL A   1      42.297  27.738  31.726  1.00  0.00     0.031 C 
ATOM     40  C   UNL A   1      38.550  30.229  29.463  1.00  0.00     0.029 A 
ATOM     41  N   UNL A   1      39.183  30.942  31.484  1.00  0.00    -0.354 N 
ATOM     42  C   UNL A   1      42.320  28.928  33.677  1.00  0.00     0.074 A 
ATOM     43  C   UNL A   1      42.829  27.796  32.938  1.00  0.00     0.031 C 
ATOM     44  C   UNL A   1      37.788  31.290  29.771  1.00  0.00     0.029 A 
ATOM     45  C   UNL A   1      38.153  31.769  31.101  1.00  0.00     0.049 A 
ATOM     46  H   UNL A   1      39.653  31.032  32.345  1.00  0.00     0.167 HD
ATOM     47  C   UNL A   1      42.770  29.305  34.898  1.00  0.00     0.031 A 
ATOM     48  C   UNL A   1      37.562  32.791  31.749  1.00  0.00     0.031 A 
ATOM     49  C   UNL A   1      42.259  30.435  35.628  1.00  0.00     0.049 A 
ATOM     50  C   UNL A   1      38.058  33.173  33.117  1.00  0.00     0.074 A 
ATOM     51  C   UNL A   1      42.678  30.929  36.850  1.00  0.00     0.029 A 
ATOM     52  N   UNL A   1      41.213  31.244  35.206  1.00  0.00    -0.354 N 
ATOM     53  N   UNL A   1      39.028  32.639  33.820  1.00  0.00    -0.248 NA
ATOM     54  C   UNL A   1      37.385  34.300  33.776  1.00  0.00     0.031 C 
ATOM     55  C   UNL A   1      41.845  31.998  37.197  1.00  0.00     0.029 A 
ATOM     56  C   UNL A   1      40.953  32.215  36.158  1.00  0.00     0.049 A 
ATOM     57  H   UNL A   1      40.727  31.142  34.356  1.00  0.00     0.167 HD
ATOM     58  C   UNL A   1      39.103  33.385  34.991  1.00  0.00     0.074 A 
ATOM     59  C   UNL A   1      38.089  34.415  34.895  1.00  0.00     0.031 C 
ATOM     60  C   UNL A   1      39.939  33.234  36.048  1.00  0.00     0.031 A 
BRANCH  47  61
ATOM     61  C   UNL A   1      43.860  28.476  35.526  1.00  0.00    -0.014 A 
ATOM     62  C   UNL A   1      45.219  28.768  35.301  1.00  0.00     0.010 A 
ATOM     63  C   UNL A   1      43.525  27.410  36.380  1.00  0.00     0.010 A 
ATOM     64  C   UNL A   1      46.218  27.981  35.879  1.00  0.00     0.020 A 
ATOM     65  C   UNL A   1      44.522  26.640  36.987  1.00  0.00     0.020 A 
ATOM     66  C   UNL A   1      45.863  26.921  36.717  1.00  0.00     0.054 A 
BRANCH  66  67
ATOM     67  S   UNL A   1      47.183  25.927  37.466  1.00  0.00     0.124 S 
ATOM     68  O   UNL A   1      46.438  24.787  37.995  1.00  0.00    -0.237 OA
ATOM     69  O   UNL A   1      48.049  25.637  36.327  1.00  0.00    -0.237 OA
ATOM     70  O   UNL A   1      47.758  26.816  38.472  1.00  0.00    -0.744 OA
ENDBRANCH  66  67
ENDBRANCH  47  61
BRANCH  48  71
ATOM     71  C   UNL A   1      36.444  33.533  31.103  1.00  0.00    -0.014 A 
ATOM     72  C   UNL A   1      36.520  33.906  29.750  1.00  0.00     0.010 A 
ATOM     73  C   UNL A   1      35.286  33.855  31.836  1.00  0.00     0.010 A 
ATOM     74  C   UNL A   1      35.468  34.603  29.147  1.00  0.00     0.020 A 
ATOM     75  C   UNL A   1      34.220  34.524  31.228  1.00  0.00     0.020 A 
ATOM     76  C   UNL A   1      34.323  34.904  29.888  1.00  0.00     0.054 A 
BRANCH  76  77
ATOM     77  S   UNL A   1      32.950  35.760  29.070  1.00  0.00     0.124 S 
ATOM     78  O   UNL A   1      32.124  36.163  30.203  1.00  0.00    -0.237 OA
ATOM     79  O   UNL A   1      33.632  36.844  28.365  1.00  0.00    -0.237 OA
ATOM     80  O   UNL A   1      32.371  34.733  28.207  1.00  0.00    -0.744 OA
ENDBRANCH  76  77
ENDBRANCH  48  71
BRANCH  60  81
ATOM     81  C   UNL A   1      39.823  34.227  37.175  1.00  0.00    -0.014 A 
ATOM     82  C   UNL A   1      39.121  33.922  38.353  1.00  0.00     0.010 A 
ATOM     83  C   UNL A   1      40.488  35.464  37.075  1.00  0.00     0.010 A 
ATOM     84  C   UNL A   1      39.064  34.845  39.400  1.00  0.00     0.020 A 
ATOM     85  C   UNL A   1      40.461  36.376  38.132  1.00  0.00     0.020 A 
ATOM     86  C   UNL A   1      39.736  36.065  39.284  1.00  0.00     0.054 A 
BRANCH  86  87
ATOM     87  S   UNL A   1      39.691  37.222  40.681  1.00  0.00     0.124 S 
ATOM     88  O   UNL A   1      38.635  36.653  41.513  1.00  0.00    -0.237 OA
ATOM     89  O   UNL A   1      41.044  37.119  41.224  1.00  0.00    -0.237 OA
ATOM     90  O   UNL A   1      39.371  38.505  40.059  1.00  0.00    -0.744 OA
ENDBRANCH  86  87
ENDBRANCH  60  81
ENDBRANCH  34  35
ENDBRANCH  26  29
ENDBRANCH  24  25
ENDBRANCH  23  24
ENDBRANCH   1  23
TORSDOF 19
ENDMDL
