MODEL 1
REMARK VINA RESULT:      -9.5      0.000      0.000
REMARK SMILES C#CCNC(=O)C[N@@H+](CC(=O)NCCCCCCNC(=O)c1ccc(-c2c3nc(c(-c4ccc(S(=O)(=O)[O-])cc4)c4ccc([nH]4)c(-c4ccc(S(=O)(=O)[O-])cc4)c4nc(c(-c5ccc(S(=O)(=O)[O-])cc5)c5ccc2[nH]5)C=C4)C=C3)cc1)C(C)(C)C
REMARK SMILES IDX 14 1 13 2 12 3 10 4 11 5 9 7 8 8 7 10 5 11 4 12 6 14 3 15
REMARK SMILES IDX 2 16 1 17 82 18 83 19 84 20 85 21 15 22 16 23 17 24 18 25
REMARK SMILES IDX 19 26 20 27 21 29 22 30 23 31 81 32 24 33 80 34 25 35 26 36
REMARK SMILES IDX 27 37 74 38 28 39 79 40 73 41 75 42 29 43 78 44 72 45 71 46
REMARK SMILES IDX 30 48 60 49 41 50 59 51 42 52 45 53 58 54 76 55 43 56 44 57
REMARK SMILES IDX 57 59 77 60 46 61 31 62 32 63 40 64 33 65 39 66 34 67 35 68
REMARK SMILES IDX 36 69 37 70 38 71 61 72 62 73 70 74 63 75 69 76 64 77 65 78
REMARK SMILES IDX 66 79 67 80 68 81 47 82 48 83 56 84 49 85 55 86 50 87 51 88
REMARK SMILES IDX 52 89 53 90 54 91
REMARK H PARENT 12 6 8 9 4 13 19 28 75 47 45 58
REMARK Flexibility Score: inf
ROOT
ATOM      1  C   UNL A   1      31.026  26.450  26.123  1.00  0.00     0.021 C 
ENDROOT
BRANCH   1   2
ATOM      2  C   UNL A   1      30.141  25.203  26.090  1.00  0.00     0.116 C 
BRANCH   2   3
ATOM      3  N   UNL A   1      30.134  24.594  24.773  1.00  0.00    -0.351 N 
ATOM      4  C   UNL A   1      30.906  23.610  24.230  1.00  0.00     0.275 C 
ATOM      5  O   UNL A   1      30.587  23.215  23.103  1.00  0.00    -0.269 OA
ATOM      6  H   UNL A   1      29.449  24.956  24.163  1.00  0.00     0.163 HD
BRANCH   4   7
ATOM      7  C   UNL A   1      32.073  22.960  24.987  1.00  0.00     0.364 C 
BRANCH   7   8
ATOM      8  N   UNL A   1      33.377  22.835  24.273  1.00  0.00    -0.315 N 
ATOM      9  H   UNL A   1      33.149  22.903  23.281  1.00  0.00     0.349 HD
BRANCH   8  10
ATOM     10  C   UNL A   1      33.963  21.496  24.466  1.00  0.00     0.364 C 
BRANCH  10  11
ATOM     11  C   UNL A   1      33.883  20.895  25.863  1.00  0.00     0.275 C 
ATOM     12  N   UNL A   1      33.152  19.774  26.094  1.00  0.00    -0.340 N 
ATOM     13  H   UNL A   1      33.012  19.543  27.040  1.00  0.00     0.164 HD
ATOM     14  O   UNL A   1      34.374  21.483  26.831  1.00  0.00    -0.268 OA
BRANCH  12  15
ATOM     15  C   UNL A   1      32.555  18.880  25.138  1.00  0.00     0.206 C 
BRANCH  15  16
ATOM     16  C   UNL A   1      33.615  17.868  24.739  1.00  0.00    -0.085 C 
ATOM     17  C   UNL A   1      34.525  16.998  24.396  1.00  0.00     0.006 C 
ENDBRANCH  15  16
ENDBRANCH  12  15
ENDBRANCH  10  11
ENDBRANCH   8  10
BRANCH   8  18
ATOM     18  C   UNL A   1      34.311  23.998  24.332  1.00  0.00     0.090 C 
ATOM     19  C   UNL A   1      34.270  24.799  25.654  1.00  0.00     0.078 C 
ATOM     20  C   UNL A   1      35.780  23.543  24.147  1.00  0.00     0.078 C 
ATOM     21  C   UNL A   1      34.032  24.974  23.162  1.00  0.00     0.078 C 
ENDBRANCH   8  18
ENDBRANCH   7   8
ENDBRANCH   4   7
ENDBRANCH   2   3
ENDBRANCH   1   2
BRANCH   1  22
ATOM     22  C   UNL A   1      31.344  27.077  24.767  1.00  0.00     0.002 C 
BRANCH  22  23
ATOM     23  C   UNL A   1      32.061  28.427  24.811  1.00  0.00     0.002 C 
BRANCH  23  24
ATOM     24  C   UNL A   1      33.569  28.380  25.072  1.00  0.00     0.021 C 
BRANCH  24  25
ATOM     25  C   UNL A   1      33.997  28.460  26.538  1.00  0.00     0.116 C 
BRANCH  25  26
ATOM     26  N   UNL A   1      33.805  29.784  27.101  1.00  0.00    -0.352 N 
ATOM     27  C   UNL A   1      34.599  30.509  27.953  1.00  0.00     0.251 C 
ATOM     28  H   UNL A   1      32.973  30.234  26.828  1.00  0.00     0.163 HD
ATOM     29  O   UNL A   1      34.159  31.534  28.466  1.00  0.00    -0.269 OA
BRANCH  27  30
ATOM     30  C   UNL A   1      35.973  30.057  28.272  1.00  0.00     0.039 A 
ATOM     31  C   UNL A   1      36.955  30.155  27.283  1.00  0.00     0.014 A 
ATOM     32  C   UNL A   1      36.286  29.498  29.515  1.00  0.00     0.014 A 
ATOM     33  C   UNL A   1      38.262  29.741  27.556  1.00  0.00     0.010 A 
ATOM     34  C   UNL A   1      37.603  29.141  29.806  1.00  0.00     0.010 A 
ATOM     35  C   UNL A   1      38.602  29.254  28.829  1.00  0.00    -0.014 A 
BRANCH  35  36
ATOM     36  C   UNL A   1      40.002  28.867  29.144  1.00  0.00     0.031 A 
ATOM     37  C   UNL A   1      40.936  29.848  29.802  1.00  0.00     0.074 A 
ATOM     38  C   UNL A   1      40.445  27.642  28.798  1.00  0.00     0.049 A 
ATOM     39  N   UNL A   1      42.192  29.690  30.137  1.00  0.00    -0.248 NA
ATOM     40  C   UNL A   1      40.398  31.185  30.106  1.00  0.00     0.031 C 
ATOM     41  C   UNL A   1      39.655  26.617  28.111  1.00  0.00     0.029 A 
ATOM     42  N   UNL A   1      41.672  27.051  28.973  1.00  0.00    -0.354 N 
ATOM     43  C   UNL A   1      42.598  30.907  30.673  1.00  0.00     0.074 A 
ATOM     44  C   UNL A   1      41.468  31.806  30.585  1.00  0.00     0.031 C 
ATOM     45  C   UNL A   1      40.409  25.518  27.943  1.00  0.00     0.029 A 
ATOM     46  C   UNL A   1      41.741  25.766  28.483  1.00  0.00     0.049 A 
ATOM     47  H   UNL A   1      42.431  27.503  29.408  1.00  0.00     0.167 HD
ATOM     48  C   UNL A   1      43.798  31.241  31.207  1.00  0.00     0.031 A 
ATOM     49  C   UNL A   1      42.762  24.888  28.468  1.00  0.00     0.031 A 
ATOM     50  C   UNL A   1      44.914  30.340  31.316  1.00  0.00     0.049 A 
ATOM     51  C   UNL A   1      44.076  25.277  29.089  1.00  0.00     0.074 A 
ATOM     52  C   UNL A   1      46.149  30.567  31.902  1.00  0.00     0.029 A 
ATOM     53  N   UNL A   1      44.935  29.042  30.833  1.00  0.00    -0.354 N 
ATOM     54  N   UNL A   1      44.414  26.410  29.658  1.00  0.00    -0.248 NA
ATOM     55  C   UNL A   1      45.138  24.262  29.082  1.00  0.00     0.031 C 
ATOM     56  C   UNL A   1      46.930  29.419  31.736  1.00  0.00     0.029 A 
ATOM     57  C   UNL A   1      46.165  28.460  31.091  1.00  0.00     0.049 A 
ATOM     58  H   UNL A   1      44.185  28.597  30.375  1.00  0.00     0.167 HD
ATOM     59  C   UNL A   1      45.721  26.234  30.097  1.00  0.00     0.074 A 
ATOM     60  C   UNL A   1      46.105  24.883  29.745  1.00  0.00     0.031 C 
ATOM     61  C   UNL A   1      46.532  27.115  30.734  1.00  0.00     0.031 A 
BRANCH  48  62
ATOM     62  C   UNL A   1      43.968  32.645  31.724  1.00  0.00    -0.014 A 
ATOM     63  C   UNL A   1      44.747  33.584  31.025  1.00  0.00     0.010 A 
ATOM     64  C   UNL A   1      43.286  33.050  32.886  1.00  0.00     0.010 A 
ATOM     65  C   UNL A   1      44.862  34.896  31.493  1.00  0.00     0.020 A 
ATOM     66  C   UNL A   1      43.380  34.368  33.344  1.00  0.00     0.020 A 
ATOM     67  C   UNL A   1      44.177  35.280  32.651  1.00  0.00     0.054 A 
BRANCH  67  68
ATOM     68  S   UNL A   1      44.307  37.002  33.208  1.00  0.00     0.124 S 
ATOM     69  O   UNL A   1      45.746  37.143  33.416  1.00  0.00    -0.237 OA
ATOM     70  O   UNL A   1      43.760  37.748  32.078  1.00  0.00    -0.237 OA
ATOM     71  O   UNL A   1      43.496  37.034  34.422  1.00  0.00    -0.744 OA
ENDBRANCH  67  68
ENDBRANCH  48  62
BRANCH  49  72
ATOM     72  C   UNL A   1      42.582  23.544  27.856  1.00  0.00    -0.014 A 
ATOM     73  C   UNL A   1      42.019  22.489  28.596  1.00  0.00     0.010 A 
ATOM     74  C   UNL A   1      42.980  23.311  26.527  1.00  0.00     0.010 A 
ATOM     75  C   UNL A   1      41.885  21.219  28.029  1.00  0.00     0.020 A 
ATOM     76  C   UNL A   1      42.824  22.050  25.948  1.00  0.00     0.020 A 
ATOM     77  C   UNL A   1      42.292  21.006  26.708  1.00  0.00     0.054 A 
BRANCH  77  78
ATOM     78  S   UNL A   1      42.079  19.360  25.976  1.00  0.00     0.124 S 
ATOM     79  O   UNL A   1      40.649  19.338  25.690  1.00  0.00    -0.237 OA
ATOM     80  O   UNL A   1      42.959  19.413  24.810  1.00  0.00    -0.237 OA
ATOM     81  O   UNL A   1      42.522  18.457  27.037  1.00  0.00    -0.744 OA
ENDBRANCH  77  78
ENDBRANCH  49  72
BRANCH  61  82
ATOM     82  C   UNL A   1      47.904  26.633  31.118  1.00  0.00    -0.014 A 
ATOM     83  C   UNL A   1      48.993  26.761  30.237  1.00  0.00     0.010 A 
ATOM     84  C   UNL A   1      48.113  26.076  32.392  1.00  0.00     0.010 A 
ATOM     85  C   UNL A   1      50.259  26.303  30.610  1.00  0.00     0.020 A 
ATOM     86  C   UNL A   1      49.384  25.642  32.778  1.00  0.00     0.020 A 
ATOM     87  C   UNL A   1      50.445  25.742  31.877  1.00  0.00     0.054 A 
BRANCH  87  88
ATOM     88  S   UNL A   1      52.103  25.180  32.351  1.00  0.00     0.124 S 
ATOM     89  O   UNL A   1      52.923  25.706  31.262  1.00  0.00    -0.237 OA
ATOM     90  O   UNL A   1      52.302  25.816  33.650  1.00  0.00    -0.237 OA
ATOM     91  O   UNL A   1      51.978  23.725  32.389  1.00  0.00    -0.744 OA
ENDBRANCH  87  88
ENDBRANCH  61  82
ENDBRANCH  35  36
ENDBRANCH  27  30
ENDBRANCH  25  26
ENDBRANCH  24  25
ENDBRANCH  23  24
ENDBRANCH  22  23
ENDBRANCH   1  22
TORSDOF 22
ENDMDL
MODEL 2
REMARK VINA RESULT:      -8.9      3.480      8.155
REMARK SMILES C#CCNC(=O)C[N@@H+](CC(=O)NCCCCCCNC(=O)c1ccc(-c2c3nc(c(-c4ccc(S(=O)(=O)[O-])cc4)c4ccc([nH]4)c(-c4ccc(S(=O)(=O)[O-])cc4)c4nc(c(-c5ccc(S(=O)(=O)[O-])cc5)c5ccc2[nH]5)C=C4)C=C3)cc1)C(C)(C)C
REMARK SMILES IDX 14 1 13 2 12 3 10 4 11 5 9 7 8 8 7 10 5 11 4 12 6 14 3 15
REMARK SMILES IDX 2 16 1 17 82 18 83 19 84 20 85 21 15 22 16 23 17 24 18 25
REMARK SMILES IDX 19 26 20 27 21 29 22 30 23 31 81 32 24 33 80 34 25 35 26 36
REMARK SMILES IDX 27 37 74 38 28 39 79 40 73 41 75 42 29 43 78 44 72 45 71 46
REMARK SMILES IDX 30 48 60 49 41 50 59 51 42 52 45 53 58 54 76 55 43 56 44 57
REMARK SMILES IDX 57 59 77 60 46 61 31 62 32 63 40 64 33 65 39 66 34 67 35 68
REMARK SMILES IDX 36 69 37 70 38 71 61 72 62 73 70 74 63 75 69 76 64 77 65 78
REMARK SMILES IDX 66 79 67 80 68 81 47 82 48 83 56 84 49 85 55 86 50 87 51 88
REMARK SMILES IDX 52 89 53 90 54 91
REMARK H PARENT 12 6 8 9 4 13 19 28 75 47 45 58
REMARK Flexibility Score: inf
ROOT
ATOM      1  C   UNL A   1      36.541  23.354  24.206  1.00  0.00     0.021 C 
ENDROOT
BRANCH   1   2
ATOM      2  C   UNL A   1      35.243  24.115  24.487  1.00  0.00     0.116 C 
BRANCH   2   3
ATOM      3  N   UNL A   1      34.562  24.470  23.257  1.00  0.00    -0.351 N 
ATOM      4  C   UNL A   1      33.885  25.598  22.894  1.00  0.00     0.275 C 
ATOM      5  O   UNL A   1      33.502  25.660  21.721  1.00  0.00    -0.269 OA
ATOM      6  H   UNL A   1      34.595  23.775  22.560  1.00  0.00     0.163 HD
BRANCH   4   7
ATOM      7  C   UNL A   1      33.660  26.774  23.856  1.00  0.00     0.364 C 
BRANCH   7   8
ATOM      8  N   UNL A   1      32.299  26.932  24.448  1.00  0.00    -0.315 N 
ATOM      9  H   UNL A   1      32.456  27.275  25.396  1.00  0.00     0.349 HD
BRANCH   8  10
ATOM     10  C   UNL A   1      31.626  25.628  24.591  1.00  0.00     0.364 C 
BRANCH  10  11
ATOM     11  C   UNL A   1      31.360  25.134  26.007  1.00  0.00     0.275 C 
ATOM     12  N   UNL A   1      31.075  23.826  26.242  1.00  0.00    -0.340 N 
ATOM     13  H   UNL A   1      30.753  23.616  27.147  1.00  0.00     0.164 HD
ATOM     14  O   UNL A   1      31.273  25.929  26.946  1.00  0.00    -0.268 OA
BRANCH  12  15
ATOM     15  C   UNL A   1      31.182  22.710  25.341  1.00  0.00     0.206 C 
BRANCH  15  16
ATOM     16  C   UNL A   1      32.386  21.891  25.773  1.00  0.00    -0.085 C 
ATOM     17  C   UNL A   1      33.420  21.188  26.143  1.00  0.00     0.006 C 
ENDBRANCH  15  16
ENDBRANCH  12  15
ENDBRANCH  10  11
ENDBRANCH   8  10
BRANCH   8  18
ATOM     18  C   UNL A   1      31.467  28.075  23.968  1.00  0.00     0.090 C 
ATOM     19  C   UNL A   1      31.953  28.728  22.655  1.00  0.00     0.078 C 
ATOM     20  C   UNL A   1      30.004  27.632  23.717  1.00  0.00     0.078 C 
ATOM     21  C   UNL A   1      31.382  29.174  25.057  1.00  0.00     0.078 C 
ENDBRANCH   8  18
ENDBRANCH   7   8
ENDBRANCH   4   7
ENDBRANCH   2   3
ENDBRANCH   1   2
BRANCH   1  22
ATOM     22  C   UNL A   1      36.833  22.173  25.128  1.00  0.00     0.002 C 
BRANCH  22  23
ATOM     23  C   UNL A   1      37.107  20.839  24.432  1.00  0.00     0.002 C 
BRANCH  23  24
ATOM     24  C   UNL A   1      37.950  19.831  25.217  1.00  0.00     0.021 C 
BRANCH  24  25
ATOM     25  C   UNL A   1      39.230  20.378  25.851  1.00  0.00     0.116 C 
BRANCH  25  26
ATOM     26  N   UNL A   1      40.256  19.361  25.997  1.00  0.00    -0.352 N 
ATOM     27  C   UNL A   1      41.610  19.486  26.170  1.00  0.00     0.251 C 
ATOM     28  H   UNL A   1      39.927  18.433  25.966  1.00  0.00     0.163 HD
ATOM     29  O   UNL A   1      42.327  18.494  26.075  1.00  0.00    -0.269 OA
BRANCH  27  30
ATOM     30  C   UNL A   1      42.215  20.808  26.452  1.00  0.00     0.039 A 
ATOM     31  C   UNL A   1      42.578  21.620  25.375  1.00  0.00     0.014 A 
ATOM     32  C   UNL A   1      42.468  21.229  27.762  1.00  0.00     0.014 A 
ATOM     33  C   UNL A   1      43.146  22.876  25.610  1.00  0.00     0.010 A 
ATOM     34  C   UNL A   1      42.980  22.506  27.996  1.00  0.00     0.010 A 
ATOM     35  C   UNL A   1      43.329  23.340  26.923  1.00  0.00    -0.014 A 
BRANCH  35  36
ATOM     36  C   UNL A   1      43.878  24.696  27.180  1.00  0.00     0.031 A 
ATOM     37  C   UNL A   1      42.979  25.807  27.655  1.00  0.00     0.074 A 
ATOM     38  C   UNL A   1      45.183  24.939  26.945  1.00  0.00     0.049 A 
ATOM     39  N   UNL A   1      43.280  27.054  27.915  1.00  0.00    -0.248 NA
ATOM     40  C   UNL A   1      41.555  25.483  27.842  1.00  0.00     0.031 C 
ATOM     41  C   UNL A   1      46.148  23.961  26.436  1.00  0.00     0.029 A 
ATOM     42  N   UNL A   1      45.923  26.085  27.098  1.00  0.00    -0.354 N 
ATOM     43  C   UNL A   1      42.086  27.665  28.280  1.00  0.00     0.074 A 
ATOM     44  C   UNL A   1      41.048  26.663  28.171  1.00  0.00     0.031 C 
ATOM     45  C   UNL A   1      47.356  24.542  26.341  1.00  0.00     0.029 A 
ATOM     46  C   UNL A   1      47.247  25.937  26.753  1.00  0.00     0.049 A 
ATOM     47  H   UNL A   1      45.542  26.933  27.424  1.00  0.00     0.167 HD
ATOM     48  C   UNL A   1      41.874  28.941  28.686  1.00  0.00     0.031 A 
ATOM     49  C   UNL A   1      48.259  26.825  26.766  1.00  0.00     0.031 A 
ATOM     50  C   UNL A   1      42.910  29.931  28.817  1.00  0.00     0.049 A 
ATOM     51  C   UNL A   1      48.002  28.228  27.244  1.00  0.00     0.074 A 
ATOM     52  C   UNL A   1      42.804  31.230  29.284  1.00  0.00     0.029 A 
ATOM     53  N   UNL A   1      44.241  29.735  28.484  1.00  0.00    -0.354 N 
ATOM     54  N   UNL A   1      46.877  28.764  27.655  1.00  0.00    -0.248 NA
ATOM     55  C   UNL A   1      49.154  29.140  27.276  1.00  0.00     0.031 C 
ATOM     56  C   UNL A   1      44.063  31.833  29.194  1.00  0.00     0.029 A 
ATOM     57  C   UNL A   1      44.963  30.893  28.718  1.00  0.00     0.049 A 
ATOM     58  H   UNL A   1      44.618  28.895  28.134  1.00  0.00     0.167 HD
ATOM     59  C   UNL A   1      47.192  30.068  28.017  1.00  0.00     0.074 A 
ATOM     60  C   UNL A   1      48.614  30.235  27.794  1.00  0.00     0.031 C 
ATOM     61  C   UNL A   1      46.376  31.043  28.490  1.00  0.00     0.031 A 
BRANCH  48  62
ATOM     62  C   UNL A   1      40.464  29.343  29.027  1.00  0.00    -0.014 A 
ATOM     63  C   UNL A   1      40.085  29.597  30.357  1.00  0.00     0.010 A 
ATOM     64  C   UNL A   1      39.524  29.537  27.998  1.00  0.00     0.010 A 
ATOM     65  C   UNL A   1      38.783  30.012  30.655  1.00  0.00     0.020 A 
ATOM     66  C   UNL A   1      38.229  29.975  28.290  1.00  0.00     0.020 A 
ATOM     67  C   UNL A   1      37.863  30.198  29.619  1.00  0.00     0.054 A 
BRANCH  67  68
ATOM     68  S   UNL A   1      36.195  30.782  30.031  1.00  0.00     0.124 S 
ATOM     69  O   UNL A   1      35.791  29.834  31.065  1.00  0.00    -0.237 OA
ATOM     70  O   UNL A   1      36.438  32.147  30.491  1.00  0.00    -0.237 OA
ATOM     71  O   UNL A   1      35.469  30.675  28.768  1.00  0.00    -0.744 OA
ENDBRANCH  67  68
ENDBRANCH  48  62
BRANCH  49  72
ATOM     72  C   UNL A   1      49.620  26.413  26.324  1.00  0.00    -0.014 A 
ATOM     73  C   UNL A   1      50.512  25.805  27.224  1.00  0.00     0.010 A 
ATOM     74  C   UNL A   1      50.031  26.636  24.997  1.00  0.00     0.010 A 
ATOM     75  C   UNL A   1      51.800  25.453  26.815  1.00  0.00     0.020 A 
ATOM     76  C   UNL A   1      51.310  26.261  24.577  1.00  0.00     0.020 A 
ATOM     77  C   UNL A   1      52.193  25.687  25.494  1.00  0.00     0.054 A 
BRANCH  77  78
ATOM     78  S   UNL A   1      53.858  25.192  24.970  1.00  0.00     0.124 S 
ATOM     79  O   UNL A   1      54.673  25.631  26.098  1.00  0.00    -0.237 OA
ATOM     80  O   UNL A   1      53.725  23.745  24.809  1.00  0.00    -0.237 OA
ATOM     81  O   UNL A   1      54.056  25.932  23.725  1.00  0.00    -0.744 OA
ENDBRANCH  77  78
ENDBRANCH  49  72
BRANCH  61  82
ATOM     82  C   UNL A   1      47.009  32.366  28.828  1.00  0.00    -0.014 A 
ATOM     83  C   UNL A   1      47.086  33.398  27.876  1.00  0.00     0.010 A 
ATOM     84  C   UNL A   1      47.499  32.589  30.127  1.00  0.00     0.010 A 
ATOM     85  C   UNL A   1      47.681  34.618  28.208  1.00  0.00     0.020 A 
ATOM     86  C   UNL A   1      48.071  33.817  30.469  1.00  0.00     0.020 A 
ATOM     87  C   UNL A   1      48.174  34.818  29.501  1.00  0.00     0.054 A 
BRANCH  87  88
ATOM     88  S   UNL A   1      48.916  36.419  29.917  1.00  0.00     0.124 S 
ATOM     89  O   UNL A   1      50.157  36.017  30.574  1.00  0.00    -0.237 OA
ATOM     90  O   UNL A   1      49.075  37.053  28.611  1.00  0.00    -0.237 OA
ATOM     91  O   UNL A   1      47.924  37.044  30.789  1.00  0.00    -0.744 OA
ENDBRANCH  87  88
ENDBRANCH  61  82
ENDBRANCH  35  36
ENDBRANCH  27  30
ENDBRANCH  25  26
ENDBRANCH  24  25
ENDBRANCH  23  24
ENDBRANCH  22  23
ENDBRANCH   1  22
TORSDOF 22
ENDMDL
MODEL 3
REMARK VINA RESULT:      -8.7      2.508      3.068
REMARK SMILES C#CCNC(=O)C[N@@H+](CC(=O)NCCCCCCNC(=O)c1ccc(-c2c3nc(c(-c4ccc(S(=O)(=O)[O-])cc4)c4ccc([nH]4)c(-c4ccc(S(=O)(=O)[O-])cc4)c4nc(c(-c5ccc(S(=O)(=O)[O-])cc5)c5ccc2[nH]5)C=C4)C=C3)cc1)C(C)(C)C
REMARK SMILES IDX 14 1 13 2 12 3 10 4 11 5 9 7 8 8 7 10 5 11 4 12 6 14 3 15
REMARK SMILES IDX 2 16 1 17 82 18 83 19 84 20 85 21 15 22 16 23 17 24 18 25
REMARK SMILES IDX 19 26 20 27 21 29 22 30 23 31 81 32 24 33 80 34 25 35 26 36
REMARK SMILES IDX 27 37 74 38 28 39 79 40 73 41 75 42 29 43 78 44 72 45 71 46
REMARK SMILES IDX 30 48 60 49 41 50 59 51 42 52 45 53 58 54 76 55 43 56 44 57
REMARK SMILES IDX 57 59 77 60 46 61 31 62 32 63 40 64 33 65 39 66 34 67 35 68
REMARK SMILES IDX 36 69 37 70 38 71 61 72 62 73 70 74 63 75 69 76 64 77 65 78
REMARK SMILES IDX 66 79 67 80 68 81 47 82 48 83 56 84 49 85 55 86 50 87 51 88
REMARK SMILES IDX 52 89 53 90 54 91
REMARK H PARENT 12 6 8 9 4 13 19 28 75 47 45 58
REMARK Flexibility Score: inf
ROOT
ATOM      1  C   UNL A   1      31.480  26.423  24.151  1.00  0.00     0.021 C 
ENDROOT
BRANCH   1   2
ATOM      2  C   UNL A   1      31.012  25.228  23.318  1.00  0.00     0.116 C 
BRANCH   2   3
ATOM      3  N   UNL A   1      32.058  24.762  22.428  1.00  0.00    -0.351 N 
ATOM      4  C   UNL A   1      32.783  23.607  22.415  1.00  0.00     0.275 C 
ATOM      5  O   UNL A   1      33.539  23.437  21.452  1.00  0.00    -0.269 OA
ATOM      6  H   UNL A   1      32.284  25.390  21.703  1.00  0.00     0.163 HD
BRANCH   4   7
ATOM      7  C   UNL A   1      32.635  22.524  23.495  1.00  0.00     0.364 C 
BRANCH   7   8
ATOM      8  N   UNL A   1      33.831  22.215  24.333  1.00  0.00    -0.315 N 
ATOM      9  H   UNL A   1      34.635  22.489  23.767  1.00  0.00     0.349 HD
BRANCH   8  10
ATOM     10  C   UNL A   1      33.963  20.764  24.557  1.00  0.00     0.364 C 
BRANCH  10  11
ATOM     11  C   UNL A   1      32.683  19.978  24.809  1.00  0.00     0.275 C 
ATOM     12  N   UNL A   1      32.496  18.759  24.240  1.00  0.00    -0.340 N 
ATOM     13  H   UNL A   1      31.587  18.390  24.310  1.00  0.00     0.164 HD
ATOM     14  O   UNL A   1      31.743  20.486  25.427  1.00  0.00    -0.268 OA
BRANCH  12  15
ATOM     15  C   UNL A   1      33.451  17.937  23.548  1.00  0.00     0.206 C 
BRANCH  15  16
ATOM     16  C   UNL A   1      33.879  16.835  24.502  1.00  0.00    -0.085 C 
ATOM     17  C   UNL A   1      34.246  15.889  25.321  1.00  0.00     0.006 C 
ENDBRANCH  15  16
ENDBRANCH  12  15
ENDBRANCH  10  11
ENDBRANCH   8  10
BRANCH   8  18
ATOM     18  C   UNL A   1      34.106  23.109  25.497  1.00  0.00     0.090 C 
ATOM     19  C   UNL A   1      34.963  24.354  25.174  1.00  0.00     0.078 C 
ATOM     20  C   UNL A   1      32.789  23.637  26.118  1.00  0.00     0.078 C 
ATOM     21  C   UNL A   1      34.805  22.317  26.631  1.00  0.00     0.078 C 
ENDBRANCH   8  18
ENDBRANCH   7   8
ENDBRANCH   4   7
ENDBRANCH   2   3
ENDBRANCH   1   2
BRANCH   1  22
ATOM     22  C   UNL A   1      31.838  27.682  23.366  1.00  0.00     0.002 C 
BRANCH  22  23
ATOM     23  C   UNL A   1      32.895  28.584  24.003  1.00  0.00     0.002 C 
BRANCH  23  24
ATOM     24  C   UNL A   1      33.943  27.884  24.873  1.00  0.00     0.021 C 
BRANCH  24  25
ATOM     25  C   UNL A   1      33.925  28.240  26.360  1.00  0.00     0.116 C 
BRANCH  25  26
ATOM     26  N   UNL A   1      33.711  29.658  26.589  1.00  0.00    -0.352 N 
ATOM     27  C   UNL A   1      34.376  30.533  27.409  1.00  0.00     0.251 C 
ATOM     28  H   UNL A   1      32.972  30.054  26.073  1.00  0.00     0.163 HD
ATOM     29  O   UNL A   1      33.911  31.652  27.604  1.00  0.00    -0.269 OA
BRANCH  27  30
ATOM     30  C   UNL A   1      35.637  30.134  28.074  1.00  0.00     0.039 A 
ATOM     31  C   UNL A   1      36.843  30.345  27.400  1.00  0.00     0.014 A 
ATOM     32  C   UNL A   1      35.636  29.516  29.328  1.00  0.00     0.014 A 
ATOM     33  C   UNL A   1      38.051  29.983  28.004  1.00  0.00     0.010 A 
ATOM     34  C   UNL A   1      36.845  29.211  29.954  1.00  0.00     0.010 A 
ATOM     35  C   UNL A   1      38.064  29.436  29.298  1.00  0.00    -0.014 A 
BRANCH  35  36
ATOM     36  C   UNL A   1      39.347  29.104  29.969  1.00  0.00     0.031 A 
ATOM     37  C   UNL A   1      39.798  29.877  31.180  1.00  0.00     0.074 A 
ATOM     38  C   UNL A   1      40.128  28.130  29.461  1.00  0.00     0.049 A 
ATOM     39  N   UNL A   1      40.892  29.737  31.885  1.00  0.00    -0.248 NA
ATOM     40  C   UNL A   1      38.918  30.960  31.650  1.00  0.00     0.031 C 
ATOM     41  C   UNL A   1      39.829  27.341  28.263  1.00  0.00     0.029 A 
ATOM     42  N   UNL A   1      41.339  27.640  29.885  1.00  0.00    -0.354 N 
ATOM     43  C   UNL A   1      40.841  30.719  32.867  1.00  0.00     0.074 A 
ATOM     44  C   UNL A   1      39.627  31.475  32.645  1.00  0.00     0.031 C 
ATOM     45  C   UNL A   1      40.816  26.453  28.062  1.00  0.00     0.029 A 
ATOM     46  C   UNL A   1      41.830  26.625  29.096  1.00  0.00     0.049 A 
ATOM     47  H   UNL A   1      41.811  27.982  30.678  1.00  0.00     0.167 HD
ATOM     48  C   UNL A   1      41.716  30.961  33.873  1.00  0.00     0.031 A 
ATOM     49  C   UNL A   1      42.970  25.915  29.193  1.00  0.00     0.031 A 
ATOM     50  C   UNL A   1      42.912  30.195  34.107  1.00  0.00     0.049 A 
ATOM     51  C   UNL A   1      43.913  26.188  30.333  1.00  0.00     0.074 A 
ATOM     52  C   UNL A   1      43.826  30.322  35.139  1.00  0.00     0.029 A 
ATOM     53  N   UNL A   1      43.360  29.160  33.302  1.00  0.00    -0.354 N 
ATOM     54  N   UNL A   1      43.807  27.074  31.294  1.00  0.00    -0.248 NA
ATOM     55  C   UNL A   1      45.119  25.352  30.411  1.00  0.00     0.031 C 
ATOM     56  C   UNL A   1      44.849  29.390  34.935  1.00  0.00     0.029 A 
ATOM     57  C   UNL A   1      44.546  28.650  33.804  1.00  0.00     0.049 A 
ATOM     58  H   UNL A   1      42.902  28.833  32.494  1.00  0.00     0.167 HD
ATOM     59  C   UNL A   1      44.920  26.886  32.104  1.00  0.00     0.074 A 
ATOM     60  C   UNL A   1      45.676  25.791  31.532  1.00  0.00     0.031 C 
ATOM     61  C   UNL A   1      45.286  27.561  33.222  1.00  0.00     0.031 A 
BRANCH  48  62
ATOM     62  C   UNL A   1      41.412  32.101  34.807  1.00  0.00    -0.014 A 
ATOM     63  C   UNL A   1      41.532  33.437  34.384  1.00  0.00     0.010 A 
ATOM     64  C   UNL A   1      40.935  31.834  36.104  1.00  0.00     0.010 A 
ATOM     65  C   UNL A   1      41.206  34.485  35.248  1.00  0.00     0.020 A 
ATOM     66  C   UNL A   1      40.584  32.880  36.963  1.00  0.00     0.020 A 
ATOM     67  C   UNL A   1      40.734  34.200  36.533  1.00  0.00     0.054 A 
BRANCH  67  68
ATOM     68  S   UNL A   1      40.272  35.581  37.617  1.00  0.00     0.124 S 
ATOM     69  O   UNL A   1      40.050  36.657  36.655  1.00  0.00    -0.237 OA
ATOM     70  O   UNL A   1      39.073  35.078  38.284  1.00  0.00    -0.237 OA
ATOM     71  O   UNL A   1      41.438  35.747  38.481  1.00  0.00    -0.744 OA
ENDBRANCH  67  68
ENDBRANCH  48  62
BRANCH  49  72
ATOM     72  C   UNL A   1      43.282  24.862  28.187  1.00  0.00    -0.014 A 
ATOM     73  C   UNL A   1      42.713  23.581  28.292  1.00  0.00     0.010 A 
ATOM     74  C   UNL A   1      44.158  25.138  27.122  1.00  0.00     0.010 A 
ATOM     75  C   UNL A   1      43.037  22.585  27.367  1.00  0.00     0.020 A 
ATOM     76  C   UNL A   1      44.464  24.153  26.180  1.00  0.00     0.020 A 
ATOM     77  C   UNL A   1      43.914  22.876  26.318  1.00  0.00     0.054 A 
BRANCH  77  78
ATOM     78  S   UNL A   1      44.296  21.582  25.106  1.00  0.00     0.124 S 
ATOM     79  O   UNL A   1      44.004  22.252  23.844  1.00  0.00    -0.237 OA
ATOM     80  O   UNL A   1      45.709  21.308  25.366  1.00  0.00    -0.237 OA
ATOM     81  O   UNL A   1      43.386  20.498  25.469  1.00  0.00    -0.744 OA
ENDBRANCH  77  78
ENDBRANCH  49  72
BRANCH  61  82
ATOM     82  C   UNL A   1      46.543  27.113  33.916  1.00  0.00    -0.014 A 
ATOM     83  C   UNL A   1      47.791  27.675  33.593  1.00  0.00     0.010 A 
ATOM     84  C   UNL A   1      46.468  26.141  34.930  1.00  0.00     0.010 A 
ATOM     85  C   UNL A   1      48.949  27.242  34.246  1.00  0.00     0.020 A 
ATOM     86  C   UNL A   1      47.620  25.726  35.603  1.00  0.00     0.020 A 
ATOM     87  C   UNL A   1      48.856  26.267  35.244  1.00  0.00     0.054 A 
BRANCH  87  88
ATOM     88  S   UNL A   1      50.367  25.741  36.097  1.00  0.00     0.124 S 
ATOM     89  O   UNL A   1      49.919  25.663  37.485  1.00  0.00    -0.237 OA
ATOM     90  O   UNL A   1      50.670  24.461  35.462  1.00  0.00    -0.237 OA
ATOM     91  O   UNL A   1      51.317  26.813  35.809  1.00  0.00    -0.744 OA
ENDBRANCH  87  88
ENDBRANCH  61  82
ENDBRANCH  35  36
ENDBRANCH  27  30
ENDBRANCH  25  26
ENDBRANCH  24  25
ENDBRANCH  23  24
ENDBRANCH  22  23
ENDBRANCH   1  22
TORSDOF 22
ENDMDL
