MODEL 1
REMARK VINA RESULT:     -12.0      0.000      0.000
REMARK SMILES Cc1ccc(NC(=O)C[C@H]2C(=O)NCCN2C(=O)CCC(=O)NCCCCCCNC(=O)c2ccc(-c3c4nc(c(-c5ccc(S(=O)(=O)[O-])cc5)c5ccc([nH]5)c(-c5ccc(S(=O)(=O)[O-])cc5)c5nc(c(-c6ccc(S(=O)(=O)[O-])cc6)c6ccc3[nH]6)C=C5)C=C4)cc2)c(C)c1
REMARK SMILES IDX 25 1 24 2 23 3 21 4 22 5 20 7 19 8 17 9 18 10 16 11 10 12
REMARK SMILES IDX 11 13 12 14 13 15 15 16 14 17 9 19 7 20 6 21 8 23 5 24 1 25
REMARK SMILES IDX 2 26 3 27 95 28 4 29 93 30 94 31 26 32 27 33 28 34 29 35
REMARK SMILES IDX 30 36 31 37 32 39 33 40 34 41 92 42 35 43 91 44 36 45 37 46
REMARK SMILES IDX 38 47 85 48 39 49 90 50 84 51 86 52 40 53 89 54 83 55 82 56
REMARK SMILES IDX 41 58 71 59 52 60 70 61 53 62 56 63 69 64 87 65 54 66 55 67
REMARK SMILES IDX 68 69 88 70 57 71 42 72 43 73 51 74 44 75 50 76 45 77 46 78
REMARK SMILES IDX 47 79 48 80 49 81 72 82 73 83 81 84 74 85 80 86 75 87 76 88
REMARK SMILES IDX 77 89 78 90 79 91 58 92 59 93 67 94 60 95 66 96 61 97 62 98
REMARK SMILES IDX 63 99 64 100 65 101
REMARK H PARENT 23 6 13 18 6 22 30 38 86 57 56 68
REMARK Flexibility Score: inf
ROOT
ATOM      1  C   UNL A   1      33.540  30.049  27.503  1.00  0.00     0.021 C 
ENDROOT
BRANCH   1   2
ATOM      2  C   UNL A   1      34.230  28.958  26.567  1.00  0.00     0.116 C 
BRANCH   2   3
ATOM      3  N   UNL A   1      34.095  28.968  25.106  1.00  0.00    -0.356 N 
ATOM      4  C   UNL A   1      33.123  29.219  24.183  1.00  0.00     0.220 C 
ATOM      5  O   UNL A   1      33.418  29.293  22.986  1.00  0.00    -0.275 OA
ATOM      6  H   UNL A   1      34.944  28.725  24.669  1.00  0.00     0.163 HD
BRANCH   4   7
ATOM      7  C   UNL A   1      31.690  29.236  24.551  1.00  0.00     0.110 C 
BRANCH   7   8
ATOM      8  C   UNL A   1      30.919  28.958  23.279  1.00  0.00     0.110 C 
BRANCH   8   9
ATOM      9  C   UNL A   1      30.399  27.563  23.372  1.00  0.00     0.223 C 
ATOM     10  O   UNL A   1      29.165  27.442  23.326  1.00  0.00    -0.275 OA
BRANCH   9  11
ATOM     11  N   UNL A   1      31.240  26.458  23.596  1.00  0.00    -0.328 N 
ATOM     12  C   UNL A   1      31.738  25.836  24.934  1.00  0.00     0.183 C 
ATOM     13  C   UNL A   1      33.259  25.500  24.848  1.00  0.00     0.243 C 
ATOM     14  O   UNL A   1      33.948  25.307  25.850  1.00  0.00    -0.273 OA
ATOM     15  N   UNL A   1      33.881  25.427  23.635  1.00  0.00    -0.353 N 
ATOM     16  C   UNL A   1      31.901  26.119  22.317  1.00  0.00     0.141 C 
ATOM     17  C   UNL A   1      33.258  25.461  22.344  1.00  0.00     0.137 C 
ATOM     18  H   UNL A   1      34.862  25.341  23.647  1.00  0.00     0.163 HD
BRANCH  12  19
ATOM     19  C   UNL A   1      30.945  24.860  26.121  1.00  0.00     0.135 C 
BRANCH  19  20
ATOM     20  C   UNL A   1      31.026  23.329  26.794  1.00  0.00     0.227 C 
ATOM     21  N   UNL A   1      31.913  22.252  26.796  1.00  0.00    -0.326 N 
ATOM     22  H   UNL A   1      31.512  21.545  27.351  1.00  0.00     0.169 HD
ATOM     23  O   UNL A   1      30.033  23.043  27.506  1.00  0.00    -0.275 OA
BRANCH  21  24
ATOM     24  C   UNL A   1      33.178  21.751  26.316  1.00  0.00     0.044 A 
ATOM     25  C   UNL A   1      36.788  22.155  24.055  1.00  0.00     0.044 C 
ATOM     26  C   UNL A   1      35.690  21.721  24.991  1.00  0.00    -0.051 A 
ATOM     27  C   UNL A   1      35.579  22.260  26.273  1.00  0.00     0.005 A 
ATOM     28  C   UNL A   1      34.626  20.938  24.533  1.00  0.00     0.009 A 
ATOM     29  C   UNL A   1      34.342  22.222  26.954  1.00  0.00     0.026 A 
ATOM     30  C   UNL A   1      33.381  20.914  25.214  1.00  0.00    -0.027 A 
ATOM     31  C   UNL A   1      32.352  19.917  24.774  1.00  0.00     0.046 C 
ENDBRANCH  21  24
ENDBRANCH  19  20
ENDBRANCH  12  19
ENDBRANCH   9  11
ENDBRANCH   8   9
ENDBRANCH   7   8
ENDBRANCH   4   7
ENDBRANCH   2   3
ENDBRANCH   1   2
BRANCH   1  32
ATOM     32  C   UNL A   1      33.289  31.551  27.226  1.00  0.00     0.002 C 
BRANCH  32  33
ATOM     33  C   UNL A   1      33.989  32.599  28.120  1.00  0.00     0.002 C 
BRANCH  33  34
ATOM     34  C   UNL A   1      35.500  32.654  28.003  1.00  0.00     0.021 C 
BRANCH  34  35
ATOM     35  C   UNL A   1      36.224  32.592  29.334  1.00  0.00     0.116 C 
BRANCH  35  36
ATOM     36  N   UNL A   1      35.797  31.480  30.173  1.00  0.00    -0.352 N 
ATOM     37  C   UNL A   1      36.505  30.343  30.520  1.00  0.00     0.251 C 
ATOM     38  H   UNL A   1      34.887  31.546  30.542  1.00  0.00     0.163 HD
ATOM     39  O   UNL A   1      35.993  29.444  31.142  1.00  0.00    -0.269 OA
BRANCH  37  40
ATOM     40  C   UNL A   1      37.910  30.250  30.059  1.00  0.00     0.039 A 
ATOM     41  C   UNL A   1      38.934  30.233  31.007  1.00  0.00     0.014 A 
ATOM     42  C   UNL A   1      38.182  30.044  28.705  1.00  0.00     0.014 A 
ATOM     43  C   UNL A   1      40.230  29.914  30.599  1.00  0.00     0.010 A 
ATOM     44  C   UNL A   1      39.447  29.620  28.324  1.00  0.00     0.010 A 
ATOM     45  C   UNL A   1      40.485  29.553  29.266  1.00  0.00    -0.014 A 
BRANCH  45  46
ATOM     46  C   UNL A   1      41.832  29.112  28.823  1.00  0.00     0.031 A 
ATOM     47  C   UNL A   1      42.957  30.109  28.765  1.00  0.00     0.074 A 
ATOM     48  C   UNL A   1      42.021  27.846  28.399  1.00  0.00     0.049 A 
ATOM     49  N   UNL A   1      44.181  29.945  28.335  1.00  0.00    -0.248 NA
ATOM     50  C   UNL A   1      42.656  31.481  29.208  1.00  0.00     0.031 C 
ATOM     51  C   UNL A   1      40.993  26.801  28.343  1.00  0.00     0.029 A 
ATOM     52  N   UNL A   1      43.149  27.222  27.927  1.00  0.00    -0.354 N 
ATOM     53  C   UNL A   1      44.783  31.195  28.431  1.00  0.00     0.074 A 
ATOM     54  C   UNL A   1      43.773  32.118  28.899  1.00  0.00     0.031 C 
ATOM     55  C   UNL A   1      41.547  25.660  27.901  1.00  0.00     0.029 A 
ATOM     56  C   UNL A   1      42.958  25.897  27.609  1.00  0.00     0.049 A 
ATOM     57  H   UNL A   1      44.014  27.680  27.826  1.00  0.00     0.167 HD
ATOM     58  C   UNL A   1      46.066  31.541  28.179  1.00  0.00     0.031 A 
ATOM     59  C   UNL A   1      43.823  24.977  27.141  1.00  0.00     0.031 A 
ATOM     60  C   UNL A   1      47.076  30.614  27.751  1.00  0.00     0.049 A 
ATOM     61  C   UNL A   1      45.255  25.372  26.912  1.00  0.00     0.074 A 
ATOM     62  C   UNL A   1      48.423  30.845  27.535  1.00  0.00     0.029 A 
ATOM     63  N   UNL A   1      46.850  29.271  27.484  1.00  0.00    -0.354 N 
ATOM     64  N   UNL A   1      45.820  26.545  27.071  1.00  0.00    -0.248 NA
ATOM     65  C   UNL A   1      46.169  24.316  26.454  1.00  0.00     0.031 C 
ATOM     66  C   UNL A   1      49.006  29.649  27.103  1.00  0.00     0.029 A 
ATOM     67  C   UNL A   1      48.030  28.664  27.095  1.00  0.00     0.049 A 
ATOM     68  H   UNL A   1      45.979  28.819  27.559  1.00  0.00     0.167 HD
ATOM     69  C   UNL A   1      47.162  26.363  26.759  1.00  0.00     0.074 A 
ATOM     70  C   UNL A   1      47.326  24.964  26.414  1.00  0.00     0.031 C 
ATOM     71  C   UNL A   1      48.170  27.270  26.759  1.00  0.00     0.031 A 
BRANCH  58  72
ATOM     72  C   UNL A   1      46.442  32.985  28.374  1.00  0.00    -0.014 A 
ATOM     73  C   UNL A   1      46.911  33.451  29.616  1.00  0.00     0.010 A 
ATOM     74  C   UNL A   1      46.339  33.886  27.300  1.00  0.00     0.010 A 
ATOM     75  C   UNL A   1      47.218  34.801  29.796  1.00  0.00     0.020 A 
ATOM     76  C   UNL A   1      46.673  35.234  27.467  1.00  0.00     0.020 A 
ATOM     77  C   UNL A   1      47.091  35.686  28.721  1.00  0.00     0.054 A 
BRANCH  77  78
ATOM     78  S   UNL A   1      47.508  37.432  28.977  1.00  0.00     0.124 S 
ATOM     79  O   UNL A   1      46.214  37.996  29.358  1.00  0.00    -0.237 OA
ATOM     80  O   UNL A   1      48.504  37.372  30.043  1.00  0.00    -0.237 OA
ATOM     81  O   UNL A   1      48.015  37.861  27.676  1.00  0.00    -0.744 OA
ENDBRANCH  77  78
ENDBRANCH  58  72
BRANCH  59  82
ATOM     82  C   UNL A   1      43.364  23.582  26.897  1.00  0.00    -0.014 A 
ATOM     83  C   UNL A   1      43.365  23.053  25.593  1.00  0.00     0.010 A 
ATOM     84  C   UNL A   1      42.942  22.769  27.964  1.00  0.00     0.010 A 
ATOM     85  C   UNL A   1      42.937  21.742  25.359  1.00  0.00     0.020 A 
ATOM     86  C   UNL A   1      42.536  21.451  27.737  1.00  0.00     0.020 A 
ATOM     87  C   UNL A   1      42.526  20.949  26.434  1.00  0.00     0.054 A 
BRANCH  87  88
ATOM     88  S   UNL A   1      42.029  19.232  26.117  1.00  0.00     0.124 S 
ATOM     89  O   UNL A   1      42.797  18.911  24.920  1.00  0.00    -0.237 OA
ATOM     90  O   UNL A   1      42.445  18.551  27.340  1.00  0.00    -0.237 OA
ATOM     91  O   UNL A   1      40.582  19.328  25.929  1.00  0.00    -0.744 OA
ENDBRANCH  87  88
ENDBRANCH  59  82
BRANCH  71  92
ATOM     92  C   UNL A   1      49.545  26.774  26.405  1.00  0.00    -0.014 A 
ATOM     93  C   UNL A   1      50.344  26.111  27.353  1.00  0.00     0.010 A 
ATOM     94  C   UNL A   1      50.017  26.926  25.088  1.00  0.00     0.010 A 
ATOM     95  C   UNL A   1      51.606  25.634  26.996  1.00  0.00     0.020 A 
ATOM     96  C   UNL A   1      51.270  26.427  24.723  1.00  0.00     0.020 A 
ATOM     97  C   UNL A   1      52.063  25.796  25.685  1.00  0.00     0.054 A 
BRANCH  97  98
ATOM     98  S   UNL A   1      53.688  25.130  25.234  1.00  0.00     0.124 S 
ATOM     99  O   UNL A   1      54.544  25.688  26.277  1.00  0.00    -0.237 OA
ATOM    100  O   UNL A   1      53.474  23.687  25.301  1.00  0.00    -0.237 OA
ATOM    101  O   UNL A   1      53.916  25.657  23.890  1.00  0.00    -0.744 OA
ENDBRANCH  97  98
ENDBRANCH  71  92
ENDBRANCH  45  46
ENDBRANCH  37  40
ENDBRANCH  35  36
ENDBRANCH  34  35
ENDBRANCH  33  34
ENDBRANCH  32  33
ENDBRANCH   1  32
TORSDOF 22
ENDMDL
MODEL 2
REMARK VINA RESULT:     -11.6      5.774      8.250
REMARK SMILES Cc1ccc(NC(=O)C[C@H]2C(=O)NCCN2C(=O)CCC(=O)NCCCCCCNC(=O)c2ccc(-c3c4nc(c(-c5ccc(S(=O)(=O)[O-])cc5)c5ccc([nH]5)c(-c5ccc(S(=O)(=O)[O-])cc5)c5nc(c(-c6ccc(S(=O)(=O)[O-])cc6)c6ccc3[nH]6)C=C5)C=C4)cc2)c(C)c1
REMARK SMILES IDX 25 1 24 2 23 3 21 4 22 5 20 7 19 8 17 9 18 10 16 11 10 12
REMARK SMILES IDX 11 13 12 14 13 15 15 16 14 17 9 19 7 20 6 21 8 23 5 24 1 25
REMARK SMILES IDX 2 26 3 27 95 28 4 29 93 30 94 31 26 32 27 33 28 34 29 35
REMARK SMILES IDX 30 36 31 37 32 39 33 40 34 41 92 42 35 43 91 44 36 45 37 46
REMARK SMILES IDX 38 47 85 48 39 49 90 50 84 51 86 52 40 53 89 54 83 55 82 56
REMARK SMILES IDX 41 58 71 59 52 60 70 61 53 62 56 63 69 64 87 65 54 66 55 67
REMARK SMILES IDX 68 69 88 70 57 71 42 72 43 73 51 74 44 75 50 76 45 77 46 78
REMARK SMILES IDX 47 79 48 80 49 81 72 82 73 83 81 84 74 85 80 86 75 87 76 88
REMARK SMILES IDX 77 89 78 90 79 91 58 92 59 93 67 94 60 95 66 96 61 97 62 98
REMARK SMILES IDX 63 99 64 100 65 101
REMARK H PARENT 23 6 13 18 6 22 30 38 86 57 56 68
REMARK Flexibility Score: inf
ROOT
ATOM      1  C   UNL A   1      32.339  27.067  26.433  1.00  0.00     0.021 C 
ENDROOT
BRANCH   1   2
ATOM      2  C   UNL A   1      30.968  26.259  26.530  1.00  0.00     0.116 C 
BRANCH   2   3
ATOM      3  N   UNL A   1      30.795  24.919  25.956  1.00  0.00    -0.356 N 
ATOM      4  C   UNL A   1      31.104  23.632  26.285  1.00  0.00     0.220 C 
ATOM      5  O   UNL A   1      30.642  22.701  25.618  1.00  0.00    -0.275 OA
ATOM      6  H   UNL A   1      30.324  24.960  25.092  1.00  0.00     0.163 HD
BRANCH   4   7
ATOM      7  C   UNL A   1      32.116  23.317  27.317  1.00  0.00     0.110 C 
BRANCH   7   8
ATOM      8  C   UNL A   1      33.463  23.392  26.630  1.00  0.00     0.110 C 
BRANCH   8   9
ATOM      9  C   UNL A   1      34.126  22.068  26.810  1.00  0.00     0.223 C 
ATOM     10  O   UNL A   1      34.383  21.747  27.981  1.00  0.00    -0.275 OA
BRANCH   9  11
ATOM     11  N   UNL A   1      34.528  21.272  25.723  1.00  0.00    -0.328 N 
ATOM     12  C   UNL A   1      33.709  20.260  24.868  1.00  0.00     0.183 C 
ATOM     13  C   UNL A   1      34.532  18.955  24.628  1.00  0.00     0.243 C 
ATOM     14  O   UNL A   1      34.004  17.902  24.269  1.00  0.00    -0.273 OA
ATOM     15  N   UNL A   1      35.882  18.946  24.829  1.00  0.00    -0.353 N 
ATOM     16  C   UNL A   1      36.008  21.269  25.679  1.00  0.00     0.141 C 
ATOM     17  C   UNL A   1      36.722  20.077  25.093  1.00  0.00     0.137 C 
ATOM     18  H   UNL A   1      36.326  18.068  24.788  1.00  0.00     0.163 HD
BRANCH  12  19
ATOM     19  C   UNL A   1      32.516  20.486  23.637  1.00  0.00     0.135 C 
BRANCH  19  20
ATOM     20  C   UNL A   1      32.147  21.520  22.374  1.00  0.00     0.227 C 
ATOM     21  N   UNL A   1      32.142  22.895  22.139  1.00  0.00    -0.326 N 
ATOM     22  H   UNL A   1      31.835  23.031  21.213  1.00  0.00     0.169 HD
ATOM     23  O   UNL A   1      31.776  20.925  21.333  1.00  0.00    -0.275 OA
BRANCH  21  24
ATOM     24  C   UNL A   1      32.404  24.200  22.697  1.00  0.00     0.044 A 
ATOM     25  C   UNL A   1      33.032  28.415  22.313  1.00  0.00     0.044 C 
ATOM     26  C   UNL A   1      32.781  27.012  22.804  1.00  0.00    -0.051 A 
ATOM     27  C   UNL A   1      31.493  26.475  22.827  1.00  0.00     0.005 A 
ATOM     28  C   UNL A   1      33.843  26.135  23.043  1.00  0.00     0.009 A 
ATOM     29  C   UNL A   1      31.309  25.075  22.831  1.00  0.00     0.026 A 
ATOM     30  C   UNL A   1      33.654  24.728  23.033  1.00  0.00    -0.027 A 
ATOM     31  C   UNL A   1      34.792  23.858  23.475  1.00  0.00     0.046 C 
ENDBRANCH  21  24
ENDBRANCH  19  20
ENDBRANCH  12  19
ENDBRANCH   9  11
ENDBRANCH   8   9
ENDBRANCH   7   8
ENDBRANCH   4   7
ENDBRANCH   2   3
ENDBRANCH   1   2
BRANCH   1  32
ATOM     32  C   UNL A   1      32.797  28.307  27.239  1.00  0.00     0.002 C 
BRANCH  32  33
ATOM     33  C   UNL A   1      33.282  29.556  26.469  1.00  0.00     0.002 C 
BRANCH  33  34
ATOM     34  C   UNL A   1      32.676  30.874  26.912  1.00  0.00     0.021 C 
BRANCH  34  35
ATOM     35  C   UNL A   1      33.656  31.801  27.605  1.00  0.00     0.116 C 
BRANCH  35  36
ATOM     36  N   UNL A   1      33.147  33.154  27.781  1.00  0.00    -0.352 N 
ATOM     37  C   UNL A   1      33.525  34.101  28.717  1.00  0.00     0.251 C 
ATOM     38  H   UNL A   1      32.443  33.432  27.151  1.00  0.00     0.163 HD
ATOM     39  O   UNL A   1      32.945  35.155  28.819  1.00  0.00    -0.269 OA
BRANCH  37  40
ATOM     40  C   UNL A   1      34.644  33.752  29.622  1.00  0.00     0.039 A 
ATOM     41  C   UNL A   1      34.401  32.905  30.704  1.00  0.00     0.014 A 
ATOM     42  C   UNL A   1      35.942  34.157  29.305  1.00  0.00     0.014 A 
ATOM     43  C   UNL A   1      35.484  32.388  31.417  1.00  0.00     0.010 A 
ATOM     44  C   UNL A   1      37.016  33.555  29.945  1.00  0.00     0.010 A 
ATOM     45  C   UNL A   1      36.799  32.667  31.010  1.00  0.00    -0.014 A 
BRANCH  45  46
ATOM     46  C   UNL A   1      37.969  32.053  31.685  1.00  0.00     0.031 A 
ATOM     47  C   UNL A   1      38.411  32.575  33.026  1.00  0.00     0.074 A 
ATOM     48  C   UNL A   1      38.679  31.090  31.063  1.00  0.00     0.049 A 
ATOM     49  N   UNL A   1      39.448  32.231  33.743  1.00  0.00    -0.248 NA
ATOM     50  C   UNL A   1      37.604  33.656  33.619  1.00  0.00     0.031 C 
ATOM     51  C   UNL A   1      38.393  30.544  29.732  1.00  0.00     0.029 A 
ATOM     52  N   UNL A   1      39.795  30.401  31.468  1.00  0.00    -0.354 N 
ATOM     53  C   UNL A   1      39.432  33.069  34.853  1.00  0.00     0.074 A 
ATOM     54  C   UNL A   1      38.321  33.978  34.683  1.00  0.00     0.031 C 
ATOM     55  C   UNL A   1      39.286  29.581  29.449  1.00  0.00     0.029 A 
ATOM     56  C   UNL A   1      40.227  29.463  30.559  1.00  0.00     0.049 A 
ATOM     57  H   UNL A   1      40.244  30.562  32.329  1.00  0.00     0.167 HD
ATOM     58  C   UNL A   1      40.251  33.067  35.930  1.00  0.00     0.031 A 
ATOM     59  C   UNL A   1      41.261  28.602  30.617  1.00  0.00     0.031 A 
ATOM     60  C   UNL A   1      41.330  32.137  36.114  1.00  0.00     0.049 A 
ATOM     61  C   UNL A   1      42.129  28.585  31.843  1.00  0.00     0.074 A 
ATOM     62  C   UNL A   1      42.176  32.003  37.200  1.00  0.00     0.029 A 
ATOM     63  N   UNL A   1      41.705  31.174  35.189  1.00  0.00    -0.354 N 
ATOM     64  N   UNL A   1      42.058  29.343  32.912  1.00  0.00    -0.248 NA
ATOM     65  C   UNL A   1      43.209  27.588  31.879  1.00  0.00     0.031 C 
ATOM     66  C   UNL A   1      43.086  30.979  36.918  1.00  0.00     0.029 A 
ATOM     67  C   UNL A   1      42.777  30.447  35.675  1.00  0.00     0.049 A 
ATOM     68  H   UNL A   1      41.273  31.029  34.316  1.00  0.00     0.167 HD
ATOM     69  C   UNL A   1      43.065  28.896  33.759  1.00  0.00     0.074 A 
ATOM     70  C   UNL A   1      43.724  27.795  33.083  1.00  0.00     0.031 C 
ATOM     71  C   UNL A   1      43.415  29.355  34.986  1.00  0.00     0.031 A 
BRANCH  58  72
ATOM     72  C   UNL A   1      39.993  34.100  36.994  1.00  0.00    -0.014 A 
ATOM     73  C   UNL A   1      39.165  33.816  38.095  1.00  0.00     0.010 A 
ATOM     74  C   UNL A   1      40.596  35.367  36.899  1.00  0.00     0.010 A 
ATOM     75  C   UNL A   1      38.901  34.796  39.054  1.00  0.00     0.020 A 
ATOM     76  C   UNL A   1      40.358  36.342  37.873  1.00  0.00     0.020 A 
ATOM     77  C   UNL A   1      39.495  36.056  38.933  1.00  0.00     0.054 A 
BRANCH  77  78
ATOM     78  S   UNL A   1      39.146  37.307  40.198  1.00  0.00     0.124 S 
ATOM     79  O   UNL A   1      38.394  36.534  41.185  1.00  0.00    -0.237 OA
ATOM     80  O   UNL A   1      40.481  37.726  40.616  1.00  0.00    -0.237 OA
ATOM     81  O   UNL A   1      38.374  38.318  39.481  1.00  0.00    -0.744 OA
ENDBRANCH  77  78
ENDBRANCH  58  72
BRANCH  59  82
ATOM     82  C   UNL A   1      41.504  27.656  29.492  1.00  0.00    -0.014 A 
ATOM     83  C   UNL A   1      42.641  27.803  28.676  1.00  0.00     0.010 A 
ATOM     84  C   UNL A   1      40.615  26.596  29.242  1.00  0.00     0.010 A 
ATOM     85  C   UNL A   1      42.875  26.917  27.620  1.00  0.00     0.020 A 
ATOM     86  C   UNL A   1      40.858  25.694  28.202  1.00  0.00     0.020 A 
ATOM     87  C   UNL A   1      41.982  25.866  27.391  1.00  0.00     0.054 A 
BRANCH  87  88
ATOM     88  S   UNL A   1      42.334  24.693  26.051  1.00  0.00     0.124 S 
ATOM     89  O   UNL A   1      42.323  25.560  24.878  1.00  0.00    -0.237 OA
ATOM     90  O   UNL A   1      43.639  24.159  26.433  1.00  0.00    -0.237 OA
ATOM     91  O   UNL A   1      41.230  23.738  26.138  1.00  0.00    -0.744 OA
ENDBRANCH  87  88
ENDBRANCH  59  82
BRANCH  71  92
ATOM     92  C   UNL A   1      44.538  28.648  35.692  1.00  0.00    -0.014 A 
ATOM     93  C   UNL A   1      44.311  27.464  36.416  1.00  0.00     0.010 A 
ATOM     94  C   UNL A   1      45.848  29.148  35.581  1.00  0.00     0.010 A 
ATOM     95  C   UNL A   1      45.373  26.808  37.042  1.00  0.00     0.020 A 
ATOM     96  C   UNL A   1      46.916  28.480  36.185  1.00  0.00     0.020 A 
ATOM     97  C   UNL A   1      46.668  27.321  36.925  1.00  0.00     0.054 A 
BRANCH  97  98
ATOM     98  S   UNL A   1      48.038  26.428  37.709  1.00  0.00     0.124 S 
ATOM     99  O   UNL A   1      49.125  27.398  37.615  1.00  0.00    -0.237 OA
ATOM    100  O   UNL A   1      47.530  26.181  39.056  1.00  0.00    -0.237 OA
ATOM    101  O   UNL A   1      48.192  25.235  36.880  1.00  0.00    -0.744 OA
ENDBRANCH  97  98
ENDBRANCH  71  92
ENDBRANCH  45  46
ENDBRANCH  37  40
ENDBRANCH  35  36
ENDBRANCH  34  35
ENDBRANCH  33  34
ENDBRANCH  32  33
ENDBRANCH   1  32
TORSDOF 22
ENDMDL
MODEL 3
REMARK VINA RESULT:     -11.4      5.780     10.602
REMARK SMILES Cc1ccc(NC(=O)C[C@H]2C(=O)NCCN2C(=O)CCC(=O)NCCCCCCNC(=O)c2ccc(-c3c4nc(c(-c5ccc(S(=O)(=O)[O-])cc5)c5ccc([nH]5)c(-c5ccc(S(=O)(=O)[O-])cc5)c5nc(c(-c6ccc(S(=O)(=O)[O-])cc6)c6ccc3[nH]6)C=C5)C=C4)cc2)c(C)c1
REMARK SMILES IDX 25 1 24 2 23 3 21 4 22 5 20 7 19 8 17 9 18 10 16 11 10 12
REMARK SMILES IDX 11 13 12 14 13 15 15 16 14 17 9 19 7 20 6 21 8 23 5 24 1 25
REMARK SMILES IDX 2 26 3 27 95 28 4 29 93 30 94 31 26 32 27 33 28 34 29 35
REMARK SMILES IDX 30 36 31 37 32 39 33 40 34 41 92 42 35 43 91 44 36 45 37 46
REMARK SMILES IDX 38 47 85 48 39 49 90 50 84 51 86 52 40 53 89 54 83 55 82 56
REMARK SMILES IDX 41 58 71 59 52 60 70 61 53 62 56 63 69 64 87 65 54 66 55 67
REMARK SMILES IDX 68 69 88 70 57 71 42 72 43 73 51 74 44 75 50 76 45 77 46 78
REMARK SMILES IDX 47 79 48 80 49 81 72 82 73 83 81 84 74 85 80 86 75 87 76 88
REMARK SMILES IDX 77 89 78 90 79 91 58 92 59 93 67 94 60 95 66 96 61 97 62 98
REMARK SMILES IDX 63 99 64 100 65 101
REMARK H PARENT 23 6 13 18 6 22 30 38 86 57 56 68
REMARK Flexibility Score: inf
ROOT
ATOM      1  C   UNL A   1      33.327  27.119  26.220  1.00  0.00     0.021 C 
ENDROOT
BRANCH   1   2
ATOM      2  C   UNL A   1      31.892  26.565  26.635  1.00  0.00     0.116 C 
BRANCH   2   3
ATOM      3  N   UNL A   1      31.368  25.280  26.155  1.00  0.00    -0.356 N 
ATOM      4  C   UNL A   1      31.439  23.965  26.510  1.00  0.00     0.220 C 
ATOM      5  O   UNL A   1      30.710  23.140  25.951  1.00  0.00    -0.275 OA
ATOM      6  H   UNL A   1      30.811  25.401  25.353  1.00  0.00     0.163 HD
BRANCH   4   7
ATOM      7  C   UNL A   1      32.485  23.464  27.428  1.00  0.00     0.110 C 
BRANCH   7   8
ATOM      8  C   UNL A   1      33.735  23.286  26.594  1.00  0.00     0.110 C 
BRANCH   8   9
ATOM      9  C   UNL A   1      34.174  21.870  26.750  1.00  0.00     0.223 C 
ATOM     10  O   UNL A   1      34.281  21.462  27.917  1.00  0.00    -0.275 OA
BRANCH   9  11
ATOM     11  N   UNL A   1      34.541  21.068  25.653  1.00  0.00    -0.328 N 
ATOM     12  C   UNL A   1      33.686  20.078  24.809  1.00  0.00     0.183 C 
ATOM     13  C   UNL A   1      34.476  18.756  24.551  1.00  0.00     0.243 C 
ATOM     14  O   UNL A   1      33.920  17.716  24.198  1.00  0.00    -0.273 OA
ATOM     15  N   UNL A   1      35.829  18.717  24.730  1.00  0.00    -0.353 N 
ATOM     16  C   UNL A   1      36.019  21.034  25.584  1.00  0.00     0.141 C 
ATOM     17  C   UNL A   1      36.697  19.829  24.983  1.00  0.00     0.137 C 
ATOM     18  H   UNL A   1      36.254  17.830  24.679  1.00  0.00     0.163 HD
BRANCH  12  19
ATOM     19  C   UNL A   1      32.477  20.333  23.599  1.00  0.00     0.135 C 
BRANCH  19  20
ATOM     20  C   UNL A   1      32.120  21.367  22.332  1.00  0.00     0.227 C 
ATOM     21  N   UNL A   1      32.155  22.740  22.085  1.00  0.00    -0.326 N 
ATOM     22  H   UNL A   1      31.836  22.877  21.163  1.00  0.00     0.169 HD
ATOM     23  O   UNL A   1      31.713  20.776  21.304  1.00  0.00    -0.275 OA
BRANCH  21  24
ATOM     24  C   UNL A   1      32.467  24.040  22.626  1.00  0.00     0.044 A 
ATOM     25  C   UNL A   1      33.141  28.245  22.204  1.00  0.00     0.044 C 
ATOM     26  C   UNL A   1      32.894  26.846  22.710  1.00  0.00    -0.051 A 
ATOM     27  C   UNL A   1      31.601  26.330  22.802  1.00  0.00     0.005 A 
ATOM     28  C   UNL A   1      33.954  25.952  22.891  1.00  0.00     0.009 A 
ATOM     29  C   UNL A   1      31.395  24.933  22.818  1.00  0.00     0.026 A 
ATOM     30  C   UNL A   1      33.742  24.549  22.894  1.00  0.00    -0.027 A 
ATOM     31  C   UNL A   1      34.888  23.661  23.274  1.00  0.00     0.046 C 
ENDBRANCH  21  24
ENDBRANCH  19  20
ENDBRANCH  12  19
ENDBRANCH   9  11
ENDBRANCH   8   9
ENDBRANCH   7   8
ENDBRANCH   4   7
ENDBRANCH   2   3
ENDBRANCH   1   2
BRANCH   1  32
ATOM     32  C   UNL A   1      33.992  28.469  26.584  1.00  0.00     0.002 C 
BRANCH  32  33
ATOM     33  C   UNL A   1      33.312  29.779  26.126  1.00  0.00     0.002 C 
BRANCH  33  34
ATOM     34  C   UNL A   1      32.799  30.674  27.238  1.00  0.00     0.021 C 
BRANCH  34  35
ATOM     35  C   UNL A   1      33.769  31.766  27.647  1.00  0.00     0.116 C 
BRANCH  35  36
ATOM     36  N   UNL A   1      33.154  33.084  27.733  1.00  0.00    -0.352 N 
ATOM     37  C   UNL A   1      33.454  34.119  28.601  1.00  0.00     0.251 C 
ATOM     38  H   UNL A   1      32.431  33.262  27.089  1.00  0.00     0.163 HD
ATOM     39  O   UNL A   1      32.793  35.129  28.634  1.00  0.00    -0.269 OA
BRANCH  37  40
ATOM     40  C   UNL A   1      34.596  33.922  29.523  1.00  0.00     0.039 A 
ATOM     41  C   UNL A   1      34.390  33.234  30.720  1.00  0.00     0.014 A 
ATOM     42  C   UNL A   1      35.880  34.299  29.126  1.00  0.00     0.014 A 
ATOM     43  C   UNL A   1      35.495  32.843  31.477  1.00  0.00     0.010 A 
ATOM     44  C   UNL A   1      36.977  33.814  29.823  1.00  0.00     0.010 A 
ATOM     45  C   UNL A   1      36.796  33.083  31.007  1.00  0.00    -0.014 A 
BRANCH  45  46
ATOM     46  C   UNL A   1      37.991  32.592  31.739  1.00  0.00     0.031 A 
ATOM     47  C   UNL A   1      38.814  31.477  31.153  1.00  0.00     0.074 A 
ATOM     48  C   UNL A   1      38.286  33.087  32.958  1.00  0.00     0.049 A 
ATOM     49  N   UNL A   1      39.843  30.855  31.666  1.00  0.00    -0.248 NA
ATOM     50  C   UNL A   1      38.400  30.964  29.835  1.00  0.00     0.031 C 
ATOM     51  C   UNL A   1      37.527  34.124  33.665  1.00  0.00     0.029 A 
ATOM     52  N   UNL A   1      39.306  32.779  33.824  1.00  0.00    -0.354 N 
ATOM     53  C   UNL A   1      40.179  29.865  30.749  1.00  0.00     0.074 A 
ATOM     54  C   UNL A   1      39.208  29.929  29.680  1.00  0.00     0.031 C 
ATOM     55  C   UNL A   1      38.129  34.390  34.836  1.00  0.00     0.029 A 
ATOM     56  C   UNL A   1      39.294  33.523  34.981  1.00  0.00     0.049 A 
ATOM     57  H   UNL A   1      39.983  32.091  33.634  1.00  0.00     0.167 HD
ATOM     58  C   UNL A   1      41.218  28.998  30.778  1.00  0.00     0.031 A 
ATOM     59  C   UNL A   1      40.131  33.511  36.036  1.00  0.00     0.031 A 
ATOM     60  C   UNL A   1      42.203  28.964  31.822  1.00  0.00     0.049 A 
ATOM     61  C   UNL A   1      41.305  32.572  36.026  1.00  0.00     0.074 A 
ATOM     62  C   UNL A   1      43.335  28.173  31.914  1.00  0.00     0.029 A 
ATOM     63  N   UNL A   1      42.179  29.765  32.954  1.00  0.00    -0.354 N 
ATOM     64  N   UNL A   1      41.643  31.688  35.118  1.00  0.00    -0.248 NA
ATOM     65  C   UNL A   1      42.218  32.639  37.175  1.00  0.00     0.031 C 
ATOM     66  C   UNL A   1      43.978  28.473  33.119  1.00  0.00     0.029 A 
ATOM     67  C   UNL A   1      43.270  29.481  33.755  1.00  0.00     0.049 A 
ATOM     68  H   UNL A   1      41.488  30.436  33.157  1.00  0.00     0.167 HD
ATOM     69  C   UNL A   1      42.823  31.111  35.572  1.00  0.00     0.074 A 
ATOM     70  C   UNL A   1      43.146  31.756  36.830  1.00  0.00     0.031 C 
ATOM     71  C   UNL A   1      43.573  30.137  35.001  1.00  0.00     0.031 A 
BRANCH  58  72
ATOM     72  C   UNL A   1      41.337  28.027  29.634  1.00  0.00    -0.014 A 
ATOM     73  C   UNL A   1      42.214  28.273  28.563  1.00  0.00     0.010 A 
ATOM     74  C   UNL A   1      40.573  26.847  29.636  1.00  0.00     0.010 A 
ATOM     75  C   UNL A   1      42.287  27.385  27.488  1.00  0.00     0.020 A 
ATOM     76  C   UNL A   1      40.663  25.939  28.576  1.00  0.00     0.020 A 
ATOM     77  C   UNL A   1      41.505  26.225  27.499  1.00  0.00     0.054 A 
BRANCH  77  78
ATOM     78  S   UNL A   1      41.626  25.082  26.097  1.00  0.00     0.124 S 
ATOM     79  O   UNL A   1      42.950  24.497  26.301  1.00  0.00    -0.237 OA
ATOM     80  O   UNL A   1      40.500  24.179  26.319  1.00  0.00    -0.237 OA
ATOM     81  O   UNL A   1      41.504  25.952  24.930  1.00  0.00    -0.744 OA
ENDBRANCH  77  78
ENDBRANCH  58  72
BRANCH  59  82
ATOM     82  C   UNL A   1      39.910  34.449  37.171  1.00  0.00    -0.014 A 
ATOM     83  C   UNL A   1      39.179  34.035  38.300  1.00  0.00     0.010 A 
ATOM     84  C   UNL A   1      40.442  35.750  37.140  1.00  0.00     0.010 A 
ATOM     85  C   UNL A   1      38.970  34.912  39.369  1.00  0.00     0.020 A 
ATOM     86  C   UNL A   1      40.255  36.621  38.217  1.00  0.00     0.020 A 
ATOM     87  C   UNL A   1      39.511  36.199  39.321  1.00  0.00     0.054 A 
BRANCH  87  88
ATOM     88  S   UNL A   1      39.278  37.302  40.744  1.00  0.00     0.124 S 
ATOM     89  O   UNL A   1      40.648  37.697  41.049  1.00  0.00    -0.237 OA
ATOM     90  O   UNL A   1      38.423  38.352  40.195  1.00  0.00    -0.237 OA
ATOM     91  O   UNL A   1      38.635  36.443  41.737  1.00  0.00    -0.744 OA
ENDBRANCH  87  88
ENDBRANCH  59  82
BRANCH  71  92
ATOM     92  C   UNL A   1      44.833  29.730  35.714  1.00  0.00    -0.014 A 
ATOM     93  C   UNL A   1      46.049  30.396  35.477  1.00  0.00     0.010 A 
ATOM     94  C   UNL A   1      44.784  28.703  36.674  1.00  0.00     0.010 A 
ATOM     95  C   UNL A   1      47.202  30.020  36.169  1.00  0.00     0.020 A 
ATOM     96  C   UNL A   1      45.930  28.342  37.386  1.00  0.00     0.020 A 
ATOM     97  C   UNL A   1      47.136  28.995  37.117  1.00  0.00     0.054 A 
BRANCH  97  98
ATOM     98  S   UNL A   1      48.637  28.554  38.035  1.00  0.00     0.124 S 
ATOM     99  O   UNL A   1      49.052  27.325  37.364  1.00  0.00    -0.237 OA
ATOM    100  O   UNL A   1      49.500  29.712  37.817  1.00  0.00    -0.237 OA
ATOM    101  O   UNL A   1      48.165  28.387  39.408  1.00  0.00    -0.744 OA
ENDBRANCH  97  98
ENDBRANCH  71  92
ENDBRANCH  45  46
ENDBRANCH  37  40
ENDBRANCH  35  36
ENDBRANCH  34  35
ENDBRANCH  33  34
ENDBRANCH  32  33
ENDBRANCH   1  32
TORSDOF 22
ENDMDL
