MODEL 1
REMARK VINA RESULT:     -10.1      0.000      0.000
REMARK SMILES Cc1cc(C)c(C(=O)NCCCCCCNC(=O)c2ccc(-c3c4nc(c(-c5ccc(S(=O)(=O)[O-])cc5)c5ccc([nH]5)c(-c5ccc(S(=O)(=O)[O-])cc5)c5nc(c(-c6ccc(S(=O)(=O)[O-])cc6)c6ccc3[nH]6)C=C5)C=C4)cc2)c(N[C@@H](CO)C(C)C)n1
REMARK SMILES IDX 12 1 11 2 10 3 9 4 7 5 8 6 6 8 1 9 2 10 3 11 87 12 4 13
REMARK SMILES IDX 79 14 5 15 80 16 81 18 82 19 83 20 84 22 85 23 86 24 13 25
REMARK SMILES IDX 14 26 15 27 16 28 17 29 18 31 19 32 20 33 78 34 21 35 77 36
REMARK SMILES IDX 22 37 23 38 24 39 71 40 25 41 76 42 70 43 72 44 26 45 75 46
REMARK SMILES IDX 69 47 68 48 27 50 57 51 38 52 56 53 39 54 42 55 55 56 73 57
REMARK SMILES IDX 40 58 41 59 54 61 74 62 43 63 28 64 29 65 37 66 30 67 36 68
REMARK SMILES IDX 31 69 32 70 33 71 34 72 35 73 58 74 59 75 67 76 60 77 66 78
REMARK SMILES IDX 61 79 62 80 63 81 64 82 65 83 44 84 45 85 53 86 46 87 52 88
REMARK SMILES IDX 47 89 48 90 49 91 50 92 51 93
REMARK H PARENT 9 7 80 17 83 21 16 30 72 49 42 60
REMARK Flexibility Score: inf
ROOT
ATOM      1  C   UNL A   1      39.176  22.662  26.517  1.00  0.00     0.002 C 
ENDROOT
BRANCH   1   2
ATOM      2  C   UNL A   1      38.049  22.226  25.572  1.00  0.00     0.021 C 
BRANCH   2   3
ATOM      3  C   UNL A   1      36.870  23.182  25.407  1.00  0.00     0.116 C 
BRANCH   3   4
ATOM      4  N   UNL A   1      35.719  22.900  26.240  1.00  0.00    -0.352 N 
ATOM      5  C   UNL A   1      34.376  23.154  26.049  1.00  0.00     0.255 C 
ATOM      6  O   UNL A   1      33.602  22.763  26.928  1.00  0.00    -0.269 OA
ATOM      7  H   UNL A   1      35.932  22.450  27.090  1.00  0.00     0.163 HD
BRANCH   5   8
ATOM      8  C   UNL A   1      33.830  23.939  24.892  1.00  0.00     0.085 A 
ATOM      9  C   UNL A   1      32.058  25.782  21.475  1.00  0.00     0.067 C 
ATOM     10  C   UNL A   1      32.712  25.165  22.673  1.00  0.00     0.040 A 
ATOM     11  C   UNL A   1      33.105  25.945  23.744  1.00  0.00     0.028 A 
ATOM     12  N   UNL A   1      32.923  23.837  22.647  1.00  0.00    -0.236 NA
ATOM     13  C   UNL A   1      33.735  25.345  24.846  1.00  0.00    -0.033 A 
ATOM     14  C   UNL A   1      33.485  23.223  23.719  1.00  0.00     0.139 A 
ATOM     15  C   UNL A   1      34.323  26.292  25.851  1.00  0.00     0.045 C 
BRANCH  14  16
ATOM     16  N   UNL A   1      33.700  21.859  23.587  1.00  0.00    -0.364 N 
ATOM     17  H   UNL A   1      34.575  21.538  23.271  1.00  0.00     0.162 HD
BRANCH  16  18
ATOM     18  C   UNL A   1      32.654  20.881  23.908  1.00  0.00     0.108 C 
BRANCH  18  19
ATOM     19  C   UNL A   1      32.138  20.253  22.590  1.00  0.00     0.181 C 
BRANCH  19  20
ATOM     20  O   UNL A   1      31.647  21.236  21.678  1.00  0.00    -0.394 OA
ATOM     21  H   UNL A   1      30.891  21.696  22.075  1.00  0.00     0.210 HD
ENDBRANCH  19  20
ENDBRANCH  18  19
BRANCH  18  22
ATOM     22  C   UNL A   1      33.215  19.841  24.911  1.00  0.00     0.007 C 
ATOM     23  C   UNL A   1      32.563  18.467  24.698  1.00  0.00     0.009 C 
ATOM     24  C   UNL A   1      34.736  19.685  24.776  1.00  0.00     0.009 C 
ENDBRANCH  18  22
ENDBRANCH  16  18
ENDBRANCH  14  16
ENDBRANCH   5   8
ENDBRANCH   3   4
ENDBRANCH   2   3
ENDBRANCH   1   2
BRANCH   1  25
ATOM     25  C   UNL A   1      40.340  21.692  26.743  1.00  0.00     0.002 C 
BRANCH  25  26
ATOM     26  C   UNL A   1      41.356  22.046  27.830  1.00  0.00     0.021 C 
BRANCH  26  27
ATOM     27  C   UNL A   1      42.595  22.814  27.385  1.00  0.00     0.116 C 
BRANCH  27  28
ATOM     28  N   UNL A   1      42.382  23.626  26.200  1.00  0.00    -0.352 N 
ATOM     29  C   UNL A   1      42.028  24.951  26.099  1.00  0.00     0.251 C 
ATOM     30  H   UNL A   1      42.509  23.158  25.343  1.00  0.00     0.163 HD
ATOM     31  O   UNL A   1      41.800  25.438  24.995  1.00  0.00    -0.269 OA
BRANCH  29  32
ATOM     32  C   UNL A   1      41.882  25.783  27.317  1.00  0.00     0.039 A 
ATOM     33  C   UNL A   1      42.900  26.684  27.640  1.00  0.00     0.014 A 
ATOM     34  C   UNL A   1      40.755  25.682  28.137  1.00  0.00     0.014 A 
ATOM     35  C   UNL A   1      42.754  27.535  28.740  1.00  0.00     0.010 A 
ATOM     36  C   UNL A   1      40.579  26.579  29.190  1.00  0.00     0.010 A 
ATOM     37  C   UNL A   1      41.574  27.518  29.501  1.00  0.00    -0.014 A 
BRANCH  37  38
ATOM     38  C   UNL A   1      41.357  28.480  30.614  1.00  0.00     0.031 A 
ATOM     39  C   UNL A   1      42.196  28.403  31.862  1.00  0.00     0.074 A 
ATOM     40  C   UNL A   1      40.359  29.384  30.531  1.00  0.00     0.049 A 
ATOM     41  N   UNL A   1      42.108  29.111  32.959  1.00  0.00    -0.248 NA
ATOM     42  C   UNL A   1      43.254  27.381  31.890  1.00  0.00     0.031 C 
ATOM     43  C   UNL A   1      39.448  29.538  29.393  1.00  0.00     0.029 A 
ATOM     44  N   UNL A   1      39.935  30.338  31.424  1.00  0.00    -0.354 N 
ATOM     45  C   UNL A   1      43.085  28.611  33.813  1.00  0.00     0.074 A 
ATOM     46  C   UNL A   1      43.720  27.508  33.124  1.00  0.00     0.031 C 
ATOM     47  C   UNL A   1      38.593  30.542  29.646  1.00  0.00     0.029 A 
ATOM     48  C   UNL A   1      38.862  31.075  30.978  1.00  0.00     0.049 A 
ATOM     49  H   UNL A   1      40.359  30.481  32.300  1.00  0.00     0.167 HD
ATOM     50  C   UNL A   1      43.435  29.040  35.049  1.00  0.00     0.031 A 
ATOM     51  C   UNL A   1      38.165  32.063  31.575  1.00  0.00     0.031 A 
ATOM     52  C   UNL A   1      42.808  30.144  35.728  1.00  0.00     0.049 A 
ATOM     53  C   UNL A   1      38.565  32.517  32.951  1.00  0.00     0.074 A 
ATOM     54  C   UNL A   1      43.127  30.688  36.960  1.00  0.00     0.029 A 
ATOM     55  N   UNL A   1      41.735  30.871  35.236  1.00  0.00    -0.354 N 
ATOM     56  N   UNL A   1      39.532  32.069  33.717  1.00  0.00    -0.248 NA
ATOM     57  C   UNL A   1      37.788  33.616  33.542  1.00  0.00     0.031 C 
ATOM     58  C   UNL A   1      42.214  31.711  37.236  1.00  0.00     0.029 A 
ATOM     59  C   UNL A   1      41.365  31.845  36.148  1.00  0.00     0.049 A 
ATOM     60  H   UNL A   1      41.301  30.718  34.366  1.00  0.00     0.167 HD
ATOM     61  C   UNL A   1      39.501  32.855  34.864  1.00  0.00     0.074 A 
ATOM     62  C   UNL A   1      38.425  33.808  34.689  1.00  0.00     0.031 C 
ATOM     63  C   UNL A   1      40.296  32.793  35.961  1.00  0.00     0.031 A 
BRANCH  50  64
ATOM     64  C   UNL A   1      44.546  28.305  35.754  1.00  0.00    -0.014 A 
ATOM     65  C   UNL A   1      44.278  27.189  36.568  1.00  0.00     0.010 A 
ATOM     66  C   UNL A   1      45.880  28.710  35.569  1.00  0.00     0.010 A 
ATOM     67  C   UNL A   1      45.318  26.522  37.221  1.00  0.00     0.020 A 
ATOM     68  C   UNL A   1      46.926  28.028  36.196  1.00  0.00     0.020 A 
ATOM     69  C   UNL A   1      46.636  26.949  37.035  1.00  0.00     0.054 A 
BRANCH  69  70
ATOM     70  S   UNL A   1      47.967  26.056  37.883  1.00  0.00     0.124 S 
ATOM     71  O   UNL A   1      47.840  26.557  39.250  1.00  0.00    -0.237 OA
ATOM     72  O   UNL A   1      47.590  24.659  37.690  1.00  0.00    -0.237 OA
ATOM     73  O   UNL A   1      49.174  26.477  37.176  1.00  0.00    -0.744 OA
ENDBRANCH  69  70
ENDBRANCH  50  64
BRANCH  51  74
ATOM     74  C   UNL A   1      37.025  32.701  30.861  1.00  0.00    -0.014 A 
ATOM     75  C   UNL A   1      35.699  32.381  31.201  1.00  0.00     0.010 A 
ATOM     76  C   UNL A   1      37.260  33.648  29.846  1.00  0.00     0.010 A 
ATOM     77  C   UNL A   1      34.630  32.982  30.530  1.00  0.00     0.020 A 
ATOM     78  C   UNL A   1      36.194  34.272  29.193  1.00  0.00     0.020 A 
ATOM     79  C   UNL A   1      34.885  33.927  29.532  1.00  0.00     0.054 A 
BRANCH  79  80
ATOM     80  S   UNL A   1      33.481  34.734  28.712  1.00  0.00     0.124 S 
ATOM     81  O   UNL A   1      34.106  35.921  28.138  1.00  0.00    -0.237 OA
ATOM     82  O   UNL A   1      33.048  33.719  27.755  1.00  0.00    -0.237 OA
ATOM     83  O   UNL A   1      32.546  34.985  29.808  1.00  0.00    -0.744 OA
ENDBRANCH  79  80
ENDBRANCH  51  74
BRANCH  63  84
ATOM     84  C   UNL A   1      40.068  33.811  37.046  1.00  0.00    -0.014 A 
ATOM     85  C   UNL A   1      40.717  35.057  37.030  1.00  0.00     0.010 A 
ATOM     86  C   UNL A   1      39.133  33.538  38.062  1.00  0.00     0.010 A 
ATOM     87  C   UNL A   1      40.451  36.005  38.023  1.00  0.00     0.020 A 
ATOM     88  C   UNL A   1      38.843  34.492  39.040  1.00  0.00     0.020 A 
ATOM     89  C   UNL A   1      39.514  35.716  39.020  1.00  0.00     0.054 A 
BRANCH  89  90
ATOM     90  S   UNL A   1      39.143  36.985  40.264  1.00  0.00     0.124 S 
ATOM     91  O   UNL A   1      38.257  36.267  41.175  1.00  0.00    -0.237 OA
ATOM     92  O   UNL A   1      40.465  37.306  40.796  1.00  0.00    -0.237 OA
ATOM     93  O   UNL A   1      38.513  38.053  39.491  1.00  0.00    -0.744 OA
ENDBRANCH  89  90
ENDBRANCH  63  84
ENDBRANCH  37  38
ENDBRANCH  29  32
ENDBRANCH  27  28
ENDBRANCH  26  27
ENDBRANCH  25  26
ENDBRANCH   1  25
TORSDOF 21
ENDMDL
MODEL 2
REMARK VINA RESULT:      -9.4      0.857      2.304
REMARK SMILES Cc1cc(C)c(C(=O)NCCCCCCNC(=O)c2ccc(-c3c4nc(c(-c5ccc(S(=O)(=O)[O-])cc5)c5ccc([nH]5)c(-c5ccc(S(=O)(=O)[O-])cc5)c5nc(c(-c6ccc(S(=O)(=O)[O-])cc6)c6ccc3[nH]6)C=C5)C=C4)cc2)c(N[C@@H](CO)C(C)C)n1
REMARK SMILES IDX 12 1 11 2 10 3 9 4 7 5 8 6 6 8 1 9 2 10 3 11 87 12 4 13
REMARK SMILES IDX 79 14 5 15 80 16 81 18 82 19 83 20 84 22 85 23 86 24 13 25
REMARK SMILES IDX 14 26 15 27 16 28 17 29 18 31 19 32 20 33 78 34 21 35 77 36
REMARK SMILES IDX 22 37 23 38 24 39 71 40 25 41 76 42 70 43 72 44 26 45 75 46
REMARK SMILES IDX 69 47 68 48 27 50 57 51 38 52 56 53 39 54 42 55 55 56 73 57
REMARK SMILES IDX 40 58 41 59 54 61 74 62 43 63 28 64 29 65 37 66 30 67 36 68
REMARK SMILES IDX 31 69 32 70 33 71 34 72 35 73 58 74 59 75 67 76 60 77 66 78
REMARK SMILES IDX 61 79 62 80 63 81 64 82 65 83 44 84 45 85 53 86 46 87 52 88
REMARK SMILES IDX 47 89 48 90 49 91 50 92 51 93
REMARK H PARENT 9 7 80 17 83 21 16 30 72 49 42 60
REMARK Flexibility Score: inf
ROOT
ATOM      1  C   UNL A   1      39.072  22.316  26.427  1.00  0.00     0.002 C 
ENDROOT
BRANCH   1   2
ATOM      2  C   UNL A   1      37.970  21.608  25.630  1.00  0.00     0.021 C 
BRANCH   2   3
ATOM      3  C   UNL A   1      36.649  22.354  25.453  1.00  0.00     0.116 C 
BRANCH   3   4
ATOM      4  N   UNL A   1      35.675  22.152  26.506  1.00  0.00    -0.352 N 
ATOM      5  C   UNL A   1      34.383  21.668  26.464  1.00  0.00     0.255 C 
ATOM      6  O   UNL A   1      33.788  21.571  27.543  1.00  0.00    -0.269 OA
ATOM      7  H   UNL A   1      35.987  22.404  27.404  1.00  0.00     0.163 HD
BRANCH   5   8
ATOM      8  C   UNL A   1      33.652  21.340  25.196  1.00  0.00     0.085 A 
ATOM      9  C   UNL A   1      31.575  20.862  21.498  1.00  0.00     0.067 C 
ATOM     10  C   UNL A   1      32.287  20.992  22.810  1.00  0.00     0.040 A 
ATOM     11  C   UNL A   1      33.010  19.935  23.329  1.00  0.00     0.028 A 
ATOM     12  N   UNL A   1      32.167  22.160  23.465  1.00  0.00    -0.236 NA
ATOM     13  C   UNL A   1      33.651  20.076  24.571  1.00  0.00    -0.033 A 
ATOM     14  C   UNL A   1      32.816  22.341  24.643  1.00  0.00     0.139 A 
ATOM     15  C   UNL A   1      34.219  18.815  25.154  1.00  0.00     0.045 C 
BRANCH  14  16
ATOM     16  N   UNL A   1      32.602  23.562  25.267  1.00  0.00    -0.364 N 
ATOM     17  H   UNL A   1      32.607  23.607  26.250  1.00  0.00     0.162 HD
BRANCH  16  18
ATOM     18  C   UNL A   1      32.369  24.789  24.496  1.00  0.00     0.108 C 
BRANCH  18  19
ATOM     19  C   UNL A   1      30.995  25.378  24.902  1.00  0.00     0.181 C 
BRANCH  19  20
ATOM     20  O   UNL A   1      29.917  24.789  24.174  1.00  0.00    -0.394 OA
ATOM     21  H   UNL A   1      29.125  25.340  24.267  1.00  0.00     0.210 HD
ENDBRANCH  19  20
ENDBRANCH  18  19
BRANCH  18  22
ATOM     22  C   UNL A   1      33.551  25.766  24.717  1.00  0.00     0.007 C 
ATOM     23  C   UNL A   1      33.587  26.840  23.619  1.00  0.00     0.009 C 
ATOM     24  C   UNL A   1      33.463  26.465  26.080  1.00  0.00     0.009 C 
ENDBRANCH  18  22
ENDBRANCH  16  18
ENDBRANCH  14  16
ENDBRANCH   5   8
ENDBRANCH   3   4
ENDBRANCH   2   3
ENDBRANCH   1   2
BRANCH   1  25
ATOM     25  C   UNL A   1      40.366  21.545  26.705  1.00  0.00     0.002 C 
BRANCH  25  26
ATOM     26  C   UNL A   1      41.275  22.067  27.819  1.00  0.00     0.021 C 
BRANCH  26  27
ATOM     27  C   UNL A   1      42.529  22.819  27.385  1.00  0.00     0.116 C 
BRANCH  27  28
ATOM     28  N   UNL A   1      42.336  23.633  26.198  1.00  0.00    -0.352 N 
ATOM     29  C   UNL A   1      42.000  24.962  26.094  1.00  0.00     0.251 C 
ATOM     30  H   UNL A   1      42.466  23.164  25.343  1.00  0.00     0.163 HD
ATOM     31  O   UNL A   1      41.789  25.452  24.988  1.00  0.00    -0.269 OA
BRANCH  29  32
ATOM     32  C   UNL A   1      41.854  25.796  27.311  1.00  0.00     0.039 A 
ATOM     33  C   UNL A   1      42.845  26.737  27.603  1.00  0.00     0.014 A 
ATOM     34  C   UNL A   1      40.753  25.658  28.161  1.00  0.00     0.014 A 
ATOM     35  C   UNL A   1      42.695  27.590  28.701  1.00  0.00     0.010 A 
ATOM     36  C   UNL A   1      40.570  26.555  29.212  1.00  0.00     0.010 A 
ATOM     37  C   UNL A   1      41.537  27.533  29.492  1.00  0.00    -0.014 A 
BRANCH  37  38
ATOM     38  C   UNL A   1      41.312  28.494  30.605  1.00  0.00     0.031 A 
ATOM     39  C   UNL A   1      42.153  28.426  31.852  1.00  0.00     0.074 A 
ATOM     40  C   UNL A   1      40.305  29.388  30.522  1.00  0.00     0.049 A 
ATOM     41  N   UNL A   1      42.060  29.133  32.949  1.00  0.00    -0.248 NA
ATOM     42  C   UNL A   1      43.220  27.414  31.879  1.00  0.00     0.031 C 
ATOM     43  C   UNL A   1      39.391  29.533  29.385  1.00  0.00     0.029 A 
ATOM     44  N   UNL A   1      39.873  30.338  31.415  1.00  0.00    -0.354 N 
ATOM     45  C   UNL A   1      43.043  28.643  33.802  1.00  0.00     0.074 A 
ATOM     46  C   UNL A   1      43.687  27.546  33.112  1.00  0.00     0.031 C 
ATOM     47  C   UNL A   1      38.527  30.528  29.639  1.00  0.00     0.029 A 
ATOM     48  C   UNL A   1      38.792  31.065  30.970  1.00  0.00     0.049 A 
ATOM     49  H   UNL A   1      40.297  30.486  32.291  1.00  0.00     0.167 HD
ATOM     50  C   UNL A   1      43.389  29.076  35.037  1.00  0.00     0.031 A 
ATOM     51  C   UNL A   1      38.086  32.046  31.567  1.00  0.00     0.031 A 
ATOM     52  C   UNL A   1      42.753  30.174  35.716  1.00  0.00     0.049 A 
ATOM     53  C   UNL A   1      38.484  32.505  32.943  1.00  0.00     0.074 A 
ATOM     54  C   UNL A   1      43.068  30.722  36.948  1.00  0.00     0.029 A 
ATOM     55  N   UNL A   1      41.672  30.891  35.225  1.00  0.00    -0.354 N 
ATOM     56  N   UNL A   1      39.456  32.067  33.708  1.00  0.00    -0.248 NA
ATOM     57  C   UNL A   1      37.697  33.597  33.534  1.00  0.00     0.031 C 
ATOM     58  C   UNL A   1      42.146  31.736  37.224  1.00  0.00     0.029 A 
ATOM     59  C   UNL A   1      41.294  31.861  36.137  1.00  0.00     0.049 A 
ATOM     60  H   UNL A   1      41.239  30.733  34.356  1.00  0.00     0.167 HD
ATOM     61  C   UNL A   1      39.419  32.853  34.854  1.00  0.00     0.074 A 
ATOM     62  C   UNL A   1      38.334  33.795  34.681  1.00  0.00     0.031 C 
ATOM     63  C   UNL A   1      40.216  32.799  35.950  1.00  0.00     0.031 A 
BRANCH  50  64
ATOM     64  C   UNL A   1      44.508  28.352  35.741  1.00  0.00    -0.014 A 
ATOM     65  C   UNL A   1      44.262  27.190  36.495  1.00  0.00     0.010 A 
ATOM     66  C   UNL A   1      45.830  28.816  35.615  1.00  0.00     0.010 A 
ATOM     67  C   UNL A   1      45.308  26.534  37.148  1.00  0.00     0.020 A 
ATOM     68  C   UNL A   1      46.884  28.145  36.242  1.00  0.00     0.020 A 
ATOM     69  C   UNL A   1      46.613  27.019  37.021  1.00  0.00     0.054 A 
BRANCH  69  70
ATOM     70  S   UNL A   1      47.954  26.139  37.868  1.00  0.00     0.124 S 
ATOM     71  O   UNL A   1      47.242  25.014  38.470  1.00  0.00    -0.237 OA
ATOM     72  O   UNL A   1      48.855  25.796  36.771  1.00  0.00    -0.237 OA
ATOM     73  O   UNL A   1      48.474  27.124  38.813  1.00  0.00    -0.744 OA
ENDBRANCH  69  70
ENDBRANCH  50  64
BRANCH  51  74
ATOM     74  C   UNL A   1      36.940  32.674  30.854  1.00  0.00    -0.014 A 
ATOM     75  C   UNL A   1      35.653  32.113  30.939  1.00  0.00     0.010 A 
ATOM     76  C   UNL A   1      37.126  33.846  30.099  1.00  0.00     0.010 A 
ATOM     77  C   UNL A   1      34.577  32.704  30.270  1.00  0.00     0.020 A 
ATOM     78  C   UNL A   1      36.048  34.455  29.452  1.00  0.00     0.020 A 
ATOM     79  C   UNL A   1      34.781  33.874  29.532  1.00  0.00     0.054 A 
BRANCH  79  80
ATOM     80  S   UNL A   1      33.360  34.654  28.717  1.00  0.00     0.124 S 
ATOM     81  O   UNL A   1      32.626  35.209  29.849  1.00  0.00    -0.237 OA
ATOM     82  O   UNL A   1      33.998  35.627  27.833  1.00  0.00    -0.237 OA
ATOM     83  O   UNL A   1      32.707  33.538  28.032  1.00  0.00    -0.744 OA
ENDBRANCH  79  80
ENDBRANCH  51  74
BRANCH  63  84
ATOM     84  C   UNL A   1      39.980  33.815  37.035  1.00  0.00    -0.014 A 
ATOM     85  C   UNL A   1      40.494  35.120  36.943  1.00  0.00     0.010 A 
ATOM     86  C   UNL A   1      39.168  33.475  38.134  1.00  0.00     0.010 A 
ATOM     87  C   UNL A   1      40.219  36.060  37.940  1.00  0.00     0.020 A 
ATOM     88  C   UNL A   1      38.868  34.419  39.119  1.00  0.00     0.020 A 
ATOM     89  C   UNL A   1      39.406  35.703  39.021  1.00  0.00     0.054 A 
BRANCH  89  90
ATOM     90  S   UNL A   1      39.016  36.959  40.272  1.00  0.00     0.124 S 
ATOM     91  O   UNL A   1      38.433  38.025  39.462  1.00  0.00    -0.237 OA
ATOM     92  O   UNL A   1      38.083  36.256  41.150  1.00  0.00    -0.237 OA
ATOM     93  O   UNL A   1      40.313  37.266  40.870  1.00  0.00    -0.744 OA
ENDBRANCH  89  90
ENDBRANCH  63  84
ENDBRANCH  37  38
ENDBRANCH  29  32
ENDBRANCH  27  28
ENDBRANCH  26  27
ENDBRANCH  25  26
ENDBRANCH   1  25
TORSDOF 21
ENDMDL
MODEL 3
REMARK VINA RESULT:      -9.3      1.552      8.450
REMARK SMILES Cc1cc(C)c(C(=O)NCCCCCCNC(=O)c2ccc(-c3c4nc(c(-c5ccc(S(=O)(=O)[O-])cc5)c5ccc([nH]5)c(-c5ccc(S(=O)(=O)[O-])cc5)c5nc(c(-c6ccc(S(=O)(=O)[O-])cc6)c6ccc3[nH]6)C=C5)C=C4)cc2)c(N[C@@H](CO)C(C)C)n1
REMARK SMILES IDX 12 1 11 2 10 3 9 4 7 5 8 6 6 8 1 9 2 10 3 11 87 12 4 13
REMARK SMILES IDX 79 14 5 15 80 16 81 18 82 19 83 20 84 22 85 23 86 24 13 25
REMARK SMILES IDX 14 26 15 27 16 28 17 29 18 31 19 32 20 33 78 34 21 35 77 36
REMARK SMILES IDX 22 37 23 38 24 39 71 40 25 41 76 42 70 43 72 44 26 45 75 46
REMARK SMILES IDX 69 47 68 48 27 50 57 51 38 52 56 53 39 54 42 55 55 56 73 57
REMARK SMILES IDX 40 58 41 59 54 61 74 62 43 63 28 64 29 65 37 66 30 67 36 68
REMARK SMILES IDX 31 69 32 70 33 71 34 72 35 73 58 74 59 75 67 76 60 77 66 78
REMARK SMILES IDX 61 79 62 80 63 81 64 82 65 83 44 84 45 85 53 86 46 87 52 88
REMARK SMILES IDX 47 89 48 90 49 91 50 92 51 93
REMARK H PARENT 9 7 80 17 83 21 16 30 72 49 42 60
REMARK Flexibility Score: inf
ROOT
ATOM      1  C   UNL A   1      38.348  22.441  25.983  1.00  0.00     0.002 C 
ENDROOT
BRANCH   1   2
ATOM      2  C   UNL A   1      37.379  21.608  25.136  1.00  0.00     0.021 C 
BRANCH   2   3
ATOM      3  C   UNL A   1      35.958  22.144  24.975  1.00  0.00     0.116 C 
BRANCH   3   4
ATOM      4  N   UNL A   1      35.833  23.588  24.985  1.00  0.00    -0.352 N 
ATOM      5  C   UNL A   1      34.821  24.407  25.444  1.00  0.00     0.255 C 
ATOM      6  O   UNL A   1      35.005  25.625  25.354  1.00  0.00    -0.269 OA
ATOM      7  H   UNL A   1      36.601  24.066  24.597  1.00  0.00     0.163 HD
BRANCH   5   8
ATOM      8  C   UNL A   1      33.505  23.903  25.958  1.00  0.00     0.085 A 
ATOM      9  C   UNL A   1      29.587  22.569  27.001  1.00  0.00     0.067 C 
ATOM     10  C   UNL A   1      30.970  23.044  26.677  1.00  0.00     0.040 A 
ATOM     11  C   UNL A   1      32.064  22.557  27.367  1.00  0.00     0.028 A 
ATOM     12  N   UNL A   1      31.094  23.976  25.716  1.00  0.00    -0.236 NA
ATOM     13  C   UNL A   1      33.348  23.035  27.058  1.00  0.00    -0.033 A 
ATOM     14  C   UNL A   1      32.327  24.420  25.363  1.00  0.00     0.139 A 
ATOM     15  C   UNL A   1      34.439  22.620  28.003  1.00  0.00     0.045 C 
BRANCH  14  16
ATOM     16  N   UNL A   1      32.356  25.410  24.391  1.00  0.00    -0.364 N 
ATOM     17  H   UNL A   1      33.007  26.145  24.472  1.00  0.00     0.162 HD
BRANCH  16  18
ATOM     18  C   UNL A   1      31.439  25.390  23.246  1.00  0.00     0.108 C 
BRANCH  18  19
ATOM     19  C   UNL A   1      30.702  26.750  23.174  1.00  0.00     0.181 C 
BRANCH  19  20
ATOM     20  O   UNL A   1      29.614  26.826  24.096  1.00  0.00    -0.394 OA
ATOM     21  H   UNL A   1      29.914  27.249  24.916  1.00  0.00     0.210 HD
ENDBRANCH  19  20
ENDBRANCH  18  19
BRANCH  18  22
ATOM     22  C   UNL A   1      32.233  25.047  21.960  1.00  0.00     0.007 C 
ATOM     23  C   UNL A   1      33.073  26.248  21.499  1.00  0.00     0.009 C 
ATOM     24  C   UNL A   1      33.169  23.850  22.173  1.00  0.00     0.009 C 
ENDBRANCH  18  22
ENDBRANCH  16  18
ENDBRANCH  14  16
ENDBRANCH   5   8
ENDBRANCH   3   4
ENDBRANCH   2   3
ENDBRANCH   1   2
BRANCH   1  25
ATOM     25  C   UNL A   1      39.757  21.887  26.217  1.00  0.00     0.002 C 
BRANCH  25  26
ATOM     26  C   UNL A   1      40.417  22.176  27.566  1.00  0.00     0.021 C 
BRANCH  26  27
ATOM     27  C   UNL A   1      41.383  23.355  27.618  1.00  0.00     0.116 C 
BRANCH  27  28
ATOM     28  N   UNL A   1      41.473  24.088  26.367  1.00  0.00    -0.352 N 
ATOM     29  C   UNL A   1      41.304  25.431  26.127  1.00  0.00     0.251 C 
ATOM     30  H   UNL A   1      41.686  23.542  25.576  1.00  0.00     0.163 HD
ATOM     31  O   UNL A   1      41.327  25.850  24.972  1.00  0.00    -0.269 OA
BRANCH  29  32
ATOM     32  C   UNL A   1      41.055  26.368  27.248  1.00  0.00     0.039 A 
ATOM     33  C   UNL A   1      40.030  26.078  28.152  1.00  0.00     0.014 A 
ATOM     34  C   UNL A   1      41.823  27.525  27.413  1.00  0.00     0.014 A 
ATOM     35  C   UNL A   1      39.824  26.904  29.261  1.00  0.00     0.010 A 
ATOM     36  C   UNL A   1      41.664  28.307  28.556  1.00  0.00     0.010 A 
ATOM     37  C   UNL A   1      40.665  28.004  29.495  1.00  0.00    -0.014 A 
BRANCH  37  38
ATOM     38  C   UNL A   1      40.526  28.838  30.718  1.00  0.00     0.031 A 
ATOM     39  C   UNL A   1      39.484  29.923  30.785  1.00  0.00     0.074 A 
ATOM     40  C   UNL A   1      41.383  28.664  31.746  1.00  0.00     0.049 A 
ATOM     41  N   UNL A   1      39.259  30.791  31.738  1.00  0.00    -0.248 NA
ATOM     42  C   UNL A   1      38.598  30.067  29.620  1.00  0.00     0.031 C 
ATOM     43  C   UNL A   1      42.462  27.674  31.792  1.00  0.00     0.029 A 
ATOM     44  N   UNL A   1      41.487  29.322  32.947  1.00  0.00    -0.354 N 
ATOM     45  C   UNL A   1      38.219  31.593  31.283  1.00  0.00     0.074 A 
ATOM     46  C   UNL A   1      37.892  31.138  29.948  1.00  0.00     0.031 C 
ATOM     47  C   UNL A   1      43.101  27.773  32.968  1.00  0.00     0.029 A 
ATOM     48  C   UNL A   1      42.510  28.859  33.744  1.00  0.00     0.049 A 
ATOM     49  H   UNL A   1      40.888  30.056  33.213  1.00  0.00     0.167 HD
ATOM     50  C   UNL A   1      37.582  32.604  31.921  1.00  0.00     0.031 A 
ATOM     51  C   UNL A   1      42.931  29.266  34.958  1.00  0.00     0.031 A 
ATOM     52  C   UNL A   1      37.903  33.047  33.253  1.00  0.00     0.049 A 
ATOM     53  C   UNL A   1      42.215  30.396  35.644  1.00  0.00     0.074 A 
ATOM     54  C   UNL A   1      37.280  34.028  34.006  1.00  0.00     0.029 A 
ATOM     55  N   UNL A   1      38.935  32.543  34.029  1.00  0.00    -0.354 N 
ATOM     56  N   UNL A   1      41.194  31.101  35.219  1.00  0.00    -0.248 NA
ATOM     57  C   UNL A   1      42.700  30.779  36.978  1.00  0.00     0.031 C 
ATOM     58  C   UNL A   1      37.969  34.152  35.216  1.00  0.00     0.029 A 
ATOM     59  C   UNL A   1      38.982  33.206  35.243  1.00  0.00     0.049 A 
ATOM     60  H   UNL A   1      39.545  31.820  33.757  1.00  0.00     0.167 HD
ATOM     61  C   UNL A   1      40.893  31.988  36.248  1.00  0.00     0.074 A 
ATOM     62  C   UNL A   1      41.835  31.726  37.316  1.00  0.00     0.031 C 
ATOM     63  C   UNL A   1      39.920  32.932  36.302  1.00  0.00     0.031 A 
BRANCH  50  64
ATOM     64  C   UNL A   1      36.474  33.308  31.181  1.00  0.00    -0.014 A 
ATOM     65  C   UNL A   1      35.146  33.264  31.645  1.00  0.00     0.010 A 
ATOM     66  C   UNL A   1      36.768  34.057  30.027  1.00  0.00     0.010 A 
ATOM     67  C   UNL A   1      34.128  33.915  30.943  1.00  0.00     0.020 A 
ATOM     68  C   UNL A   1      35.758  34.735  29.339  1.00  0.00     0.020 A 
ATOM     69  C   UNL A   1      34.440  34.643  29.791  1.00  0.00     0.054 A 
BRANCH  69  70
ATOM     70  S   UNL A   1      33.102  35.490  28.909  1.00  0.00     0.124 S 
ATOM     71  O   UNL A   1      32.499  34.393  28.154  1.00  0.00    -0.237 OA
ATOM     72  O   UNL A   1      32.287  36.023  29.998  1.00  0.00    -0.237 OA
ATOM     73  O   UNL A   1      33.794  36.492  28.104  1.00  0.00    -0.744 OA
ENDBRANCH  69  70
ENDBRANCH  50  64
BRANCH  51  74
ATOM     74  C   UNL A   1      44.083  28.583  35.609  1.00  0.00    -0.014 A 
ATOM     75  C   UNL A   1      43.879  27.449  36.415  1.00  0.00     0.010 A 
ATOM     76  C   UNL A   1      45.394  29.055  35.414  1.00  0.00     0.010 A 
ATOM     77  C   UNL A   1      44.962  26.808  37.025  1.00  0.00     0.020 A 
ATOM     78  C   UNL A   1      46.482  28.401  35.999  1.00  0.00     0.020 A 
ATOM     79  C   UNL A   1      46.257  27.288  36.810  1.00  0.00     0.054 A 
BRANCH  79  80
ATOM     80  S   UNL A   1      47.653  26.408  37.568  1.00  0.00     0.124 S 
ATOM     81  O   UNL A   1      48.760  26.786  36.697  1.00  0.00    -0.237 OA
ATOM     82  O   UNL A   1      47.685  26.970  38.917  1.00  0.00    -0.237 OA
ATOM     83  O   UNL A   1      47.249  25.005  37.497  1.00  0.00    -0.744 OA
ENDBRANCH  79  80
ENDBRANCH  51  74
BRANCH  63  84
ATOM     84  C   UNL A   1      39.789  33.726  37.573  1.00  0.00    -0.014 A 
ATOM     85  C   UNL A   1      40.421  34.972  37.728  1.00  0.00     0.010 A 
ATOM     86  C   UNL A   1      38.958  33.247  38.604  1.00  0.00     0.010 A 
ATOM     87  C   UNL A   1      40.244  35.714  38.900  1.00  0.00     0.020 A 
ATOM     88  C   UNL A   1      38.755  33.998  39.764  1.00  0.00     0.020 A 
ATOM     89  C   UNL A   1      39.409  35.222  39.909  1.00  0.00     0.054 A 
BRANCH  89  90
ATOM     90  S   UNL A   1      39.148  36.231  41.395  1.00  0.00     0.124 S 
ATOM     91  O   UNL A   1      37.933  35.643  41.952  1.00  0.00    -0.237 OA
ATOM     92  O   UNL A   1      40.370  35.994  42.161  1.00  0.00    -0.237 OA
ATOM     93  O   UNL A   1      39.002  37.587  40.871  1.00  0.00    -0.744 OA
ENDBRANCH  89  90
ENDBRANCH  63  84
ENDBRANCH  37  38
ENDBRANCH  29  32
ENDBRANCH  27  28
ENDBRANCH  26  27
ENDBRANCH  25  26
ENDBRANCH   1  25
TORSDOF 21
ENDMDL
