MODEL 1
REMARK VINA RESULT:     -10.3      0.000      0.000
REMARK SMILES Nc1ccc(F)cc1SCCOc1ccc(C(=O)NCCCCCCNC(=O)c2ccc(-c3c4nc(c(-c5ccc(S(=O)(=O)[O-])cc5)c5ccc([nH]5)c(-c5ccc(S(=O)(=O)[O-])cc5)c5nc(c(-c6ccc(S(=O)(=O)[O-])cc6)c6ccc3[nH]6)C=C5)C=C4)cc2)cc1
REMARK SMILES IDX 21 1 20 2 19 3 17 4 18 5 16 7 13 8 14 9 90 10 15 11 89 12
REMARK SMILES IDX 12 13 11 14 10 15 9 16 8 17 2 18 3 19 4 20 7 21 5 22 6 23
REMARK SMILES IDX 1 24 22 27 23 28 24 29 25 30 26 31 27 32 28 34 29 35 30 36
REMARK SMILES IDX 88 37 31 38 87 39 32 40 33 41 34 42 81 43 35 44 86 45 80 46
REMARK SMILES IDX 82 47 36 48 85 49 79 50 78 51 37 53 67 54 48 55 66 56 49 57
REMARK SMILES IDX 52 58 65 59 83 60 50 61 51 62 64 64 84 65 53 66 38 67 39 68
REMARK SMILES IDX 47 69 40 70 46 71 41 72 42 73 43 74 44 75 45 76 68 77 69 78
REMARK SMILES IDX 77 79 70 80 76 81 71 82 72 83 73 84 74 85 75 86 54 87 55 88
REMARK SMILES IDX 63 89 56 90 62 91 57 92 58 93 59 94 60 95 61 96
REMARK H PARENT 19 6 1 25 1 26 26 33 82 52 52 63
REMARK Flexibility Score: inf
ROOT
ATOM      1  C   UNL A   1      39.011  22.921  26.541  1.00  0.00     0.021 C 
ENDROOT
BRANCH   1   2
ATOM      2  C   UNL A   1      37.589  23.086  26.018  1.00  0.00     0.116 C 
BRANCH   2   3
ATOM      3  N   UNL A   1      37.561  23.141  24.573  1.00  0.00    -0.352 N 
ATOM      4  C   UNL A   1      36.503  23.259  23.713  1.00  0.00     0.251 C 
ATOM      5  O   UNL A   1      36.668  22.962  22.530  1.00  0.00    -0.269 OA
ATOM      6  H   UNL A   1      38.442  23.085  24.138  1.00  0.00     0.163 HD
BRANCH   4   7
ATOM      7  C   UNL A   1      35.171  23.745  24.156  1.00  0.00     0.040 A 
ATOM      8  C   UNL A   1      32.628  24.883  24.501  1.00  0.00     0.119 A 
ATOM      9  C   UNL A   1      32.773  23.711  23.762  1.00  0.00     0.047 A 
ATOM     10  C   UNL A   1      33.731  25.404  25.179  1.00  0.00     0.047 A 
ATOM     11  C   UNL A   1      34.041  23.148  23.587  1.00  0.00     0.017 A 
ATOM     12  C   UNL A   1      35.004  24.876  24.960  1.00  0.00     0.017 A 
BRANCH   8  13
ATOM     13  O   UNL A   1      31.503  25.656  24.570  1.00  0.00    -0.493 OA
BRANCH  13  14
ATOM     14  C   UNL A   1      31.439  26.801  23.714  1.00  0.00     0.241 C 
BRANCH  14  15
ATOM     15  C   UNL A   1      31.671  28.154  24.407  1.00  0.00     0.116 C 
BRANCH  15  16
ATOM     16  S   UNL A   1      31.636  28.169  26.238  1.00  0.00    -0.120 SA
BRANCH  16  17
ATOM     17  C   UNL A   1      32.909  29.309  26.820  1.00  0.00     0.033 A 
ATOM     18  C   UNL A   1      32.853  30.718  26.935  1.00  0.00     0.045 A 
ATOM     19  C   UNL A   1      33.981  31.417  27.416  1.00  0.00     0.029 A 
ATOM     20  C   UNL A   1      35.162  30.757  27.746  1.00  0.00     0.041 A 
ATOM     21  C   UNL A   1      34.121  28.664  27.143  1.00  0.00     0.056 A 
ATOM     22  C   UNL A   1      35.221  29.383  27.600  1.00  0.00     0.124 A 
ATOM     23  F   UNL A   1      36.350  28.737  27.924  1.00  0.00    -0.207 F 
BRANCH  18  24
ATOM     24  N   UNL A   1      31.680  31.463  26.776  1.00  0.00    -0.398 N 
ATOM     25  H   UNL A   1      31.728  32.399  26.474  1.00  0.00     0.156 HD
ATOM     26  H   UNL A   1      30.807  31.051  26.968  1.00  0.00     0.156 HD
ENDBRANCH  18  24
ENDBRANCH  16  17
ENDBRANCH  15  16
ENDBRANCH  14  15
ENDBRANCH  13  14
ENDBRANCH   8  13
ENDBRANCH   4   7
ENDBRANCH   2   3
ENDBRANCH   1   2
BRANCH   1  27
ATOM     27  C   UNL A   1      39.662  21.573  26.218  1.00  0.00     0.002 C 
BRANCH  27  28
ATOM     28  C   UNL A   1      41.141  21.432  26.597  1.00  0.00     0.002 C 
BRANCH  28  29
ATOM     29  C   UNL A   1      41.636  22.355  27.710  1.00  0.00     0.021 C 
BRANCH  29  30
ATOM     30  C   UNL A   1      42.704  23.356  27.291  1.00  0.00     0.116 C 
BRANCH  30  31
ATOM     31  N   UNL A   1      42.311  24.148  26.138  1.00  0.00    -0.352 N 
ATOM     32  C   UNL A   1      41.781  25.416  26.112  1.00  0.00     0.251 C 
ATOM     33  H   UNL A   1      42.440  23.719  25.261  1.00  0.00     0.163 HD
ATOM     34  O   UNL A   1      41.368  25.898  25.062  1.00  0.00    -0.269 OA
BRANCH  32  35
ATOM     35  C   UNL A   1      41.676  26.172  27.377  1.00  0.00     0.039 A 
ATOM     36  C   UNL A   1      40.594  25.962  28.237  1.00  0.00     0.014 A 
ATOM     37  C   UNL A   1      42.630  27.151  27.667  1.00  0.00     0.014 A 
ATOM     38  C   UNL A   1      40.375  26.843  29.289  1.00  0.00     0.010 A 
ATOM     39  C   UNL A   1      42.452  27.979  28.779  1.00  0.00     0.010 A 
ATOM     40  C   UNL A   1      41.298  27.864  29.569  1.00  0.00    -0.014 A 
BRANCH  40  41
ATOM     41  C   UNL A   1      41.042  28.797  30.697  1.00  0.00     0.031 A 
ATOM     42  C   UNL A   1      41.935  28.806  31.910  1.00  0.00     0.074 A 
ATOM     43  C   UNL A   1      40.019  29.668  30.606  1.00  0.00     0.049 A 
ATOM     44  N   UNL A   1      41.854  29.556  32.979  1.00  0.00    -0.248 NA
ATOM     45  C   UNL A   1      43.061  27.858  31.929  1.00  0.00     0.031 C 
ATOM     46  C   UNL A   1      39.101  29.768  29.470  1.00  0.00     0.029 A 
ATOM     47  N   UNL A   1      39.591  30.649  31.466  1.00  0.00    -0.354 N 
ATOM     48  C   UNL A   1      42.899  29.157  33.806  1.00  0.00     0.074 A 
ATOM     49  C   UNL A   1      43.588  28.083  33.126  1.00  0.00     0.031 C 
ATOM     50  C   UNL A   1      38.255  30.786  29.677  1.00  0.00     0.029 A 
ATOM     51  C   UNL A   1      38.517  31.365  30.991  1.00  0.00     0.049 A 
ATOM     52  H   UNL A   1      40.012  30.824  32.338  1.00  0.00     0.167 HD
ATOM     53  C   UNL A   1      43.253  29.651  35.016  1.00  0.00     0.031 A 
ATOM     54  C   UNL A   1      37.804  32.364  31.549  1.00  0.00     0.031 A 
ATOM     55  C   UNL A   1      42.572  30.736  35.674  1.00  0.00     0.049 A 
ATOM     56  C   UNL A   1      38.185  32.859  32.912  1.00  0.00     0.074 A 
ATOM     57  C   UNL A   1      42.886  31.331  36.883  1.00  0.00     0.029 A 
ATOM     58  N   UNL A   1      41.447  31.385  35.189  1.00  0.00    -0.354 N 
ATOM     59  N   UNL A   1      39.186  32.481  33.669  1.00  0.00    -0.248 NA
ATOM     60  C   UNL A   1      37.342  33.908  33.502  1.00  0.00     0.031 C 
ATOM     61  C   UNL A   1      41.911  32.292  37.162  1.00  0.00     0.029 A 
ATOM     62  C   UNL A   1      41.031  32.348  36.093  1.00  0.00     0.049 A 
ATOM     63  H   UNL A   1      41.009  31.190  34.329  1.00  0.00     0.167 HD
ATOM     64  C   UNL A   1      39.095  33.244  34.826  1.00  0.00     0.074 A 
ATOM     65  C   UNL A   1      37.957  34.123  34.660  1.00  0.00     0.031 C 
ATOM     66  C   UNL A   1      39.886  33.209  35.927  1.00  0.00     0.031 A 
BRANCH  53  67
ATOM     67  C   UNL A   1      44.429  29.034  35.728  1.00  0.00    -0.014 A 
ATOM     68  C   UNL A   1      44.231  27.907  36.549  1.00  0.00     0.010 A 
ATOM     69  C   UNL A   1      45.699  29.635  35.690  1.00  0.00     0.010 A 
ATOM     70  C   UNL A   1      45.271  27.409  37.339  1.00  0.00     0.020 A 
ATOM     71  C   UNL A   1      46.750  29.123  36.459  1.00  0.00     0.020 A 
ATOM     72  C   UNL A   1      46.523  28.028  37.295  1.00  0.00     0.054 A 
BRANCH  72  73
ATOM     73  S   UNL A   1      47.858  27.382  38.341  1.00  0.00     0.124 S 
ATOM     74  O   UNL A   1      48.689  28.564  38.545  1.00  0.00    -0.237 OA
ATOM     75  O   UNL A   1      47.140  26.903  39.519  1.00  0.00    -0.237 OA
ATOM     76  O   UNL A   1      48.456  26.332  37.519  1.00  0.00    -0.744 OA
ENDBRANCH  72  73
ENDBRANCH  53  67
BRANCH  54  77
ATOM     77  C   UNL A   1      36.667  32.942  30.782  1.00  0.00    -0.014 A 
ATOM     78  C   UNL A   1      36.912  33.817  29.707  1.00  0.00     0.010 A 
ATOM     79  C   UNL A   1      35.345  32.730  31.205  1.00  0.00     0.010 A 
ATOM     80  C   UNL A   1      35.865  34.532  29.121  1.00  0.00     0.020 A 
ATOM     81  C   UNL A   1      34.289  33.421  30.600  1.00  0.00     0.020 A 
ATOM     82  C   UNL A   1      34.562  34.345  29.588  1.00  0.00     0.054 A 
BRANCH  82  83
ATOM     83  S   UNL A   1      33.230  35.353  28.880  1.00  0.00     0.124 S 
ATOM     84  O   UNL A   1      32.521  35.793  30.078  1.00  0.00    -0.237 OA
ATOM     85  O   UNL A   1      33.962  36.394  28.164  1.00  0.00    -0.237 OA
ATOM     86  O   UNL A   1      32.504  34.411  28.033  1.00  0.00    -0.744 OA
ENDBRANCH  82  83
ENDBRANCH  54  77
BRANCH  66  87
ATOM     87  C   UNL A   1      39.554  34.131  37.070  1.00  0.00    -0.014 A 
ATOM     88  C   UNL A   1      40.144  35.407  37.133  1.00  0.00     0.010 A 
ATOM     89  C   UNL A   1      38.783  33.676  38.153  1.00  0.00     0.010 A 
ATOM     90  C   UNL A   1      40.009  36.193  38.280  1.00  0.00     0.020 A 
ATOM     91  C   UNL A   1      38.623  34.471  39.291  1.00  0.00     0.020 A 
ATOM     92  C   UNL A   1      39.262  35.713  39.358  1.00  0.00     0.054 A 
BRANCH  92  93
ATOM     93  S   UNL A   1      39.147  36.722  40.861  1.00  0.00     0.124 S 
ATOM     94  O   UNL A   1      40.548  37.027  41.134  1.00  0.00    -0.237 OA
ATOM     95  O   UNL A   1      38.329  37.852  40.426  1.00  0.00    -0.237 OA
ATOM     96  O   UNL A   1      38.502  35.831  41.824  1.00  0.00    -0.744 OA
ENDBRANCH  92  93
ENDBRANCH  66  87
ENDBRANCH  40  41
ENDBRANCH  32  35
ENDBRANCH  30  31
ENDBRANCH  29  30
ENDBRANCH  28  29
ENDBRANCH  27  28
ENDBRANCH   1  27
TORSDOF 22
ENDMDL
MODEL 2
REMARK VINA RESULT:     -10.1      1.700      2.341
REMARK SMILES Nc1ccc(F)cc1SCCOc1ccc(C(=O)NCCCCCCNC(=O)c2ccc(-c3c4nc(c(-c5ccc(S(=O)(=O)[O-])cc5)c5ccc([nH]5)c(-c5ccc(S(=O)(=O)[O-])cc5)c5nc(c(-c6ccc(S(=O)(=O)[O-])cc6)c6ccc3[nH]6)C=C5)C=C4)cc2)cc1
REMARK SMILES IDX 21 1 20 2 19 3 17 4 18 5 16 7 13 8 14 9 90 10 15 11 89 12
REMARK SMILES IDX 12 13 11 14 10 15 9 16 8 17 2 18 3 19 4 20 7 21 5 22 6 23
REMARK SMILES IDX 1 24 22 27 23 28 24 29 25 30 26 31 27 32 28 34 29 35 30 36
REMARK SMILES IDX 88 37 31 38 87 39 32 40 33 41 34 42 81 43 35 44 86 45 80 46
REMARK SMILES IDX 82 47 36 48 85 49 79 50 78 51 37 53 67 54 48 55 66 56 49 57
REMARK SMILES IDX 52 58 65 59 83 60 50 61 51 62 64 64 84 65 53 66 38 67 39 68
REMARK SMILES IDX 47 69 40 70 46 71 41 72 42 73 43 74 44 75 45 76 68 77 69 78
REMARK SMILES IDX 77 79 70 80 76 81 71 82 72 83 73 84 74 85 75 86 54 87 55 88
REMARK SMILES IDX 63 89 56 90 62 91 57 92 58 93 59 94 60 95 61 96
REMARK H PARENT 19 6 1 25 1 26 26 33 82 52 52 63
REMARK Flexibility Score: inf
ROOT
ATOM      1  C   UNL A   1      38.949  23.249  26.524  1.00  0.00     0.021 C 
ENDROOT
BRANCH   1   2
ATOM      2  C   UNL A   1      37.529  23.586  26.084  1.00  0.00     0.116 C 
BRANCH   2   3
ATOM      3  N   UNL A   1      37.405  23.569  24.643  1.00  0.00    -0.352 N 
ATOM      4  C   UNL A   1      36.294  23.456  23.852  1.00  0.00     0.251 C 
ATOM      5  O   UNL A   1      36.440  23.140  22.671  1.00  0.00    -0.269 OA
ATOM      6  H   UNL A   1      38.255  23.652  24.152  1.00  0.00     0.163 HD
BRANCH   4   7
ATOM      7  C   UNL A   1      34.925  23.717  24.365  1.00  0.00     0.040 A 
ATOM      8  C   UNL A   1      32.187  24.128  24.826  1.00  0.00     0.119 A 
ATOM      9  C   UNL A   1      32.684  22.833  24.684  1.00  0.00     0.047 A 
ATOM     10  C   UNL A   1      33.078  25.200  24.875  1.00  0.00     0.047 A 
ATOM     11  C   UNL A   1      34.048  22.631  24.450  1.00  0.00     0.017 A 
ATOM     12  C   UNL A   1      34.430  25.004  24.587  1.00  0.00     0.017 A 
BRANCH   8  13
ATOM     13  O   UNL A   1      30.868  24.485  24.837  1.00  0.00    -0.493 OA
BRANCH  13  14
ATOM     14  C   UNL A   1      30.327  25.036  23.633  1.00  0.00     0.241 C 
BRANCH  14  15
ATOM     15  C   UNL A   1      29.598  26.381  23.795  1.00  0.00     0.116 C 
BRANCH  15  16
ATOM     16  S   UNL A   1      30.224  27.793  22.811  1.00  0.00    -0.120 SA
BRANCH  16  17
ATOM     17  C   UNL A   1      29.219  29.243  23.197  1.00  0.00     0.033 A 
ATOM     18  C   UNL A   1      27.829  29.432  23.017  1.00  0.00     0.045 A 
ATOM     19  C   UNL A   1      27.245  30.662  23.389  1.00  0.00     0.029 A 
ATOM     20  C   UNL A   1      28.012  31.708  23.896  1.00  0.00     0.041 A 
ATOM     21  C   UNL A   1      29.978  30.323  23.695  1.00  0.00     0.056 A 
ATOM     22  C   UNL A   1      29.375  31.529  24.038  1.00  0.00     0.124 A 
ATOM     23  F   UNL A   1      30.120  32.527  24.534  1.00  0.00    -0.207 F 
BRANCH  18  24
ATOM     24  N   UNL A   1      26.947  28.406  22.661  1.00  0.00    -0.398 N 
ATOM     25  H   UNL A   1      27.176  27.792  21.927  1.00  0.00     0.156 HD
ATOM     26  H   UNL A   1      26.096  28.300  23.145  1.00  0.00     0.156 HD
ENDBRANCH  18  24
ENDBRANCH  16  17
ENDBRANCH  15  16
ENDBRANCH  14  15
ENDBRANCH  13  14
ENDBRANCH   8  13
ENDBRANCH   4   7
ENDBRANCH   2   3
ENDBRANCH   1   2
BRANCH   1  27
ATOM     27  C   UNL A   1      39.456  21.880  26.063  1.00  0.00     0.002 C 
BRANCH  27  28
ATOM     28  C   UNL A   1      40.918  21.558  26.395  1.00  0.00     0.002 C 
BRANCH  28  29
ATOM     29  C   UNL A   1      41.533  22.352  27.547  1.00  0.00     0.021 C 
BRANCH  29  30
ATOM     30  C   UNL A   1      42.709  23.239  27.164  1.00  0.00     0.116 C 
BRANCH  30  31
ATOM     31  N   UNL A   1      42.420  24.098  26.029  1.00  0.00    -0.352 N 
ATOM     32  C   UNL A   1      41.948  25.389  26.032  1.00  0.00     0.251 C 
ATOM     33  H   UNL A   1      42.583  23.703  25.142  1.00  0.00     0.163 HD
ATOM     34  O   UNL A   1      41.619  25.936  24.984  1.00  0.00    -0.269 OA
BRANCH  32  35
ATOM     35  C   UNL A   1      41.801  26.093  27.323  1.00  0.00     0.039 A 
ATOM     36  C   UNL A   1      40.675  25.873  28.122  1.00  0.00     0.014 A 
ATOM     37  C   UNL A   1      42.762  27.034  27.700  1.00  0.00     0.014 A 
ATOM     38  C   UNL A   1      40.427  26.713  29.200  1.00  0.00     0.010 A 
ATOM     39  C   UNL A   1      42.551  27.817  28.837  1.00  0.00     0.010 A 
ATOM     40  C   UNL A   1      41.359  27.698  29.568  1.00  0.00    -0.014 A 
BRANCH  40  41
ATOM     41  C   UNL A   1      41.071  28.588  30.723  1.00  0.00     0.031 A 
ATOM     42  C   UNL A   1      41.939  28.562  31.953  1.00  0.00     0.074 A 
ATOM     43  C   UNL A   1      40.042  29.453  30.642  1.00  0.00     0.049 A 
ATOM     44  N   UNL A   1      41.830  29.272  33.046  1.00  0.00    -0.248 NA
ATOM     45  C   UNL A   1      43.073  27.623  31.961  1.00  0.00     0.031 C 
ATOM     46  C   UNL A   1      39.146  29.585  29.491  1.00  0.00     0.029 A 
ATOM     47  N   UNL A   1      39.587  30.398  31.526  1.00  0.00    -0.354 N 
ATOM     48  C   UNL A   1      42.862  28.853  33.879  1.00  0.00     0.074 A 
ATOM     49  C   UNL A   1      43.574  27.810  33.176  1.00  0.00     0.031 C 
ATOM     50  C   UNL A   1      38.286  30.588  29.716  1.00  0.00     0.029 A 
ATOM     51  C   UNL A   1      38.517  31.122  31.055  1.00  0.00     0.049 A 
ATOM     52  H   UNL A   1      39.989  30.546  32.413  1.00  0.00     0.167 HD
ATOM     53  C   UNL A   1      43.187  29.306  35.113  1.00  0.00     0.031 A 
ATOM     54  C   UNL A   1      37.783  32.094  31.634  1.00  0.00     0.031 A 
ATOM     55  C   UNL A   1      42.482  30.361  35.796  1.00  0.00     0.049 A 
ATOM     56  C   UNL A   1      38.132  32.544  33.021  1.00  0.00     0.074 A 
ATOM     57  C   UNL A   1      42.766  30.915  37.031  1.00  0.00     0.029 A 
ATOM     58  N   UNL A   1      41.361  31.017  35.311  1.00  0.00    -0.354 N 
ATOM     59  N   UNL A   1      39.121  32.147  33.784  1.00  0.00    -0.248 NA
ATOM     60  C   UNL A   1      37.268  33.563  33.631  1.00  0.00     0.031 C 
ATOM     61  C   UNL A   1      41.777  31.857  37.324  1.00  0.00     0.029 A 
ATOM     62  C   UNL A   1      40.918  31.943  36.240  1.00  0.00     0.049 A 
ATOM     63  H   UNL A   1      40.943  30.849  34.436  1.00  0.00     0.167 HD
ATOM     64  C   UNL A   1      39.000  32.867  34.966  1.00  0.00     0.074 A 
ATOM     65  C   UNL A   1      37.857  33.742  34.808  1.00  0.00     0.031 C 
ATOM     66  C   UNL A   1      39.769  32.800  36.081  1.00  0.00     0.031 A 
BRANCH  53  67
ATOM     67  C   UNL A   1      44.354  28.674  35.827  1.00  0.00    -0.014 A 
ATOM     68  C   UNL A   1      44.124  27.639  36.754  1.00  0.00     0.010 A 
ATOM     69  C   UNL A   1      45.657  29.181  35.680  1.00  0.00     0.010 A 
ATOM     70  C   UNL A   1      45.166  27.141  37.540  1.00  0.00     0.020 A 
ATOM     71  C   UNL A   1      46.709  28.667  36.446  1.00  0.00     0.020 A 
ATOM     72  C   UNL A   1      46.452  27.667  37.387  1.00  0.00     0.054 A 
BRANCH  72  73
ATOM     73  S   UNL A   1      47.792  27.025  38.429  1.00  0.00     0.124 S 
ATOM     74  O   UNL A   1      47.777  25.601  38.108  1.00  0.00    -0.237 OA
ATOM     75  O   UNL A   1      48.954  27.769  37.952  1.00  0.00    -0.237 OA
ATOM     76  O   UNL A   1      47.361  27.364  39.784  1.00  0.00    -0.744 OA
ENDBRANCH  72  73
ENDBRANCH  53  67
BRANCH  54  77
ATOM     77  C   UNL A   1      36.657  32.689  30.865  1.00  0.00    -0.014 A 
ATOM     78  C   UNL A   1      36.910  33.660  29.877  1.00  0.00     0.010 A 
ATOM     79  C   UNL A   1      35.327  32.391  31.207  1.00  0.00     0.010 A 
ATOM     80  C   UNL A   1      35.860  34.380  29.304  1.00  0.00     0.020 A 
ATOM     81  C   UNL A   1      34.271  33.088  30.612  1.00  0.00     0.020 A 
ATOM     82  C   UNL A   1      34.547  34.104  29.693  1.00  0.00     0.054 A 
BRANCH  82  83
ATOM     83  S   UNL A   1      33.205  35.114  29.009  1.00  0.00     0.124 S 
ATOM     84  O   UNL A   1      32.585  34.187  28.066  1.00  0.00    -0.237 OA
ATOM     85  O   UNL A   1      32.410  35.435  30.190  1.00  0.00    -0.237 OA
ATOM     86  O   UNL A   1      33.903  36.246  28.406  1.00  0.00    -0.744 OA
ENDBRANCH  82  83
ENDBRANCH  54  77
BRANCH  66  87
ATOM     87  C   UNL A   1      39.405  33.678  37.249  1.00  0.00    -0.014 A 
ATOM     88  C   UNL A   1      39.906  34.990  37.320  1.00  0.00     0.010 A 
ATOM     89  C   UNL A   1      38.698  33.152  38.343  1.00  0.00     0.010 A 
ATOM     90  C   UNL A   1      39.749  35.746  38.484  1.00  0.00     0.020 A 
ATOM     91  C   UNL A   1      38.514  33.915  39.500  1.00  0.00     0.020 A 
ATOM     92  C   UNL A   1      39.067  35.197  39.573  1.00  0.00     0.054 A 
BRANCH  92  93
ATOM     93  S   UNL A   1      38.923  36.171  41.096  1.00  0.00     0.124 S 
ATOM     94  O   UNL A   1      38.639  37.507  40.580  1.00  0.00    -0.237 OA
ATOM     95  O   UNL A   1      37.818  35.517  41.792  1.00  0.00    -0.237 OA
ATOM     96  O   UNL A   1      40.231  36.010  41.730  1.00  0.00    -0.744 OA
ENDBRANCH  92  93
ENDBRANCH  66  87
ENDBRANCH  40  41
ENDBRANCH  32  35
ENDBRANCH  30  31
ENDBRANCH  29  30
ENDBRANCH  28  29
ENDBRANCH  27  28
ENDBRANCH   1  27
TORSDOF 22
ENDMDL
MODEL 3
REMARK VINA RESULT:     -10.1      4.155     10.132
REMARK SMILES Nc1ccc(F)cc1SCCOc1ccc(C(=O)NCCCCCCNC(=O)c2ccc(-c3c4nc(c(-c5ccc(S(=O)(=O)[O-])cc5)c5ccc([nH]5)c(-c5ccc(S(=O)(=O)[O-])cc5)c5nc(c(-c6ccc(S(=O)(=O)[O-])cc6)c6ccc3[nH]6)C=C5)C=C4)cc2)cc1
REMARK SMILES IDX 21 1 20 2 19 3 17 4 18 5 16 7 13 8 14 9 90 10 15 11 89 12
REMARK SMILES IDX 12 13 11 14 10 15 9 16 8 17 2 18 3 19 4 20 7 21 5 22 6 23
REMARK SMILES IDX 1 24 22 27 23 28 24 29 25 30 26 31 27 32 28 34 29 35 30 36
REMARK SMILES IDX 88 37 31 38 87 39 32 40 33 41 34 42 81 43 35 44 86 45 80 46
REMARK SMILES IDX 82 47 36 48 85 49 79 50 78 51 37 53 67 54 48 55 66 56 49 57
REMARK SMILES IDX 52 58 65 59 83 60 50 61 51 62 64 64 84 65 53 66 38 67 39 68
REMARK SMILES IDX 47 69 40 70 46 71 41 72 42 73 43 74 44 75 45 76 68 77 69 78
REMARK SMILES IDX 77 79 70 80 76 81 71 82 72 83 73 84 74 85 75 86 54 87 55 88
REMARK SMILES IDX 63 89 56 90 62 91 57 92 58 93 59 94 60 95 61 96
REMARK H PARENT 19 6 1 25 1 26 26 33 82 52 52 63
REMARK Flexibility Score: inf
ROOT
ATOM      1  C   UNL A   1      33.166  28.754  23.401  1.00  0.00     0.021 C 
ENDROOT
BRANCH   1   2
ATOM      2  C   UNL A   1      31.713  28.824  22.948  1.00  0.00     0.116 C 
BRANCH   2   3
ATOM      3  N   UNL A   1      31.462  27.930  21.839  1.00  0.00    -0.352 N 
ATOM      4  C   UNL A   1      31.409  26.563  21.799  1.00  0.00     0.251 C 
ATOM      5  O   UNL A   1      31.504  26.001  20.708  1.00  0.00    -0.269 OA
ATOM      6  H   UNL A   1      31.306  28.376  20.974  1.00  0.00     0.163 HD
BRANCH   4   7
ATOM      7  C   UNL A   1      31.223  25.740  23.021  1.00  0.00     0.040 A 
ATOM      8  C   UNL A   1      30.966  24.644  25.592  1.00  0.00     0.119 A 
ATOM      9  C   UNL A   1      29.924  25.392  25.045  1.00  0.00     0.047 A 
ATOM     10  C   UNL A   1      32.071  24.332  24.801  1.00  0.00     0.047 A 
ATOM     11  C   UNL A   1      30.056  25.941  23.766  1.00  0.00     0.017 A 
ATOM     12  C   UNL A   1      32.228  24.924  23.546  1.00  0.00     0.017 A 
BRANCH   8  13
ATOM     13  O   UNL A   1      31.067  24.240  26.894  1.00  0.00    -0.493 OA
BRANCH  13  14
ATOM     14  C   UNL A   1      31.393  22.868  27.133  1.00  0.00     0.241 C 
BRANCH  14  15
ATOM     15  C   UNL A   1      32.893  22.563  27.274  1.00  0.00     0.116 C 
BRANCH  15  16
ATOM     16  S   UNL A   1      33.546  21.130  26.339  1.00  0.00    -0.120 SA
BRANCH  16  17
ATOM     17  C   UNL A   1      35.255  21.484  25.877  1.00  0.00     0.033 A 
ATOM     18  C   UNL A   1      36.225  20.612  25.330  1.00  0.00     0.045 A 
ATOM     19  C   UNL A   1      37.516  21.106  25.045  1.00  0.00     0.029 A 
ATOM     20  C   UNL A   1      37.869  22.424  25.324  1.00  0.00     0.041 A 
ATOM     21  C   UNL A   1      35.641  22.809  26.168  1.00  0.00     0.056 A 
ATOM     22  C   UNL A   1      36.927  23.262  25.890  1.00  0.00     0.124 A 
ATOM     23  F   UNL A   1      37.255  24.535  26.153  1.00  0.00    -0.207 F 
BRANCH  18  24
ATOM     24  N   UNL A   1      35.938  19.321  24.874  1.00  0.00    -0.398 N 
ATOM     25  H   UNL A   1      35.561  18.653  25.491  1.00  0.00     0.156 HD
ATOM     26  H   UNL A   1      36.113  19.081  23.936  1.00  0.00     0.156 HD
ENDBRANCH  18  24
ENDBRANCH  16  17
ENDBRANCH  15  16
ENDBRANCH  14  15
ENDBRANCH  13  14
ENDBRANCH   8  13
ENDBRANCH   4   7
ENDBRANCH   2   3
ENDBRANCH   1   2
BRANCH   1  27
ATOM     27  C   UNL A   1      33.373  28.214  24.819  1.00  0.00     0.002 C 
BRANCH  27  28
ATOM     28  C   UNL A   1      32.106  28.045  25.665  1.00  0.00     0.002 C 
BRANCH  28  29
ATOM     29  C   UNL A   1      32.245  28.376  27.151  1.00  0.00     0.021 C 
BRANCH  29  30
ATOM     30  C   UNL A   1      33.632  28.829  27.584  1.00  0.00     0.116 C 
BRANCH  30  31
ATOM     31  N   UNL A   1      33.726  30.269  27.753  1.00  0.00    -0.352 N 
ATOM     32  C   UNL A   1      34.789  31.008  28.214  1.00  0.00     0.251 C 
ATOM     33  H   UNL A   1      32.923  30.781  27.506  1.00  0.00     0.163 HD
ATOM     34  O   UNL A   1      34.666  32.209  28.433  1.00  0.00    -0.269 OA
BRANCH  32  35
ATOM     35  C   UNL A   1      36.071  30.324  28.483  1.00  0.00     0.039 A 
ATOM     36  C   UNL A   1      36.306  29.729  29.726  1.00  0.00     0.014 A 
ATOM     37  C   UNL A   1      37.072  30.345  27.509  1.00  0.00     0.014 A 
ATOM     38  C   UNL A   1      37.590  29.310  30.053  1.00  0.00     0.010 A 
ATOM     39  C   UNL A   1      38.340  29.842  27.813  1.00  0.00     0.010 A 
ATOM     40  C   UNL A   1      38.623  29.367  29.103  1.00  0.00    -0.014 A 
BRANCH  40  41
ATOM     41  C   UNL A   1      39.989  28.918  29.475  1.00  0.00     0.031 A 
ATOM     42  C   UNL A   1      40.507  27.573  29.037  1.00  0.00     0.074 A 
ATOM     43  C   UNL A   1      40.782  29.749  30.180  1.00  0.00     0.049 A 
ATOM     44  N   UNL A   1      41.673  27.029  29.274  1.00  0.00    -0.248 NA
ATOM     45  C   UNL A   1      39.606  26.730  28.234  1.00  0.00     0.031 C 
ATOM     46  C   UNL A   1      40.398  31.085  30.639  1.00  0.00     0.029 A 
ATOM     47  N   UNL A   1      42.076  29.608  30.614  1.00  0.00    -0.354 N 
ATOM     48  C   UNL A   1      41.640  25.776  28.671  1.00  0.00     0.074 A 
ATOM     49  C   UNL A   1      40.330  25.629  28.076  1.00  0.00     0.031 C 
ATOM     50  C   UNL A   1      41.447  31.661  31.241  1.00  0.00     0.029 A 
ATOM     51  C   UNL A   1      42.555  30.712  31.280  1.00  0.00     0.049 A 
ATOM     52  H   UNL A   1      42.611  28.795  30.463  1.00  0.00     0.167 HD
ATOM     53  C   UNL A   1      42.618  24.842  28.613  1.00  0.00     0.031 A 
ATOM     54  C   UNL A   1      43.743  30.938  31.876  1.00  0.00     0.031 A 
ATOM     55  C   UNL A   1      43.927  25.008  29.191  1.00  0.00     0.049 A 
ATOM     56  C   UNL A   1      44.793  29.867  31.841  1.00  0.00     0.074 A 
ATOM     57  C   UNL A   1      44.996  24.132  29.146  1.00  0.00     0.029 A 
ATOM     58  N   UNL A   1      44.345  26.113  29.917  1.00  0.00    -0.354 N 
ATOM     59  N   UNL A   1      44.747  28.698  31.252  1.00  0.00    -0.248 NA
ATOM     60  C   UNL A   1      46.048  30.138  32.554  1.00  0.00     0.031 C 
ATOM     61  C   UNL A   1      46.037  24.675  29.903  1.00  0.00     0.029 A 
ATOM     62  C   UNL A   1      45.644  25.923  30.358  1.00  0.00     0.049 A 
ATOM     63  H   UNL A   1      43.800  26.913  30.092  1.00  0.00     0.167 HD
ATOM     64  C   UNL A   1      45.967  28.090  31.522  1.00  0.00     0.074 A 
ATOM     65  C   UNL A   1      46.738  29.031  32.307  1.00  0.00     0.031 C 
ATOM     66  C   UNL A   1      46.400  26.859  31.153  1.00  0.00     0.031 A 
BRANCH  53  67
ATOM     67  C   UNL A   1      42.331  23.543  27.905  1.00  0.00    -0.014 A 
ATOM     68  C   UNL A   1      41.695  22.497  28.602  1.00  0.00     0.010 A 
ATOM     69  C   UNL A   1      42.796  23.308  26.600  1.00  0.00     0.010 A 
ATOM     70  C   UNL A   1      41.554  21.235  28.020  1.00  0.00     0.020 A 
ATOM     71  C   UNL A   1      42.633  22.053  26.003  1.00  0.00     0.020 A 
ATOM     72  C   UNL A   1      42.034  21.019  26.726  1.00  0.00     0.054 A 
BRANCH  72  73
ATOM     73  S   UNL A   1      41.863  19.368  25.991  1.00  0.00     0.124 S 
ATOM     74  O   UNL A   1      40.428  19.293  25.733  1.00  0.00    -0.237 OA
ATOM     75  O   UNL A   1      42.714  19.454  24.807  1.00  0.00    -0.237 OA
ATOM     76  O   UNL A   1      42.358  18.476  27.038  1.00  0.00    -0.744 OA
ENDBRANCH  72  73
ENDBRANCH  53  67
BRANCH  54  77
ATOM     77  C   UNL A   1      43.968  32.250  32.540  1.00  0.00    -0.014 A 
ATOM     78  C   UNL A   1      43.565  32.445  33.875  1.00  0.00     0.010 A 
ATOM     79  C   UNL A   1      44.459  33.343  31.806  1.00  0.00     0.010 A 
ATOM     80  C   UNL A   1      43.571  33.723  34.438  1.00  0.00     0.020 A 
ATOM     81  C   UNL A   1      44.496  34.619  32.378  1.00  0.00     0.020 A 
ATOM     82  C   UNL A   1      44.016  34.806  33.677  1.00  0.00     0.054 A 
BRANCH  82  83
ATOM     83  S   UNL A   1      43.926  36.470  34.394  1.00  0.00     0.124 S 
ATOM     84  O   UNL A   1      44.036  36.185  35.822  1.00  0.00    -0.237 OA
ATOM     85  O   UNL A   1      45.078  37.139  33.796  1.00  0.00    -0.237 OA
ATOM     86  O   UNL A   1      42.625  36.962  33.951  1.00  0.00    -0.744 OA
ENDBRANCH  82  83
ENDBRANCH  54  77
BRANCH  66  87
ATOM     87  C   UNL A   1      47.769  26.423  31.603  1.00  0.00    -0.014 A 
ATOM     88  C   UNL A   1      48.829  26.381  30.679  1.00  0.00     0.010 A 
ATOM     89  C   UNL A   1      47.965  25.911  32.897  1.00  0.00     0.010 A 
ATOM     90  C   UNL A   1      50.046  25.791  31.023  1.00  0.00     0.020 A 
ATOM     91  C   UNL A   1      49.192  25.344  33.255  1.00  0.00     0.020 A 
ATOM     92  C   UNL A   1      50.215  25.262  32.306  1.00  0.00     0.054 A 
BRANCH  92  93
ATOM     93  S   UNL A   1      51.783  24.448  32.717  1.00  0.00     0.124 S 
ATOM     94  O   UNL A   1      51.757  24.452  34.177  1.00  0.00    -0.237 OA
ATOM     95  O   UNL A   1      51.638  23.137  32.088  1.00  0.00    -0.237 OA
ATOM     96  O   UNL A   1      52.789  25.315  32.107  1.00  0.00    -0.744 OA
ENDBRANCH  92  93
ENDBRANCH  66  87
ENDBRANCH  40  41
ENDBRANCH  32  35
ENDBRANCH  30  31
ENDBRANCH  29  30
ENDBRANCH  28  29
ENDBRANCH  27  28
ENDBRANCH   1  27
TORSDOF 22
ENDMDL
