MODEL 1
REMARK VINA RESULT:     -11.2      0.000      0.000
REMARK SMILES CC(C)(C)OC(=O)N1CCC[C@](Cc2ccccc2)(C(=O)NCCCCCCNC(=O)c2ccc(-c3c4nc(c(-c5ccc(S(=O)(=O)[O-])cc5)c5ccc([nH]5)c(-c5ccc(S(=O)(=O)[O-])cc5)c5nc(c(-c6ccc(S(=O)(=O)[O-])cc6)c6ccc3[nH]6)C=C5)C=C4)cc2)C1
REMARK SMILES IDX 25 1 24 2 23 3 22 4 20 5 21 6 12 8 8 9 9 10 92 11 10 12
REMARK SMILES IDX 11 13 6 14 7 15 5 16 2 17 1 18 3 19 4 20 13 21 14 22 15 23
REMARK SMILES IDX 19 24 16 25 18 26 17 27 26 28 27 29 28 30 29 31 30 32 31 34
REMARK SMILES IDX 32 35 33 36 91 37 34 38 90 39 35 40 36 41 37 42 84 43 38 44
REMARK SMILES IDX 89 45 83 46 85 47 39 48 88 49 82 50 81 51 40 53 70 54 51 55
REMARK SMILES IDX 69 56 52 57 55 58 68 59 86 60 53 61 54 62 67 64 87 65 56 66
REMARK SMILES IDX 41 67 42 68 50 69 43 70 49 71 44 72 45 73 46 74 47 75 48 76
REMARK SMILES IDX 71 77 72 78 80 79 73 80 79 81 74 82 75 83 76 84 77 85 78 86
REMARK SMILES IDX 57 87 58 88 66 89 59 90 65 91 60 92 61 93 62 94 63 95 64 96
REMARK H PARENT 22 7 29 33 85 52 55 63
REMARK Flexibility Score: inf
ROOT
ATOM      1  C   UNL A   1      32.970  28.110  26.210  1.00  0.00     0.002 C 
ENDROOT
BRANCH   1   2
ATOM      2  C   UNL A   1      33.236  27.206  25.009  1.00  0.00     0.021 C 
BRANCH   2   3
ATOM      3  C   UNL A   1      33.213  25.723  25.353  1.00  0.00     0.116 C 
BRANCH   3   4
ATOM      4  N   UNL A   1      33.161  24.861  24.201  1.00  0.00    -0.356 N 
ATOM      5  C   UNL A   1      33.592  23.591  23.997  1.00  0.00     0.228 C 
ATOM      6  O   UNL A   1      33.088  23.054  23.000  1.00  0.00    -0.274 OA
ATOM      7  H   UNL A   1      32.732  25.268  23.415  1.00  0.00     0.163 HD
BRANCH   5   8
ATOM      8  C   UNL A   1      34.630  22.825  24.887  1.00  0.00     0.071 C 
ATOM      9  N   UNL A   1      33.593  20.604  25.508  1.00  0.00    -0.307 N 
ATOM     10  C   UNL A   1      33.718  20.841  26.941  1.00  0.00     0.123 C 
ATOM     11  C   UNL A   1      34.535  21.301  24.646  1.00  0.00     0.140 C 
ATOM     12  C   UNL A   1      33.709  22.320  27.313  1.00  0.00     0.023 C 
ATOM     13  C   UNL A   1      34.518  23.227  26.383  1.00  0.00     0.021 C 
BRANCH   9  14
ATOM     14  C   UNL A   1      32.676  19.673  25.036  1.00  0.00     0.410 C 
ATOM     15  O   UNL A   1      31.750  19.974  24.300  1.00  0.00    -0.224 OA
BRANCH  14  16
ATOM     16  O   UNL A   1      32.949  18.417  25.473  1.00  0.00    -0.444 OA
BRANCH  16  17
ATOM     17  C   UNL A   1      33.788  17.467  24.754  1.00  0.00     0.106 C 
ATOM     18  C   UNL A   1      33.132  17.310  23.373  1.00  0.00     0.056 C 
ATOM     19  C   UNL A   1      33.707  16.135  25.506  1.00  0.00     0.056 C 
ATOM     20  C   UNL A   1      35.250  17.878  24.544  1.00  0.00     0.056 C 
ENDBRANCH  16  17
ENDBRANCH  14  16
ENDBRANCH   9  14
BRANCH   8  21
ATOM     21  C   UNL A   1      36.031  23.334  24.320  1.00  0.00     0.054 C 
BRANCH  21  22
ATOM     22  C   UNL A   1      37.284  23.093  25.141  1.00  0.00    -0.047 A 
ATOM     23  C   UNL A   1      37.792  24.117  25.956  1.00  0.00     0.004 A 
ATOM     24  C   UNL A   1      37.951  21.864  25.122  1.00  0.00     0.004 A 
ATOM     25  C   UNL A   1      38.887  23.889  26.789  1.00  0.00     0.000 A 
ATOM     26  C   UNL A   1      39.028  21.625  25.975  1.00  0.00     0.000 A 
ATOM     27  C   UNL A   1      39.490  22.634  26.816  1.00  0.00     0.000 A 
ENDBRANCH  21  22
ENDBRANCH   8  21
ENDBRANCH   5   8
ENDBRANCH   3   4
ENDBRANCH   2   3
ENDBRANCH   1   2
BRANCH   1  28
ATOM     28  C   UNL A   1      33.962  29.270  26.383  1.00  0.00     0.002 C 
BRANCH  28  29
ATOM     29  C   UNL A   1      35.071  29.047  27.419  1.00  0.00     0.021 C 
BRANCH  29  30
ATOM     30  C   UNL A   1      35.657  30.325  28.014  1.00  0.00     0.116 C 
BRANCH  30  31
ATOM     31  N   UNL A   1      35.666  30.286  29.467  1.00  0.00    -0.352 N 
ATOM     32  C   UNL A   1      36.608  29.811  30.337  1.00  0.00     0.251 C 
ATOM     33  H   UNL A   1      34.863  30.663  29.895  1.00  0.00     0.163 HD
ATOM     34  O   UNL A   1      36.305  29.628  31.514  1.00  0.00    -0.269 OA
BRANCH  32  35
ATOM     35  C   UNL A   1      37.981  29.524  29.874  1.00  0.00     0.039 A 
ATOM     36  C   UNL A   1      38.909  29.039  30.796  1.00  0.00     0.014 A 
ATOM     37  C   UNL A   1      38.372  29.787  28.557  1.00  0.00     0.014 A 
ATOM     38  C   UNL A   1      40.220  28.791  30.392  1.00  0.00     0.010 A 
ATOM     39  C   UNL A   1      39.658  29.460  28.134  1.00  0.00     0.010 A 
ATOM     40  C   UNL A   1      40.600  28.976  29.051  1.00  0.00    -0.014 A 
BRANCH  40  41
ATOM     41  C   UNL A   1      41.981  28.653  28.614  1.00  0.00     0.031 A 
ATOM     42  C   UNL A   1      42.338  27.270  28.141  1.00  0.00     0.074 A 
ATOM     43  C   UNL A   1      42.923  29.613  28.671  1.00  0.00     0.049 A 
ATOM     44  N   UNL A   1      43.477  26.831  27.669  1.00  0.00    -0.248 NA
ATOM     45  C   UNL A   1      41.290  26.241  28.230  1.00  0.00     0.031 C 
ATOM     46  C   UNL A   1      42.715  30.971  29.179  1.00  0.00     0.029 A 
ATOM     47  N   UNL A   1      44.241  29.598  28.293  1.00  0.00    -0.354 N 
ATOM     48  C   UNL A   1      43.287  25.477  27.416  1.00  0.00     0.074 A 
ATOM     49  C   UNL A   1      41.943  25.156  27.842  1.00  0.00     0.031 C 
ATOM     50  C   UNL A   1      43.852  31.669  29.046  1.00  0.00     0.029 A 
ATOM     51  C   UNL A   1      44.879  30.801  28.481  1.00  0.00     0.049 A 
ATOM     52  H   UNL A   1      44.689  28.803  27.923  1.00  0.00     0.167 HD
ATOM     53  C   UNL A   1      44.147  24.587  26.864  1.00  0.00     0.031 A 
ATOM     54  C   UNL A   1      46.150  31.168  28.229  1.00  0.00     0.031 A 
ATOM     55  C   UNL A   1      45.489  24.916  26.456  1.00  0.00     0.049 A 
ATOM     56  C   UNL A   1      47.081  30.174  27.597  1.00  0.00     0.074 A 
ATOM     57  C   UNL A   1      46.422  24.109  25.828  1.00  0.00     0.029 A 
ATOM     58  N   UNL A   1      46.097  26.149  26.650  1.00  0.00    -0.354 N 
ATOM     59  N   UNL A   1      46.855  28.922  27.275  1.00  0.00    -0.248 NA
ATOM     60  C   UNL A   1      48.431  30.649  27.273  1.00  0.00     0.031 C 
ATOM     61  C   UNL A   1      47.614  24.831  25.706  1.00  0.00     0.029 A 
ATOM     62  C   UNL A   1      47.404  26.114  26.186  1.00  0.00     0.049 A 
ATOM     63  H   UNL A   1      45.664  26.934  27.057  1.00  0.00     0.167 HD
ATOM     64  C   UNL A   1      48.031  28.462  26.694  1.00  0.00     0.074 A 
ATOM     65  C   UNL A   1      48.954  29.582  26.684  1.00  0.00     0.031 C 
ATOM     66  C   UNL A   1      48.323  27.226  26.213  1.00  0.00     0.031 A 
BRANCH  53  67
ATOM     67  C   UNL A   1      43.664  23.167  26.698  1.00  0.00    -0.014 A 
ATOM     68  C   UNL A   1      43.143  22.434  27.783  1.00  0.00     0.010 A 
ATOM     69  C   UNL A   1      43.726  22.553  25.434  1.00  0.00     0.010 A 
ATOM     70  C   UNL A   1      42.758  21.100  27.621  1.00  0.00     0.020 A 
ATOM     71  C   UNL A   1      43.307  21.230  25.259  1.00  0.00     0.020 A 
ATOM     72  C   UNL A   1      42.849  20.504  26.360  1.00  0.00     0.054 A 
BRANCH  72  73
ATOM     73  S   UNL A   1      42.352  18.769  26.180  1.00  0.00     0.124 S 
ATOM     74  O   UNL A   1      42.545  18.258  27.535  1.00  0.00    -0.237 OA
ATOM     75  O   UNL A   1      40.963  18.877  25.743  1.00  0.00    -0.237 OA
ATOM     76  O   UNL A   1      43.279  18.244  25.180  1.00  0.00    -0.744 OA
ENDBRANCH  72  73
ENDBRANCH  53  67
BRANCH  54  77
ATOM     77  C   UNL A   1      46.592  32.548  28.568  1.00  0.00    -0.014 A 
ATOM     78  C   UNL A   1      47.277  32.817  29.765  1.00  0.00     0.010 A 
ATOM     79  C   UNL A   1      46.376  33.597  27.654  1.00  0.00     0.010 A 
ATOM     80  C   UNL A   1      47.735  34.109  30.043  1.00  0.00     0.020 A 
ATOM     81  C   UNL A   1      46.859  34.881  27.914  1.00  0.00     0.020 A 
ATOM     82  C   UNL A   1      47.532  35.130  29.111  1.00  0.00     0.054 A 
BRANCH  82  83
ATOM     83  S   UNL A   1      48.211  36.778  29.454  1.00  0.00     0.124 S 
ATOM     84  O   UNL A   1      47.090  37.647  29.111  1.00  0.00    -0.237 OA
ATOM     85  O   UNL A   1      48.536  36.694  30.875  1.00  0.00    -0.237 OA
ATOM     86  O   UNL A   1      49.366  36.865  28.563  1.00  0.00    -0.744 OA
ENDBRANCH  82  83
ENDBRANCH  54  77
BRANCH  66  87
ATOM     87  C   UNL A   1      49.696  27.031  25.620  1.00  0.00    -0.014 A 
ATOM     88  C   UNL A   1      50.750  26.481  26.374  1.00  0.00     0.010 A 
ATOM     89  C   UNL A   1      49.933  27.401  24.284  1.00  0.00     0.010 A 
ATOM     90  C   UNL A   1      52.030  26.368  25.823  1.00  0.00     0.020 A 
ATOM     91  C   UNL A   1      51.201  27.253  23.717  1.00  0.00     0.020 A 
ATOM     92  C   UNL A   1      52.247  26.762  24.500  1.00  0.00     0.054 A 
BRANCH  92  93
ATOM     93  S   UNL A   1      53.919  26.614  23.809  1.00  0.00     0.124 S 
ATOM     94  O   UNL A   1      54.489  27.922  24.116  1.00  0.00    -0.237 OA
ATOM     95  O   UNL A   1      54.477  25.492  24.560  1.00  0.00    -0.237 OA
ATOM     96  O   UNL A   1      53.685  26.353  22.390  1.00  0.00    -0.744 OA
ENDBRANCH  92  93
ENDBRANCH  66  87
ENDBRANCH  40  41
ENDBRANCH  32  35
ENDBRANCH  30  31
ENDBRANCH  29  30
ENDBRANCH  28  29
ENDBRANCH   1  28
TORSDOF 21
ENDMDL
MODEL 2
REMARK VINA RESULT:     -10.8      6.455     11.537
REMARK SMILES CC(C)(C)OC(=O)N1CCC[C@](Cc2ccccc2)(C(=O)NCCCCCCNC(=O)c2ccc(-c3c4nc(c(-c5ccc(S(=O)(=O)[O-])cc5)c5ccc([nH]5)c(-c5ccc(S(=O)(=O)[O-])cc5)c5nc(c(-c6ccc(S(=O)(=O)[O-])cc6)c6ccc3[nH]6)C=C5)C=C4)cc2)C1
REMARK SMILES IDX 25 1 24 2 23 3 22 4 20 5 21 6 12 8 8 9 9 10 92 11 10 12
REMARK SMILES IDX 11 13 6 14 7 15 5 16 2 17 1 18 3 19 4 20 13 21 14 22 15 23
REMARK SMILES IDX 19 24 16 25 18 26 17 27 26 28 27 29 28 30 29 31 30 32 31 34
REMARK SMILES IDX 32 35 33 36 91 37 34 38 90 39 35 40 36 41 37 42 84 43 38 44
REMARK SMILES IDX 89 45 83 46 85 47 39 48 88 49 82 50 81 51 40 53 70 54 51 55
REMARK SMILES IDX 69 56 52 57 55 58 68 59 86 60 53 61 54 62 67 64 87 65 56 66
REMARK SMILES IDX 41 67 42 68 50 69 43 70 49 71 44 72 45 73 46 74 47 75 48 76
REMARK SMILES IDX 71 77 72 78 80 79 73 80 79 81 74 82 75 83 76 84 77 85 78 86
REMARK SMILES IDX 57 87 58 88 66 89 59 90 65 91 60 92 61 93 62 94 63 95 64 96
REMARK H PARENT 22 7 29 33 85 52 55 63
REMARK Flexibility Score: inf
ROOT
ATOM      1  C   UNL A   1      32.973  29.736  27.230  1.00  0.00     0.002 C 
ENDROOT
BRANCH   1   2
ATOM      2  C   UNL A   1      32.855  28.216  27.150  1.00  0.00     0.021 C 
BRANCH   2   3
ATOM      3  C   UNL A   1      33.668  27.607  26.016  1.00  0.00     0.116 C 
BRANCH   3   4
ATOM      4  N   UNL A   1      33.576  28.337  24.778  1.00  0.00    -0.356 N 
ATOM      5  C   UNL A   1      32.775  28.187  23.693  1.00  0.00     0.228 C 
ATOM      6  O   UNL A   1      32.744  29.187  22.962  1.00  0.00    -0.274 OA
ATOM      7  H   UNL A   1      34.211  29.084  24.706  1.00  0.00     0.163 HD
BRANCH   5   8
ATOM      8  C   UNL A   1      31.954  26.901  23.335  1.00  0.00     0.071 C 
ATOM      9  N   UNL A   1      29.525  27.582  23.169  1.00  0.00    -0.307 N 
ATOM     10  C   UNL A   1      29.092  26.625  24.181  1.00  0.00     0.123 C 
ATOM     11  C   UNL A   1      30.743  27.259  22.443  1.00  0.00     0.140 C 
ATOM     12  C   UNL A   1      30.179  26.280  25.192  1.00  0.00     0.023 C 
ATOM     13  C   UNL A   1      31.576  26.084  24.601  1.00  0.00     0.021 C 
BRANCH   9  14
ATOM     14  C   UNL A   1      28.732  28.684  22.872  1.00  0.00     0.410 C 
ATOM     15  O   UNL A   1      27.572  28.583  22.507  1.00  0.00    -0.224 OA
BRANCH  14  16
ATOM     16  O   UNL A   1      29.393  29.856  23.055  1.00  0.00    -0.444 OA
BRANCH  16  17
ATOM     17  C   UNL A   1      28.747  31.162  23.077  1.00  0.00     0.106 C 
ATOM     18  C   UNL A   1      29.599  32.022  24.024  1.00  0.00     0.056 C 
ATOM     19  C   UNL A   1      27.356  30.966  23.688  1.00  0.00     0.056 C 
ATOM     20  C   UNL A   1      28.645  31.891  21.732  1.00  0.00     0.056 C 
ENDBRANCH  16  17
ENDBRANCH  14  16
ENDBRANCH   9  14
BRANCH   8  21
ATOM     21  C   UNL A   1      32.984  26.052  22.461  1.00  0.00     0.054 C 
BRANCH  21  22
ATOM     22  C   UNL A   1      33.389  24.672  22.944  1.00  0.00    -0.047 A 
ATOM     23  C   UNL A   1      34.519  24.524  23.765  1.00  0.00     0.004 A 
ATOM     24  C   UNL A   1      32.658  23.529  22.604  1.00  0.00     0.004 A 
ATOM     25  C   UNL A   1      34.856  23.279  24.295  1.00  0.00     0.000 A 
ATOM     26  C   UNL A   1      32.977  22.289  23.157  1.00  0.00     0.000 A 
ATOM     27  C   UNL A   1      34.070  22.165  24.011  1.00  0.00     0.000 A 
ENDBRANCH  21  22
ENDBRANCH   8  21
ENDBRANCH   5   8
ENDBRANCH   3   4
ENDBRANCH   2   3
ENDBRANCH   1   2
BRANCH   1  28
ATOM     28  C   UNL A   1      31.795  30.512  26.621  1.00  0.00     0.002 C 
BRANCH  28  29
ATOM     29  C   UNL A   1      31.769  32.017  26.915  1.00  0.00     0.021 C 
BRANCH  29  30
ATOM     30  C   UNL A   1      33.080  32.589  27.445  1.00  0.00     0.116 C 
BRANCH  30  31
ATOM     31  N   UNL A   1      32.939  33.980  27.842  1.00  0.00    -0.352 N 
ATOM     32  C   UNL A   1      33.516  34.674  28.869  1.00  0.00     0.251 C 
ATOM     33  H   UNL A   1      32.328  34.510  27.279  1.00  0.00     0.163 HD
ATOM     34  O   UNL A   1      33.057  35.767  29.192  1.00  0.00    -0.269 OA
BRANCH  32  35
ATOM     35  C   UNL A   1      34.683  34.121  29.586  1.00  0.00     0.039 A 
ATOM     36  C   UNL A   1      34.463  33.354  30.731  1.00  0.00     0.014 A 
ATOM     37  C   UNL A   1      35.989  34.404  29.173  1.00  0.00     0.014 A 
ATOM     38  C   UNL A   1      35.548  32.848  31.444  1.00  0.00     0.010 A 
ATOM     39  C   UNL A   1      37.070  33.829  29.836  1.00  0.00     0.010 A 
ATOM     40  C   UNL A   1      36.862  33.060  30.989  1.00  0.00    -0.014 A 
BRANCH  40  41
ATOM     41  C   UNL A   1      38.010  32.469  31.719  1.00  0.00     0.031 A 
ATOM     42  C   UNL A   1      38.436  33.008  33.057  1.00  0.00     0.074 A 
ATOM     43  C   UNL A   1      38.687  31.452  31.152  1.00  0.00     0.049 A 
ATOM     44  N   UNL A   1      39.377  32.574  33.856  1.00  0.00    -0.248 NA
ATOM     45  C   UNL A   1      37.733  34.201  33.552  1.00  0.00     0.031 C 
ATOM     46  C   UNL A   1      38.414  30.890  29.827  1.00  0.00     0.029 A 
ATOM     47  N   UNL A   1      39.739  30.706  31.619  1.00  0.00    -0.354 N 
ATOM     48  C   UNL A   1      39.386  33.444  34.941  1.00  0.00     0.074 A 
ATOM     49  C   UNL A   1      38.398  34.464  34.667  1.00  0.00     0.031 C 
ATOM     50  C   UNL A   1      39.248  29.865  29.604  1.00  0.00     0.029 A 
ATOM     51  C   UNL A   1      40.141  29.720  30.749  1.00  0.00     0.049 A 
ATOM     52  H   UNL A   1      40.165  30.859  32.492  1.00  0.00     0.167 HD
ATOM     53  C   UNL A   1      40.136  33.390  36.068  1.00  0.00     0.031 A 
ATOM     54  C   UNL A   1      41.119  28.801  30.856  1.00  0.00     0.031 A 
ATOM     55  C   UNL A   1      41.128  32.377  36.324  1.00  0.00     0.049 A 
ATOM     56  C   UNL A   1      41.925  28.744  32.122  1.00  0.00     0.074 A 
ATOM     57  C   UNL A   1      41.898  32.190  37.458  1.00  0.00     0.029 A 
ATOM     58  N   UNL A   1      41.499  31.386  35.424  1.00  0.00    -0.354 N 
ATOM     59  N   UNL A   1      41.854  29.516  33.180  1.00  0.00    -0.248 NA
ATOM     60  C   UNL A   1      42.925  27.675  32.218  1.00  0.00     0.031 C 
ATOM     61  C   UNL A   1      42.782  31.133  37.218  1.00  0.00     0.029 A 
ATOM     62  C   UNL A   1      42.511  30.607  35.964  1.00  0.00     0.049 A 
ATOM     63  H   UNL A   1      41.101  31.255  34.533  1.00  0.00     0.167 HD
ATOM     64  C   UNL A   1      42.791  29.018  34.077  1.00  0.00     0.074 A 
ATOM     65  C   UNL A   1      43.393  27.858  33.445  1.00  0.00     0.031 C 
ATOM     66  C   UNL A   1      43.125  29.477  35.311  1.00  0.00     0.031 A 
BRANCH  53  67
ATOM     67  C   UNL A   1      39.927  34.477  37.094  1.00  0.00    -0.014 A 
ATOM     68  C   UNL A   1      40.612  35.706  37.017  1.00  0.00     0.010 A 
ATOM     69  C   UNL A   1      39.024  34.271  38.153  1.00  0.00     0.010 A 
ATOM     70  C   UNL A   1      40.449  36.676  38.010  1.00  0.00     0.020 A 
ATOM     71  C   UNL A   1      38.830  35.253  39.130  1.00  0.00     0.020 A 
ATOM     72  C   UNL A   1      39.563  36.440  39.065  1.00  0.00     0.054 A 
BRANCH  72  73
ATOM     73  S   UNL A   1      39.379  37.710  40.347  1.00  0.00     0.124 S 
ATOM     74  O   UNL A   1      40.663  38.403  40.271  1.00  0.00    -0.237 OA
ATOM     75  O   UNL A   1      38.225  38.474  39.877  1.00  0.00    -0.237 OA
ATOM     76  O   UNL A   1      39.158  36.941  41.569  1.00  0.00    -0.744 OA
ENDBRANCH  72  73
ENDBRANCH  53  67
BRANCH  54  77
ATOM     77  C   UNL A   1      41.364  27.861  29.729  1.00  0.00    -0.014 A 
ATOM     78  C   UNL A   1      40.419  26.881  29.383  1.00  0.00     0.010 A 
ATOM     79  C   UNL A   1      42.532  27.989  28.952  1.00  0.00     0.010 A 
ATOM     80  C   UNL A   1      40.639  26.042  28.285  1.00  0.00     0.020 A 
ATOM     81  C   UNL A   1      42.740  27.175  27.837  1.00  0.00     0.020 A 
ATOM     82  C   UNL A   1      41.793  26.202  27.514  1.00  0.00     0.054 A 
BRANCH  82  83
ATOM     83  S   UNL A   1      42.015  25.161  26.043  1.00  0.00     0.124 S 
ATOM     84  O   UNL A   1      41.337  23.931  26.435  1.00  0.00    -0.237 OA
ATOM     85  O   UNL A   1      41.356  25.945  25.002  1.00  0.00    -0.237 OA
ATOM     86  O   UNL A   1      43.467  25.061  25.910  1.00  0.00    -0.744 OA
ENDBRANCH  82  83
ENDBRANCH  54  77
BRANCH  66  87
ATOM     87  C   UNL A   1      44.183  28.706  36.062  1.00  0.00    -0.014 A 
ATOM     88  C   UNL A   1      43.848  27.629  36.904  1.00  0.00     0.010 A 
ATOM     89  C   UNL A   1      45.535  29.066  35.919  1.00  0.00     0.010 A 
ATOM     90  C   UNL A   1      44.838  26.971  37.638  1.00  0.00     0.020 A 
ATOM     91  C   UNL A   1      46.532  28.385  36.622  1.00  0.00     0.020 A 
ATOM     92  C   UNL A   1      46.174  27.359  37.497  1.00  0.00     0.054 A 
BRANCH  92  93
ATOM     93  S   UNL A   1      47.440  26.495  38.467  1.00  0.00     0.124 S 
ATOM     94  O   UNL A   1      48.422  26.150  37.443  1.00  0.00    -0.237 OA
ATOM     95  O   UNL A   1      47.861  27.514  39.424  1.00  0.00    -0.237 OA
ATOM     96  O   UNL A   1      46.720  25.362  39.046  1.00  0.00    -0.744 OA
ENDBRANCH  92  93
ENDBRANCH  66  87
ENDBRANCH  40  41
ENDBRANCH  32  35
ENDBRANCH  30  31
ENDBRANCH  29  30
ENDBRANCH  28  29
ENDBRANCH   1  28
TORSDOF 21
ENDMDL
MODEL 3
REMARK VINA RESULT:     -10.8      6.283     11.329
REMARK SMILES CC(C)(C)OC(=O)N1CCC[C@](Cc2ccccc2)(C(=O)NCCCCCCNC(=O)c2ccc(-c3c4nc(c(-c5ccc(S(=O)(=O)[O-])cc5)c5ccc([nH]5)c(-c5ccc(S(=O)(=O)[O-])cc5)c5nc(c(-c6ccc(S(=O)(=O)[O-])cc6)c6ccc3[nH]6)C=C5)C=C4)cc2)C1
REMARK SMILES IDX 25 1 24 2 23 3 22 4 20 5 21 6 12 8 8 9 9 10 92 11 10 12
REMARK SMILES IDX 11 13 6 14 7 15 5 16 2 17 1 18 3 19 4 20 13 21 14 22 15 23
REMARK SMILES IDX 19 24 16 25 18 26 17 27 26 28 27 29 28 30 29 31 30 32 31 34
REMARK SMILES IDX 32 35 33 36 91 37 34 38 90 39 35 40 36 41 37 42 84 43 38 44
REMARK SMILES IDX 89 45 83 46 85 47 39 48 88 49 82 50 81 51 40 53 70 54 51 55
REMARK SMILES IDX 69 56 52 57 55 58 68 59 86 60 53 61 54 62 67 64 87 65 56 66
REMARK SMILES IDX 41 67 42 68 50 69 43 70 49 71 44 72 45 73 46 74 47 75 48 76
REMARK SMILES IDX 71 77 72 78 80 79 73 80 79 81 74 82 75 83 76 84 77 85 78 86
REMARK SMILES IDX 57 87 58 88 66 89 59 90 65 91 60 92 61 93 62 94 63 95 64 96
REMARK H PARENT 22 7 29 33 85 52 55 63
REMARK Flexibility Score: inf
ROOT
ATOM      1  C   UNL A   1      33.173  30.152  26.627  1.00  0.00     0.002 C 
ENDROOT
BRANCH   1   2
ATOM      2  C   UNL A   1      33.198  28.870  27.455  1.00  0.00     0.021 C 
BRANCH   2   3
ATOM      3  C   UNL A   1      33.250  27.606  26.609  1.00  0.00     0.116 C 
BRANCH   3   4
ATOM      4  N   UNL A   1      33.951  27.771  25.362  1.00  0.00    -0.356 N 
ATOM      5  C   UNL A   1      33.511  27.941  24.090  1.00  0.00     0.228 C 
ATOM      6  O   UNL A   1      34.381  28.378  23.323  1.00  0.00    -0.274 OA
ATOM      7  H   UNL A   1      34.930  27.758  25.448  1.00  0.00     0.163 HD
BRANCH   5   8
ATOM      8  C   UNL A   1      32.065  27.626  23.573  1.00  0.00     0.071 C 
ATOM      9  N   UNL A   1      31.548  25.232  24.199  1.00  0.00    -0.307 N 
ATOM     10  C   UNL A   1      31.282  24.832  22.822  1.00  0.00     0.123 C 
ATOM     11  C   UNL A   1      31.351  26.636  24.521  1.00  0.00     0.140 C 
ATOM     12  C   UNL A   1      32.028  25.673  21.793  1.00  0.00     0.023 C 
ATOM     13  C   UNL A   1      32.068  27.174  22.087  1.00  0.00     0.021 C 
BRANCH   9  14
ATOM     14  C   UNL A   1      31.874  24.271  25.150  1.00  0.00     0.410 C 
ATOM     15  O   UNL A   1      31.118  23.364  25.456  1.00  0.00    -0.224 OA
BRANCH  14  16
ATOM     16  O   UNL A   1      33.116  24.459  25.664  1.00  0.00    -0.444 OA
BRANCH  16  17
ATOM     17  C   UNL A   1      34.261  23.610  25.361  1.00  0.00     0.106 C 
ATOM     18  C   UNL A   1      34.223  22.486  26.409  1.00  0.00     0.056 C 
ATOM     19  C   UNL A   1      35.519  24.457  25.574  1.00  0.00     0.056 C 
ATOM     20  C   UNL A   1      34.277  22.965  23.970  1.00  0.00     0.056 C 
ENDBRANCH  16  17
ENDBRANCH  14  16
ENDBRANCH   9  14
BRANCH   8  21
ATOM     21  C   UNL A   1      31.331  29.038  23.681  1.00  0.00     0.054 C 
BRANCH  21  22
ATOM     22  C   UNL A   1      29.956  29.197  23.062  1.00  0.00    -0.047 A 
ATOM     23  C   UNL A   1      28.904  28.364  23.475  1.00  0.00     0.004 A 
ATOM     24  C   UNL A   1      29.695  30.167  22.088  1.00  0.00     0.004 A 
ATOM     25  C   UNL A   1      27.611  28.554  22.986  1.00  0.00     0.000 A 
ATOM     26  C   UNL A   1      28.398  30.376  21.620  1.00  0.00     0.000 A 
ATOM     27  C   UNL A   1      27.354  29.577  22.077  1.00  0.00     0.000 A 
ENDBRANCH  21  22
ENDBRANCH   8  21
ENDBRANCH   5   8
ENDBRANCH   3   4
ENDBRANCH   2   3
ENDBRANCH   1   2
BRANCH   1  28
ATOM     28  C   UNL A   1      31.792  30.810  26.489  1.00  0.00     0.002 C 
BRANCH  28  29
ATOM     29  C   UNL A   1      31.727  32.300  26.844  1.00  0.00     0.021 C 
BRANCH  29  30
ATOM     30  C   UNL A   1      33.037  32.894  27.352  1.00  0.00     0.116 C 
BRANCH  30  31
ATOM     31  N   UNL A   1      32.856  34.247  27.854  1.00  0.00    -0.352 N 
ATOM     32  C   UNL A   1      33.405  34.872  28.939  1.00  0.00     0.251 C 
ATOM     33  H   UNL A   1      32.237  34.803  27.327  1.00  0.00     0.163 HD
ATOM     34  O   UNL A   1      32.915  35.926  29.340  1.00  0.00    -0.269 OA
BRANCH  32  35
ATOM     35  C   UNL A   1      34.579  34.296  29.624  1.00  0.00     0.039 A 
ATOM     36  C   UNL A   1      34.370  33.488  30.743  1.00  0.00     0.014 A 
ATOM     37  C   UNL A   1      35.881  34.594  29.208  1.00  0.00     0.014 A 
ATOM     38  C   UNL A   1      35.463  32.958  31.426  1.00  0.00     0.010 A 
ATOM     39  C   UNL A   1      36.969  33.997  29.840  1.00  0.00     0.010 A 
ATOM     40  C   UNL A   1      36.772  33.187  30.967  1.00  0.00    -0.014 A 
BRANCH  40  41
ATOM     41  C   UNL A   1      37.928  32.571  31.664  1.00  0.00     0.031 A 
ATOM     42  C   UNL A   1      38.375  33.072  33.010  1.00  0.00     0.074 A 
ATOM     43  C   UNL A   1      38.592  31.566  31.061  1.00  0.00     0.049 A 
ATOM     44  N   UNL A   1      39.326  32.612  33.784  1.00  0.00    -0.248 NA
ATOM     45  C   UNL A   1      37.686  34.255  33.546  1.00  0.00     0.031 C 
ATOM     46  C   UNL A   1      38.297  31.042  29.725  1.00  0.00     0.029 A 
ATOM     47  N   UNL A   1      39.646  30.803  31.492  1.00  0.00    -0.354 N 
ATOM     48  C   UNL A   1      39.355  33.453  34.891  1.00  0.00     0.074 A 
ATOM     49  C   UNL A   1      38.367  34.484  34.659  1.00  0.00     0.031 C 
ATOM     50  C   UNL A   1      39.123  30.020  29.462  1.00  0.00     0.029 A 
ATOM     51  C   UNL A   1      40.030  29.839  30.590  1.00  0.00     0.049 A 
ATOM     52  H   UNL A   1      40.086  30.932  32.363  1.00  0.00     0.167 HD
ATOM     53  C   UNL A   1      40.121  33.365  36.005  1.00  0.00     0.031 A 
ATOM     54  C   UNL A   1      41.006  28.913  30.659  1.00  0.00     0.031 A 
ATOM     55  C   UNL A   1      41.110  32.341  36.219  1.00  0.00     0.049 A 
ATOM     56  C   UNL A   1      41.829  28.818  31.911  1.00  0.00     0.074 A 
ATOM     57  C   UNL A   1      41.896  32.120  37.337  1.00  0.00     0.029 A 
ATOM     58  N   UNL A   1      41.464  31.373  35.288  1.00  0.00    -0.354 N 
ATOM     59  N   UNL A   1      41.778  29.563  32.990  1.00  0.00    -0.248 NA
ATOM     60  C   UNL A   1      42.825  27.742  31.964  1.00  0.00     0.031 C 
ATOM     61  C   UNL A   1      42.771  31.065  37.056  1.00  0.00     0.029 A 
ATOM     62  C   UNL A   1      42.480  30.575  35.792  1.00  0.00     0.049 A 
ATOM     63  H   UNL A   1      41.052  31.268  34.400  1.00  0.00     0.167 HD
ATOM     64  C   UNL A   1      42.725  29.036  33.859  1.00  0.00     0.074 A 
ATOM     65  C   UNL A   1      43.312  27.891  33.188  1.00  0.00     0.031 C 
ATOM     66  C   UNL A   1      43.079  29.460  35.100  1.00  0.00     0.031 A 
BRANCH  53  67
ATOM     67  C   UNL A   1      39.931  34.425  37.063  1.00  0.00    -0.014 A 
ATOM     68  C   UNL A   1      39.061  34.232  38.153  1.00  0.00     0.010 A 
ATOM     69  C   UNL A   1      40.641  35.637  36.970  1.00  0.00     0.010 A 
ATOM     70  C   UNL A   1      38.854  35.250  39.088  1.00  0.00     0.020 A 
ATOM     71  C   UNL A   1      40.465  36.644  37.923  1.00  0.00     0.020 A 
ATOM     72  C   UNL A   1      39.553  36.454  38.963  1.00  0.00     0.054 A 
BRANCH  72  73
ATOM     73  S   UNL A   1      39.257  37.762  40.184  1.00  0.00     0.124 S 
ATOM     74  O   UNL A   1      38.133  38.480  39.590  1.00  0.00    -0.237 OA
ATOM     75  O   UNL A   1      38.950  37.007  41.396  1.00  0.00    -0.237 OA
ATOM     76  O   UNL A   1      40.519  38.499  40.215  1.00  0.00    -0.744 OA
ENDBRANCH  72  73
ENDBRANCH  53  67
BRANCH  54  77
ATOM     77  C   UNL A   1      41.230  28.003  29.503  1.00  0.00    -0.014 A 
ATOM     78  C   UNL A   1      42.303  28.206  28.618  1.00  0.00     0.010 A 
ATOM     79  C   UNL A   1      40.395  26.885  29.319  1.00  0.00     0.010 A 
ATOM     80  C   UNL A   1      42.534  27.309  27.569  1.00  0.00     0.020 A 
ATOM     81  C   UNL A   1      40.641  25.971  28.293  1.00  0.00     0.020 A 
ATOM     82  C   UNL A   1      41.707  26.192  27.420  1.00  0.00     0.054 A 
BRANCH  82  83
ATOM     83  S   UNL A   1      42.078  24.996  26.106  1.00  0.00     0.124 S 
ATOM     84  O   UNL A   1      43.474  24.671  26.376  1.00  0.00    -0.237 OA
ATOM     85  O   UNL A   1      41.116  23.930  26.371  1.00  0.00    -0.237 OA
ATOM     86  O   UNL A   1      41.837  25.751  24.878  1.00  0.00    -0.744 OA
ENDBRANCH  82  83
ENDBRANCH  54  77
BRANCH  66  87
ATOM     87  C   UNL A   1      44.143  28.665  35.815  1.00  0.00    -0.014 A 
ATOM     88  C   UNL A   1      45.510  28.961  35.661  1.00  0.00     0.010 A 
ATOM     89  C   UNL A   1      43.765  27.604  36.660  1.00  0.00     0.010 A 
ATOM     90  C   UNL A   1      46.480  28.171  36.284  1.00  0.00     0.020 A 
ATOM     91  C   UNL A   1      44.731  26.837  37.316  1.00  0.00     0.020 A 
ATOM     92  C   UNL A   1      46.083  27.110  37.102  1.00  0.00     0.054 A 
BRANCH  92  93
ATOM     93  S   UNL A   1      47.360  26.093  37.893  1.00  0.00     0.124 S 
ATOM     94  O   UNL A   1      48.577  26.588  37.258  1.00  0.00    -0.237 OA
ATOM     95  O   UNL A   1      47.207  26.428  39.306  1.00  0.00    -0.237 OA
ATOM     96  O   UNL A   1      46.984  24.726  37.538  1.00  0.00    -0.744 OA
ENDBRANCH  92  93
ENDBRANCH  66  87
ENDBRANCH  40  41
ENDBRANCH  32  35
ENDBRANCH  30  31
ENDBRANCH  29  30
ENDBRANCH  28  29
ENDBRANCH   1  28
TORSDOF 21
ENDMDL
