MODEL 1
REMARK VINA RESULT:     -12.1      0.000      0.000
REMARK SMILES COc1ccc(OC)c(Nc2c(-c3ccc(C(=O)NCCCCCCNC(=O)c4ccc(-c5c6nc(c(-c7ccc(S(=O)(=O)[O-])cc7)c7ccc([nH]7)c(-c7ccc(S(=O)(=O)[O-])cc7)c7nc(c(-c8ccc(S(=O)(=O)[O-])cc8)c8ccc5[nH]8)C=C7)C=C6)cc4)cc3)nc3cnccn23)c1
REMARK SMILES IDX 22 1 21 2 20 3 19 4 17 5 18 6 16 8 13 9 14 10 90 11 15 12
REMARK SMILES IDX 89 13 12 14 11 15 97 16 91 17 92 18 96 19 93 20 95 21 94 22
REMARK SMILES IDX 10 23 9 25 3 26 4 27 98 28 5 29 6 30 2 31 1 32 7 33 8 34
REMARK SMILES IDX 23 35 24 36 25 37 26 38 27 39 28 41 29 42 30 43 88 44 31 45
REMARK SMILES IDX 87 46 32 47 33 48 34 49 81 50 35 51 86 52 80 53 82 54 36 55
REMARK SMILES IDX 85 56 79 57 78 58 37 60 67 61 48 62 66 63 49 64 52 65 65 66
REMARK SMILES IDX 83 67 50 68 51 69 64 71 84 72 53 73 38 74 39 75 47 76 40 77
REMARK SMILES IDX 46 78 41 79 42 80 43 81 44 82 45 83 68 84 69 85 77 86 70 87
REMARK SMILES IDX 76 88 71 89 72 90 73 91 74 92 75 93 54 94 55 95 63 96 56 97
REMARK SMILES IDX 62 98 57 99 58 100 59 101 60 102 61 103
REMARK H PARENT 19 7 10 24 26 40 82 59 52 70
REMARK Flexibility Score: inf
ROOT
ATOM      1  C   UNL A   1      37.348  21.574  24.918  1.00  0.00     0.002 C 
ENDROOT
BRANCH   1   2
ATOM      2  C   UNL A   1      36.032  21.944  25.610  1.00  0.00     0.021 C 
BRANCH   2   3
ATOM      3  C   UNL A   1      34.886  22.179  24.622  1.00  0.00     0.116 C 
BRANCH   3   4
ATOM      4  N   UNL A   1      33.823  21.223  24.866  1.00  0.00    -0.352 N 
ATOM      5  C   UNL A   1      32.460  21.359  24.899  1.00  0.00     0.251 C 
ATOM      6  O   UNL A   1      31.788  20.357  25.145  1.00  0.00    -0.269 OA
ATOM      7  H   UNL A   1      34.139  20.307  25.040  1.00  0.00     0.163 HD
BRANCH   5   8
ATOM      8  C   UNL A   1      31.764  22.644  24.605  1.00  0.00     0.039 A 
ATOM      9  C   UNL A   1      30.404  25.081  24.235  1.00  0.00     0.004 A 
ATOM     10  C   UNL A   1      30.792  24.684  25.517  1.00  0.00     0.011 A 
ATOM     11  C   UNL A   1      30.716  24.273  23.141  1.00  0.00     0.011 A 
ATOM     12  C   UNL A   1      31.459  23.469  25.701  1.00  0.00     0.014 A 
ATOM     13  C   UNL A   1      31.431  23.089  23.323  1.00  0.00     0.014 A 
BRANCH   9  14
ATOM     14  C   UNL A   1      29.758  26.350  23.990  1.00  0.00     0.114 A 
ATOM     15  C   UNL A   1      30.429  27.553  23.811  1.00  0.00     0.143 A 
ATOM     16  N   UNL A   1      29.449  28.413  23.365  1.00  0.00    -0.283 N 
ATOM     17  N   UNL A   1      28.397  26.495  23.858  1.00  0.00    -0.225 NA
ATOM     18  C   UNL A   1      28.250  27.757  23.524  1.00  0.00     0.157 A 
ATOM     19  C   UNL A   1      29.467  29.705  22.871  1.00  0.00     0.115 A 
ATOM     20  C   UNL A   1      27.037  28.490  23.300  1.00  0.00     0.158 A 
ATOM     21  C   UNL A   1      28.288  30.311  22.641  1.00  0.00     0.129 A 
ATOM     22  N   UNL A   1      27.052  29.729  22.882  1.00  0.00    -0.259 NA
BRANCH  15  23
ATOM     23  N   UNL A   1      31.747  27.843  23.843  1.00  0.00    -0.336 N 
ATOM     24  H   UNL A   1      32.167  27.906  22.955  1.00  0.00     0.168 HD
BRANCH  23  25
ATOM     25  C   UNL A   1      32.644  28.076  24.928  1.00  0.00     0.086 A 
ATOM     26  C   UNL A   1      33.290  29.903  26.503  1.00  0.00     0.121 A 
ATOM     27  C   UNL A   1      34.189  29.056  27.114  1.00  0.00     0.050 A 
ATOM     28  C   UNL A   1      32.524  29.413  25.443  1.00  0.00     0.076 A 
ATOM     29  C   UNL A   1      34.302  27.745  26.667  1.00  0.00     0.052 A 
ATOM     30  C   UNL A   1      33.558  27.226  25.579  1.00  0.00     0.142 A 
BRANCH  26  31
ATOM     31  O   UNL A   1      33.295  31.183  26.977  1.00  0.00    -0.497 OA
ATOM     32  C   UNL A   1      34.346  31.523  27.869  1.00  0.00     0.278 C 
ENDBRANCH  26  31
BRANCH  30  33
ATOM     33  O   UNL A   1      33.983  25.945  25.422  1.00  0.00    -0.495 OA
ATOM     34  C   UNL A   1      34.291  25.304  24.216  1.00  0.00     0.278 C 
ENDBRANCH  30  33
ENDBRANCH  23  25
ENDBRANCH  15  23
ENDBRANCH   9  14
ENDBRANCH   5   8
ENDBRANCH   3   4
ENDBRANCH   2   3
ENDBRANCH   1   2
BRANCH   1  35
ATOM     35  C   UNL A   1      38.595  21.760  25.792  1.00  0.00     0.002 C 
BRANCH  35  36
ATOM     36  C   UNL A   1      38.686  23.116  26.496  1.00  0.00     0.021 C 
BRANCH  36  37
ATOM     37  C   UNL A   1      40.095  23.482  26.955  1.00  0.00     0.116 C 
BRANCH  37  38
ATOM     38  N   UNL A   1      40.758  24.349  25.990  1.00  0.00    -0.352 N 
ATOM     39  C   UNL A   1      41.056  25.687  26.089  1.00  0.00     0.251 C 
ATOM     40  H   UNL A   1      41.031  23.916  25.149  1.00  0.00     0.163 HD
ATOM     41  O   UNL A   1      41.364  26.327  25.093  1.00  0.00    -0.269 OA
BRANCH  39  42
ATOM     42  C   UNL A   1      40.985  26.345  27.410  1.00  0.00     0.039 A 
ATOM     43  C   UNL A   1      42.012  27.207  27.799  1.00  0.00     0.014 A 
ATOM     44  C   UNL A   1      39.890  26.121  28.250  1.00  0.00     0.014 A 
ATOM     45  C   UNL A   1      41.900  27.912  28.999  1.00  0.00     0.010 A 
ATOM     46  C   UNL A   1      39.749  26.872  29.412  1.00  0.00     0.010 A 
ATOM     47  C   UNL A   1      40.745  27.786  29.789  1.00  0.00    -0.014 A 
BRANCH  47  48
ATOM     48  C   UNL A   1      40.525  28.646  30.980  1.00  0.00     0.031 A 
ATOM     49  C   UNL A   1      39.461  29.709  30.965  1.00  0.00     0.074 A 
ATOM     50  C   UNL A   1      41.357  28.531  32.036  1.00  0.00     0.049 A 
ATOM     51  N   UNL A   1      39.202  30.622  31.864  1.00  0.00    -0.248 NA
ATOM     52  C   UNL A   1      38.589  29.769  29.779  1.00  0.00     0.031 C 
ATOM     53  C   UNL A   1      42.454  27.564  32.149  1.00  0.00     0.029 A 
ATOM     54  N   UNL A   1      41.429  29.245  33.206  1.00  0.00    -0.354 N 
ATOM     55  C   UNL A   1      38.157  31.379  31.347  1.00  0.00     0.074 A 
ATOM     56  C   UNL A   1      37.846  30.836  30.043  1.00  0.00     0.031 C 
ATOM     57  C   UNL A   1      43.082  27.744  33.322  1.00  0.00     0.029 A 
ATOM     58  C   UNL A   1      42.471  28.868  34.022  1.00  0.00     0.049 A 
ATOM     59  H   UNL A   1      40.793  29.961  33.440  1.00  0.00     0.167 HD
ATOM     60  C   UNL A   1      37.515  32.427  31.913  1.00  0.00     0.031 A 
ATOM     61  C   UNL A   1      42.908  29.387  35.186  1.00  0.00     0.031 A 
ATOM     62  C   UNL A   1      37.819  32.951  33.219  1.00  0.00     0.049 A 
ATOM     63  C   UNL A   1      42.187  30.568  35.777  1.00  0.00     0.074 A 
ATOM     64  C   UNL A   1      37.165  33.954  33.912  1.00  0.00     0.029 A 
ATOM     65  N   UNL A   1      38.869  32.530  34.020  1.00  0.00    -0.354 N 
ATOM     66  N   UNL A   1      41.134  31.202  35.319  1.00  0.00    -0.248 NA
ATOM     67  C   UNL A   1      42.709  31.104  37.042  1.00  0.00     0.031 C 
ATOM     68  C   UNL A   1      37.864  34.192  35.098  1.00  0.00     0.029 A 
ATOM     69  C   UNL A   1      38.911  33.289  35.178  1.00  0.00     0.049 A 
ATOM     70  H   UNL A   1      39.492  31.801  33.799  1.00  0.00     0.167 HD
ATOM     71  C   UNL A   1      40.859  32.197  36.250  1.00  0.00     0.074 A 
ATOM     72  C   UNL A   1      41.836  32.064  37.309  1.00  0.00     0.031 C 
ATOM     73  C   UNL A   1      39.887  33.143  36.226  1.00  0.00     0.031 A 
BRANCH  60  74
ATOM     74  C   UNL A   1      36.420  33.104  31.130  1.00  0.00    -0.014 A 
ATOM     75  C   UNL A   1      35.075  33.013  31.528  1.00  0.00     0.010 A 
ATOM     76  C   UNL A   1      36.761  33.938  30.049  1.00  0.00     0.010 A 
ATOM     77  C   UNL A   1      34.090  33.739  30.853  1.00  0.00     0.020 A 
ATOM     78  C   UNL A   1      35.783  34.685  29.388  1.00  0.00     0.020 A 
ATOM     79  C   UNL A   1      34.451  34.576  29.792  1.00  0.00     0.054 A 
BRANCH  79  80
ATOM     80  S   UNL A   1      33.160  35.567  28.989  1.00  0.00     0.124 S 
ATOM     81  O   UNL A   1      32.442  34.557  28.215  1.00  0.00    -0.237 OA
ATOM     82  O   UNL A   1      32.431  36.122  30.127  1.00  0.00    -0.237 OA
ATOM     83  O   UNL A   1      33.910  36.540  28.198  1.00  0.00    -0.744 OA
ENDBRANCH  79  80
ENDBRANCH  60  74
BRANCH  61  84
ATOM     84  C   UNL A   1      44.118  28.827  35.853  1.00  0.00    -0.014 A 
ATOM     85  C   UNL A   1      44.038  28.259  37.137  1.00  0.00     0.010 A 
ATOM     86  C   UNL A   1      45.372  28.894  35.215  1.00  0.00     0.010 A 
ATOM     87  C   UNL A   1      45.191  27.809  37.786  1.00  0.00     0.020 A 
ATOM     88  C   UNL A   1      46.522  28.412  35.846  1.00  0.00     0.020 A 
ATOM     89  C   UNL A   1      46.426  27.893  37.137  1.00  0.00     0.054 A 
BRANCH  89  90
ATOM     90  S   UNL A   1      47.910  27.297  37.995  1.00  0.00     0.124 S 
ATOM     91  O   UNL A   1      47.522  27.429  39.396  1.00  0.00    -0.237 OA
ATOM     92  O   UNL A   1      48.036  25.930  37.498  1.00  0.00    -0.237 OA
ATOM     93  O   UNL A   1      48.955  28.214  37.546  1.00  0.00    -0.744 OA
ENDBRANCH  89  90
ENDBRANCH  61  84
BRANCH  73  94
ATOM     94  C   UNL A   1      39.816  34.098  37.386  1.00  0.00    -0.014 A 
ATOM     95  C   UNL A   1      40.427  35.363  37.324  1.00  0.00     0.010 A 
ATOM     96  C   UNL A   1      39.067  33.754  38.526  1.00  0.00     0.010 A 
ATOM     97  C   UNL A   1      40.308  36.258  38.390  1.00  0.00     0.020 A 
ATOM     98  C   UNL A   1      38.919  34.659  39.581  1.00  0.00     0.020 A 
ATOM     99  C   UNL A   1      39.550  35.902  39.510  1.00  0.00     0.054 A 
BRANCH  99 100
ATOM    100  S   UNL A   1      39.360  37.108  40.850  1.00  0.00     0.124 S 
ATOM    101  O   UNL A   1      38.597  38.170  40.199  1.00  0.00    -0.237 OA
ATOM    102  O   UNL A   1      38.637  36.346  41.866  1.00  0.00    -0.237 OA
ATOM    103  O   UNL A   1      40.735  37.457  41.202  1.00  0.00    -0.744 OA
ENDBRANCH  99 100
ENDBRANCH  73  94
ENDBRANCH  47  48
ENDBRANCH  39  42
ENDBRANCH  37  38
ENDBRANCH  36  37
ENDBRANCH  35  36
ENDBRANCH   1  35
TORSDOF 21
ENDMDL
MODEL 2
REMARK VINA RESULT:     -11.9      1.297      7.672
REMARK SMILES COc1ccc(OC)c(Nc2c(-c3ccc(C(=O)NCCCCCCNC(=O)c4ccc(-c5c6nc(c(-c7ccc(S(=O)(=O)[O-])cc7)c7ccc([nH]7)c(-c7ccc(S(=O)(=O)[O-])cc7)c7nc(c(-c8ccc(S(=O)(=O)[O-])cc8)c8ccc5[nH]8)C=C7)C=C6)cc4)cc3)nc3cnccn23)c1
REMARK SMILES IDX 22 1 21 2 20 3 19 4 17 5 18 6 16 8 13 9 14 10 90 11 15 12
REMARK SMILES IDX 89 13 12 14 11 15 97 16 91 17 92 18 96 19 93 20 95 21 94 22
REMARK SMILES IDX 10 23 9 25 3 26 4 27 98 28 5 29 6 30 2 31 1 32 7 33 8 34
REMARK SMILES IDX 23 35 24 36 25 37 26 38 27 39 28 41 29 42 30 43 88 44 31 45
REMARK SMILES IDX 87 46 32 47 33 48 34 49 81 50 35 51 86 52 80 53 82 54 36 55
REMARK SMILES IDX 85 56 79 57 78 58 37 60 67 61 48 62 66 63 49 64 52 65 65 66
REMARK SMILES IDX 83 67 50 68 51 69 64 71 84 72 53 73 38 74 39 75 47 76 40 77
REMARK SMILES IDX 46 78 41 79 42 80 43 81 44 82 45 83 68 84 69 85 77 86 70 87
REMARK SMILES IDX 76 88 71 89 72 90 73 91 74 92 75 93 54 94 55 95 63 96 56 97
REMARK SMILES IDX 62 98 57 99 58 100 59 101 60 102 61 103
REMARK H PARENT 19 7 10 24 26 40 82 59 52 70
REMARK Flexibility Score: inf
ROOT
ATOM      1  C   UNL A   1      37.199  22.268  24.793  1.00  0.00     0.002 C 
ENDROOT
BRANCH   1   2
ATOM      2  C   UNL A   1      35.752  22.202  25.291  1.00  0.00     0.021 C 
BRANCH   2   3
ATOM      3  C   UNL A   1      34.741  21.985  24.161  1.00  0.00     0.116 C 
BRANCH   3   4
ATOM      4  N   UNL A   1      33.678  21.109  24.615  1.00  0.00    -0.352 N 
ATOM      5  C   UNL A   1      32.342  21.328  24.828  1.00  0.00     0.251 C 
ATOM      6  O   UNL A   1      31.662  20.385  25.233  1.00  0.00    -0.269 OA
ATOM      7  H   UNL A   1      33.968  20.188  24.803  1.00  0.00     0.163 HD
BRANCH   5   8
ATOM      8  C   UNL A   1      31.676  22.633  24.549  1.00  0.00     0.039 A 
ATOM      9  C   UNL A   1      30.369  25.102  24.204  1.00  0.00     0.004 A 
ATOM     10  C   UNL A   1      30.705  24.661  25.487  1.00  0.00     0.011 A 
ATOM     11  C   UNL A   1      30.707  24.321  23.098  1.00  0.00     0.011 A 
ATOM     12  C   UNL A   1      31.347  23.430  25.657  1.00  0.00     0.014 A 
ATOM     13  C   UNL A   1      31.396  23.120  23.269  1.00  0.00     0.014 A 
BRANCH   9  14
ATOM     14  C   UNL A   1      29.753  26.388  23.975  1.00  0.00     0.114 A 
ATOM     15  C   UNL A   1      30.450  27.578  23.806  1.00  0.00     0.143 A 
ATOM     16  N   UNL A   1      29.489  28.465  23.372  1.00  0.00    -0.283 N 
ATOM     17  N   UNL A   1      28.395  26.567  23.850  1.00  0.00    -0.225 NA
ATOM     18  C   UNL A   1      28.276  27.835  23.529  1.00  0.00     0.157 A 
ATOM     19  C   UNL A   1      29.536  29.761  22.892  1.00  0.00     0.115 A 
ATOM     20  C   UNL A   1      27.079  28.598  23.318  1.00  0.00     0.158 A 
ATOM     21  C   UNL A   1      28.371  30.397  22.672  1.00  0.00     0.129 A 
ATOM     22  N   UNL A   1      27.123  29.841  22.912  1.00  0.00    -0.259 NA
BRANCH  15  23
ATOM     23  N   UNL A   1      31.775  27.836  23.836  1.00  0.00    -0.336 N 
ATOM     24  H   UNL A   1      32.212  27.802  22.954  1.00  0.00     0.168 HD
BRANCH  23  25
ATOM     25  C   UNL A   1      32.659  28.150  24.911  1.00  0.00     0.086 A 
ATOM     26  C   UNL A   1      33.247  30.074  26.391  1.00  0.00     0.121 A 
ATOM     27  C   UNL A   1      34.165  29.284  27.049  1.00  0.00     0.050 A 
ATOM     28  C   UNL A   1      32.501  29.508  25.355  1.00  0.00     0.076 A 
ATOM     29  C   UNL A   1      34.316  27.956  26.672  1.00  0.00     0.052 A 
ATOM     30  C   UNL A   1      33.592  27.360  25.610  1.00  0.00     0.142 A 
BRANCH  26  31
ATOM     31  O   UNL A   1      33.215  31.377  26.796  1.00  0.00    -0.497 OA
ATOM     32  C   UNL A   1      33.872  31.675  28.020  1.00  0.00     0.278 C 
ENDBRANCH  26  31
BRANCH  30  33
ATOM     33  O   UNL A   1      34.052  26.085  25.523  1.00  0.00    -0.495 OA
ATOM     34  C   UNL A   1      34.259  25.344  24.352  1.00  0.00     0.278 C 
ENDBRANCH  30  33
ENDBRANCH  23  25
ENDBRANCH  15  23
ENDBRANCH   9  14
ENDBRANCH   5   8
ENDBRANCH   3   4
ENDBRANCH   2   3
ENDBRANCH   1   2
BRANCH   1  35
ATOM     35  C   UNL A   1      38.214  22.703  25.857  1.00  0.00     0.002 C 
BRANCH  35  36
ATOM     36  C   UNL A   1      37.946  24.079  26.472  1.00  0.00     0.021 C 
BRANCH  36  37
ATOM     37  C   UNL A   1      39.124  24.644  27.260  1.00  0.00     0.116 C 
BRANCH  37  38
ATOM     38  N   UNL A   1      40.141  25.191  26.373  1.00  0.00    -0.352 N 
ATOM     39  C   UNL A   1      40.706  26.445  26.371  1.00  0.00     0.251 C 
ATOM     40  H   UNL A   1      40.471  24.577  25.678  1.00  0.00     0.163 HD
ATOM     41  O   UNL A   1      41.341  26.835  25.401  1.00  0.00    -0.269 OA
BRANCH  39  42
ATOM     42  C   UNL A   1      40.524  27.318  27.549  1.00  0.00     0.039 A 
ATOM     43  C   UNL A   1      39.894  26.809  28.685  1.00  0.00     0.014 A 
ATOM     44  C   UNL A   1      40.999  28.633  27.530  1.00  0.00     0.014 A 
ATOM     45  C   UNL A   1      39.814  27.595  29.837  1.00  0.00     0.010 A 
ATOM     46  C   UNL A   1      40.977  29.390  28.696  1.00  0.00     0.010 A 
ATOM     47  C   UNL A   1      40.399  28.872  29.865  1.00  0.00    -0.014 A 
BRANCH  47  48
ATOM     48  C   UNL A   1      40.476  29.660  31.122  1.00  0.00     0.031 A 
ATOM     49  C   UNL A   1      41.538  29.361  32.143  1.00  0.00     0.074 A 
ATOM     50  C   UNL A   1      39.521  30.577  31.381  1.00  0.00     0.049 A 
ATOM     51  N   UNL A   1      41.690  29.866  33.340  1.00  0.00    -0.248 NA
ATOM     52  C   UNL A   1      42.548  28.351  31.785  1.00  0.00     0.031 C 
ATOM     53  C   UNL A   1      38.414  30.926  30.484  1.00  0.00     0.029 A 
ATOM     54  N   UNL A   1      39.311  31.369  32.483  1.00  0.00    -0.354 N 
ATOM     55  C   UNL A   1      42.793  29.222  33.887  1.00  0.00     0.074 A 
ATOM     56  C   UNL A   1      43.259  28.269  32.903  1.00  0.00     0.031 C 
ATOM     57  C   UNL A   1      37.650  31.861  31.068  1.00  0.00     0.029 A 
ATOM     58  C   UNL A   1      38.175  32.143  32.399  1.00  0.00     0.049 A 
ATOM     59  H   UNL A   1      39.916  31.382  33.259  1.00  0.00     0.167 HD
ATOM     60  C   UNL A   1      43.367  29.413  35.098  1.00  0.00     0.031 A 
ATOM     61  C   UNL A   1      37.602  32.962  33.302  1.00  0.00     0.031 A 
ATOM     62  C   UNL A   1      42.907  30.375  36.066  1.00  0.00     0.049 A 
ATOM     63  C   UNL A   1      38.251  33.134  34.649  1.00  0.00     0.074 A 
ATOM     64  C   UNL A   1      43.477  30.702  37.284  1.00  0.00     0.029 A 
ATOM     65  N   UNL A   1      41.766  31.151  35.936  1.00  0.00    -0.354 N 
ATOM     66  N   UNL A   1      39.354  32.592  35.106  1.00  0.00    -0.248 NA
ATOM     67  C   UNL A   1      37.580  34.030  35.603  1.00  0.00     0.031 C 
ATOM     68  C   UNL A   1      42.639  31.619  37.924  1.00  0.00     0.029 A 
ATOM     69  C   UNL A   1      41.587  31.918  37.075  1.00  0.00     0.049 A 
ATOM     70  H   UNL A   1      41.171  31.157  35.152  1.00  0.00     0.167 HD
ATOM     71  C   UNL A   1      39.519  33.096  36.391  1.00  0.00     0.074 A 
ATOM     72  C   UNL A   1      38.419  34.007  36.628  1.00  0.00     0.031 C 
ATOM     73  C   UNL A   1      40.490  32.824  37.297  1.00  0.00     0.031 A 
BRANCH  60  74
ATOM     74  C   UNL A   1      44.551  28.562  35.473  1.00  0.00    -0.014 A 
ATOM     75  C   UNL A   1      44.393  27.376  36.211  1.00  0.00     0.010 A 
ATOM     76  C   UNL A   1      45.825  28.896  34.976  1.00  0.00     0.010 A 
ATOM     77  C   UNL A   1      45.490  26.544  36.452  1.00  0.00     0.020 A 
ATOM     78  C   UNL A   1      46.919  28.055  35.193  1.00  0.00     0.020 A 
ATOM     79  C   UNL A   1      46.744  26.885  35.935  1.00  0.00     0.054 A 
BRANCH  79  80
ATOM     80  S   UNL A   1      48.130  25.744  36.195  1.00  0.00     0.124 S 
ATOM     81  O   UNL A   1      49.169  26.640  36.696  1.00  0.00    -0.237 OA
ATOM     82  O   UNL A   1      47.588  24.803  37.173  1.00  0.00    -0.237 OA
ATOM     83  O   UNL A   1      48.377  25.186  34.868  1.00  0.00    -0.744 OA
ENDBRANCH  79  80
ENDBRANCH  60  74
BRANCH  61  84
ATOM     84  C   UNL A   1      36.317  33.649  32.987  1.00  0.00    -0.014 A 
ATOM     85  C   UNL A   1      36.306  34.953  32.461  1.00  0.00     0.010 A 
ATOM     86  C   UNL A   1      35.091  33.010  33.248  1.00  0.00     0.010 A 
ATOM     87  C   UNL A   1      35.096  35.619  32.242  1.00  0.00     0.020 A 
ATOM     88  C   UNL A   1      33.878  33.658  32.997  1.00  0.00     0.020 A 
ATOM     89  C   UNL A   1      33.890  34.968  32.517  1.00  0.00     0.054 A 
BRANCH  89  90
ATOM     90  S   UNL A   1      32.331  35.848  32.221  1.00  0.00     0.124 S 
ATOM     91  O   UNL A   1      32.344  36.006  30.770  1.00  0.00    -0.237 OA
ATOM     92  O   UNL A   1      31.338  34.916  32.749  1.00  0.00    -0.237 OA
ATOM     93  O   UNL A   1      32.486  37.082  32.987  1.00  0.00    -0.744 OA
ENDBRANCH  89  90
ENDBRANCH  61  84
BRANCH  73  94
ATOM     94  C   UNL A   1      40.423  33.531  38.624  1.00  0.00    -0.014 A 
ATOM     95  C   UNL A   1      39.779  32.944  39.727  1.00  0.00     0.010 A 
ATOM     96  C   UNL A   1      41.076  34.766  38.788  1.00  0.00     0.010 A 
ATOM     97  C   UNL A   1      39.770  33.591  40.966  1.00  0.00     0.020 A 
ATOM     98  C   UNL A   1      41.097  35.401  40.033  1.00  0.00     0.020 A 
ATOM     99  C   UNL A   1      40.435  34.813  41.112  1.00  0.00     0.054 A 
BRANCH  99 100
ATOM    100  S   UNL A   1      40.462  35.598  42.746  1.00  0.00     0.124 S 
ATOM    101  O   UNL A   1      39.694  36.817  42.512  1.00  0.00    -0.237 OA
ATOM    102  O   UNL A   1      39.814  34.597  43.591  1.00  0.00    -0.237 OA
ATOM    103  O   UNL A   1      41.885  35.801  43.011  1.00  0.00    -0.744 OA
ENDBRANCH  99 100
ENDBRANCH  73  94
ENDBRANCH  47  48
ENDBRANCH  39  42
ENDBRANCH  37  38
ENDBRANCH  36  37
ENDBRANCH  35  36
ENDBRANCH   1  35
TORSDOF 21
ENDMDL
MODEL 3
REMARK VINA RESULT:     -11.4      5.665      7.962
REMARK SMILES COc1ccc(OC)c(Nc2c(-c3ccc(C(=O)NCCCCCCNC(=O)c4ccc(-c5c6nc(c(-c7ccc(S(=O)(=O)[O-])cc7)c7ccc([nH]7)c(-c7ccc(S(=O)(=O)[O-])cc7)c7nc(c(-c8ccc(S(=O)(=O)[O-])cc8)c8ccc5[nH]8)C=C7)C=C6)cc4)cc3)nc3cnccn23)c1
REMARK SMILES IDX 22 1 21 2 20 3 19 4 17 5 18 6 16 8 13 9 14 10 90 11 15 12
REMARK SMILES IDX 89 13 12 14 11 15 97 16 91 17 92 18 96 19 93 20 95 21 94 22
REMARK SMILES IDX 10 23 9 25 3 26 4 27 98 28 5 29 6 30 2 31 1 32 7 33 8 34
REMARK SMILES IDX 23 35 24 36 25 37 26 38 27 39 28 41 29 42 30 43 88 44 31 45
REMARK SMILES IDX 87 46 32 47 33 48 34 49 81 50 35 51 86 52 80 53 82 54 36 55
REMARK SMILES IDX 85 56 79 57 78 58 37 60 67 61 48 62 66 63 49 64 52 65 65 66
REMARK SMILES IDX 83 67 50 68 51 69 64 71 84 72 53 73 38 74 39 75 47 76 40 77
REMARK SMILES IDX 46 78 41 79 42 80 43 81 44 82 45 83 68 84 69 85 77 86 70 87
REMARK SMILES IDX 76 88 71 89 72 90 73 91 74 92 75 93 54 94 55 95 63 96 56 97
REMARK SMILES IDX 62 98 57 99 58 100 59 101 60 102 61 103
REMARK H PARENT 19 7 10 24 26 40 82 59 52 70
REMARK Flexibility Score: inf
ROOT
ATOM      1  C   UNL A   1      35.359  21.216  24.951  1.00  0.00     0.002 C 
ENDROOT
BRANCH   1   2
ATOM      2  C   UNL A   1      34.893  22.302  23.976  1.00  0.00     0.021 C 
BRANCH   2   3
ATOM      3  C   UNL A   1      33.494  22.037  23.413  1.00  0.00     0.116 C 
BRANCH   3   4
ATOM      4  N   UNL A   1      32.626  21.545  24.466  1.00  0.00    -0.352 N 
ATOM      5  C   UNL A   1      31.582  22.126  25.136  1.00  0.00     0.251 C 
ATOM      6  O   UNL A   1      31.019  21.464  26.009  1.00  0.00    -0.269 OA
ATOM      7  H   UNL A   1      32.823  20.623  24.750  1.00  0.00     0.163 HD
BRANCH   5   8
ATOM      8  C   UNL A   1      31.076  23.494  24.825  1.00  0.00     0.039 A 
ATOM      9  C   UNL A   1      30.182  26.051  24.062  1.00  0.00     0.004 A 
ATOM     10  C   UNL A   1      30.469  25.090  23.088  1.00  0.00     0.011 A 
ATOM     11  C   UNL A   1      30.319  25.725  25.411  1.00  0.00     0.011 A 
ATOM     12  C   UNL A   1      30.922  23.823  23.469  1.00  0.00     0.014 A 
ATOM     13  C   UNL A   1      30.717  24.442  25.788  1.00  0.00     0.014 A 
BRANCH   9  14
ATOM     14  C   UNL A   1      29.663  27.355  23.718  1.00  0.00     0.114 A 
ATOM     15  C   UNL A   1      30.437  28.500  23.581  1.00  0.00     0.143 A 
ATOM     16  N   UNL A   1      29.576  29.413  23.012  1.00  0.00    -0.283 N 
ATOM     17  N   UNL A   1      28.338  27.594  23.440  1.00  0.00    -0.225 NA
ATOM     18  C   UNL A   1      28.322  28.852  23.060  1.00  0.00     0.157 A 
ATOM     19  C   UNL A   1      29.743  30.684  22.490  1.00  0.00     0.115 A 
ATOM     20  C   UNL A   1      27.197  29.663  22.691  1.00  0.00     0.158 A 
ATOM     21  C   UNL A   1      28.644  31.366  22.122  1.00  0.00     0.129 A 
ATOM     22  N   UNL A   1      27.349  30.883  22.246  1.00  0.00    -0.259 NA
BRANCH  15  23
ATOM     23  N   UNL A   1      31.764  28.694  23.744  1.00  0.00    -0.336 N 
ATOM     24  H   UNL A   1      32.243  28.915  22.913  1.00  0.00     0.168 HD
BRANCH  23  25
ATOM     25  C   UNL A   1      32.598  28.639  24.900  1.00  0.00     0.086 A 
ATOM     26  C   UNL A   1      33.303  30.087  26.808  1.00  0.00     0.121 A 
ATOM     27  C   UNL A   1      34.069  29.055  27.306  1.00  0.00     0.050 A 
ATOM     28  C   UNL A   1      32.572  29.873  25.638  1.00  0.00     0.076 A 
ATOM     29  C   UNL A   1      34.086  27.836  26.639  1.00  0.00     0.052 A 
ATOM     30  C   UNL A   1      33.375  27.595  25.438  1.00  0.00     0.142 A 
BRANCH  26  31
ATOM     31  O   UNL A   1      33.399  31.259  27.502  1.00  0.00    -0.497 OA
ATOM     32  C   UNL A   1      34.710  31.758  27.723  1.00  0.00     0.278 C 
ENDBRANCH  26  31
BRANCH  30  33
ATOM     33  O   UNL A   1      33.683  26.322  25.079  1.00  0.00    -0.495 OA
ATOM     34  C   UNL A   1      33.955  25.856  23.786  1.00  0.00     0.278 C 
ENDBRANCH  30  33
ENDBRANCH  23  25
ENDBRANCH  15  23
ENDBRANCH   9  14
ENDBRANCH   5   8
ENDBRANCH   3   4
ENDBRANCH   2   3
ENDBRANCH   1   2
BRANCH   1  35
ATOM     35  C   UNL A   1      36.545  21.626  25.834  1.00  0.00     0.002 C 
BRANCH  35  36
ATOM     36  C   UNL A   1      37.908  21.565  25.140  1.00  0.00     0.021 C 
BRANCH  36  37
ATOM     37  C   UNL A   1      39.093  21.643  26.099  1.00  0.00     0.116 C 
BRANCH  37  38
ATOM     38  N   UNL A   1      39.888  20.423  26.059  1.00  0.00    -0.352 N 
ATOM     39  C   UNL A   1      41.255  20.280  26.035  1.00  0.00     0.251 C 
ATOM     40  H   UNL A   1      39.375  19.584  26.046  1.00  0.00     0.163 HD
ATOM     41  O   UNL A   1      41.760  19.209  25.728  1.00  0.00    -0.269 OA
BRANCH  39  42
ATOM     42  C   UNL A   1      42.106  21.440  26.374  1.00  0.00     0.039 A 
ATOM     43  C   UNL A   1      42.398  22.383  25.387  1.00  0.00     0.014 A 
ATOM     44  C   UNL A   1      42.595  21.598  27.674  1.00  0.00     0.014 A 
ATOM     45  C   UNL A   1      43.113  23.534  25.727  1.00  0.00     0.010 A 
ATOM     46  C   UNL A   1      43.249  22.775  28.024  1.00  0.00     0.010 A 
ATOM     47  C   UNL A   1      43.500  23.760  27.058  1.00  0.00    -0.014 A 
BRANCH  47  48
ATOM     48  C   UNL A   1      44.111  25.047  27.478  1.00  0.00     0.031 A 
ATOM     49  C   UNL A   1      43.277  26.103  28.147  1.00  0.00     0.074 A 
ATOM     50  C   UNL A   1      45.398  25.297  27.160  1.00  0.00     0.049 A 
ATOM     51  N   UNL A   1      43.610  27.324  28.479  1.00  0.00    -0.248 NA
ATOM     52  C   UNL A   1      41.882  25.754  28.466  1.00  0.00     0.031 C 
ATOM     53  C   UNL A   1      46.299  24.364  26.473  1.00  0.00     0.029 A 
ATOM     54  N   UNL A   1      46.171  26.416  27.350  1.00  0.00    -0.354 N 
ATOM     55  C   UNL A   1      42.466  27.896  29.023  1.00  0.00     0.074 A 
ATOM     56  C   UNL A   1      41.420  26.899  28.953  1.00  0.00     0.031 C 
ATOM     57  C   UNL A   1      47.496  24.948  26.306  1.00  0.00     0.029 A 
ATOM     58  C   UNL A   1      47.438  26.310  26.823  1.00  0.00     0.049 A 
ATOM     59  H   UNL A   1      45.847  27.219  27.820  1.00  0.00     0.167 HD
ATOM     60  C   UNL A   1      42.307  29.138  29.537  1.00  0.00     0.031 A 
ATOM     61  C   UNL A   1      48.431  27.217  26.734  1.00  0.00     0.031 A 
ATOM     62  C   UNL A   1      43.358  30.118  29.618  1.00  0.00     0.049 A 
ATOM     63  C   UNL A   1      48.214  28.597  27.294  1.00  0.00     0.074 A 
ATOM     64  C   UNL A   1      43.314  31.371  30.203  1.00  0.00     0.029 A 
ATOM     65  N   UNL A   1      44.630  29.966  29.090  1.00  0.00    -0.354 N 
ATOM     66  N   UNL A   1      47.156  29.082  27.899  1.00  0.00    -0.248 NA
ATOM     67  C   UNL A   1      49.324  29.551  27.163  1.00  0.00     0.031 C 
ATOM     68  C   UNL A   1      44.535  32.007  29.962  1.00  0.00     0.029 A 
ATOM     69  C   UNL A   1      45.364  31.124  29.291  1.00  0.00     0.049 A 
ATOM     70  H   UNL A   1      44.963  29.157  28.640  1.00  0.00     0.167 HD
ATOM     71  C   UNL A   1      47.482  30.391  28.236  1.00  0.00     0.074 A 
ATOM     72  C   UNL A   1      48.842  30.612  27.795  1.00  0.00     0.031 C 
ATOM     73  C   UNL A   1      46.719  31.329  28.850  1.00  0.00     0.031 A 
BRANCH  60  74
ATOM     74  C   UNL A   1      40.946  29.533  30.046  1.00  0.00    -0.014 A 
ATOM     75  C   UNL A   1      39.977  30.083  29.188  1.00  0.00     0.010 A 
ATOM     76  C   UNL A   1      40.596  29.240  31.378  1.00  0.00     0.010 A 
ATOM     77  C   UNL A   1      38.686  30.340  29.656  1.00  0.00     0.020 A 
ATOM     78  C   UNL A   1      39.299  29.471  31.842  1.00  0.00     0.020 A 
ATOM     79  C   UNL A   1      38.352  30.025  30.978  1.00  0.00     0.054 A 
BRANCH  79  80
ATOM     80  S   UNL A   1      36.646  30.294  31.531  1.00  0.00     0.124 S 
ATOM     81  O   UNL A   1      35.880  29.601  30.497  1.00  0.00    -0.237 OA
ATOM     82  O   UNL A   1      36.635  29.663  32.849  1.00  0.00    -0.237 OA
ATOM     83  O   UNL A   1      36.507  31.748  31.538  1.00  0.00    -0.744 OA
ENDBRANCH  79  80
ENDBRANCH  60  74
BRANCH  61  84
ATOM     84  C   UNL A   1      49.708  26.870  26.049  1.00  0.00    -0.014 A 
ATOM     85  C   UNL A   1      50.636  25.999  26.647  1.00  0.00     0.010 A 
ATOM     86  C   UNL A   1      50.019  27.442  24.801  1.00  0.00     0.010 A 
ATOM     87  C   UNL A   1      51.866  25.741  26.034  1.00  0.00     0.020 A 
ATOM     88  C   UNL A   1      51.232  27.159  24.166  1.00  0.00     0.020 A 
ATOM     89  C   UNL A   1      52.157  26.327  24.799  1.00  0.00     0.054 A 
BRANCH  89  90
ATOM     90  S   UNL A   1      53.755  25.976  24.016  1.00  0.00     0.124 S 
ATOM     91  O   UNL A   1      54.156  24.744  24.689  1.00  0.00    -0.237 OA
ATOM     92  O   UNL A   1      53.395  25.841  22.607  1.00  0.00    -0.237 OA
ATOM     93  O   UNL A   1      54.558  27.154  24.336  1.00  0.00    -0.744 OA
ENDBRANCH  89  90
ENDBRANCH  61  84
BRANCH  73  94
ATOM     94  C   UNL A   1      47.340  32.677  29.101  1.00  0.00    -0.014 A 
ATOM     95  C   UNL A   1      47.178  33.733  28.187  1.00  0.00     0.010 A 
ATOM     96  C   UNL A   1      48.034  32.910  30.302  1.00  0.00     0.010 A 
ATOM     97  C   UNL A   1      47.718  34.992  28.460  1.00  0.00     0.020 A 
ATOM     98  C   UNL A   1      48.548  34.177  30.593  1.00  0.00     0.020 A 
ATOM     99  C   UNL A   1      48.395  35.207  29.664  1.00  0.00     0.054 A 
BRANCH  99 100
ATOM    100  S   UNL A   1      49.028  36.868  30.020  1.00  0.00     0.124 S 
ATOM    101  O   UNL A   1      49.667  36.679  31.320  1.00  0.00    -0.237 OA
ATOM    102  O   UNL A   1      49.936  37.111  28.901  1.00  0.00    -0.237 OA
ATOM    103  O   UNL A   1      47.828  37.703  30.034  1.00  0.00    -0.744 OA
ENDBRANCH  99 100
ENDBRANCH  73  94
ENDBRANCH  47  48
ENDBRANCH  39  42
ENDBRANCH  37  38
ENDBRANCH  36  37
ENDBRANCH  35  36
ENDBRANCH   1  35
TORSDOF 21
ENDMDL
