MODEL 1
REMARK VINA RESULT:     -11.5      0.000      0.000
REMARK SMILES C/C(=N\Nc1nc(-c2ccc(Cl)cc2)cs1)c1nnn(-c2ccc(C(=O)NCCCCCCNC(=O)c3ccc(-c4c5nc(c(-c6ccc(S(=O)(=O)[O-])cc6)c6ccc([nH]6)c(-c6ccc(S(=O)(=O)[O-])cc6)c6nc(c(-c7ccc(S(=O)(=O)[O-])cc7)c7ccc4[nH]7)C=C6)C=C5)cc3)cc2)c1C
REMARK SMILES IDX 29 1 28 2 27 3 25 4 26 5 24 7 21 8 22 9 98 10 23 11 97 12
REMARK SMILES IDX 20 13 17 14 18 15 99 16 19 17 100 18 2 19 1 20 3 21 4 22
REMARK SMILES IDX 5 24 6 25 16 26 7 27 15 28 8 29 9 30 14 31 10 32 13 33 11 34
REMARK SMILES IDX 12 35 30 36 31 37 32 38 33 39 34 40 35 41 36 43 37 44 38 45
REMARK SMILES IDX 96 46 39 47 95 48 40 49 41 50 42 51 89 52 43 53 94 54 88 55
REMARK SMILES IDX 90 56 44 57 93 58 87 59 86 60 45 62 75 63 56 64 74 65 57 66
REMARK SMILES IDX 60 67 73 68 91 69 58 70 59 71 72 73 92 74 61 75 46 76 47 77
REMARK SMILES IDX 55 78 48 79 54 80 49 81 50 82 51 83 52 84 53 85 76 86 77 87
REMARK SMILES IDX 85 88 78 89 84 90 79 91 80 92 81 93 82 94 83 95 62 96 63 97
REMARK SMILES IDX 71 98 64 99 70 100 65 101 66 102 67 103 68 104 69 105
REMARK H PARENT 27 6 4 23 34 42 90 61 60 72
REMARK Flexibility Score: inf
ROOT
ATOM      1  C   UNL A   1      30.940  29.474  24.285  1.00  0.00     0.021 C 
ENDROOT
BRANCH   1   2
ATOM      2  C   UNL A   1      30.448  28.641  23.098  1.00  0.00     0.116 C 
BRANCH   2   3
ATOM      3  N   UNL A   1      29.366  27.764  23.504  1.00  0.00    -0.352 N 
ATOM      4  C   UNL A   1      29.329  26.462  23.941  1.00  0.00     0.251 C 
ATOM      5  O   UNL A   1      28.233  26.004  24.263  1.00  0.00    -0.269 OA
ATOM      6  H   UNL A   1      28.478  28.187  23.457  1.00  0.00     0.163 HD
BRANCH   4   7
ATOM      7  C   UNL A   1      30.550  25.626  24.128  1.00  0.00     0.039 A 
ATOM      8  C   UNL A   1      32.588  23.760  24.542  1.00  0.00     0.067 A 
ATOM      9  C   UNL A   1      31.801  23.660  23.394  1.00  0.00     0.029 A 
ATOM     10  C   UNL A   1      32.454  24.848  25.406  1.00  0.00     0.029 A 
ATOM     11  C   UNL A   1      30.763  24.580  23.210  1.00  0.00     0.016 A 
ATOM     12  C   UNL A   1      31.470  25.805  25.163  1.00  0.00     0.016 A 
BRANCH   8  13
ATOM     13  N   UNL A   1      33.429  22.694  24.909  1.00  0.00    -0.217 N 
ATOM     14  C   UNL A   1      35.168  21.409  25.171  1.00  0.00     0.132 A 
ATOM     15  N   UNL A   1      34.260  21.122  26.153  1.00  0.00    -0.128 NA
ATOM     16  C   UNL A   1      34.674  22.425  24.368  1.00  0.00     0.071 A 
ATOM     17  N   UNL A   1      33.250  21.978  26.039  1.00  0.00    -0.061 NA
ATOM     18  C   UNL A   1      35.348  23.253  23.332  1.00  0.00     0.069 C 
BRANCH  14  19
ATOM     19  C   UNL A   1      36.544  20.945  25.176  1.00  0.00     0.087 C 
ATOM     20  C   UNL A   1      36.701  19.497  24.778  1.00  0.00     0.071 C 
ATOM     21  N   UNL A   1      37.453  21.789  25.581  1.00  0.00    -0.176 NA
BRANCH  21  22
ATOM     22  N   UNL A   1      38.772  21.444  25.778  1.00  0.00    -0.252 N 
ATOM     23  H   UNL A   1      39.048  20.601  25.352  1.00  0.00     0.193 HD
BRANCH  22  24
ATOM     24  C   UNL A   1      39.750  22.086  26.465  1.00  0.00     0.203 A 
ATOM     25  N   UNL A   1      39.594  23.161  27.201  1.00  0.00    -0.219 NA
ATOM     26  S   UNL A   1      41.401  21.593  26.304  1.00  0.00    -0.103 S 
ATOM     27  C   UNL A   1      40.796  23.816  27.360  1.00  0.00     0.084 A 
ATOM     28  C   UNL A   1      41.902  23.117  26.924  1.00  0.00     0.097 A 
BRANCH  27  29
ATOM     29  C   UNL A   1      40.802  25.180  27.855  1.00  0.00     0.001 A 
ATOM     30  C   UNL A   1      39.680  25.663  28.541  1.00  0.00     0.012 A 
ATOM     31  C   UNL A   1      41.847  26.060  27.542  1.00  0.00     0.012 A 
ATOM     32  C   UNL A   1      39.616  26.999  28.943  1.00  0.00     0.021 A 
ATOM     33  C   UNL A   1      41.778  27.401  27.933  1.00  0.00     0.021 A 
ATOM     34  C   UNL A   1      40.667  27.862  28.639  1.00  0.00     0.041 A 
ATOM     35  Cl  UNL A   1      40.585  29.510  29.124  1.00  0.00    -0.084 Cl
ENDBRANCH  27  29
ENDBRANCH  22  24
ENDBRANCH  21  22
ENDBRANCH  14  19
ENDBRANCH   8  13
ENDBRANCH   4   7
ENDBRANCH   2   3
ENDBRANCH   1   2
BRANCH   1  36
ATOM     36  C   UNL A   1      32.372  29.132  24.718  1.00  0.00     0.002 C 
BRANCH  36  37
ATOM     37  C   UNL A   1      32.573  28.917  26.227  1.00  0.00     0.002 C 
BRANCH  37  38
ATOM     38  C   UNL A   1      33.963  28.429  26.658  1.00  0.00     0.021 C 
BRANCH  38  39
ATOM     39  C   UNL A   1      34.791  29.494  27.364  1.00  0.00     0.116 C 
BRANCH  39  40
ATOM     40  N   UNL A   1      34.245  30.832  27.154  1.00  0.00    -0.352 N 
ATOM     41  C   UNL A   1      34.390  31.956  27.942  1.00  0.00     0.251 C 
ATOM     42  H   UNL A   1      33.699  30.947  26.342  1.00  0.00     0.163 HD
ATOM     43  O   UNL A   1      33.575  32.864  27.873  1.00  0.00    -0.269 OA
BRANCH  41  44
ATOM     44  C   UNL A   1      35.543  32.047  28.860  1.00  0.00     0.039 A 
ATOM     45  C   UNL A   1      36.829  31.724  28.421  1.00  0.00     0.014 A 
ATOM     46  C   UNL A   1      35.324  32.449  30.178  1.00  0.00     0.014 A 
ATOM     47  C   UNL A   1      37.898  31.886  29.298  1.00  0.00     0.010 A 
ATOM     48  C   UNL A   1      36.388  32.732  31.000  1.00  0.00     0.010 A 
ATOM     49  C   UNL A   1      37.674  32.416  30.582  1.00  0.00    -0.014 A 
BRANCH  49  50
ATOM     50  C   UNL A   1      38.800  32.819  31.423  1.00  0.00     0.031 A 
ATOM     51  C   UNL A   1      39.868  33.516  30.661  1.00  0.00     0.074 A 
ATOM     52  C   UNL A   1      38.803  32.773  32.773  1.00  0.00     0.049 A 
ATOM     53  N   UNL A   1      41.000  33.022  30.287  1.00  0.00    -0.248 NA
ATOM     54  C   UNL A   1      39.567  34.831  30.066  1.00  0.00     0.031 C 
ATOM     55  C   UNL A   1      37.703  32.385  33.664  1.00  0.00     0.029 A 
ATOM     56  N   UNL A   1      39.767  33.169  33.653  1.00  0.00    -0.354 N 
ATOM     57  C   UNL A   1      41.674  34.070  29.672  1.00  0.00     0.074 A 
ATOM     58  C   UNL A   1      40.668  35.047  29.342  1.00  0.00     0.031 C 
ATOM     59  C   UNL A   1      37.975  32.786  34.927  1.00  0.00     0.029 A 
ATOM     60  C   UNL A   1      39.330  33.304  34.971  1.00  0.00     0.049 A 
ATOM     61  H   UNL A   1      40.695  33.346  33.380  1.00  0.00     0.167 HD
ATOM     62  C   UNL A   1      43.024  34.195  29.800  1.00  0.00     0.031 A 
ATOM     63  C   UNL A   1      40.026  33.815  36.021  1.00  0.00     0.031 A 
ATOM     64  C   UNL A   1      43.616  32.984  30.322  1.00  0.00     0.049 A 
ATOM     65  C   UNL A   1      41.461  33.711  35.672  1.00  0.00     0.074 A 
ATOM     66  C   UNL A   1      43.627  31.656  29.946  1.00  0.00     0.029 A 
ATOM     67  N   UNL A   1      43.978  33.011  31.648  1.00  0.00    -0.354 N 
ATOM     68  N   UNL A   1      42.082  32.575  35.537  1.00  0.00    -0.248 NA
ATOM     69  C   UNL A   1      42.098  34.852  35.037  1.00  0.00     0.031 C 
ATOM     70  C   UNL A   1      43.552  30.925  31.169  1.00  0.00     0.029 A 
ATOM     71  C   UNL A   1      43.592  31.834  32.227  1.00  0.00     0.049 A 
ATOM     72  H   UNL A   1      44.438  33.752  32.103  1.00  0.00     0.167 HD
ATOM     73  C   UNL A   1      42.906  32.758  34.437  1.00  0.00     0.074 A 
ATOM     74  C   UNL A   1      42.960  34.207  34.245  1.00  0.00     0.031 C 
ATOM     75  C   UNL A   1      43.224  31.708  33.623  1.00  0.00     0.031 A 
BRANCH  62  76
ATOM     76  C   UNL A   1      43.724  35.532  29.941  1.00  0.00    -0.014 A 
ATOM     77  C   UNL A   1      43.600  36.228  31.162  1.00  0.00     0.010 A 
ATOM     78  C   UNL A   1      44.231  36.259  28.844  1.00  0.00     0.010 A 
ATOM     79  C   UNL A   1      43.883  37.597  31.251  1.00  0.00     0.020 A 
ATOM     80  C   UNL A   1      44.561  37.612  28.935  1.00  0.00     0.020 A 
ATOM     81  C   UNL A   1      44.352  38.281  30.131  1.00  0.00     0.054 A 
BRANCH  81  82
ATOM     82  S   UNL A   1      44.646  40.061  30.236  1.00  0.00     0.124 S 
ATOM     83  O   UNL A   1      45.914  40.195  29.527  1.00  0.00    -0.237 OA
ATOM     84  O   UNL A   1      43.475  40.603  29.554  1.00  0.00    -0.237 OA
ATOM     85  O   UNL A   1      44.696  40.312  31.674  1.00  0.00    -0.744 OA
ENDBRANCH  81  82
ENDBRANCH  62  76
BRANCH  63  86
ATOM     86  C   UNL A   1      39.551  34.630  37.172  1.00  0.00    -0.014 A 
ATOM     87  C   UNL A   1      39.122  34.013  38.366  1.00  0.00     0.010 A 
ATOM     88  C   UNL A   1      39.815  36.013  37.215  1.00  0.00     0.010 A 
ATOM     89  C   UNL A   1      39.047  34.732  39.574  1.00  0.00     0.020 A 
ATOM     90  C   UNL A   1      39.736  36.738  38.414  1.00  0.00     0.020 A 
ATOM     91  C   UNL A   1      39.382  36.087  39.594  1.00  0.00     0.054 A 
BRANCH  91  92
ATOM     92  S   UNL A   1      39.490  36.962  41.187  1.00  0.00     0.124 S 
ATOM     93  O   UNL A   1      38.598  36.176  42.035  1.00  0.00    -0.237 OA
ATOM     94  O   UNL A   1      40.912  36.867  41.507  1.00  0.00    -0.237 OA
ATOM     95  O   UNL A   1      39.019  38.308  40.870  1.00  0.00    -0.744 OA
ENDBRANCH  91  92
ENDBRANCH  63  86
BRANCH  75  96
ATOM     96  C   UNL A   1      43.007  30.304  34.136  1.00  0.00    -0.014 A 
ATOM     97  C   UNL A   1      43.981  29.525  34.791  1.00  0.00     0.010 A 
ATOM     98  C   UNL A   1      41.694  29.805  34.055  1.00  0.00     0.010 A 
ATOM     99  C   UNL A   1      43.650  28.267  35.323  1.00  0.00     0.020 A 
ATOM    100  C   UNL A   1      41.354  28.567  34.599  1.00  0.00     0.020 A 
ATOM    101  C   UNL A   1      42.337  27.797  35.221  1.00  0.00     0.054 A 
BRANCH 101 102
ATOM    102  S   UNL A   1      41.898  26.185  35.932  1.00  0.00     0.124 S 
ATOM    103  O   UNL A   1      40.640  25.874  35.260  1.00  0.00    -0.237 OA
ATOM    104  O   UNL A   1      43.035  25.347  35.559  1.00  0.00    -0.237 OA
ATOM    105  O   UNL A   1      41.784  26.456  37.365  1.00  0.00    -0.744 OA
ENDBRANCH 101 102
ENDBRANCH  75  96
ENDBRANCH  49  50
ENDBRANCH  41  44
ENDBRANCH  39  40
ENDBRANCH  38  39
ENDBRANCH  37  38
ENDBRANCH  36  37
ENDBRANCH   1  36
TORSDOF 21
ENDMDL
MODEL 2
REMARK VINA RESULT:     -11.4      3.603      9.753
REMARK SMILES C/C(=N\Nc1nc(-c2ccc(Cl)cc2)cs1)c1nnn(-c2ccc(C(=O)NCCCCCCNC(=O)c3ccc(-c4c5nc(c(-c6ccc(S(=O)(=O)[O-])cc6)c6ccc([nH]6)c(-c6ccc(S(=O)(=O)[O-])cc6)c6nc(c(-c7ccc(S(=O)(=O)[O-])cc7)c7ccc4[nH]7)C=C6)C=C5)cc3)cc2)c1C
REMARK SMILES IDX 29 1 28 2 27 3 25 4 26 5 24 7 21 8 22 9 98 10 23 11 97 12
REMARK SMILES IDX 20 13 17 14 18 15 99 16 19 17 100 18 2 19 1 20 3 21 4 22
REMARK SMILES IDX 5 24 6 25 16 26 7 27 15 28 8 29 9 30 14 31 10 32 13 33 11 34
REMARK SMILES IDX 12 35 30 36 31 37 32 38 33 39 34 40 35 41 36 43 37 44 38 45
REMARK SMILES IDX 96 46 39 47 95 48 40 49 41 50 42 51 89 52 43 53 94 54 88 55
REMARK SMILES IDX 90 56 44 57 93 58 87 59 86 60 45 62 75 63 56 64 74 65 57 66
REMARK SMILES IDX 60 67 73 68 91 69 58 70 59 71 72 73 92 74 61 75 46 76 47 77
REMARK SMILES IDX 55 78 48 79 54 80 49 81 50 82 51 83 52 84 53 85 76 86 77 87
REMARK SMILES IDX 85 88 78 89 84 90 79 91 80 92 81 93 82 94 83 95 62 96 63 97
REMARK SMILES IDX 71 98 64 99 70 100 65 101 66 102 67 103 68 104 69 105
REMARK H PARENT 27 6 4 23 34 42 90 61 60 72
REMARK Flexibility Score: inf
ROOT
ATOM      1  C   UNL A   1      48.217  30.151  28.725  1.00  0.00     0.021 C 
ENDROOT
BRANCH   1   2
ATOM      2  C   UNL A   1      47.935  28.894  27.897  1.00  0.00     0.116 C 
BRANCH   2   3
ATOM      3  N   UNL A   1      47.560  29.251  26.541  1.00  0.00    -0.352 N 
ATOM      4  C   UNL A   1      46.677  28.708  25.640  1.00  0.00     0.251 C 
ATOM      5  O   UNL A   1      46.545  29.283  24.559  1.00  0.00    -0.269 OA
ATOM      6  H   UNL A   1      48.035  30.042  26.197  1.00  0.00     0.163 HD
BRANCH   4   7
ATOM      7  C   UNL A   1      45.817  27.527  25.945  1.00  0.00     0.039 A 
ATOM      8  C   UNL A   1      44.322  25.177  26.165  1.00  0.00     0.067 A 
ATOM      9  C   UNL A   1      45.714  25.101  26.214  1.00  0.00     0.029 A 
ATOM     10  C   UNL A   1      43.676  26.414  26.142  1.00  0.00     0.029 A 
ATOM     11  C   UNL A   1      46.456  26.279  26.072  1.00  0.00     0.016 A 
ATOM     12  C   UNL A   1      44.429  27.586  26.087  1.00  0.00     0.016 A 
BRANCH   8  13
ATOM     13  N   UNL A   1      43.562  24.004  26.002  1.00  0.00    -0.217 N 
ATOM     14  C   UNL A   1      41.993  22.502  26.155  1.00  0.00     0.132 A 
ATOM     15  N   UNL A   1      42.665  22.313  24.980  1.00  0.00    -0.128 NA
ATOM     16  C   UNL A   1      42.530  23.590  26.826  1.00  0.00     0.071 A 
ATOM     17  N   UNL A   1      43.554  23.293  24.854  1.00  0.00    -0.061 NA
ATOM     18  C   UNL A   1      42.025  24.347  28.003  1.00  0.00     0.069 C 
BRANCH  14  19
ATOM     19  C   UNL A   1      40.728  21.866  26.479  1.00  0.00     0.087 C 
ATOM     20  C   UNL A   1      40.863  20.425  26.910  1.00  0.00     0.071 C 
ATOM     21  N   UNL A   1      39.646  22.571  26.297  1.00  0.00    -0.176 NA
BRANCH  21  22
ATOM     22  N   UNL A   1      38.375  22.054  26.421  1.00  0.00    -0.252 N 
ATOM     23  H   UNL A   1      38.263  21.399  27.147  1.00  0.00     0.193 HD
BRANCH  22  24
ATOM     24  C   UNL A   1      37.254  22.307  25.701  1.00  0.00     0.203 A 
ATOM     25  N   UNL A   1      36.545  23.410  25.746  1.00  0.00    -0.219 NA
ATOM     26  S   UNL A   1      36.551  21.074  24.712  1.00  0.00    -0.103 S 
ATOM     27  C   UNL A   1      35.265  23.180  25.289  1.00  0.00     0.084 A 
ATOM     28  C   UNL A   1      35.071  21.952  24.694  1.00  0.00     0.097 A 
BRANCH  27  29
ATOM     29  C   UNL A   1      34.229  24.162  25.551  1.00  0.00     0.001 A 
ATOM     30  C   UNL A   1      34.498  25.517  25.317  1.00  0.00     0.012 A 
ATOM     31  C   UNL A   1      33.020  23.797  26.160  1.00  0.00     0.012 A 
ATOM     32  C   UNL A   1      33.557  26.494  25.652  1.00  0.00     0.021 A 
ATOM     33  C   UNL A   1      32.083  24.775  26.507  1.00  0.00     0.021 A 
ATOM     34  C   UNL A   1      32.353  26.118  26.243  1.00  0.00     0.041 A 
ATOM     35  Cl  UNL A   1      31.198  27.321  26.666  1.00  0.00    -0.084 Cl
ENDBRANCH  27  29
ENDBRANCH  22  24
ENDBRANCH  21  22
ENDBRANCH  14  19
ENDBRANCH   8  13
ENDBRANCH   4   7
ENDBRANCH   2   3
ENDBRANCH   1   2
BRANCH   1  36
ATOM     36  C   UNL A   1      47.689  31.438  28.078  1.00  0.00     0.002 C 
BRANCH  36  37
ATOM     37  C   UNL A   1      47.865  32.717  28.913  1.00  0.00     0.002 C 
BRANCH  37  38
ATOM     38  C   UNL A   1      48.594  33.878  28.222  1.00  0.00     0.021 C 
BRANCH  38  39
ATOM     39  C   UNL A   1      48.072  34.179  26.823  1.00  0.00     0.116 C 
BRANCH  39  40
ATOM     40  N   UNL A   1      47.611  35.558  26.702  1.00  0.00    -0.352 N 
ATOM     41  C   UNL A   1      46.327  36.052  26.820  1.00  0.00     0.251 C 
ATOM     42  H   UNL A   1      48.309  36.226  26.511  1.00  0.00     0.163 HD
ATOM     43  O   UNL A   1      46.031  37.121  26.308  1.00  0.00    -0.269 OA
BRANCH  41  44
ATOM     44  C   UNL A   1      45.324  35.274  27.575  1.00  0.00     0.039 A 
ATOM     45  C   UNL A   1      44.479  34.377  26.918  1.00  0.00     0.014 A 
ATOM     46  C   UNL A   1      45.228  35.459  28.954  1.00  0.00     0.014 A 
ATOM     47  C   UNL A   1      43.593  33.613  27.674  1.00  0.00     0.010 A 
ATOM     48  C   UNL A   1      44.449  34.618  29.712  1.00  0.00     0.010 A 
ATOM     49  C   UNL A   1      43.600  33.720  29.077  1.00  0.00    -0.014 A 
BRANCH  49  50
ATOM     50  C   UNL A   1      42.859  32.762  29.895  1.00  0.00     0.031 A 
ATOM     51  C   UNL A   1      43.388  31.379  29.786  1.00  0.00     0.074 A 
ATOM     52  C   UNL A   1      41.934  33.100  30.821  1.00  0.00     0.049 A 
ATOM     53  N   UNL A   1      42.877  30.404  29.113  1.00  0.00    -0.248 NA
ATOM     54  C   UNL A   1      44.740  31.098  30.305  1.00  0.00     0.031 C 
ATOM     55  C   UNL A   1      41.528  34.446  31.240  1.00  0.00     0.029 A 
ATOM     56  N   UNL A   1      41.226  32.303  31.671  1.00  0.00    -0.354 N 
ATOM     57  C   UNL A   1      43.688  29.308  29.375  1.00  0.00     0.074 A 
ATOM     58  C   UNL A   1      44.925  29.845  29.883  1.00  0.00     0.031 C 
ATOM     59  C   UNL A   1      40.841  34.375  32.403  1.00  0.00     0.029 A 
ATOM     60  C   UNL A   1      40.610  32.979  32.725  1.00  0.00     0.049 A 
ATOM     61  H   UNL A   1      41.155  31.329  31.551  1.00  0.00     0.167 HD
ATOM     62  C   UNL A   1      43.153  28.060  29.481  1.00  0.00     0.031 A 
ATOM     63  C   UNL A   1      39.968  32.432  33.791  1.00  0.00     0.031 A 
ATOM     64  C   UNL A   1      41.802  28.023  28.968  1.00  0.00     0.049 A 
ATOM     65  C   UNL A   1      39.570  31.063  33.393  1.00  0.00     0.074 A 
ATOM     66  C   UNL A   1      41.199  28.340  27.767  1.00  0.00     0.029 A 
ATOM     67  N   UNL A   1      40.799  28.002  29.908  1.00  0.00    -0.354 N 
ATOM     68  N   UNL A   1      38.690  30.818  32.465  1.00  0.00    -0.248 NA
ATOM     69  C   UNL A   1      40.468  29.966  33.709  1.00  0.00     0.031 C 
ATOM     70  C   UNL A   1      39.952  28.934  28.126  1.00  0.00     0.029 A 
ATOM     71  C   UNL A   1      39.816  28.866  29.513  1.00  0.00     0.049 A 
ATOM     72  H   UNL A   1      40.790  27.456  30.727  1.00  0.00     0.167 HD
ATOM     73  C   UNL A   1      39.211  29.739  31.768  1.00  0.00     0.074 A 
ATOM     74  C   UNL A   1      40.243  29.187  32.647  1.00  0.00     0.031 C 
ATOM     75  C   UNL A   1      38.956  29.580  30.435  1.00  0.00     0.031 A 
BRANCH  62  76
ATOM     76  C   UNL A   1      43.638  27.031  30.483  1.00  0.00    -0.014 A 
ATOM     77  C   UNL A   1      43.331  27.226  31.846  1.00  0.00     0.010 A 
ATOM     78  C   UNL A   1      44.622  26.066  30.185  1.00  0.00     0.010 A 
ATOM     79  C   UNL A   1      44.037  26.556  32.854  1.00  0.00     0.020 A 
ATOM     80  C   UNL A   1      45.298  25.359  31.179  1.00  0.00     0.020 A 
ATOM     81  C   UNL A   1      45.023  25.633  32.511  1.00  0.00     0.054 A 
BRANCH  81  82
ATOM     82  S   UNL A   1      45.978  24.827  33.817  1.00  0.00     0.124 S 
ATOM     83  O   UNL A   1      45.237  23.584  34.003  1.00  0.00    -0.237 OA
ATOM     84  O   UNL A   1      47.293  24.698  33.197  1.00  0.00    -0.237 OA
ATOM     85  O   UNL A   1      45.907  25.777  34.924  1.00  0.00    -0.744 OA
ENDBRANCH  81  82
ENDBRANCH  62  76
BRANCH  63  86
ATOM     86  C   UNL A   1      39.913  32.890  35.206  1.00  0.00    -0.014 A 
ATOM     87  C   UNL A   1      38.712  32.817  35.943  1.00  0.00     0.010 A 
ATOM     88  C   UNL A   1      41.105  33.100  35.927  1.00  0.00     0.010 A 
ATOM     89  C   UNL A   1      38.714  32.863  37.349  1.00  0.00     0.020 A 
ATOM     90  C   UNL A   1      41.114  33.154  37.329  1.00  0.00     0.020 A 
ATOM     91  C   UNL A   1      39.921  33.005  38.035  1.00  0.00     0.054 A 
BRANCH  91  92
ATOM     92  S   UNL A   1      39.948  32.851  39.849  1.00  0.00     0.124 S 
ATOM     93  O   UNL A   1      39.972  34.247  40.279  1.00  0.00    -0.237 OA
ATOM     94  O   UNL A   1      38.712  32.126  40.126  1.00  0.00    -0.237 OA
ATOM     95  O   UNL A   1      41.175  32.101  40.110  1.00  0.00    -0.744 OA
ENDBRANCH  91  92
ENDBRANCH  63  86
BRANCH  75  96
ATOM     96  C   UNL A   1      37.805  30.346  29.824  1.00  0.00    -0.014 A 
ATOM     97  C   UNL A   1      36.544  29.797  29.520  1.00  0.00     0.010 A 
ATOM     98  C   UNL A   1      37.986  31.733  29.673  1.00  0.00     0.010 A 
ATOM     99  C   UNL A   1      35.504  30.616  29.048  1.00  0.00     0.020 A 
ATOM    100  C   UNL A   1      36.953  32.554  29.225  1.00  0.00     0.020 A 
ATOM    101  C   UNL A   1      35.718  31.991  28.903  1.00  0.00     0.054 A 
BRANCH 101 102
ATOM    102  S   UNL A   1      34.369  33.057  28.322  1.00  0.00     0.124 S 
ATOM    103  O   UNL A   1      33.465  32.106  27.683  1.00  0.00    -0.237 OA
ATOM    104  O   UNL A   1      33.878  33.662  29.558  1.00  0.00    -0.237 OA
ATOM    105  O   UNL A   1      35.031  33.990  27.409  1.00  0.00    -0.744 OA
ENDBRANCH 101 102
ENDBRANCH  75  96
ENDBRANCH  49  50
ENDBRANCH  41  44
ENDBRANCH  39  40
ENDBRANCH  38  39
ENDBRANCH  37  38
ENDBRANCH  36  37
ENDBRANCH   1  36
TORSDOF 21
ENDMDL
MODEL 3
REMARK VINA RESULT:     -11.1      3.818     10.401
REMARK SMILES C/C(=N\Nc1nc(-c2ccc(Cl)cc2)cs1)c1nnn(-c2ccc(C(=O)NCCCCCCNC(=O)c3ccc(-c4c5nc(c(-c6ccc(S(=O)(=O)[O-])cc6)c6ccc([nH]6)c(-c6ccc(S(=O)(=O)[O-])cc6)c6nc(c(-c7ccc(S(=O)(=O)[O-])cc7)c7ccc4[nH]7)C=C6)C=C5)cc3)cc2)c1C
REMARK SMILES IDX 29 1 28 2 27 3 25 4 26 5 24 7 21 8 22 9 98 10 23 11 97 12
REMARK SMILES IDX 20 13 17 14 18 15 99 16 19 17 100 18 2 19 1 20 3 21 4 22
REMARK SMILES IDX 5 24 6 25 16 26 7 27 15 28 8 29 9 30 14 31 10 32 13 33 11 34
REMARK SMILES IDX 12 35 30 36 31 37 32 38 33 39 34 40 35 41 36 43 37 44 38 45
REMARK SMILES IDX 96 46 39 47 95 48 40 49 41 50 42 51 89 52 43 53 94 54 88 55
REMARK SMILES IDX 90 56 44 57 93 58 87 59 86 60 45 62 75 63 56 64 74 65 57 66
REMARK SMILES IDX 60 67 73 68 91 69 58 70 59 71 72 73 92 74 61 75 46 76 47 77
REMARK SMILES IDX 55 78 48 79 54 80 49 81 50 82 51 83 52 84 53 85 76 86 77 87
REMARK SMILES IDX 85 88 78 89 84 90 79 91 80 92 81 93 82 94 83 95 62 96 63 97
REMARK SMILES IDX 71 98 64 99 70 100 65 101 66 102 67 103 68 104 69 105
REMARK H PARENT 27 6 4 23 34 42 90 61 60 72
REMARK Flexibility Score: inf
ROOT
ATOM      1  C   UNL A   1      41.641  34.286  30.162  1.00  0.00     0.021 C 
ENDROOT
BRANCH   1   2
ATOM      2  C   UNL A   1      40.138  34.159  29.903  1.00  0.00     0.116 C 
BRANCH   2   3
ATOM      3  N   UNL A   1      39.389  34.388  31.125  1.00  0.00    -0.352 N 
ATOM      4  C   UNL A   1      38.057  34.276  31.442  1.00  0.00     0.251 C 
ATOM      5  O   UNL A   1      37.732  34.500  32.608  1.00  0.00    -0.269 OA
ATOM      6  H   UNL A   1      39.948  34.684  31.880  1.00  0.00     0.163 HD
BRANCH   4   7
ATOM      7  C   UNL A   1      37.021  33.811  30.475  1.00  0.00     0.039 A 
ATOM      8  C   UNL A   1      35.127  32.585  28.826  1.00  0.00     0.067 A 
ATOM      9  C   UNL A   1      34.846  32.735  30.185  1.00  0.00     0.029 A 
ATOM     10  C   UNL A   1      36.274  33.153  28.268  1.00  0.00     0.029 A 
ATOM     11  C   UNL A   1      35.813  33.322  31.008  1.00  0.00     0.016 A 
ATOM     12  C   UNL A   1      37.188  33.812  29.089  1.00  0.00     0.016 A 
BRANCH   8  13
ATOM     13  N   UNL A   1      34.326  31.742  28.035  1.00  0.00    -0.217 N 
ATOM     14  C   UNL A   1      33.403  29.984  27.141  1.00  0.00     0.132 A 
ATOM     15  N   UNL A   1      32.553  31.045  26.996  1.00  0.00    -0.128 NA
ATOM     16  C   UNL A   1      34.541  30.393  27.820  1.00  0.00     0.071 A 
ATOM     17  N   UNL A   1      33.084  32.085  27.629  1.00  0.00    -0.061 NA
ATOM     18  C   UNL A   1      35.640  29.599  28.431  1.00  0.00     0.069 C 
BRANCH  14  19
ATOM     19  C   UNL A   1      33.026  28.601  26.906  1.00  0.00     0.087 C 
ATOM     20  C   UNL A   1      31.696  28.221  27.510  1.00  0.00     0.071 C 
ATOM     21  N   UNL A   1      33.888  27.850  26.279  1.00  0.00    -0.176 NA
BRANCH  21  22
ATOM     22  N   UNL A   1      33.731  26.491  26.116  1.00  0.00    -0.252 N 
ATOM     23  H   UNL A   1      34.080  25.942  26.855  1.00  0.00     0.193 HD
BRANCH  22  24
ATOM     24  C   UNL A   1      33.169  25.792  25.099  1.00  0.00     0.203 A 
ATOM     25  N   UNL A   1      32.726  24.558  25.166  1.00  0.00    -0.219 NA
ATOM     26  S   UNL A   1      33.114  26.459  23.503  1.00  0.00    -0.103 S 
ATOM     27  C   UNL A   1      32.666  23.997  23.909  1.00  0.00     0.084 A 
ATOM     28  C   UNL A   1      32.857  24.881  22.868  1.00  0.00     0.097 A 
BRANCH  27  29
ATOM     29  C   UNL A   1      32.518  22.560  23.778  1.00  0.00     0.001 A 
ATOM     30  C   UNL A   1      32.923  21.733  24.834  1.00  0.00     0.012 A 
ATOM     31  C   UNL A   1      32.111  21.980  22.568  1.00  0.00     0.012 A 
ATOM     32  C   UNL A   1      32.886  20.343  24.699  1.00  0.00     0.021 A 
ATOM     33  C   UNL A   1      32.085  20.588  22.429  1.00  0.00     0.021 A 
ATOM     34  C   UNL A   1      32.465  19.777  23.498  1.00  0.00     0.041 A 
ATOM     35  Cl  UNL A   1      32.428  18.066  23.327  1.00  0.00    -0.084 Cl
ENDBRANCH  27  29
ENDBRANCH  22  24
ENDBRANCH  21  22
ENDBRANCH  14  19
ENDBRANCH   8  13
ENDBRANCH   4   7
ENDBRANCH   2   3
ENDBRANCH   1   2
BRANCH   1  36
ATOM     36  C   UNL A   1      42.308  35.404  29.349  1.00  0.00     0.002 C 
BRANCH  36  37
ATOM     37  C   UNL A   1      41.657  35.709  27.990  1.00  0.00     0.002 C 
BRANCH  37  38
ATOM     38  C   UNL A   1      42.364  36.764  27.127  1.00  0.00     0.021 C 
BRANCH  38  39
ATOM     39  C   UNL A   1      43.804  37.028  27.544  1.00  0.00     0.116 C 
BRANCH  39  40
ATOM     40  N   UNL A   1      44.750  36.643  26.502  1.00  0.00    -0.352 N 
ATOM     41  C   UNL A   1      45.589  35.547  26.459  1.00  0.00     0.251 C 
ATOM     42  H   UNL A   1      44.795  37.246  25.724  1.00  0.00     0.163 HD
ATOM     43  O   UNL A   1      46.585  35.564  25.753  1.00  0.00    -0.269 OA
BRANCH  41  44
ATOM     44  C   UNL A   1      45.262  34.360  27.274  1.00  0.00     0.039 A 
ATOM     45  C   UNL A   1      45.875  34.157  28.513  1.00  0.00     0.014 A 
ATOM     46  C   UNL A   1      44.339  33.439  26.781  1.00  0.00     0.014 A 
ATOM     47  C   UNL A   1      45.491  33.060  29.281  1.00  0.00     0.010 A 
ATOM     48  C   UNL A   1      43.866  32.433  27.589  1.00  0.00     0.010 A 
ATOM     49  C   UNL A   1      44.464  32.213  28.824  1.00  0.00    -0.014 A 
BRANCH  49  50
ATOM     50  C   UNL A   1      43.882  31.210  29.713  1.00  0.00     0.031 A 
ATOM     51  C   UNL A   1      43.028  30.229  28.995  1.00  0.00     0.074 A 
ATOM     52  C   UNL A   1      44.232  31.037  31.006  1.00  0.00     0.049 A 
ATOM     53  N   UNL A   1      41.738  30.197  28.969  1.00  0.00    -0.248 NA
ATOM     54  C   UNL A   1      43.665  29.313  28.030  1.00  0.00     0.031 C 
ATOM     55  C   UNL A   1      45.275  31.742  31.759  1.00  0.00     0.029 A 
ATOM     56  N   UNL A   1      43.799  30.108  31.906  1.00  0.00    -0.354 N 
ATOM     57  C   UNL A   1      41.412  29.069  28.228  1.00  0.00     0.074 A 
ATOM     58  C   UNL A   1      42.596  28.731  27.481  1.00  0.00     0.031 C 
ATOM     59  C   UNL A   1      45.551  31.068  32.899  1.00  0.00     0.029 A 
ATOM     60  C   UNL A   1      44.597  29.984  33.043  1.00  0.00     0.049 A 
ATOM     61  H   UNL A   1      42.988  29.568  31.763  1.00  0.00     0.167 HD
ATOM     62  C   UNL A   1      40.324  28.316  28.555  1.00  0.00     0.031 A 
ATOM     63  C   UNL A   1      44.490  29.051  34.026  1.00  0.00     0.031 A 
ATOM     64  C   UNL A   1      39.457  29.019  29.473  1.00  0.00     0.049 A 
ATOM     65  C   UNL A   1      43.103  28.535  33.976  1.00  0.00     0.074 A 
ATOM     66  C   UNL A   1      38.800  30.233  29.469  1.00  0.00     0.029 A 
ATOM     67  N   UNL A   1      39.519  28.620  30.787  1.00  0.00    -0.354 N 
ATOM     68  N   UNL A   1      42.060  29.262  34.257  1.00  0.00    -0.248 NA
ATOM     69  C   UNL A   1      42.841  27.345  33.184  1.00  0.00     0.031 C 
ATOM     70  C   UNL A   1      38.903  30.713  30.809  1.00  0.00     0.029 A 
ATOM     71  C   UNL A   1      39.532  29.734  31.579  1.00  0.00     0.049 A 
ATOM     72  H   UNL A   1      39.548  27.688  31.104  1.00  0.00     0.167 HD
ATOM     73  C   UNL A   1      41.116  28.896  33.311  1.00  0.00     0.074 A 
ATOM     74  C   UNL A   1      41.610  27.635  32.755  1.00  0.00     0.031 C 
ATOM     75  C   UNL A   1      40.185  29.794  32.872  1.00  0.00     0.031 A 
BRANCH  62  76
ATOM     76  C   UNL A   1      40.302  26.804  28.458  1.00  0.00    -0.014 A 
ATOM     77  C   UNL A   1      41.483  26.096  28.768  1.00  0.00     0.010 A 
ATOM     78  C   UNL A   1      39.286  26.086  27.796  1.00  0.00     0.010 A 
ATOM     79  C   UNL A   1      41.665  24.770  28.355  1.00  0.00     0.020 A 
ATOM     80  C   UNL A   1      39.439  24.751  27.421  1.00  0.00     0.020 A 
ATOM     81  C   UNL A   1      40.643  24.111  27.674  1.00  0.00     0.054 A 
BRANCH  81  82
ATOM     82  S   UNL A   1      40.914  22.425  27.081  1.00  0.00     0.124 S 
ATOM     83  O   UNL A   1      40.882  21.663  28.326  1.00  0.00    -0.237 OA
ATOM     84  O   UNL A   1      39.778  22.231  26.186  1.00  0.00    -0.237 OA
ATOM     85  O   UNL A   1      42.215  22.502  26.422  1.00  0.00    -0.744 OA
ENDBRANCH  81  82
ENDBRANCH  62  76
BRANCH  63  86
ATOM     86  C   UNL A   1      45.554  28.377  34.819  1.00  0.00    -0.014 A 
ATOM     87  C   UNL A   1      45.287  27.878  36.111  1.00  0.00     0.010 A 
ATOM     88  C   UNL A   1      46.737  27.943  34.188  1.00  0.00     0.010 A 
ATOM     89  C   UNL A   1      46.121  26.917  36.710  1.00  0.00     0.020 A 
ATOM     90  C   UNL A   1      47.577  26.990  34.782  1.00  0.00     0.020 A 
ATOM     91  C   UNL A   1      47.250  26.459  36.028  1.00  0.00     0.054 A 
BRANCH  91  92
ATOM     92  S   UNL A   1      48.207  25.067  36.707  1.00  0.00     0.124 S 
ATOM     93  O   UNL A   1      47.175  24.271  37.366  1.00  0.00    -0.237 OA
ATOM     94  O   UNL A   1      48.797  24.472  35.511  1.00  0.00    -0.237 OA
ATOM     95  O   UNL A   1      49.160  25.715  37.607  1.00  0.00    -0.744 OA
ENDBRANCH  91  92
ENDBRANCH  63  86
BRANCH  75  96
ATOM     96  C   UNL A   1      39.940  31.040  33.690  1.00  0.00    -0.014 A 
ATOM     97  C   UNL A   1      38.933  31.179  34.665  1.00  0.00     0.010 A 
ATOM     98  C   UNL A   1      40.876  32.080  33.542  1.00  0.00     0.010 A 
ATOM     99  C   UNL A   1      38.852  32.343  35.447  1.00  0.00     0.020 A 
ATOM    100  C   UNL A   1      40.813  33.229  34.328  1.00  0.00     0.020 A 
ATOM    101  C   UNL A   1      39.794  33.362  35.271  1.00  0.00     0.054 A 
BRANCH 101 102
ATOM    102  S   UNL A   1      39.710  34.856  36.298  1.00  0.00     0.124 S 
ATOM    103  O   UNL A   1      38.593  34.565  37.192  1.00  0.00    -0.237 OA
ATOM    104  O   UNL A   1      41.028  34.891  36.928  1.00  0.00    -0.237 OA
ATOM    105  O   UNL A   1      39.467  35.929  35.334  1.00  0.00    -0.744 OA
ENDBRANCH 101 102
ENDBRANCH  75  96
ENDBRANCH  49  50
ENDBRANCH  41  44
ENDBRANCH  39  40
ENDBRANCH  38  39
ENDBRANCH  37  38
ENDBRANCH  36  37
ENDBRANCH   1  36
TORSDOF 21
ENDMDL
