MODEL 1
REMARK VINA RESULT:      -9.5      0.000      0.000
REMARK SMILES CCC(CC)N(CC(C)C)C(=O)N[C@H](C)C(=O)NCCCCCCNC(=O)c1ccc(-c2c3nc(c(-c4ccc(S(=O)(=O)[O-])cc4)c4ccc([nH]4)c(-c4ccc(S(=O)(=O)[O-])cc4)c4nc(c(-c5ccc(S(=O)(=O)[O-])cc5)c5ccc2[nH]5)C=C4)C=C3)cc1
REMARK SMILES IDX 21 1 20 2 19 3 18 4 16 5 17 6 14 8 15 9 13 10 11 11 12 12
REMARK SMILES IDX 6 14 3 15 2 16 1 17 4 18 5 19 7 20 8 21 9 22 10 23 22 24
REMARK SMILES IDX 23 25 24 26 25 27 26 28 27 30 28 31 29 32 87 33 30 34 86 35
REMARK SMILES IDX 31 36 32 37 33 38 80 39 34 40 85 41 79 42 81 43 35 44 84 45
REMARK SMILES IDX 78 46 77 47 36 49 66 50 47 51 65 52 48 53 51 54 64 55 82 56
REMARK SMILES IDX 49 57 50 58 63 60 83 61 52 62 37 63 38 64 46 65 39 66 45 67
REMARK SMILES IDX 40 68 41 69 42 70 43 71 44 72 67 73 68 74 76 75 69 76 75 77
REMARK SMILES IDX 70 78 71 79 72 80 73 81 74 82 53 83 54 84 62 85 55 86 61 87
REMARK SMILES IDX 56 88 57 89 58 90 59 91 60 92
REMARK H PARENT 18 7 13 13 25 29 81 48 51 59
REMARK Flexibility Score: inf
ROOT
ATOM      1  C   UNL A   1      33.042  30.071  26.545  1.00  0.00     0.002 C 
ENDROOT
BRANCH   1   2
ATOM      2  C   UNL A   1      32.945  28.727  27.257  1.00  0.00     0.021 C 
BRANCH   2   3
ATOM      3  C   UNL A   1      32.759  27.532  26.337  1.00  0.00     0.116 C 
BRANCH   3   4
ATOM      4  N   UNL A   1      31.770  26.585  26.780  1.00  0.00    -0.354 N 
ATOM      5  C   UNL A   1      31.118  25.642  26.045  1.00  0.00     0.242 C 
ATOM      6  O   UNL A   1      30.354  24.876  26.644  1.00  0.00    -0.273 OA
ATOM      7  H   UNL A   1      31.536  26.624  27.736  1.00  0.00     0.163 HD
BRANCH   5   8
ATOM      8  C   UNL A   1      31.165  25.651  24.497  1.00  0.00     0.170 C 
ATOM      9  C   UNL A   1      30.276  26.790  24.035  1.00  0.00     0.041 C 
BRANCH   8  10
ATOM     10  N   UNL A   1      32.492  25.358  23.899  1.00  0.00    -0.326 N 
ATOM     11  C   UNL A   1      33.401  24.422  23.590  1.00  0.00     0.318 C 
ATOM     12  O   UNL A   1      34.067  24.733  22.596  1.00  0.00    -0.249 OA
ATOM     13  H   UNL A   1      32.863  26.220  23.602  1.00  0.00     0.166 HD
BRANCH  11  14
ATOM     14  N   UNL A   1      33.590  23.235  24.239  1.00  0.00    -0.322 N 
BRANCH  14  15
ATOM     15  C   UNL A   1      34.915  22.961  24.897  1.00  0.00     0.086 C 
BRANCH  15  16
ATOM     16  C   UNL A   1      35.839  22.060  24.038  1.00  0.00     0.022 C 
ATOM     17  C   UNL A   1      36.735  22.829  23.074  1.00  0.00     0.006 C 
ENDBRANCH  15  16
BRANCH  15  18
ATOM     18  C   UNL A   1      35.596  24.194  25.528  1.00  0.00     0.022 C 
ATOM     19  C   UNL A   1      36.916  23.975  26.248  1.00  0.00     0.006 C 
ENDBRANCH  15  18
ENDBRANCH  14  15
BRANCH  14  20
ATOM     20  C   UNL A   1      32.590  22.179  24.381  1.00  0.00     0.124 C 
BRANCH  20  21
ATOM     21  C   UNL A   1      32.762  20.915  23.513  1.00  0.00     0.002 C 
ATOM     22  C   UNL A   1      32.506  19.573  24.203  1.00  0.00     0.009 C 
ATOM     23  C   UNL A   1      31.871  21.053  22.266  1.00  0.00     0.009 C 
ENDBRANCH  20  21
ENDBRANCH  14  20
ENDBRANCH  11  14
ENDBRANCH   8  10
ENDBRANCH   5   8
ENDBRANCH   3   4
ENDBRANCH   2   3
ENDBRANCH   1   2
BRANCH   1  24
ATOM     24  C   UNL A   1      31.711  30.804  26.369  1.00  0.00     0.002 C 
BRANCH  24  25
ATOM     25  C   UNL A   1      31.694  32.258  26.850  1.00  0.00     0.021 C 
BRANCH  25  26
ATOM     26  C   UNL A   1      33.029  32.766  27.382  1.00  0.00     0.116 C 
BRANCH  26  27
ATOM     27  N   UNL A   1      32.910  34.110  27.920  1.00  0.00    -0.352 N 
ATOM     28  C   UNL A   1      33.515  34.657  29.023  1.00  0.00     0.251 C 
ATOM     29  H   UNL A   1      32.313  34.715  27.423  1.00  0.00     0.163 HD
ATOM     30  O   UNL A   1      33.109  35.715  29.489  1.00  0.00    -0.269 OA
BRANCH  28  31
ATOM     31  C   UNL A   1      34.656  33.954  29.644  1.00  0.00     0.039 A 
ATOM     32  C   UNL A   1      35.951  34.238  29.204  1.00  0.00     0.014 A 
ATOM     33  C   UNL A   1      34.442  33.013  30.654  1.00  0.00     0.014 A 
ATOM     34  C   UNL A   1      37.037  33.613  29.819  1.00  0.00     0.010 A 
ATOM     35  C   UNL A   1      35.528  32.449  31.315  1.00  0.00     0.010 A 
ATOM     36  C   UNL A   1      36.836  32.738  30.899  1.00  0.00    -0.014 A 
BRANCH  36  37
ATOM     37  C   UNL A   1      37.979  32.117  31.612  1.00  0.00     0.031 A 
ATOM     38  C   UNL A   1      38.415  32.653  32.948  1.00  0.00     0.074 A 
ATOM     39  C   UNL A   1      38.662  31.115  31.026  1.00  0.00     0.049 A 
ATOM     40  N   UNL A   1      39.427  32.287  33.691  1.00  0.00    -0.248 NA
ATOM     41  C   UNL A   1      37.626  33.761  33.513  1.00  0.00     0.031 C 
ATOM     42  C   UNL A   1      38.355  30.533  29.716  1.00  0.00     0.029 A 
ATOM     43  N   UNL A   1      39.761  30.411  31.450  1.00  0.00    -0.354 N 
ATOM     44  C   UNL A   1      39.406  33.125  34.800  1.00  0.00     0.074 A 
ATOM     45  C   UNL A   1      38.312  34.052  34.609  1.00  0.00     0.031 C 
ATOM     46  C   UNL A   1      39.226  29.545  29.458  1.00  0.00     0.029 A 
ATOM     47  C   UNL A   1      40.182  29.453  30.558  1.00  0.00     0.049 A 
ATOM     48  H   UNL A   1      40.206  30.577  32.313  1.00  0.00     0.167 HD
ATOM     49  C   UNL A   1      40.212  33.111  35.889  1.00  0.00     0.031 A 
ATOM     50  C   UNL A   1      41.226  28.604  30.613  1.00  0.00     0.031 A 
ATOM     51  C   UNL A   1      41.296  32.183  36.074  1.00  0.00     0.049 A 
ATOM     52  C   UNL A   1      42.126  28.628  31.819  1.00  0.00     0.074 A 
ATOM     53  C   UNL A   1      42.138  32.053  37.164  1.00  0.00     0.029 A 
ATOM     54  N   UNL A   1      41.690  31.231  35.147  1.00  0.00    -0.354 N 
ATOM     55  N   UNL A   1      42.048  29.384  32.888  1.00  0.00    -0.248 NA
ATOM     56  C   UNL A   1      43.248  27.681  31.828  1.00  0.00     0.031 C 
ATOM     57  C   UNL A   1      43.081  31.063  36.870  1.00  0.00     0.029 A 
ATOM     58  C   UNL A   1      42.784  30.530  35.625  1.00  0.00     0.049 A 
ATOM     59  H   UNL A   1      41.257  31.075  34.276  1.00  0.00     0.167 HD
ATOM     60  C   UNL A   1      43.096  28.985  33.710  1.00  0.00     0.074 A 
ATOM     61  C   UNL A   1      43.780  27.910  33.021  1.00  0.00     0.031 C 
ATOM     62  C   UNL A   1      43.457  29.463  34.926  1.00  0.00     0.031 A 
BRANCH  49  63
ATOM     63  C   UNL A   1      39.956  34.140  36.960  1.00  0.00    -0.014 A 
ATOM     64  C   UNL A   1      40.430  35.459  36.832  1.00  0.00     0.010 A 
ATOM     65  C   UNL A   1      39.194  33.796  38.091  1.00  0.00     0.010 A 
ATOM     66  C   UNL A   1      40.183  36.401  37.833  1.00  0.00     0.020 A 
ATOM     67  C   UNL A   1      38.917  34.744  39.081  1.00  0.00     0.020 A 
ATOM     68  C   UNL A   1      39.429  36.036  38.953  1.00  0.00     0.054 A 
BRANCH  68  69
ATOM     69  S   UNL A   1      39.105  37.288  40.225  1.00  0.00     0.124 S 
ATOM     70  O   UNL A   1      38.303  36.537  41.189  1.00  0.00    -0.237 OA
ATOM     71  O   UNL A   1      40.449  37.645  40.672  1.00  0.00    -0.237 OA
ATOM     72  O   UNL A   1      38.389  38.338  39.506  1.00  0.00    -0.744 OA
ENDBRANCH  68  69
ENDBRANCH  49  63
BRANCH  50  73
ATOM     73  C   UNL A   1      41.472  27.655  29.491  1.00  0.00    -0.014 A 
ATOM     74  C   UNL A   1      42.576  27.830  28.638  1.00  0.00     0.010 A 
ATOM     75  C   UNL A   1      40.611  26.563  29.279  1.00  0.00     0.010 A 
ATOM     76  C   UNL A   1      42.801  26.942  27.582  1.00  0.00     0.020 A 
ATOM     77  C   UNL A   1      40.850  25.657  28.243  1.00  0.00     0.020 A 
ATOM     78  C   UNL A   1      41.938  25.860  27.393  1.00  0.00     0.054 A 
BRANCH  78  79
ATOM     79  S   UNL A   1      42.280  24.695  26.044  1.00  0.00     0.124 S 
ATOM     80  O   UNL A   1      41.163  23.762  26.159  1.00  0.00    -0.237 OA
ATOM     81  O   UNL A   1      42.261  25.562  24.868  1.00  0.00    -0.237 OA
ATOM     82  O   UNL A   1      43.591  24.151  26.387  1.00  0.00    -0.744 OA
ENDBRANCH  78  79
ENDBRANCH  50  73
BRANCH  62  83
ATOM     83  C   UNL A   1      44.629  28.811  35.610  1.00  0.00    -0.014 A 
ATOM     84  C   UNL A   1      45.936  29.307  35.451  1.00  0.00     0.010 A 
ATOM     85  C   UNL A   1      44.409  27.727  36.480  1.00  0.00     0.010 A 
ATOM     86  C   UNL A   1      47.003  28.714  36.130  1.00  0.00     0.020 A 
ATOM     87  C   UNL A   1      45.469  27.151  37.184  1.00  0.00     0.020 A 
ATOM     88  C   UNL A   1      46.763  27.642  36.996  1.00  0.00     0.054 A 
BRANCH  88  89
ATOM     89  S   UNL A   1      48.157  26.931  37.911  1.00  0.00     0.124 S 
ATOM     90  O   UNL A   1      49.173  26.809  36.869  1.00  0.00    -0.237 OA
ATOM     91  O   UNL A   1      48.420  27.944  38.930  1.00  0.00    -0.237 OA
ATOM     92  O   UNL A   1      47.630  25.666  38.419  1.00  0.00    -0.744 OA
ENDBRANCH  88  89
ENDBRANCH  62  83
ENDBRANCH  36  37
ENDBRANCH  28  31
ENDBRANCH  26  27
ENDBRANCH  25  26
ENDBRANCH  24  25
ENDBRANCH   1  24
TORSDOF 23
ENDMDL
MODEL 2
REMARK VINA RESULT:      -9.4      0.974      8.226
REMARK SMILES CCC(CC)N(CC(C)C)C(=O)N[C@H](C)C(=O)NCCCCCCNC(=O)c1ccc(-c2c3nc(c(-c4ccc(S(=O)(=O)[O-])cc4)c4ccc([nH]4)c(-c4ccc(S(=O)(=O)[O-])cc4)c4nc(c(-c5ccc(S(=O)(=O)[O-])cc5)c5ccc2[nH]5)C=C4)C=C3)cc1
REMARK SMILES IDX 21 1 20 2 19 3 18 4 16 5 17 6 14 8 15 9 13 10 11 11 12 12
REMARK SMILES IDX 6 14 3 15 2 16 1 17 4 18 5 19 7 20 8 21 9 22 10 23 22 24
REMARK SMILES IDX 23 25 24 26 25 27 26 28 27 30 28 31 29 32 87 33 30 34 86 35
REMARK SMILES IDX 31 36 32 37 33 38 80 39 34 40 85 41 79 42 81 43 35 44 84 45
REMARK SMILES IDX 78 46 77 47 36 49 66 50 47 51 65 52 48 53 51 54 64 55 82 56
REMARK SMILES IDX 49 57 50 58 63 60 83 61 52 62 37 63 38 64 46 65 39 66 45 67
REMARK SMILES IDX 40 68 41 69 42 70 43 71 44 72 67 73 68 74 76 75 69 76 75 77
REMARK SMILES IDX 70 78 71 79 72 80 73 81 74 82 53 83 54 84 62 85 55 86 61 87
REMARK SMILES IDX 56 88 57 89 58 90 59 91 60 92
REMARK H PARENT 18 7 13 13 25 29 81 48 51 59
REMARK Flexibility Score: inf
ROOT
ATOM      1  C   UNL A   1      32.958  29.544  27.013  1.00  0.00     0.002 C 
ENDROOT
BRANCH   1   2
ATOM      2  C   UNL A   1      32.389  28.177  27.374  1.00  0.00     0.021 C 
BRANCH   2   3
ATOM      3  C   UNL A   1      32.544  27.120  26.294  1.00  0.00     0.116 C 
BRANCH   3   4
ATOM      4  N   UNL A   1      31.304  26.557  25.828  1.00  0.00    -0.354 N 
ATOM      5  C   UNL A   1      31.010  26.078  24.586  1.00  0.00     0.242 C 
ATOM      6  O   UNL A   1      29.898  25.567  24.418  1.00  0.00    -0.273 OA
ATOM      7  H   UNL A   1      30.576  26.511  26.490  1.00  0.00     0.163 HD
BRANCH   5   8
ATOM      8  C   UNL A   1      31.943  26.343  23.378  1.00  0.00     0.170 C 
ATOM      9  C   UNL A   1      31.943  27.842  23.141  1.00  0.00     0.041 C 
BRANCH   8  10
ATOM     10  N   UNL A   1      33.170  25.509  23.327  1.00  0.00    -0.326 N 
ATOM     11  C   UNL A   1      33.711  24.295  23.512  1.00  0.00     0.318 C 
ATOM     12  O   UNL A   1      34.676  24.099  22.766  1.00  0.00    -0.249 OA
ATOM     13  H   UNL A   1      33.900  26.100  23.031  1.00  0.00     0.166 HD
BRANCH  11  14
ATOM     14  N   UNL A   1      33.268  23.339  24.381  1.00  0.00    -0.322 N 
BRANCH  14  15
ATOM     15  C   UNL A   1      33.845  23.284  25.769  1.00  0.00     0.086 C 
BRANCH  15  16
ATOM     16  C   UNL A   1      33.089  22.298  26.697  1.00  0.00     0.022 C 
ATOM     17  C   UNL A   1      33.416  22.464  28.177  1.00  0.00     0.006 C 
ENDBRANCH  15  16
BRANCH  15  18
ATOM     18  C   UNL A   1      35.385  23.200  25.831  1.00  0.00     0.022 C 
ATOM     19  C   UNL A   1      36.042  21.949  25.274  1.00  0.00     0.006 C 
ENDBRANCH  15  18
ENDBRANCH  14  15
BRANCH  14  20
ATOM     20  C   UNL A   1      32.237  22.344  24.092  1.00  0.00     0.124 C 
BRANCH  20  21
ATOM     21  C   UNL A   1      32.664  21.086  23.307  1.00  0.00     0.002 C 
ATOM     22  C   UNL A   1      32.591  19.755  24.059  1.00  0.00     0.009 C 
ATOM     23  C   UNL A   1      31.835  21.014  22.013  1.00  0.00     0.009 C 
ENDBRANCH  20  21
ENDBRANCH  14  20
ENDBRANCH  11  14
ENDBRANCH   8  10
ENDBRANCH   5   8
ENDBRANCH   3   4
ENDBRANCH   2   3
ENDBRANCH   1   2
BRANCH   1  24
ATOM     24  C   UNL A   1      32.022  30.434  26.192  1.00  0.00     0.002 C 
BRANCH  24  25
ATOM     25  C   UNL A   1      31.753  31.822  26.781  1.00  0.00     0.021 C 
BRANCH  25  26
ATOM     26  C   UNL A   1      32.976  32.505  27.380  1.00  0.00     0.116 C 
BRANCH  26  27
ATOM     27  N   UNL A   1      32.724  33.911  27.643  1.00  0.00    -0.352 N 
ATOM     28  C   UNL A   1      33.210  34.703  28.653  1.00  0.00     0.251 C 
ATOM     29  H   UNL A   1      32.122  34.361  27.007  1.00  0.00     0.163 HD
ATOM     30  O   UNL A   1      32.698  35.791  28.885  1.00  0.00    -0.269 OA
BRANCH  28  31
ATOM     31  C   UNL A   1      34.352  34.225  29.459  1.00  0.00     0.039 A 
ATOM     32  C   UNL A   1      34.104  33.562  30.662  1.00  0.00     0.014 A 
ATOM     33  C   UNL A   1      35.663  34.440  29.024  1.00  0.00     0.014 A 
ATOM     34  C   UNL A   1      35.177  33.065  31.405  1.00  0.00     0.010 A 
ATOM     35  C   UNL A   1      36.724  33.880  29.727  1.00  0.00     0.010 A 
ATOM     36  C   UNL A   1      36.492  33.192  30.928  1.00  0.00    -0.014 A 
BRANCH  36  37
ATOM     37  C   UNL A   1      37.640  32.611  31.666  1.00  0.00     0.031 A 
ATOM     38  C   UNL A   1      38.327  31.380  31.143  1.00  0.00     0.074 A 
ATOM     39  C   UNL A   1      38.020  33.156  32.838  1.00  0.00     0.049 A 
ATOM     40  N   UNL A   1      39.301  30.690  31.678  1.00  0.00    -0.248 NA
ATOM     41  C   UNL A   1      37.841  30.837  29.863  1.00  0.00     0.031 C 
ATOM     42  C   UNL A   1      37.408  34.330  33.465  1.00  0.00     0.029 A 
ATOM     43  N   UNL A   1      39.007  32.789  33.718  1.00  0.00    -0.354 N 
ATOM     44  C   UNL A   1      39.534  29.629  30.812  1.00  0.00     0.074 A 
ATOM     45  C   UNL A   1      38.567  29.734  29.743  1.00  0.00     0.031 C 
ATOM     46  C   UNL A   1      38.050  34.603  34.611  1.00  0.00     0.029 A 
ATOM     47  C   UNL A   1      39.087  33.598  34.827  1.00  0.00     0.049 A 
ATOM     48  H   UNL A   1      39.602  32.019  33.569  1.00  0.00     0.167 HD
ATOM     49  C   UNL A   1      40.482  28.664  30.890  1.00  0.00     0.031 A 
ATOM     50  C   UNL A   1      39.895  33.533  35.903  1.00  0.00     0.031 A 
ATOM     51  C   UNL A   1      41.444  28.567  31.956  1.00  0.00     0.049 A 
ATOM     52  C   UNL A   1      40.919  32.433  35.982  1.00  0.00     0.074 A 
ATOM     53  C   UNL A   1      42.478  27.658  32.100  1.00  0.00     0.029 A 
ATOM     54  N   UNL A   1      41.490  29.404  33.060  1.00  0.00    -0.354 N 
ATOM     55  N   UNL A   1      41.168  31.477  35.119  1.00  0.00    -0.248 NA
ATOM     56  C   UNL A   1      41.775  32.409  37.175  1.00  0.00     0.031 C 
ATOM     57  C   UNL A   1      43.110  27.907  33.322  1.00  0.00     0.029 A 
ATOM     58  C   UNL A   1      42.513  29.014  33.907  1.00  0.00     0.049 A 
ATOM     59  H   UNL A   1      40.885  30.164  33.220  1.00  0.00     0.167 HD
ATOM     60  C   UNL A   1      42.228  30.753  35.652  1.00  0.00     0.074 A 
ATOM     61  C   UNL A   1      42.583  31.393  36.903  1.00  0.00     0.031 C 
ATOM     62  C   UNL A   1      42.853  29.659  35.151  1.00  0.00     0.031 A 
BRANCH  49  63
ATOM     63  C   UNL A   1      40.516  27.628  29.796  1.00  0.00    -0.014 A 
ATOM     64  C   UNL A   1      39.464  26.709  29.629  1.00  0.00     0.010 A 
ATOM     65  C   UNL A   1      41.594  27.601  28.893  1.00  0.00     0.010 A 
ATOM     66  C   UNL A   1      39.510  25.756  28.610  1.00  0.00     0.020 A 
ATOM     67  C   UNL A   1      41.629  26.669  27.851  1.00  0.00     0.020 A 
ATOM     68  C   UNL A   1      40.594  25.742  27.727  1.00  0.00     0.054 A 
BRANCH  68  69
ATOM     69  S   UNL A   1      40.614  24.508  26.397  1.00  0.00     0.124 S 
ATOM     70  O   UNL A   1      41.006  23.298  27.116  1.00  0.00    -0.237 OA
ATOM     71  O   UNL A   1      39.235  24.532  25.916  1.00  0.00    -0.237 OA
ATOM     72  O   UNL A   1      41.609  25.023  25.460  1.00  0.00    -0.744 OA
ENDBRANCH  68  69
ENDBRANCH  49  63
BRANCH  50  73
ATOM     73  C   UNL A   1      39.770  34.544  36.989  1.00  0.00    -0.014 A 
ATOM     74  C   UNL A   1      40.378  35.805  36.863  1.00  0.00     0.010 A 
ATOM     75  C   UNL A   1      39.030  34.255  38.151  1.00  0.00     0.010 A 
ATOM     76  C   UNL A   1      40.265  36.751  37.886  1.00  0.00     0.020 A 
ATOM     77  C   UNL A   1      38.890  35.210  39.162  1.00  0.00     0.020 A 
ATOM     78  C   UNL A   1      39.519  36.447  39.029  1.00  0.00     0.054 A 
BRANCH  78  79
ATOM     79  S   UNL A   1      39.349  37.709  40.321  1.00  0.00     0.124 S 
ATOM     80  O   UNL A   1      40.718  38.201  40.446  1.00  0.00    -0.237 OA
ATOM     81  O   UNL A   1      38.393  38.641  39.727  1.00  0.00    -0.237 OA
ATOM     82  O   UNL A   1      38.845  36.958  41.468  1.00  0.00    -0.744 OA
ENDBRANCH  78  79
ENDBRANCH  50  73
BRANCH  62  83
ATOM     83  C   UNL A   1      44.006  29.096  35.938  1.00  0.00    -0.014 A 
ATOM     84  C   UNL A   1      45.289  29.667  35.862  1.00  0.00     0.010 A 
ATOM     85  C   UNL A   1      43.785  28.021  36.819  1.00  0.00     0.010 A 
ATOM     86  C   UNL A   1      46.335  29.156  36.635  1.00  0.00     0.020 A 
ATOM     87  C   UNL A   1      44.822  27.527  37.615  1.00  0.00     0.020 A 
ATOM     88  C   UNL A   1      46.094  28.092  37.510  1.00  0.00     0.054 A 
BRANCH  88  89
ATOM     89  S   UNL A   1      47.455  27.488  38.545  1.00  0.00     0.124 S 
ATOM     90  O   UNL A   1      47.974  28.728  39.118  1.00  0.00    -0.237 OA
ATOM     91  O   UNL A   1      46.772  26.601  39.484  1.00  0.00    -0.237 OA
ATOM     92  O   UNL A   1      48.343  26.819  37.597  1.00  0.00    -0.744 OA
ENDBRANCH  88  89
ENDBRANCH  62  83
ENDBRANCH  36  37
ENDBRANCH  28  31
ENDBRANCH  26  27
ENDBRANCH  25  26
ENDBRANCH  24  25
ENDBRANCH   1  24
TORSDOF 23
ENDMDL
MODEL 3
REMARK VINA RESULT:      -8.9      5.694      8.159
REMARK SMILES CCC(CC)N(CC(C)C)C(=O)N[C@H](C)C(=O)NCCCCCCNC(=O)c1ccc(-c2c3nc(c(-c4ccc(S(=O)(=O)[O-])cc4)c4ccc([nH]4)c(-c4ccc(S(=O)(=O)[O-])cc4)c4nc(c(-c5ccc(S(=O)(=O)[O-])cc5)c5ccc2[nH]5)C=C4)C=C3)cc1
REMARK SMILES IDX 21 1 20 2 19 3 18 4 16 5 17 6 14 8 15 9 13 10 11 11 12 12
REMARK SMILES IDX 6 14 3 15 2 16 1 17 4 18 5 19 7 20 8 21 9 22 10 23 22 24
REMARK SMILES IDX 23 25 24 26 25 27 26 28 27 30 28 31 29 32 87 33 30 34 86 35
REMARK SMILES IDX 31 36 32 37 33 38 80 39 34 40 85 41 79 42 81 43 35 44 84 45
REMARK SMILES IDX 78 46 77 47 36 49 66 50 47 51 65 52 48 53 51 54 64 55 82 56
REMARK SMILES IDX 49 57 50 58 63 60 83 61 52 62 37 63 38 64 46 65 39 66 45 67
REMARK SMILES IDX 40 68 41 69 42 70 43 71 44 72 67 73 68 74 76 75 69 76 75 77
REMARK SMILES IDX 70 78 71 79 72 80 73 81 74 82 53 83 54 84 62 85 55 86 61 87
REMARK SMILES IDX 56 88 57 89 58 90 59 91 60 92
REMARK H PARENT 18 7 13 13 25 29 81 48 51 59
REMARK Flexibility Score: inf
ROOT
ATOM      1  C   UNL A   1      35.696  31.194  27.761  1.00  0.00     0.002 C 
ENDROOT
BRANCH   1   2
ATOM      2  C   UNL A   1      35.317  29.718  27.737  1.00  0.00     0.021 C 
BRANCH   2   3
ATOM      3  C   UNL A   1      34.536  29.283  26.508  1.00  0.00     0.116 C 
BRANCH   3   4
ATOM      4  N   UNL A   1      33.439  30.147  26.162  1.00  0.00    -0.354 N 
ATOM      5  C   UNL A   1      32.278  29.822  25.528  1.00  0.00     0.242 C 
ATOM      6  O   UNL A   1      31.430  30.711  25.393  1.00  0.00    -0.273 OA
ATOM      7  H   UNL A   1      33.539  31.093  26.416  1.00  0.00     0.163 HD
BRANCH   5   8
ATOM      8  C   UNL A   1      32.101  28.455  24.820  1.00  0.00     0.170 C 
ATOM      9  C   UNL A   1      32.094  28.729  23.328  1.00  0.00     0.041 C 
BRANCH   8  10
ATOM     10  N   UNL A   1      32.832  27.320  25.437  1.00  0.00    -0.326 N 
ATOM     11  C   UNL A   1      33.215  26.038  25.327  1.00  0.00     0.318 C 
ATOM     12  O   UNL A   1      34.282  25.822  25.911  1.00  0.00    -0.249 OA
ATOM     13  H   UNL A   1      33.188  27.647  26.295  1.00  0.00     0.166 HD
BRANCH  11  14
ATOM     14  N   UNL A   1      32.561  25.058  24.636  1.00  0.00    -0.322 N 
BRANCH  14  15
ATOM     15  C   UNL A   1      31.114  24.785  24.941  1.00  0.00     0.086 C 
BRANCH  15  16
ATOM     16  C   UNL A   1      30.184  25.040  23.726  1.00  0.00     0.022 C 
ATOM     17  C   UNL A   1      29.226  26.211  23.912  1.00  0.00     0.006 C 
ENDBRANCH  15  16
BRANCH  15  18
ATOM     18  C   UNL A   1      30.847  23.475  25.714  1.00  0.00     0.022 C 
ATOM     19  C   UNL A   1      31.697  23.201  26.943  1.00  0.00     0.006 C 
ENDBRANCH  15  18
ENDBRANCH  14  15
BRANCH  14  20
ATOM     20  C   UNL A   1      33.144  24.236  23.578  1.00  0.00     0.124 C 
BRANCH  20  21
ATOM     21  C   UNL A   1      33.939  22.984  24.007  1.00  0.00     0.002 C 
ATOM     22  C   UNL A   1      33.263  21.632  23.770  1.00  0.00     0.009 C 
ATOM     23  C   UNL A   1      35.315  23.021  23.319  1.00  0.00     0.009 C 
ENDBRANCH  20  21
ENDBRANCH  14  20
ENDBRANCH  11  14
ENDBRANCH   8  10
ENDBRANCH   5   8
ENDBRANCH   3   4
ENDBRANCH   2   3
ENDBRANCH   1   2
BRANCH   1  24
ATOM     24  C   UNL A   1      34.664  32.111  28.422  1.00  0.00     0.002 C 
BRANCH  24  25
ATOM     25  C   UNL A   1      35.243  33.206  29.324  1.00  0.00     0.021 C 
BRANCH  25  26
ATOM     26  C   UNL A   1      36.494  32.800  30.093  1.00  0.00     0.116 C 
BRANCH  26  27
ATOM     27  N   UNL A   1      36.177  31.898  31.187  1.00  0.00    -0.352 N 
ATOM     28  C   UNL A   1      36.813  30.745  31.570  1.00  0.00     0.251 C 
ATOM     29  H   UNL A   1      35.395  32.150  31.731  1.00  0.00     0.163 HD
ATOM     30  O   UNL A   1      36.268  29.967  32.342  1.00  0.00    -0.269 OA
BRANCH  28  31
ATOM     31  C   UNL A   1      38.159  30.452  31.036  1.00  0.00     0.039 A 
ATOM     32  C   UNL A   1      39.172  30.071  31.918  1.00  0.00     0.014 A 
ATOM     33  C   UNL A   1      38.415  30.560  29.666  1.00  0.00     0.014 A 
ATOM     34  C   UNL A   1      40.433  29.745  31.415  1.00  0.00     0.010 A 
ATOM     35  C   UNL A   1      39.649  30.165  29.161  1.00  0.00     0.010 A 
ATOM     36  C   UNL A   1      40.672  29.759  30.031  1.00  0.00    -0.014 A 
BRANCH  36  37
ATOM     37  C   UNL A   1      41.983  29.350  29.470  1.00  0.00     0.031 A 
ATOM     38  C   UNL A   1      43.097  30.352  29.350  1.00  0.00     0.074 A 
ATOM     39  C   UNL A   1      42.145  28.093  29.012  1.00  0.00     0.049 A 
ATOM     40  N   UNL A   1      44.287  30.201  28.828  1.00  0.00    -0.248 NA
ATOM     41  C   UNL A   1      42.833  31.709  29.859  1.00  0.00     0.031 C 
ATOM     42  C   UNL A   1      41.126  27.041  29.044  1.00  0.00     0.029 A 
ATOM     43  N   UNL A   1      43.227  27.488  28.422  1.00  0.00    -0.354 N 
ATOM     44  C   UNL A   1      44.907  31.441  28.932  1.00  0.00     0.074 A 
ATOM     45  C   UNL A   1      43.944  32.347  29.520  1.00  0.00     0.031 C 
ATOM     46  C   UNL A   1      41.639  25.915  28.524  1.00  0.00     0.029 A 
ATOM     47  C   UNL A   1      43.005  26.175  28.078  1.00  0.00     0.049 A 
ATOM     48  H   UNL A   1      44.081  27.950  28.261  1.00  0.00     0.167 HD
ATOM     49  C   UNL A   1      46.170  31.789  28.589  1.00  0.00     0.031 A 
ATOM     50  C   UNL A   1      43.805  25.283  27.463  1.00  0.00     0.031 A 
ATOM     51  C   UNL A   1      47.124  30.881  28.008  1.00  0.00     0.049 A 
ATOM     52  C   UNL A   1      45.194  25.703  27.063  1.00  0.00     0.074 A 
ATOM     53  C   UNL A   1      48.444  31.122  27.672  1.00  0.00     0.029 A 
ATOM     54  N   UNL A   1      46.860  29.562  27.674  1.00  0.00    -0.354 N 
ATOM     55  N   UNL A   1      45.784  26.862  27.231  1.00  0.00    -0.248 NA
ATOM     56  C   UNL A   1      46.026  24.692  26.397  1.00  0.00     0.031 C 
ATOM     57  C   UNL A   1      48.960  29.965  27.078  1.00  0.00     0.029 A 
ATOM     58  C   UNL A   1      47.982  28.984  27.106  1.00  0.00     0.049 A 
ATOM     59  H   UNL A   1      46.001  29.102  27.819  1.00  0.00     0.167 HD
ATOM     60  C   UNL A   1      47.067  26.712  26.716  1.00  0.00     0.074 A 
ATOM     61  C   UNL A   1      47.170  25.345  26.247  1.00  0.00     0.031 C 
ATOM     62  C   UNL A   1      48.069  27.622  26.640  1.00  0.00     0.031 A 
BRANCH  49  63
ATOM     63  C   UNL A   1      46.589  33.217  28.822  1.00  0.00    -0.014 A 
ATOM     64  C   UNL A   1      47.222  33.605  30.018  1.00  0.00     0.010 A 
ATOM     65  C   UNL A   1      46.388  34.178  27.814  1.00  0.00     0.010 A 
ATOM     66  C   UNL A   1      47.606  34.933  30.218  1.00  0.00     0.020 A 
ATOM     67  C   UNL A   1      46.800  35.502  27.998  1.00  0.00     0.020 A 
ATOM     68  C   UNL A   1      47.391  35.874  29.206  1.00  0.00     0.054 A 
BRANCH  68  69
ATOM     69  S   UNL A   1      47.922  37.586  29.486  1.00  0.00     0.124 S 
ATOM     70  O   UNL A   1      49.306  37.405  29.918  1.00  0.00    -0.237 OA
ATOM     71  O   UNL A   1      47.751  38.193  28.169  1.00  0.00    -0.237 OA
ATOM     72  O   UNL A   1      47.007  38.069  30.518  1.00  0.00    -0.744 OA
ENDBRANCH  68  69
ENDBRANCH  49  63
BRANCH  50  73
ATOM     73  C   UNL A   1      43.313  23.904  27.194  1.00  0.00    -0.014 A 
ATOM     74  C   UNL A   1      42.925  23.525  25.897  1.00  0.00     0.010 A 
ATOM     75  C   UNL A   1      43.243  22.956  28.232  1.00  0.00     0.010 A 
ATOM     76  C   UNL A   1      42.457  22.232  25.648  1.00  0.00     0.020 A 
ATOM     77  C   UNL A   1      42.804  21.654  27.980  1.00  0.00     0.020 A 
ATOM     78  C   UNL A   1      42.402  21.304  26.691  1.00  0.00     0.054 A 
BRANCH  78  79
ATOM     79  S   UNL A   1      41.835  19.618  26.331  1.00  0.00     0.124 S 
ATOM     80  O   UNL A   1      42.558  19.311  25.100  1.00  0.00    -0.237 OA
ATOM     81  O   UNL A   1      42.265  18.881  27.517  1.00  0.00    -0.237 OA
ATOM     82  O   UNL A   1      40.389  19.766  26.189  1.00  0.00    -0.744 OA
ENDBRANCH  78  79
ENDBRANCH  50  73
BRANCH  62  83
ATOM     83  C   UNL A   1      49.379  27.167  26.055  1.00  0.00    -0.014 A 
ATOM     84  C   UNL A   1      49.587  27.138  24.664  1.00  0.00     0.010 A 
ATOM     85  C   UNL A   1      50.442  26.829  26.913  1.00  0.00     0.010 A 
ATOM     86  C   UNL A   1      50.825  26.755  24.143  1.00  0.00     0.020 A 
ATOM     87  C   UNL A   1      51.691  26.475  26.397  1.00  0.00     0.020 A 
ATOM     88  C   UNL A   1      51.871  26.430  25.013  1.00  0.00     0.054 A 
BRANCH  88  89
ATOM     89  S   UNL A   1      53.485  25.995  24.311  1.00  0.00     0.124 S 
ATOM     90  O   UNL A   1      53.481  24.538  24.419  1.00  0.00    -0.237 OA
ATOM     91  O   UNL A   1      53.395  26.524  22.952  1.00  0.00    -0.237 OA
ATOM     92  O   UNL A   1      54.439  26.682  25.180  1.00  0.00    -0.744 OA
ENDBRANCH  88  89
ENDBRANCH  62  83
ENDBRANCH  36  37
ENDBRANCH  28  31
ENDBRANCH  26  27
ENDBRANCH  25  26
ENDBRANCH  24  25
ENDBRANCH   1  24
TORSDOF 23
ENDMDL
