MODEL 1
REMARK VINA RESULT:     -12.4      0.000      0.000
REMARK SMILES C[C@H](C(=O)NCCCCCCNC(=O)c1ccc(-c2c3nc(c(-c4ccc(S(=O)(=O)[O-])cc4)c4ccc([nH]4)c(-c4ccc(S(=O)(=O)[O-])cc4)c4nc(c(-c5ccc(S(=O)(=O)[O-])cc5)c5ccc2[nH]5)C=C4)C=C3)cc1)c1ccc2c3cc(Cl)ccc3n(C(=O)c3cocn3)c2c1
REMARK SMILES IDX 8 1 7 2 6 3 5 4 3 5 4 6 2 8 1 9 75 10 76 11 95 12 77 13
REMARK SMILES IDX 94 14 78 15 86 16 79 17 85 18 80 19 84 20 81 21 83 22 82 23
REMARK SMILES IDX 87 24 88 25 89 26 90 27 93 28 91 29 92 30 9 31 10 32 11 33
REMARK SMILES IDX 12 34 13 35 14 37 15 38 16 39 74 40 17 41 73 42 18 43 19 44
REMARK SMILES IDX 20 45 67 46 21 47 72 48 66 49 68 50 22 51 71 52 65 53 64 54
REMARK SMILES IDX 23 56 53 57 34 58 52 59 35 60 38 61 51 62 69 63 36 64 37 65
REMARK SMILES IDX 50 67 70 68 39 69 24 70 25 71 33 72 26 73 32 74 27 75 28 76
REMARK SMILES IDX 29 77 30 78 31 79 54 80 55 81 63 82 56 83 62 84 57 85 58 86
REMARK SMILES IDX 59 87 60 88 61 89 40 90 41 91 49 92 42 93 48 94 43 95 44 96
REMARK SMILES IDX 45 97 46 98 47 99
REMARK H PARENT 5 7 12 36 68 55 38 66
REMARK Flexibility Score: inf
ROOT
ATOM      1  C   UNL A   1      37.312  21.672  25.015  1.00  0.00     0.002 C 
ENDROOT
BRANCH   1   2
ATOM      2  C   UNL A   1      35.981  21.241  25.642  1.00  0.00     0.021 C 
BRANCH   2   3
ATOM      3  C   UNL A   1      35.156  20.303  24.756  1.00  0.00     0.116 C 
BRANCH   3   4
ATOM      4  N   UNL A   1      33.757  20.329  25.139  1.00  0.00    -0.356 N 
ATOM      5  C   UNL A   1      32.767  21.217  24.826  1.00  0.00     0.227 C 
ATOM      6  O   UNL A   1      31.675  21.063  25.380  1.00  0.00    -0.274 OA
ATOM      7  H   UNL A   1      33.474  19.585  25.719  1.00  0.00     0.163 HD
BRANCH   5   8
ATOM      8  C   UNL A   1      33.018  22.352  23.820  1.00  0.00     0.105 C 
ATOM      9  C   UNL A   1      31.968  22.262  22.704  1.00  0.00     0.023 C 
BRANCH   8  10
ATOM     10  C   UNL A   1      33.057  23.705  24.524  1.00  0.00    -0.034 A 
ATOM     11  C   UNL A   1      33.922  23.986  25.582  1.00  0.00     0.005 A 
ATOM     12  C   UNL A   1      32.233  24.735  24.042  1.00  0.00     0.032 A 
ATOM     13  C   UNL A   1      34.026  25.282  26.109  1.00  0.00     0.011 A 
ATOM     14  C   UNL A   1      32.359  26.044  24.546  1.00  0.00     0.058 A 
ATOM     15  C   UNL A   1      33.270  26.334  25.551  1.00  0.00     0.008 A 
ATOM     16  N   UNL A   1      31.730  27.234  24.153  1.00  0.00    -0.274 N 
ATOM     17  C   UNL A   1      33.198  27.732  25.798  1.00  0.00     0.009 A 
ATOM     18  C   UNL A   1      32.209  28.271  24.964  1.00  0.00     0.057 A 
ATOM     19  C   UNL A   1      33.887  28.572  26.699  1.00  0.00     0.031 A 
ATOM     20  C   UNL A   1      31.818  29.619  25.097  1.00  0.00     0.029 A 
ATOM     21  C   UNL A   1      33.527  29.913  26.797  1.00  0.00     0.041 A 
ATOM     22  C   UNL A   1      32.494  30.427  26.023  1.00  0.00     0.023 A 
ATOM     23  Cl  UNL A   1      34.351  30.928  27.917  1.00  0.00    -0.084 Cl
BRANCH  16  24
ATOM     24  C   UNL A   1      30.772  27.301  23.107  1.00  0.00     0.284 C 
ATOM     25  O   UNL A   1      31.240  27.337  21.965  1.00  0.00    -0.266 OA
BRANCH  24  26
ATOM     26  C   UNL A   1      29.329  27.419  23.288  1.00  0.00     0.167 A 
ATOM     27  C   UNL A   1      28.446  26.578  23.933  1.00  0.00     0.231 A 
ATOM     28  N   UNL A   1      28.638  28.566  22.916  1.00  0.00    -0.211 NA
ATOM     29  O   UNL A   1      27.214  27.166  23.942  1.00  0.00    -0.451 OA
ATOM     30  C   UNL A   1      27.406  28.351  23.307  1.00  0.00     0.308 A 
ENDBRANCH  24  26
ENDBRANCH  16  24
ENDBRANCH   8  10
ENDBRANCH   5   8
ENDBRANCH   3   4
ENDBRANCH   2   3
ENDBRANCH   1   2
BRANCH   1  31
ATOM     31  C   UNL A   1      37.493  23.185  24.858  1.00  0.00     0.002 C 
BRANCH  31  32
ATOM     32  C   UNL A   1      37.639  23.961  26.171  1.00  0.00     0.021 C 
BRANCH  32  33
ATOM     33  C   UNL A   1      38.983  23.778  26.870  1.00  0.00     0.116 C 
BRANCH  33  34
ATOM     34  N   UNL A   1      40.091  24.216  26.033  1.00  0.00    -0.352 N 
ATOM     35  C   UNL A   1      40.747  25.421  26.015  1.00  0.00     0.251 C 
ATOM     36  H   UNL A   1      40.417  23.549  25.385  1.00  0.00     0.163 HD
ATOM     37  O   UNL A   1      41.497  25.699  25.084  1.00  0.00    -0.269 OA
BRANCH  35  38
ATOM     38  C   UNL A   1      40.546  26.384  27.118  1.00  0.00     0.039 A 
ATOM     39  C   UNL A   1      39.757  26.020  28.210  1.00  0.00     0.014 A 
ATOM     40  C   UNL A   1      41.129  27.654  27.065  1.00  0.00     0.014 A 
ATOM     41  C   UNL A   1      39.601  26.908  29.278  1.00  0.00     0.010 A 
ATOM     42  C   UNL A   1      41.036  28.505  28.163  1.00  0.00     0.010 A 
ATOM     43  C   UNL A   1      40.269  28.144  29.281  1.00  0.00    -0.014 A 
BRANCH  43  44
ATOM     44  C   UNL A   1      40.192  29.065  30.447  1.00  0.00     0.031 A 
ATOM     45  C   UNL A   1      41.080  28.855  31.645  1.00  0.00     0.074 A 
ATOM     46  C   UNL A   1      39.270  30.049  30.457  1.00  0.00     0.049 A 
ATOM     47  N   UNL A   1      41.108  29.514  32.776  1.00  0.00    -0.248 NA
ATOM     48  C   UNL A   1      42.042  27.741  31.579  1.00  0.00     0.031 C 
ATOM     49  C   UNL A   1      38.314  30.327  29.381  1.00  0.00     0.029 A 
ATOM     50  N   UNL A   1      38.978  30.996  31.408  1.00  0.00    -0.354 N 
ATOM     51  C   UNL A   1      42.072  28.888  33.557  1.00  0.00     0.074 A 
ATOM     52  C   UNL A   1      42.570  27.764  32.795  1.00  0.00     0.031 C 
ATOM     53  C   UNL A   1      37.565  31.388  29.720  1.00  0.00     0.029 A 
ATOM     54  C   UNL A   1      37.951  31.840  31.052  1.00  0.00     0.049 A 
ATOM     55  H   UNL A   1      39.459  31.063  32.264  1.00  0.00     0.167 HD
ATOM     56  C   UNL A   1      42.519  29.230  34.790  1.00  0.00     0.031 A 
ATOM     57  C   UNL A   1      37.379  32.858  31.724  1.00  0.00     0.031 A 
ATOM     58  C   UNL A   1      42.035  30.360  35.538  1.00  0.00     0.049 A 
ATOM     59  C   UNL A   1      37.891  33.214  33.093  1.00  0.00     0.074 A 
ATOM     60  C   UNL A   1      42.474  30.827  36.767  1.00  0.00     0.029 A 
ATOM     61  N   UNL A   1      41.010  31.200  35.135  1.00  0.00    -0.354 N 
ATOM     62  N   UNL A   1      38.859  32.656  33.783  1.00  0.00    -0.248 NA
ATOM     63  C   UNL A   1      37.246  34.347  33.771  1.00  0.00     0.031 C 
ATOM     64  C   UNL A   1      41.673  31.913  37.132  1.00  0.00     0.029 A 
ATOM     65  C   UNL A   1      40.783  32.166  36.101  1.00  0.00     0.049 A 
ATOM     66  H   UNL A   1      40.516  31.122  34.287  1.00  0.00     0.167 HD
ATOM     67  C   UNL A   1      38.956  33.391  34.958  1.00  0.00     0.074 A 
ATOM     68  C   UNL A   1      37.964  34.443  34.880  1.00  0.00     0.031 C 
ATOM     69  C   UNL A   1      39.796  33.213  36.009  1.00  0.00     0.031 A 
BRANCH  56  70
ATOM     70  C   UNL A   1      43.591  28.372  35.414  1.00  0.00    -0.014 A 
ATOM     71  C   UNL A   1      43.263  27.213  36.140  1.00  0.00     0.010 A 
ATOM     72  C   UNL A   1      44.947  28.690  35.213  1.00  0.00     0.010 A 
ATOM     73  C   UNL A   1      44.269  26.407  36.680  1.00  0.00     0.020 A 
ATOM     74  C   UNL A   1      45.957  27.870  35.724  1.00  0.00     0.020 A 
ATOM     75  C   UNL A   1      45.610  26.740  36.467  1.00  0.00     0.054 A 
BRANCH  75  76
ATOM     76  S   UNL A   1      46.893  25.651  37.143  1.00  0.00     0.124 S 
ATOM     77  O   UNL A   1      47.849  26.614  37.686  1.00  0.00    -0.237 OA
ATOM     78  O   UNL A   1      46.158  24.870  38.135  1.00  0.00    -0.237 OA
ATOM     79  O   UNL A   1      47.359  24.899  35.982  1.00  0.00    -0.744 OA
ENDBRANCH  75  76
ENDBRANCH  56  70
BRANCH  57  80
ATOM     80  C   UNL A   1      36.258  33.623  31.109  1.00  0.00    -0.014 A 
ATOM     81  C   UNL A   1      36.335  34.054  29.772  1.00  0.00     0.010 A 
ATOM     82  C   UNL A   1      35.110  33.933  31.860  1.00  0.00     0.010 A 
ATOM     83  C   UNL A   1      35.300  34.807  29.209  1.00  0.00     0.020 A 
ATOM     84  C   UNL A   1      34.058  34.656  31.290  1.00  0.00     0.020 A 
ATOM     85  C   UNL A   1      34.168  35.102  29.971  1.00  0.00     0.054 A 
BRANCH  85  86
ATOM     86  S   UNL A   1      32.824  36.054  29.209  1.00  0.00     0.124 S 
ATOM     87  O   UNL A   1      31.971  36.347  30.357  1.00  0.00    -0.237 OA
ATOM     88  O   UNL A   1      33.533  37.197  28.638  1.00  0.00    -0.237 OA
ATOM     89  O   UNL A   1      32.261  35.127  28.230  1.00  0.00    -0.744 OA
ENDBRANCH  85  86
ENDBRANCH  57  80
BRANCH  69  90
ATOM     90  C   UNL A   1      39.713  34.200  37.143  1.00  0.00    -0.014 A 
ATOM     91  C   UNL A   1      40.275  35.485  37.040  1.00  0.00     0.010 A 
ATOM     92  C   UNL A   1      39.009  33.852  38.311  1.00  0.00     0.010 A 
ATOM     93  C   UNL A   1      40.162  36.392  38.098  1.00  0.00     0.020 A 
ATOM     94  C   UNL A   1      38.866  34.767  39.357  1.00  0.00     0.020 A 
ATOM     95  C   UNL A   1      39.456  36.026  39.249  1.00  0.00     0.054 A 
BRANCH  95  96
ATOM     96  S   UNL A   1      39.285  37.238  40.587  1.00  0.00     0.124 S 
ATOM     97  O   UNL A   1      38.748  36.420  41.672  1.00  0.00    -0.237 OA
ATOM     98  O   UNL A   1      40.658  37.706  40.773  1.00  0.00    -0.237 OA
ATOM     99  O   UNL A   1      38.364  38.231  40.042  1.00  0.00    -0.744 OA
ENDBRANCH  95  96
ENDBRANCH  69  90
ENDBRANCH  43  44
ENDBRANCH  35  38
ENDBRANCH  33  34
ENDBRANCH  32  33
ENDBRANCH  31  32
ENDBRANCH   1  31
TORSDOF 19
ENDMDL
MODEL 2
REMARK VINA RESULT:     -11.7      0.803      7.856
REMARK SMILES C[C@H](C(=O)NCCCCCCNC(=O)c1ccc(-c2c3nc(c(-c4ccc(S(=O)(=O)[O-])cc4)c4ccc([nH]4)c(-c4ccc(S(=O)(=O)[O-])cc4)c4nc(c(-c5ccc(S(=O)(=O)[O-])cc5)c5ccc2[nH]5)C=C4)C=C3)cc1)c1ccc2c3cc(Cl)ccc3n(C(=O)c3cocn3)c2c1
REMARK SMILES IDX 8 1 7 2 6 3 5 4 3 5 4 6 2 8 1 9 75 10 76 11 95 12 77 13
REMARK SMILES IDX 94 14 78 15 86 16 79 17 85 18 80 19 84 20 81 21 83 22 82 23
REMARK SMILES IDX 87 24 88 25 89 26 90 27 93 28 91 29 92 30 9 31 10 32 11 33
REMARK SMILES IDX 12 34 13 35 14 37 15 38 16 39 74 40 17 41 73 42 18 43 19 44
REMARK SMILES IDX 20 45 67 46 21 47 72 48 66 49 68 50 22 51 71 52 65 53 64 54
REMARK SMILES IDX 23 56 53 57 34 58 52 59 35 60 38 61 51 62 69 63 36 64 37 65
REMARK SMILES IDX 50 67 70 68 39 69 24 70 25 71 33 72 26 73 32 74 27 75 28 76
REMARK SMILES IDX 29 77 30 78 31 79 54 80 55 81 63 82 56 83 62 84 57 85 58 86
REMARK SMILES IDX 59 87 60 88 61 89 40 90 41 91 49 92 42 93 48 94 43 95 44 96
REMARK SMILES IDX 45 97 46 98 47 99
REMARK H PARENT 5 7 12 36 68 55 38 66
REMARK Flexibility Score: inf
ROOT
ATOM      1  C   UNL A   1      37.297  21.987  24.803  1.00  0.00     0.002 C 
ENDROOT
BRANCH   1   2
ATOM      2  C   UNL A   1      36.163  21.330  25.598  1.00  0.00     0.021 C 
BRANCH   2   3
ATOM      3  C   UNL A   1      35.407  20.251  24.817  1.00  0.00     0.116 C 
BRANCH   3   4
ATOM      4  N   UNL A   1      34.009  20.215  25.205  1.00  0.00    -0.356 N 
ATOM      5  C   UNL A   1      32.977  21.049  24.881  1.00  0.00     0.227 C 
ATOM      6  O   UNL A   1      31.895  20.852  25.442  1.00  0.00    -0.274 OA
ATOM      7  H   UNL A   1      33.765  19.469  25.799  1.00  0.00     0.163 HD
BRANCH   5   8
ATOM      8  C   UNL A   1      33.170  22.177  23.854  1.00  0.00     0.105 C 
ATOM      9  C   UNL A   1      32.085  22.052  22.775  1.00  0.00     0.023 C 
BRANCH   8  10
ATOM     10  C   UNL A   1      33.203  23.539  24.540  1.00  0.00    -0.034 A 
ATOM     11  C   UNL A   1      34.019  23.817  25.638  1.00  0.00     0.005 A 
ATOM     12  C   UNL A   1      32.428  24.579  24.003  1.00  0.00     0.032 A 
ATOM     13  C   UNL A   1      34.125  25.117  26.152  1.00  0.00     0.011 A 
ATOM     14  C   UNL A   1      32.557  25.893  24.496  1.00  0.00     0.058 A 
ATOM     15  C   UNL A   1      33.423  26.177  25.542  1.00  0.00     0.008 A 
ATOM     16  N   UNL A   1      31.977  27.090  24.055  1.00  0.00    -0.274 N 
ATOM     17  C   UNL A   1      33.370  27.580  25.767  1.00  0.00     0.009 A 
ATOM     18  C   UNL A   1      32.437  28.129  24.876  1.00  0.00     0.057 A 
ATOM     19  C   UNL A   1      34.031  28.418  26.691  1.00  0.00     0.031 A 
ATOM     20  C   UNL A   1      32.070  29.487  24.970  1.00  0.00     0.029 A 
ATOM     21  C   UNL A   1      33.696  29.768  26.752  1.00  0.00     0.041 A 
ATOM     22  C   UNL A   1      32.717  30.292  25.919  1.00  0.00     0.023 A 
ATOM     23  Cl  UNL A   1      34.485  30.781  27.899  1.00  0.00    -0.084 Cl
BRANCH  16  24
ATOM     24  C   UNL A   1      31.075  27.163  22.960  1.00  0.00     0.284 C 
ATOM     25  O   UNL A   1      31.477  26.650  21.912  1.00  0.00    -0.266 OA
BRANCH  24  26
ATOM     26  C   UNL A   1      29.792  27.860  22.966  1.00  0.00     0.167 A 
ATOM     27  C   UNL A   1      29.437  29.064  22.396  1.00  0.00     0.231 A 
ATOM     28  N   UNL A   1      28.643  27.268  23.475  1.00  0.00    -0.211 NA
ATOM     29  O   UNL A   1      28.096  29.247  22.568  1.00  0.00    -0.451 OA
ATOM     30  C   UNL A   1      27.690  28.132  23.231  1.00  0.00     0.308 A 
ENDBRANCH  24  26
ENDBRANCH  16  24
ENDBRANCH   8  10
ENDBRANCH   5   8
ENDBRANCH   3   4
ENDBRANCH   2   3
ENDBRANCH   1   2
BRANCH   1  31
ATOM     31  C   UNL A   1      37.454  23.495  25.028  1.00  0.00     0.002 C 
BRANCH  31  32
ATOM     32  C   UNL A   1      37.693  23.914  26.482  1.00  0.00     0.021 C 
BRANCH  32  33
ATOM     33  C   UNL A   1      39.134  23.758  26.958  1.00  0.00     0.116 C 
BRANCH  33  34
ATOM     34  N   UNL A   1      40.080  24.338  26.015  1.00  0.00    -0.352 N 
ATOM     35  C   UNL A   1      40.736  25.543  26.067  1.00  0.00     0.251 C 
ATOM     36  H   UNL A   1      40.277  23.785  25.224  1.00  0.00     0.163 HD
ATOM     37  O   UNL A   1      41.309  25.974  25.070  1.00  0.00    -0.269 OA
BRANCH  35  38
ATOM     38  C   UNL A   1      40.745  26.321  27.323  1.00  0.00     0.039 A 
ATOM     39  C   UNL A   1      41.712  27.312  27.507  1.00  0.00     0.014 A 
ATOM     40  C   UNL A   1      39.805  26.063  28.324  1.00  0.00     0.014 A 
ATOM     41  C   UNL A   1      41.697  28.083  28.672  1.00  0.00     0.010 A 
ATOM     42  C   UNL A   1      39.744  26.884  29.447  1.00  0.00     0.010 A 
ATOM     43  C   UNL A   1      40.692  27.902  29.636  1.00  0.00    -0.014 A 
BRANCH  43  44
ATOM     44  C   UNL A   1      40.603  28.773  30.839  1.00  0.00     0.031 A 
ATOM     45  C   UNL A   1      39.582  29.879  30.906  1.00  0.00     0.074 A 
ATOM     46  C   UNL A   1      41.490  28.615  31.841  1.00  0.00     0.049 A 
ATOM     47  N   UNL A   1      39.399  30.776  31.841  1.00  0.00    -0.248 NA
ATOM     48  C   UNL A   1      38.665  30.014  29.760  1.00  0.00     0.031 C 
ATOM     49  C   UNL A   1      42.561  27.615  31.877  1.00  0.00     0.029 A 
ATOM     50  N   UNL A   1      41.639  29.297  33.024  1.00  0.00    -0.354 N 
ATOM     51  C   UNL A   1      38.365  31.588  31.392  1.00  0.00     0.074 A 
ATOM     52  C   UNL A   1      37.992  31.112  30.078  1.00  0.00     0.031 C 
ATOM     53  C   UNL A   1      43.235  27.731  33.032  1.00  0.00     0.029 A 
ATOM     54  C   UNL A   1      42.679  28.839  33.801  1.00  0.00     0.049 A 
ATOM     55  H   UNL A   1      41.057  30.045  33.290  1.00  0.00     0.167 HD
ATOM     56  C   UNL A   1      37.762  32.625  32.025  1.00  0.00     0.031 A 
ATOM     57  C   UNL A   1      43.138  29.266  34.993  1.00  0.00     0.031 A 
ATOM     58  C   UNL A   1      38.122  33.084  33.341  1.00  0.00     0.049 A 
ATOM     59  C   UNL A   1      42.454  30.422  35.672  1.00  0.00     0.074 A 
ATOM     60  C   UNL A   1      37.525  34.082  34.093  1.00  0.00     0.029 A 
ATOM     61  N   UNL A   1      39.166  32.582  34.100  1.00  0.00    -0.354 N 
ATOM     62  N   UNL A   1      41.426  31.127  35.264  1.00  0.00    -0.248 NA
ATOM     63  C   UNL A   1      42.983  30.830  36.981  1.00  0.00     0.031 C 
ATOM     64  C   UNL A   1      38.247  34.223  35.283  1.00  0.00     0.029 A 
ATOM     65  C   UNL A   1      39.248  33.266  35.302  1.00  0.00     0.049 A 
ATOM     66  H   UNL A   1      39.761  31.846  33.827  1.00  0.00     0.167 HD
ATOM     67  C   UNL A   1      41.167  32.039  36.280  1.00  0.00     0.074 A 
ATOM     68  C   UNL A   1      42.133  31.786  37.328  1.00  0.00     0.031 C 
ATOM     69  C   UNL A   1      40.211  33.000  36.341  1.00  0.00     0.031 A 
BRANCH  56  70
ATOM     70  C   UNL A   1      36.646  33.338  31.305  1.00  0.00    -0.014 A 
ATOM     71  C   UNL A   1      36.917  34.280  30.297  1.00  0.00     0.010 A 
ATOM     72  C   UNL A   1      35.307  33.009  31.591  1.00  0.00     0.010 A 
ATOM     73  C   UNL A   1      35.871  34.904  29.611  1.00  0.00     0.020 A 
ATOM     74  C   UNL A   1      34.259  33.609  30.886  1.00  0.00     0.020 A 
ATOM     75  C   UNL A   1      34.549  34.563  29.910  1.00  0.00     0.054 A 
BRANCH  75  76
ATOM     76  S   UNL A   1      33.214  35.359  28.973  1.00  0.00     0.124 S 
ATOM     77  O   UNL A   1      32.435  35.989  30.037  1.00  0.00    -0.237 OA
ATOM     78  O   UNL A   1      33.942  36.277  28.100  1.00  0.00    -0.237 OA
ATOM     79  O   UNL A   1      32.554  34.248  28.294  1.00  0.00    -0.744 OA
ENDBRANCH  75  76
ENDBRANCH  56  70
BRANCH  57  80
ATOM     80  C   UNL A   1      44.305  28.592  35.629  1.00  0.00    -0.014 A 
ATOM     81  C   UNL A   1      44.122  27.448  36.428  1.00  0.00     0.010 A 
ATOM     82  C   UNL A   1      45.606  29.096  35.447  1.00  0.00     0.010 A 
ATOM     83  C   UNL A   1      45.213  26.841  37.057  1.00  0.00     0.020 A 
ATOM     84  C   UNL A   1      46.703  28.471  36.047  1.00  0.00     0.020 A 
ATOM     85  C   UNL A   1      46.497  27.356  36.862  1.00  0.00     0.054 A 
BRANCH  85  86
ATOM     86  S   UNL A   1      47.901  26.532  37.663  1.00  0.00     0.124 S 
ATOM     87  O   UNL A   1      47.411  26.355  39.026  1.00  0.00    -0.237 OA
ATOM     88  O   UNL A   1      48.040  25.310  36.875  1.00  0.00    -0.237 OA
ATOM     89  O   UNL A   1      48.992  27.492  37.510  1.00  0.00    -0.744 OA
ENDBRANCH  85  86
ENDBRANCH  57  80
BRANCH  69  90
ATOM     90  C   UNL A   1      40.130  33.823  37.599  1.00  0.00    -0.014 A 
ATOM     91  C   UNL A   1      39.338  33.422  38.689  1.00  0.00     0.010 A 
ATOM     92  C   UNL A   1      40.907  34.992  37.711  1.00  0.00     0.010 A 
ATOM     93  C   UNL A   1      39.299  34.191  39.855  1.00  0.00     0.020 A 
ATOM     94  C   UNL A   1      40.896  35.746  38.887  1.00  0.00     0.020 A 
ATOM     95  C   UNL A   1      40.081  35.348  39.947  1.00  0.00     0.054 A 
BRANCH  95  96
ATOM     96  S   UNL A   1      40.048  36.302  41.488  1.00  0.00     0.124 S 
ATOM     97  O   UNL A   1      38.623  36.588  41.640  1.00  0.00    -0.237 OA
ATOM     98  O   UNL A   1      40.608  35.363  42.458  1.00  0.00    -0.237 OA
ATOM     99  O   UNL A   1      40.887  37.462  41.197  1.00  0.00    -0.744 OA
ENDBRANCH  95  96
ENDBRANCH  69  90
ENDBRANCH  43  44
ENDBRANCH  35  38
ENDBRANCH  33  34
ENDBRANCH  32  33
ENDBRANCH  31  32
ENDBRANCH   1  31
TORSDOF 19
ENDMDL
MODEL 3
REMARK VINA RESULT:     -10.4      7.062     12.074
REMARK SMILES C[C@H](C(=O)NCCCCCCNC(=O)c1ccc(-c2c3nc(c(-c4ccc(S(=O)(=O)[O-])cc4)c4ccc([nH]4)c(-c4ccc(S(=O)(=O)[O-])cc4)c4nc(c(-c5ccc(S(=O)(=O)[O-])cc5)c5ccc2[nH]5)C=C4)C=C3)cc1)c1ccc2c3cc(Cl)ccc3n(C(=O)c3cocn3)c2c1
REMARK SMILES IDX 8 1 7 2 6 3 5 4 3 5 4 6 2 8 1 9 75 10 76 11 95 12 77 13
REMARK SMILES IDX 94 14 78 15 86 16 79 17 85 18 80 19 84 20 81 21 83 22 82 23
REMARK SMILES IDX 87 24 88 25 89 26 90 27 93 28 91 29 92 30 9 31 10 32 11 33
REMARK SMILES IDX 12 34 13 35 14 37 15 38 16 39 74 40 17 41 73 42 18 43 19 44
REMARK SMILES IDX 20 45 67 46 21 47 72 48 66 49 68 50 22 51 71 52 65 53 64 54
REMARK SMILES IDX 23 56 53 57 34 58 52 59 35 60 38 61 51 62 69 63 36 64 37 65
REMARK SMILES IDX 50 67 70 68 39 69 24 70 25 71 33 72 26 73 32 74 27 75 28 76
REMARK SMILES IDX 29 77 30 78 31 79 54 80 55 81 63 82 56 83 62 84 57 85 58 86
REMARK SMILES IDX 59 87 60 88 61 89 40 90 41 91 49 92 42 93 48 94 43 95 44 96
REMARK SMILES IDX 45 97 46 98 47 99
REMARK H PARENT 5 7 12 36 68 55 38 66
REMARK Flexibility Score: inf
ROOT
ATOM      1  C   UNL A   1      47.839  38.373  25.848  1.00  0.00     0.002 C 
ENDROOT
BRANCH   1   2
ATOM      2  C   UNL A   1      48.284  36.936  25.548  1.00  0.00     0.021 C 
BRANCH   2   3
ATOM      3  C   UNL A   1      47.314  35.870  26.066  1.00  0.00     0.116 C 
BRANCH   3   4
ATOM      4  N   UNL A   1      46.514  35.329  24.983  1.00  0.00    -0.356 N 
ATOM      5  C   UNL A   1      45.468  34.451  25.006  1.00  0.00     0.227 C 
ATOM      6  O   UNL A   1      45.030  34.067  23.917  1.00  0.00    -0.274 OA
ATOM      7  H   UNL A   1      46.767  35.645  24.086  1.00  0.00     0.163 HD
BRANCH   5   8
ATOM      8  C   UNL A   1      44.869  33.976  26.340  1.00  0.00     0.105 C 
ATOM      9  C   UNL A   1      43.339  33.981  26.222  1.00  0.00     0.023 C 
BRANCH   8  10
ATOM     10  C   UNL A   1      45.452  32.626  26.748  1.00  0.00    -0.034 A 
ATOM     11  C   UNL A   1      46.805  32.437  27.031  1.00  0.00     0.005 A 
ATOM     12  C   UNL A   1      44.576  31.540  26.912  1.00  0.00     0.032 A 
ATOM     13  C   UNL A   1      47.277  31.218  27.537  1.00  0.00     0.011 A 
ATOM     14  C   UNL A   1      45.041  30.325  27.452  1.00  0.00     0.058 A 
ATOM     15  C   UNL A   1      46.375  30.164  27.797  1.00  0.00     0.008 A 
ATOM     16  N   UNL A   1      44.345  29.159  27.800  1.00  0.00    -0.274 N 
ATOM     17  C   UNL A   1      46.515  28.866  28.359  1.00  0.00     0.009 A 
ATOM     18  C   UNL A   1      45.264  28.234  28.311  1.00  0.00     0.057 A 
ATOM     19  C   UNL A   1      47.629  28.173  28.878  1.00  0.00     0.031 A 
ATOM     20  C   UNL A   1      45.134  26.877  28.671  1.00  0.00     0.029 A 
ATOM     21  C   UNL A   1      47.487  26.845  29.272  1.00  0.00     0.041 A 
ATOM     22  C   UNL A   1      46.264  26.199  29.152  1.00  0.00     0.023 A 
ATOM     23  Cl  UNL A   1      48.855  25.994  29.878  1.00  0.00    -0.084 Cl
BRANCH  16  24
ATOM     24  C   UNL A   1      42.943  29.007  27.626  1.00  0.00     0.284 C 
ATOM     25  O   UNL A   1      42.241  29.689  28.379  1.00  0.00    -0.266 OA
BRANCH  24  26
ATOM     26  C   UNL A   1      42.301  28.065  26.714  1.00  0.00     0.167 A 
ATOM     27  C   UNL A   1      42.424  27.933  25.347  1.00  0.00     0.231 A 
ATOM     28  N   UNL A   1      41.528  27.009  27.182  1.00  0.00    -0.211 NA
ATOM     29  O   UNL A   1      41.718  26.835  24.952  1.00  0.00    -0.451 OA
ATOM     30  C   UNL A   1      41.201  26.338  26.105  1.00  0.00     0.308 A 
ENDBRANCH  24  26
ENDBRANCH  16  24
ENDBRANCH   8  10
ENDBRANCH   5   8
ENDBRANCH   3   4
ENDBRANCH   2   3
ENDBRANCH   1   2
BRANCH   1  31
ATOM     31  C   UNL A   1      47.135  39.086  24.689  1.00  0.00     0.002 C 
BRANCH  31  32
ATOM     32  C   UNL A   1      47.032  40.608  24.829  1.00  0.00     0.021 C 
BRANCH  32  33
ATOM     33  C   UNL A   1      46.902  41.105  26.266  1.00  0.00     0.116 C 
BRANCH  33  34
ATOM     34  N   UNL A   1      45.593  41.691  26.518  1.00  0.00    -0.352 N 
ATOM     35  C   UNL A   1      44.451  41.100  26.998  1.00  0.00     0.251 C 
ATOM     36  H   UNL A   1      45.516  42.652  26.315  1.00  0.00     0.163 HD
ATOM     37  O   UNL A   1      43.376  41.688  26.920  1.00  0.00    -0.269 OA
BRANCH  35  38
ATOM     38  C   UNL A   1      44.518  39.753  27.603  1.00  0.00     0.039 A 
ATOM     39  C   UNL A   1      44.798  39.627  28.965  1.00  0.00     0.014 A 
ATOM     40  C   UNL A   1      44.316  38.614  26.820  1.00  0.00     0.014 A 
ATOM     41  C   UNL A   1      44.816  38.360  29.553  1.00  0.00     0.010 A 
ATOM     42  C   UNL A   1      44.258  37.359  27.422  1.00  0.00     0.010 A 
ATOM     43  C   UNL A   1      44.511  37.217  28.795  1.00  0.00    -0.014 A 
BRANCH  43  44
ATOM     44  C   UNL A   1      44.433  35.869  29.419  1.00  0.00     0.031 A 
ATOM     45  C   UNL A   1      45.691  35.108  29.748  1.00  0.00     0.074 A 
ATOM     46  C   UNL A   1      43.229  35.299  29.623  1.00  0.00     0.049 A 
ATOM     47  N   UNL A   1      45.819  33.899  30.233  1.00  0.00    -0.248 NA
ATOM     48  C   UNL A   1      46.973  35.779  29.469  1.00  0.00     0.031 C 
ATOM     49  C   UNL A   1      41.936  35.909  29.301  1.00  0.00     0.029 A 
ATOM     50  N   UNL A   1      42.893  34.074  30.145  1.00  0.00    -0.354 N 
ATOM     51  C   UNL A   1      47.187  33.659  30.301  1.00  0.00     0.074 A 
ATOM     52  C   UNL A   1      47.848  34.826  29.760  1.00  0.00     0.031 C 
ATOM     53  C   UNL A   1      40.951  35.070  29.657  1.00  0.00     0.029 A 
ATOM     54  C   UNL A   1      41.536  33.845  30.191  1.00  0.00     0.049 A 
ATOM     55  H   UNL A   1      43.560  33.421  30.456  1.00  0.00     0.167 HD
ATOM     56  C   UNL A   1      47.836  32.574  30.791  1.00  0.00     0.031 A 
ATOM     57  C   UNL A   1      40.841  32.769  30.608  1.00  0.00     0.031 A 
ATOM     58  C   UNL A   1      47.175  31.423  31.347  1.00  0.00     0.049 A 
ATOM     59  C   UNL A   1      41.587  31.576  31.143  1.00  0.00     0.074 A 
ATOM     60  C   UNL A   1      47.747  30.304  31.930  1.00  0.00     0.029 A 
ATOM     61  N   UNL A   1      45.803  31.239  31.393  1.00  0.00    -0.354 N 
ATOM     62  N   UNL A   1      42.881  31.401  31.270  1.00  0.00    -0.248 NA
ATOM     63  C   UNL A   1      40.777  30.439  31.605  1.00  0.00     0.031 C 
ATOM     64  C   UNL A   1      46.721  29.418  32.273  1.00  0.00     0.029 A 
ATOM     65  C   UNL A   1      45.509  30.014  31.969  1.00  0.00     0.049 A 
ATOM     66  H   UNL A   1      45.134  31.884  31.065  1.00  0.00     0.167 HD
ATOM     67  C   UNL A   1      43.037  30.150  31.856  1.00  0.00     0.074 A 
ATOM     68  C   UNL A   1      41.707  29.619  32.073  1.00  0.00     0.031 C 
ATOM     69  C   UNL A   1      44.180  29.499  32.186  1.00  0.00     0.031 A 
BRANCH  56  70
ATOM     70  C   UNL A   1      49.343  32.577  30.750  1.00  0.00    -0.014 A 
ATOM     71  C   UNL A   1      50.098  33.027  31.849  1.00  0.00     0.010 A 
ATOM     72  C   UNL A   1      50.013  32.057  29.628  1.00  0.00     0.010 A 
ATOM     73  C   UNL A   1      51.495  32.986  31.811  1.00  0.00     0.020 A 
ATOM     74  C   UNL A   1      51.409  31.986  29.599  1.00  0.00     0.020 A 
ATOM     75  C   UNL A   1      52.141  32.465  30.687  1.00  0.00     0.054 A 
BRANCH  75  76
ATOM     76  S   UNL A   1      53.954  32.387  30.687  1.00  0.00     0.124 S 
ATOM     77  O   UNL A   1      54.268  32.732  29.302  1.00  0.00    -0.237 OA
ATOM     78  O   UNL A   1      54.317  33.392  31.682  1.00  0.00    -0.237 OA
ATOM     79  O   UNL A   1      54.243  31.006  31.064  1.00  0.00    -0.744 OA
ENDBRANCH  75  76
ENDBRANCH  56  70
BRANCH  57  80
ATOM     80  C   UNL A   1      39.353  32.770  30.545  1.00  0.00    -0.014 A 
ATOM     81  C   UNL A   1      38.591  33.225  31.637  1.00  0.00     0.010 A 
ATOM     82  C   UNL A   1      38.688  32.308  29.395  1.00  0.00     0.010 A 
ATOM     83  C   UNL A   1      37.194  33.187  31.592  1.00  0.00     0.020 A 
ATOM     84  C   UNL A   1      37.291  32.301  29.333  1.00  0.00     0.020 A 
ATOM     85  C   UNL A   1      36.553  32.726  30.439  1.00  0.00     0.054 A 
BRANCH  85  86
ATOM     86  S   UNL A   1      34.739  32.716  30.392  1.00  0.00     0.124 S 
ATOM     87  O   UNL A   1      34.435  34.115  30.109  1.00  0.00    -0.237 OA
ATOM     88  O   UNL A   1      34.459  31.774  29.311  1.00  0.00    -0.237 OA
ATOM     89  O   UNL A   1      34.365  32.251  31.726  1.00  0.00    -0.744 OA
ENDBRANCH  85  86
ENDBRANCH  57  80
BRANCH  69  90
ATOM     90  C   UNL A   1      44.050  28.159  32.860  1.00  0.00    -0.014 A 
ATOM     91  C   UNL A   1      43.823  28.053  34.244  1.00  0.00     0.010 A 
ATOM     92  C   UNL A   1      44.097  26.987  32.083  1.00  0.00     0.010 A 
ATOM     93  C   UNL A   1      43.680  26.797  34.842  1.00  0.00     0.020 A 
ATOM     94  C   UNL A   1      43.922  25.733  32.671  1.00  0.00     0.020 A 
ATOM     95  C   UNL A   1      43.729  25.645  34.050  1.00  0.00     0.054 A 
BRANCH  95  96
ATOM     96  S   UNL A   1      43.494  24.031  34.843  1.00  0.00     0.124 S 
ATOM     97  O   UNL A   1      44.380  24.129  36.001  1.00  0.00    -0.237 OA
ATOM     98  O   UNL A   1      42.064  24.028  35.144  1.00  0.00    -0.237 OA
ATOM     99  O   UNL A   1      43.912  23.076  33.820  1.00  0.00    -0.744 OA
ENDBRANCH  95  96
ENDBRANCH  69  90
ENDBRANCH  43  44
ENDBRANCH  35  38
ENDBRANCH  33  34
ENDBRANCH  32  33
ENDBRANCH  31  32
ENDBRANCH   1  31
TORSDOF 19
ENDMDL
