MODEL 1
REMARK VINA RESULT:     -11.4      0.000      0.000
REMARK SMILES CC(C)(C)OC(=O)N1C[C@H](Cc2ccccc2)[C@H](C(=O)NCCCCCCNC(=O)c2ccc(-c3c4nc(c(-c5ccc(S(=O)(=O)[O-])cc5)c5ccc([nH]5)c(-c5ccc(S(=O)(=O)[O-])cc5)c5nc(c(-c6ccc(S(=O)(=O)[O-])cc6)c6ccc3[nH]6)C=C5)C=C4)cc2)C1
REMARK SMILES IDX 24 1 23 2 22 3 21 4 19 5 20 6 18 8 8 9 9 10 91 11 10 12 6 13
REMARK SMILES IDX 7 14 5 15 2 16 1 17 3 18 4 19 11 20 12 21 13 22 17 23 14 24
REMARK SMILES IDX 16 25 15 26 25 27 26 28 27 29 28 30 29 31 30 33 31 34 32 35
REMARK SMILES IDX 90 36 33 37 89 38 34 39 35 40 36 41 83 42 37 43 88 44 82 45
REMARK SMILES IDX 84 46 38 47 87 48 81 49 80 50 39 52 69 53 50 54 68 55 51 56
REMARK SMILES IDX 54 57 67 58 85 59 52 60 53 61 66 63 86 64 55 65 40 66 41 67
REMARK SMILES IDX 49 68 42 69 48 70 43 71 44 72 45 73 46 74 47 75 70 76 71 77
REMARK SMILES IDX 79 78 72 79 78 80 73 81 74 82 75 83 76 84 77 85 56 86 57 87
REMARK SMILES IDX 65 88 58 89 64 90 59 91 60 92 61 93 62 94 63 95
REMARK H PARENT 21 7 28 32 84 51 54 62
REMARK Flexibility Score: inf
ROOT
ATOM      1  C   UNL A   1      33.736  28.985  26.993  1.00  0.00     0.002 C 
ENDROOT
BRANCH   1   2
ATOM      2  C   UNL A   1      32.885  29.815  26.034  1.00  0.00     0.021 C 
BRANCH   2   3
ATOM      3  C   UNL A   1      31.658  29.089  25.462  1.00  0.00     0.116 C 
BRANCH   3   4
ATOM      4  N   UNL A   1      31.350  29.577  24.126  1.00  0.00    -0.356 N 
ATOM      5  C   UNL A   1      30.835  28.994  23.013  1.00  0.00     0.225 C 
ATOM      6  O   UNL A   1      30.798  29.700  21.997  1.00  0.00    -0.275 OA
ATOM      7  H   UNL A   1      31.557  30.531  24.003  1.00  0.00     0.163 HD
BRANCH   5   8
ATOM      8  C   UNL A   1      30.307  27.560  22.933  1.00  0.00     0.103 C 
ATOM      9  N   UNL A   1      30.175  25.812  24.496  1.00  0.00    -0.307 N 
ATOM     10  C   UNL A   1      30.754  25.211  23.314  1.00  0.00     0.128 C 
ATOM     11  C   UNL A   1      29.598  27.102  24.205  1.00  0.00     0.137 C 
ATOM     12  C   UNL A   1      31.257  26.400  22.493  1.00  0.00     0.027 C 
BRANCH   9  13
ATOM     13  C   UNL A   1      30.098  25.259  25.747  1.00  0.00     0.410 C 
ATOM     14  O   UNL A   1      29.126  25.410  26.475  1.00  0.00    -0.224 OA
BRANCH  13  15
ATOM     15  O   UNL A   1      31.240  24.613  26.081  1.00  0.00    -0.444 OA
BRANCH  15  16
ATOM     16  C   UNL A   1      31.266  23.177  26.307  1.00  0.00     0.106 C 
ATOM     17  C   UNL A   1      32.467  22.943  27.236  1.00  0.00     0.056 C 
ATOM     18  C   UNL A   1      31.513  22.485  24.966  1.00  0.00     0.056 C 
ATOM     19  C   UNL A   1      30.018  22.623  27.009  1.00  0.00     0.056 C 
ENDBRANCH  15  16
ENDBRANCH  13  15
ENDBRANCH   9  13
BRANCH  12  20
ATOM     20  C   UNL A   1      32.736  26.662  22.753  1.00  0.00     0.041 C 
BRANCH  20  21
ATOM     21  C   UNL A   1      33.543  25.651  23.525  1.00  0.00    -0.048 A 
ATOM     22  C   UNL A   1      33.928  25.945  24.845  1.00  0.00     0.004 A 
ATOM     23  C   UNL A   1      34.025  24.489  22.918  1.00  0.00     0.004 A 
ATOM     24  C   UNL A   1      34.803  25.109  25.535  1.00  0.00     0.000 A 
ATOM     25  C   UNL A   1      34.902  23.653  23.612  1.00  0.00     0.000 A 
ATOM     26  C   UNL A   1      35.296  23.966  24.913  1.00  0.00     0.000 A 
ENDBRANCH  20  21
ENDBRANCH  12  20
ENDBRANCH   5   8
ENDBRANCH   3   4
ENDBRANCH   2   3
ENDBRANCH   1   2
BRANCH   1  27
ATOM     27  C   UNL A   1      35.050  29.645  27.408  1.00  0.00     0.002 C 
BRANCH  27  28
ATOM     28  C   UNL A   1      34.925  31.093  27.896  1.00  0.00     0.021 C 
BRANCH  28  29
ATOM     29  C   UNL A   1      36.050  31.557  28.818  1.00  0.00     0.116 C 
BRANCH  29  30
ATOM     30  N   UNL A   1      35.945  30.956  30.137  1.00  0.00    -0.352 N 
ATOM     31  C   UNL A   1      36.748  30.020  30.735  1.00  0.00     0.251 C 
ATOM     32  H   UNL A   1      35.185  31.266  30.681  1.00  0.00     0.163 HD
ATOM     33  O   UNL A   1      36.356  29.436  31.741  1.00  0.00    -0.269 OA
BRANCH  31  34
ATOM     34  C   UNL A   1      38.079  29.714  30.169  1.00  0.00     0.039 A 
ATOM     35  C   UNL A   1      39.127  29.414  31.041  1.00  0.00     0.014 A 
ATOM     36  C   UNL A   1      38.305  29.762  28.790  1.00  0.00     0.014 A 
ATOM     37  C   UNL A   1      40.391  29.128  30.525  1.00  0.00     0.010 A 
ATOM     38  C   UNL A   1      39.547  29.395  28.274  1.00  0.00     0.010 A 
ATOM     39  C   UNL A   1      40.608  29.092  29.137  1.00  0.00    -0.014 A 
BRANCH  39  40
ATOM     40  C   UNL A   1      41.945  28.737  28.595  1.00  0.00     0.031 A 
ATOM     41  C   UNL A   1      43.033  29.772  28.491  1.00  0.00     0.074 A 
ATOM     42  C   UNL A   1      42.171  27.476  28.176  1.00  0.00     0.049 A 
ATOM     43  N   UNL A   1      44.275  29.624  28.105  1.00  0.00    -0.248 NA
ATOM     44  C   UNL A   1      42.679  31.158  28.842  1.00  0.00     0.031 C 
ATOM     45  C   UNL A   1      41.178  26.399  28.165  1.00  0.00     0.029 A 
ATOM     46  N   UNL A   1      43.309  26.881  27.691  1.00  0.00    -0.354 N 
ATOM     47  C   UNL A   1      44.844  30.891  28.157  1.00  0.00     0.074 A 
ATOM     48  C   UNL A   1      43.798  31.806  28.555  1.00  0.00     0.031 C 
ATOM     49  C   UNL A   1      41.761  25.267  27.743  1.00  0.00     0.029 A 
ATOM     50  C   UNL A   1      43.156  25.543  27.417  1.00  0.00     0.049 A 
ATOM     51  H   UNL A   1      44.154  27.367  27.552  1.00  0.00     0.167 HD
ATOM     52  C   UNL A   1      46.126  31.257  27.915  1.00  0.00     0.031 A 
ATOM     53  C   UNL A   1      44.040  24.633  26.963  1.00  0.00     0.031 A 
ATOM     54  C   UNL A   1      47.163  30.338  27.520  1.00  0.00     0.049 A 
ATOM     55  C   UNL A   1      45.462  25.057  26.720  1.00  0.00     0.074 A 
ATOM     56  C   UNL A   1      48.506  30.596  27.315  1.00  0.00     0.029 A 
ATOM     57  N   UNL A   1      46.970  28.989  27.262  1.00  0.00    -0.354 N 
ATOM     58  N   UNL A   1      46.004  26.244  26.861  1.00  0.00    -0.248 NA
ATOM     59  C   UNL A   1      46.397  24.014  26.279  1.00  0.00     0.031 C 
ATOM     60  C   UNL A   1      49.114  29.417  26.868  1.00  0.00     0.029 A 
ATOM     61  C   UNL A   1      48.165  28.407  26.870  1.00  0.00     0.049 A 
ATOM     62  H   UNL A   1      46.111  28.515  27.345  1.00  0.00     0.167 HD
ATOM     63  C   UNL A   1      47.351  26.083  26.556  1.00  0.00     0.074 A 
ATOM     64  C   UNL A   1      47.542  24.683  26.239  1.00  0.00     0.031 C 
ATOM     65  C   UNL A   1      48.340  27.013  26.546  1.00  0.00     0.031 A 
BRANCH  52  66
ATOM     66  C   UNL A   1      46.475  32.719  28.055  1.00  0.00    -0.014 A 
ATOM     67  C   UNL A   1      46.908  33.255  29.281  1.00  0.00     0.010 A 
ATOM     68  C   UNL A   1      46.403  33.562  26.931  1.00  0.00     0.010 A 
ATOM     69  C   UNL A   1      47.212  34.616  29.393  1.00  0.00     0.020 A 
ATOM     70  C   UNL A   1      46.739  34.916  27.030  1.00  0.00     0.020 A 
ATOM     71  C   UNL A   1      47.122  35.438  28.267  1.00  0.00     0.054 A 
BRANCH  71  72
ATOM     72  S   UNL A   1      47.537  37.195  28.438  1.00  0.00     0.124 S 
ATOM     73  O   UNL A   1      46.282  37.839  28.052  1.00  0.00    -0.237 OA
ATOM     74  O   UNL A   1      47.890  37.306  29.849  1.00  0.00    -0.237 OA
ATOM     75  O   UNL A   1      48.645  37.384  27.504  1.00  0.00    -0.744 OA
ENDBRANCH  71  72
ENDBRANCH  52  66
BRANCH  53  76
ATOM     76  C   UNL A   1      43.602  23.227  26.739  1.00  0.00    -0.014 A 
ATOM     77  C   UNL A   1      43.905  22.558  25.541  1.00  0.00     0.010 A 
ATOM     78  C   UNL A   1      42.907  22.537  27.751  1.00  0.00     0.010 A 
ATOM     79  C   UNL A   1      43.511  21.230  25.351  1.00  0.00     0.020 A 
ATOM     80  C   UNL A   1      42.540  21.200  27.578  1.00  0.00     0.020 A 
ATOM     81  C   UNL A   1      42.836  20.558  26.375  1.00  0.00     0.054 A 
BRANCH  81  82
ATOM     82  S   UNL A   1      42.394  18.815  26.134  1.00  0.00     0.124 S 
ATOM     83  O   UNL A   1      42.664  18.248  27.450  1.00  0.00    -0.237 OA
ATOM     84  O   UNL A   1      40.985  18.897  25.756  1.00  0.00    -0.237 OA
ATOM     85  O   UNL A   1      43.292  18.379  25.067  1.00  0.00    -0.744 OA
ENDBRANCH  81  82
ENDBRANCH  53  76
BRANCH  65  86
ATOM     86  C   UNL A   1      49.732  26.537  26.219  1.00  0.00    -0.014 A 
ATOM     87  C   UNL A   1      50.274  26.671  24.928  1.00  0.00     0.010 A 
ATOM     88  C   UNL A   1      50.524  25.977  27.239  1.00  0.00     0.010 A 
ATOM     89  C   UNL A   1      51.565  26.212  24.653  1.00  0.00     0.020 A 
ATOM     90  C   UNL A   1      51.828  25.549  26.976  1.00  0.00     0.020 A 
ATOM     91  C   UNL A   1      52.333  25.650  25.680  1.00  0.00     0.054 A 
BRANCH  91  92
ATOM     92  S   UNL A   1      54.013  25.081  25.302  1.00  0.00     0.124 S 
ATOM     93  O   UNL A   1      54.707  25.329  26.562  1.00  0.00    -0.237 OA
ATOM     94  O   UNL A   1      53.804  23.674  24.965  1.00  0.00    -0.237 OA
ATOM     95  O   UNL A   1      54.424  25.929  24.186  1.00  0.00    -0.744 OA
ENDBRANCH  91  92
ENDBRANCH  65  86
ENDBRANCH  39  40
ENDBRANCH  31  34
ENDBRANCH  29  30
ENDBRANCH  28  29
ENDBRANCH  27  28
ENDBRANCH   1  27
TORSDOF 21
ENDMDL
MODEL 2
REMARK VINA RESULT:     -11.2      1.211      2.878
REMARK SMILES CC(C)(C)OC(=O)N1C[C@H](Cc2ccccc2)[C@H](C(=O)NCCCCCCNC(=O)c2ccc(-c3c4nc(c(-c5ccc(S(=O)(=O)[O-])cc5)c5ccc([nH]5)c(-c5ccc(S(=O)(=O)[O-])cc5)c5nc(c(-c6ccc(S(=O)(=O)[O-])cc6)c6ccc3[nH]6)C=C5)C=C4)cc2)C1
REMARK SMILES IDX 24 1 23 2 22 3 21 4 19 5 20 6 18 8 8 9 9 10 91 11 10 12 6 13
REMARK SMILES IDX 7 14 5 15 2 16 1 17 3 18 4 19 11 20 12 21 13 22 17 23 14 24
REMARK SMILES IDX 16 25 15 26 25 27 26 28 27 29 28 30 29 31 30 33 31 34 32 35
REMARK SMILES IDX 90 36 33 37 89 38 34 39 35 40 36 41 83 42 37 43 88 44 82 45
REMARK SMILES IDX 84 46 38 47 87 48 81 49 80 50 39 52 69 53 50 54 68 55 51 56
REMARK SMILES IDX 54 57 67 58 85 59 52 60 53 61 66 63 86 64 55 65 40 66 41 67
REMARK SMILES IDX 49 68 42 69 48 70 43 71 44 72 45 73 46 74 47 75 70 76 71 77
REMARK SMILES IDX 79 78 72 79 78 80 73 81 74 82 75 83 76 84 77 85 56 86 57 87
REMARK SMILES IDX 65 88 58 89 64 90 59 91 60 92 61 93 62 94 63 95
REMARK H PARENT 21 7 28 32 84 51 54 62
REMARK Flexibility Score: inf
ROOT
ATOM      1  C   UNL A   1      33.494  29.303  26.585  1.00  0.00     0.002 C 
ENDROOT
BRANCH   1   2
ATOM      2  C   UNL A   1      33.057  27.999  27.248  1.00  0.00     0.021 C 
BRANCH   2   3
ATOM      3  C   UNL A   1      32.604  26.898  26.277  1.00  0.00     0.116 C 
BRANCH   3   4
ATOM      4  N   UNL A   1      31.332  26.330  26.701  1.00  0.00    -0.356 N 
ATOM      5  C   UNL A   1      30.414  25.535  26.095  1.00  0.00     0.225 C 
ATOM      6  O   UNL A   1      29.375  25.319  26.733  1.00  0.00    -0.275 OA
ATOM      7  H   UNL A   1      31.085  26.575  27.622  1.00  0.00     0.163 HD
BRANCH   5   8
ATOM      8  C   UNL A   1      30.575  24.897  24.713  1.00  0.00     0.103 C 
ATOM      9  N   UNL A   1      32.422  24.598  23.293  1.00  0.00    -0.307 N 
ATOM     10  C   UNL A   1      31.388  25.152  22.446  1.00  0.00     0.128 C 
ATOM     11  C   UNL A   1      31.885  24.130  24.547  1.00  0.00     0.137 C 
ATOM     12  C   UNL A   1      30.384  25.762  23.426  1.00  0.00     0.027 C 
BRANCH   9  13
ATOM     13  C   UNL A   1      33.748  24.453  22.983  1.00  0.00     0.410 C 
ATOM     14  O   UNL A   1      34.393  25.330  22.422  1.00  0.00    -0.224 OA
BRANCH  13  15
ATOM     15  O   UNL A   1      34.207  23.219  23.300  1.00  0.00    -0.444 OA
BRANCH  15  16
ATOM     16  C   UNL A   1      35.310  23.030  24.226  1.00  0.00     0.106 C 
ATOM     17  C   UNL A   1      36.568  23.002  23.344  1.00  0.00     0.056 C 
ATOM     18  C   UNL A   1      35.135  21.674  24.911  1.00  0.00     0.056 C 
ATOM     19  C   UNL A   1      35.482  24.163  25.247  1.00  0.00     0.056 C 
ENDBRANCH  15  16
ENDBRANCH  13  15
ENDBRANCH   9  13
BRANCH  12  20
ATOM     20  C   UNL A   1      30.642  27.251  23.622  1.00  0.00     0.041 C 
BRANCH  20  21
ATOM     21  C   UNL A   1      29.559  28.242  23.283  1.00  0.00    -0.048 A 
ATOM     22  C   UNL A   1      29.896  29.598  23.121  1.00  0.00     0.004 A 
ATOM     23  C   UNL A   1      28.213  27.867  23.253  1.00  0.00     0.004 A 
ATOM     24  C   UNL A   1      28.905  30.564  22.962  1.00  0.00     0.000 A 
ATOM     25  C   UNL A   1      27.223  28.838  23.094  1.00  0.00     0.000 A 
ATOM     26  C   UNL A   1      27.567  30.183  22.957  1.00  0.00     0.000 A 
ENDBRANCH  20  21
ENDBRANCH  12  20
ENDBRANCH   5   8
ENDBRANCH   3   4
ENDBRANCH   2   3
ENDBRANCH   1   2
BRANCH   1  27
ATOM     27  C   UNL A   1      34.759  29.922  27.178  1.00  0.00     0.002 C 
BRANCH  27  28
ATOM     28  C   UNL A   1      34.520  31.071  28.164  1.00  0.00     0.021 C 
BRANCH  28  29
ATOM     29  C   UNL A   1      35.769  31.554  28.897  1.00  0.00     0.116 C 
BRANCH  29  30
ATOM     30  N   UNL A   1      35.744  31.181  30.302  1.00  0.00    -0.352 N 
ATOM     31  C   UNL A   1      36.623  30.408  31.013  1.00  0.00     0.251 C 
ATOM     32  H   UNL A   1      34.983  31.535  30.817  1.00  0.00     0.163 HD
ATOM     33  O   UNL A   1      36.300  29.981  32.119  1.00  0.00    -0.269 OA
BRANCH  31  34
ATOM     34  C   UNL A   1      37.952  30.087  30.452  1.00  0.00     0.039 A 
ATOM     35  C   UNL A   1      38.965  29.670  31.318  1.00  0.00     0.014 A 
ATOM     36  C   UNL A   1      38.213  30.235  29.086  1.00  0.00     0.014 A 
ATOM     37  C   UNL A   1      40.227  29.368  30.806  1.00  0.00     0.010 A 
ATOM     38  C   UNL A   1      39.449  29.853  28.567  1.00  0.00     0.010 A 
ATOM     39  C   UNL A   1      40.475  29.434  29.423  1.00  0.00    -0.014 A 
BRANCH  39  40
ATOM     40  C   UNL A   1      41.807  29.062  28.881  1.00  0.00     0.031 A 
ATOM     41  C   UNL A   1      42.919  30.074  28.811  1.00  0.00     0.074 A 
ATOM     42  C   UNL A   1      42.008  27.807  28.433  1.00  0.00     0.049 A 
ATOM     43  N   UNL A   1      44.160  29.907  28.430  1.00  0.00    -0.248 NA
ATOM     44  C   UNL A   1      42.594  31.458  29.194  1.00  0.00     0.031 C 
ATOM     45  C   UNL A   1      40.991  26.753  28.388  1.00  0.00     0.029 A 
ATOM     46  N   UNL A   1      43.135  27.199  27.940  1.00  0.00    -0.354 N 
ATOM     47  C   UNL A   1      44.758  31.160  28.517  1.00  0.00     0.074 A 
ATOM     48  C   UNL A   1      43.729  32.089  28.931  1.00  0.00     0.031 C 
ATOM     49  C   UNL A   1      41.551  25.620  27.942  1.00  0.00     0.029 A 
ATOM     50  C   UNL A   1      42.954  25.871  27.632  1.00  0.00     0.049 A 
ATOM     51  H   UNL A   1      43.992  27.668  27.819  1.00  0.00     0.167 HD
ATOM     52  C   UNL A   1      46.049  31.502  28.293  1.00  0.00     0.031 A 
ATOM     53  C   UNL A   1      43.821  24.953  27.161  1.00  0.00     0.031 A 
ATOM     54  C   UNL A   1      47.068  30.570  27.882  1.00  0.00     0.049 A 
ATOM     55  C   UNL A   1      45.254  25.351  26.938  1.00  0.00     0.074 A 
ATOM     56  C   UNL A   1      48.418  30.802  27.691  1.00  0.00     0.029 A 
ATOM     57  N   UNL A   1      46.846  29.233  27.588  1.00  0.00    -0.354 N 
ATOM     58  N   UNL A   1      45.821  26.521  27.113  1.00  0.00    -0.248 NA
ATOM     59  C   UNL A   1      46.168  24.298  26.477  1.00  0.00     0.031 C 
ATOM     60  C   UNL A   1      49.001  29.622  27.219  1.00  0.00     0.029 A 
ATOM     61  C   UNL A   1      48.030  28.633  27.189  1.00  0.00     0.049 A 
ATOM     62  H   UNL A   1      45.976  28.776  27.654  1.00  0.00     0.167 HD
ATOM     63  C   UNL A   1      47.166  26.338  26.812  1.00  0.00     0.074 A 
ATOM     64  C   UNL A   1      47.328  24.941  26.461  1.00  0.00     0.031 C 
ATOM     65  C   UNL A   1      48.176  27.244  26.832  1.00  0.00     0.031 A 
BRANCH  52  66
ATOM     66  C   UNL A   1      46.430  32.952  28.471  1.00  0.00    -0.014 A 
ATOM     67  C   UNL A   1      46.347  33.868  27.406  1.00  0.00     0.010 A 
ATOM     68  C   UNL A   1      46.841  33.413  29.735  1.00  0.00     0.010 A 
ATOM     69  C   UNL A   1      46.718  35.204  27.588  1.00  0.00     0.020 A 
ATOM     70  C   UNL A   1      47.180  34.756  29.930  1.00  0.00     0.020 A 
ATOM     71  C   UNL A   1      47.135  35.638  28.849  1.00  0.00     0.054 A 
BRANCH  71  72
ATOM     72  S   UNL A   1      47.597  37.380  29.060  1.00  0.00     0.124 S 
ATOM     73  O   UNL A   1      47.111  37.658  30.410  1.00  0.00    -0.237 OA
ATOM     74  O   UNL A   1      49.048  37.347  28.909  1.00  0.00    -0.237 OA
ATOM     75  O   UNL A   1      46.877  38.063  27.988  1.00  0.00    -0.744 OA
ENDBRANCH  71  72
ENDBRANCH  52  66
BRANCH  53  76
ATOM     76  C   UNL A   1      43.352  23.564  26.899  1.00  0.00    -0.014 A 
ATOM     77  C   UNL A   1      43.168  23.099  25.586  1.00  0.00     0.010 A 
ATOM     78  C   UNL A   1      43.124  22.683  27.974  1.00  0.00     0.010 A 
ATOM     79  C   UNL A   1      42.753  21.785  25.350  1.00  0.00     0.020 A 
ATOM     80  C   UNL A   1      42.741  21.361  27.742  1.00  0.00     0.020 A 
ATOM     81  C   UNL A   1      42.547  20.922  26.431  1.00  0.00     0.054 A 
BRANCH  81  82
ATOM     82  S   UNL A   1      42.074  19.202  26.100  1.00  0.00     0.124 S 
ATOM     83  O   UNL A   1      42.478  18.534  27.332  1.00  0.00    -0.237 OA
ATOM     84  O   UNL A   1      40.634  19.309  25.879  1.00  0.00    -0.237 OA
ATOM     85  O   UNL A   1      42.854  18.856  24.914  1.00  0.00    -0.744 OA
ENDBRANCH  81  82
ENDBRANCH  53  76
BRANCH  65  86
ATOM     86  C   UNL A   1      49.559  26.745  26.502  1.00  0.00    -0.014 A 
ATOM     87  C   UNL A   1      50.053  26.756  25.186  1.00  0.00     0.010 A 
ATOM     88  C   UNL A   1      50.392  26.290  27.542  1.00  0.00     0.010 A 
ATOM     89  C   UNL A   1      51.338  26.278  24.910  1.00  0.00     0.020 A 
ATOM     90  C   UNL A   1      51.688  25.844  27.275  1.00  0.00     0.020 A 
ATOM     91  C   UNL A   1      52.146  25.822  25.957  1.00  0.00     0.054 A 
BRANCH  91  92
ATOM     92  S   UNL A   1      53.816  25.226  25.576  1.00  0.00     0.124 S 
ATOM     93  O   UNL A   1      53.540  24.090  24.701  1.00  0.00    -0.237 OA
ATOM     94  O   UNL A   1      54.428  26.384  24.929  1.00  0.00    -0.237 OA
ATOM     95  O   UNL A   1      54.369  24.885  26.884  1.00  0.00    -0.744 OA
ENDBRANCH  91  92
ENDBRANCH  65  86
ENDBRANCH  39  40
ENDBRANCH  31  34
ENDBRANCH  29  30
ENDBRANCH  28  29
ENDBRANCH  27  28
ENDBRANCH   1  27
TORSDOF 21
ENDMDL
MODEL 3
REMARK VINA RESULT:     -10.9      5.983      8.189
REMARK SMILES CC(C)(C)OC(=O)N1C[C@H](Cc2ccccc2)[C@H](C(=O)NCCCCCCNC(=O)c2ccc(-c3c4nc(c(-c5ccc(S(=O)(=O)[O-])cc5)c5ccc([nH]5)c(-c5ccc(S(=O)(=O)[O-])cc5)c5nc(c(-c6ccc(S(=O)(=O)[O-])cc6)c6ccc3[nH]6)C=C5)C=C4)cc2)C1
REMARK SMILES IDX 24 1 23 2 22 3 21 4 19 5 20 6 18 8 8 9 9 10 91 11 10 12 6 13
REMARK SMILES IDX 7 14 5 15 2 16 1 17 3 18 4 19 11 20 12 21 13 22 17 23 14 24
REMARK SMILES IDX 16 25 15 26 25 27 26 28 27 29 28 30 29 31 30 33 31 34 32 35
REMARK SMILES IDX 90 36 33 37 89 38 34 39 35 40 36 41 83 42 37 43 88 44 82 45
REMARK SMILES IDX 84 46 38 47 87 48 81 49 80 50 39 52 69 53 50 54 68 55 51 56
REMARK SMILES IDX 54 57 67 58 85 59 52 60 53 61 66 63 86 64 55 65 40 66 41 67
REMARK SMILES IDX 49 68 42 69 48 70 43 71 44 72 45 73 46 74 47 75 70 76 71 77
REMARK SMILES IDX 79 78 72 79 78 80 73 81 74 82 75 83 76 84 77 85 56 86 57 87
REMARK SMILES IDX 65 88 58 89 64 90 59 91 60 92 61 93 62 94 63 95
REMARK H PARENT 21 7 28 32 84 51 54 62
REMARK Flexibility Score: inf
ROOT
ATOM      1  C   UNL A   1      31.518  28.969  25.695  1.00  0.00     0.002 C 
ENDROOT
BRANCH   1   2
ATOM      2  C   UNL A   1      30.943  28.438  24.385  1.00  0.00     0.021 C 
BRANCH   2   3
ATOM      3  C   UNL A   1      30.409  26.999  24.447  1.00  0.00     0.116 C 
BRANCH   3   4
ATOM      4  N   UNL A   1      30.879  26.329  25.652  1.00  0.00    -0.356 N 
ATOM      5  C   UNL A   1      31.079  25.027  25.980  1.00  0.00     0.225 C 
ATOM      6  O   UNL A   1      31.401  24.807  27.155  1.00  0.00    -0.275 OA
ATOM      7  H   UNL A   1      31.096  26.951  26.383  1.00  0.00     0.163 HD
BRANCH   5   8
ATOM      8  C   UNL A   1      30.945  23.845  25.019  1.00  0.00     0.103 C 
ATOM      9  N   UNL A   1      31.962  21.730  24.930  1.00  0.00    -0.307 N 
ATOM     10  C   UNL A   1      32.083  22.256  23.588  1.00  0.00     0.128 C 
ATOM     11  C   UNL A   1      31.016  22.487  25.713  1.00  0.00     0.137 C 
ATOM     12  C   UNL A   1      31.854  23.760  23.750  1.00  0.00     0.027 C 
BRANCH   9  13
ATOM     13  C   UNL A   1      32.591  20.624  25.439  1.00  0.00     0.410 C 
ATOM     14  O   UNL A   1      33.554  20.701  26.190  1.00  0.00    -0.224 OA
BRANCH  13  15
ATOM     15  O   UNL A   1      32.066  19.477  24.947  1.00  0.00    -0.444 OA
BRANCH  15  16
ATOM     16  C   UNL A   1      32.906  18.435  24.382  1.00  0.00     0.106 C 
ATOM     17  C   UNL A   1      32.685  17.212  25.286  1.00  0.00     0.056 C 
ATOM     18  C   UNL A   1      34.362  18.887  24.480  1.00  0.00     0.056 C 
ATOM     19  C   UNL A   1      32.533  18.027  22.949  1.00  0.00     0.056 C 
ENDBRANCH  15  16
ENDBRANCH  13  15
ENDBRANCH   9  13
BRANCH  12  20
ATOM     20  C   UNL A   1      33.177  24.508  23.871  1.00  0.00     0.041 C 
BRANCH  20  21
ATOM     21  C   UNL A   1      34.417  23.759  24.284  1.00  0.00    -0.048 A 
ATOM     22  C   UNL A   1      34.849  23.833  25.620  1.00  0.00     0.004 A 
ATOM     23  C   UNL A   1      35.215  23.101  23.345  1.00  0.00     0.004 A 
ATOM     24  C   UNL A   1      36.071  23.285  26.004  1.00  0.00     0.000 A 
ATOM     25  C   UNL A   1      36.439  22.553  23.734  1.00  0.00     0.000 A 
ATOM     26  C   UNL A   1      36.870  22.652  25.057  1.00  0.00     0.000 A 
ENDBRANCH  20  21
ENDBRANCH  12  20
ENDBRANCH   5   8
ENDBRANCH   3   4
ENDBRANCH   2   3
ENDBRANCH   1   2
BRANCH   1  27
ATOM     27  C   UNL A   1      31.829  30.465  25.691  1.00  0.00     0.002 C 
BRANCH  27  28
ATOM     28  C   UNL A   1      31.997  31.099  27.076  1.00  0.00     0.021 C 
BRANCH  28  29
ATOM     29  C   UNL A   1      33.305  31.858  27.279  1.00  0.00     0.116 C 
BRANCH  29  30
ATOM     30  N   UNL A   1      33.070  33.226  27.711  1.00  0.00    -0.352 N 
ATOM     31  C   UNL A   1      33.617  33.913  28.762  1.00  0.00     0.251 C 
ATOM     32  H   UNL A   1      32.422  33.732  27.169  1.00  0.00     0.163 HD
ATOM     33  O   UNL A   1      33.104  34.966  29.134  1.00  0.00    -0.269 OA
BRANCH  31  34
ATOM     34  C   UNL A   1      34.818  33.390  29.447  1.00  0.00     0.039 A 
ATOM     35  C   UNL A   1      36.070  33.889  29.084  1.00  0.00     0.014 A 
ATOM     36  C   UNL A   1      34.716  32.386  30.415  1.00  0.00     0.014 A 
ATOM     37  C   UNL A   1      37.215  33.403  29.716  1.00  0.00     0.010 A 
ATOM     38  C   UNL A   1      35.852  31.963  31.103  1.00  0.00     0.010 A 
ATOM     39  C   UNL A   1      37.116  32.453  30.748  1.00  0.00    -0.014 A 
BRANCH  39  40
ATOM     40  C   UNL A   1      38.335  31.978  31.451  1.00  0.00     0.031 A 
ATOM     41  C   UNL A   1      38.711  32.534  32.799  1.00  0.00     0.074 A 
ATOM     42  C   UNL A   1      39.118  31.053  30.860  1.00  0.00     0.049 A 
ATOM     43  N   UNL A   1      39.701  32.189  33.583  1.00  0.00    -0.248 NA
ATOM     44  C   UNL A   1      37.887  33.634  33.327  1.00  0.00     0.031 C 
ATOM     45  C   UNL A   1      38.894  30.485  29.528  1.00  0.00     0.029 A 
ATOM     46  N   UNL A   1      40.250  30.419  31.305  1.00  0.00    -0.354 N 
ATOM     47  C   UNL A   1      39.625  33.033  34.686  1.00  0.00     0.074 A 
ATOM     48  C   UNL A   1      38.529  33.944  34.444  1.00  0.00     0.031 C 
ATOM     49  C   UNL A   1      39.829  29.555  29.285  1.00  0.00     0.029 A 
ATOM     50  C   UNL A   1      40.739  29.485  30.422  1.00  0.00     0.049 A 
ATOM     51  H   UNL A   1      40.672  30.613  32.173  1.00  0.00     0.167 HD
ATOM     52  C   UNL A   1      40.386  33.035  35.807  1.00  0.00     0.031 A 
ATOM     53  C   UNL A   1      41.797  28.656  30.519  1.00  0.00     0.031 A 
ATOM     54  C   UNL A   1      41.475  32.122  36.041  1.00  0.00     0.049 A 
ATOM     55  C   UNL A   1      42.615  28.662  31.780  1.00  0.00     0.074 A 
ATOM     56  C   UNL A   1      42.266  31.999  37.169  1.00  0.00     0.029 A 
ATOM     57  N   UNL A   1      41.935  31.186  35.127  1.00  0.00    -0.354 N 
ATOM     58  N   UNL A   1      42.472  29.406  32.851  1.00  0.00    -0.248 NA
ATOM     59  C   UNL A   1      43.723  27.700  31.855  1.00  0.00     0.031 C 
ATOM     60  C   UNL A   1      43.245  31.033  36.913  1.00  0.00     0.029 A 
ATOM     61  C   UNL A   1      43.017  30.500  35.654  1.00  0.00     0.049 A 
ATOM     62  H   UNL A   1      41.549  31.030  34.234  1.00  0.00     0.167 HD
ATOM     63  C   UNL A   1      43.453  28.981  33.740  1.00  0.00     0.074 A 
ATOM     64  C   UNL A   1      44.170  27.905  33.087  1.00  0.00     0.031 C 
ATOM     65  C   UNL A   1      43.729  29.438  34.989  1.00  0.00     0.031 A 
BRANCH  52  66
ATOM     66  C   UNL A   1      40.075  34.070  36.861  1.00  0.00    -0.014 A 
ATOM     67  C   UNL A   1      40.610  35.369  36.792  1.00  0.00     0.010 A 
ATOM     68  C   UNL A   1      39.204  33.747  37.917  1.00  0.00     0.010 A 
ATOM     69  C   UNL A   1      40.321  36.309  37.787  1.00  0.00     0.020 A 
ATOM     70  C   UNL A   1      38.885  34.695  38.895  1.00  0.00     0.020 A 
ATOM     71  C   UNL A   1      39.463  35.964  38.834  1.00  0.00     0.054 A 
BRANCH  71  72
ATOM     72  S   UNL A   1      39.095  37.208  40.102  1.00  0.00     0.124 S 
ATOM     73  O   UNL A   1      38.371  38.217  39.331  1.00  0.00    -0.237 OA
ATOM     74  O   UNL A   1      38.293  36.458  41.063  1.00  0.00    -0.237 OA
ATOM     75  O   UNL A   1      40.413  37.619  40.580  1.00  0.00    -0.744 OA
ENDBRANCH  71  72
ENDBRANCH  52  66
BRANCH  53  76
ATOM     76  C   UNL A   1      42.117  27.735  29.393  1.00  0.00    -0.014 A 
ATOM     77  C   UNL A   1      43.051  28.096  28.407  1.00  0.00     0.010 A 
ATOM     78  C   UNL A   1      41.508  26.467  29.325  1.00  0.00     0.010 A 
ATOM     79  C   UNL A   1      43.363  27.214  27.368  1.00  0.00     0.020 A 
ATOM     80  C   UNL A   1      41.841  25.570  28.307  1.00  0.00     0.020 A 
ATOM     81  C   UNL A   1      42.759  25.953  27.329  1.00  0.00     0.054 A 
BRANCH  81  82
ATOM     82  S   UNL A   1      43.229  24.799  26.010  1.00  0.00     0.124 S 
ATOM     83  O   UNL A   1      43.619  25.706  24.937  1.00  0.00    -0.237 OA
ATOM     84  O   UNL A   1      44.316  24.042  26.627  1.00  0.00    -0.237 OA
ATOM     85  O   UNL A   1      42.005  24.035  25.773  1.00  0.00    -0.744 OA
ENDBRANCH  81  82
ENDBRANCH  53  76
BRANCH  65  86
ATOM     86  C   UNL A   1      44.832  28.747  35.749  1.00  0.00    -0.014 A 
ATOM     87  C   UNL A   1      44.581  27.617  36.548  1.00  0.00     0.010 A 
ATOM     88  C   UNL A   1      46.152  29.220  35.628  1.00  0.00     0.010 A 
ATOM     89  C   UNL A   1      45.623  27.003  37.249  1.00  0.00     0.020 A 
ATOM     90  C   UNL A   1      47.201  28.588  36.299  1.00  0.00     0.020 A 
ATOM     91  C   UNL A   1      46.927  27.495  37.122  1.00  0.00     0.054 A 
BRANCH  91  92
ATOM     92  S   UNL A   1      48.265  26.669  38.026  1.00  0.00     0.124 S 
ATOM     93  O   UNL A   1      47.639  26.405  39.318  1.00  0.00    -0.237 OA
ATOM     94  O   UNL A   1      48.526  25.491  37.201  1.00  0.00    -0.237 OA
ATOM     95  O   UNL A   1      49.336  27.661  38.042  1.00  0.00    -0.744 OA
ENDBRANCH  91  92
ENDBRANCH  65  86
ENDBRANCH  39  40
ENDBRANCH  31  34
ENDBRANCH  29  30
ENDBRANCH  28  29
ENDBRANCH  27  28
ENDBRANCH   1  27
TORSDOF 21
ENDMDL
