MODEL 1
REMARK VINA RESULT:     -10.7      0.000      0.000
REMARK SMILES COc1ccc(OC)c(/C=C2\S/C(=[NH+]\c3ccc(C(=O)NCCCCCCNC(=O)c4ccc(-c5c6nc(c(-c7ccc(S(=O)(=O)[O-])cc7)c7ccc([nH]7)c(-c7ccc(S(=O)(=O)[O-])cc7)c7nc(c(-c8ccc(S(=O)(=O)[O-])cc8)c8ccc5[nH]8)C=C7)C=C6)cc4)cc3)N(C)C2=O)c1
REMARK SMILES IDX 24 1 23 2 22 3 21 4 19 5 20 6 18 8 15 9 16 10 92 11 17 12
REMARK SMILES IDX 91 13 14 14 10 15 11 16 12 17 95 18 13 19 93 20 96 21 94 22
REMARK SMILES IDX 9 24 3 25 4 26 97 27 5 28 6 29 2 30 1 31 7 32 8 33 25 34
REMARK SMILES IDX 26 35 27 36 28 37 29 38 30 40 31 41 32 42 90 43 33 44 89 45
REMARK SMILES IDX 34 46 35 47 36 48 83 49 37 50 88 51 82 52 84 53 38 54 87 55
REMARK SMILES IDX 81 56 80 57 39 59 69 60 50 61 68 62 51 63 54 64 67 65 85 66
REMARK SMILES IDX 52 67 53 68 66 70 86 71 55 72 40 73 41 74 49 75 42 76 48 77
REMARK SMILES IDX 43 78 44 79 45 80 46 81 47 82 70 83 71 84 79 85 72 86 78 87
REMARK SMILES IDX 73 88 74 89 75 90 76 91 77 92 56 93 57 94 65 95 58 96 64 97
REMARK SMILES IDX 59 98 60 99 61 100 62 101 63 102
REMARK H PARENT 21 7 14 23 28 39 84 58 54 69
REMARK Flexibility Score: inf
ROOT
ATOM      1  C   UNL A   1      35.119  31.954  28.868  1.00  0.00     0.002 C 
ENDROOT
BRANCH   1   2
ATOM      2  C   UNL A   1      35.552  30.776  27.981  1.00  0.00     0.021 C 
BRANCH   2   3
ATOM      3  C   UNL A   1      34.393  29.880  27.534  1.00  0.00     0.116 C 
BRANCH   3   4
ATOM      4  N   UNL A   1      33.196  30.673  27.315  1.00  0.00    -0.352 N 
ATOM      5  C   UNL A   1      32.206  30.643  26.366  1.00  0.00     0.251 C 
ATOM      6  O   UNL A   1      31.294  31.465  26.480  1.00  0.00    -0.269 OA
ATOM      7  H   UNL A   1      33.069  31.381  27.987  1.00  0.00     0.163 HD
BRANCH   5   8
ATOM      8  C   UNL A   1      32.140  29.650  25.256  1.00  0.00     0.040 A 
ATOM      9  C   UNL A   1      32.201  27.926  23.015  1.00  0.00     0.125 A 
ATOM     10  C   UNL A   1      33.386  28.457  23.523  1.00  0.00     0.052 A 
ATOM     11  C   UNL A   1      31.009  28.166  23.709  1.00  0.00     0.052 A 
ATOM     12  C   UNL A   1      33.350  29.332  24.615  1.00  0.00     0.018 A 
ATOM     13  C   UNL A   1      30.980  28.998  24.835  1.00  0.00     0.018 A 
BRANCH   9  14
ATOM     14  N   UNL A   1      32.133  27.212  21.804  1.00  0.00    -0.234 N 
ATOM     15  C   UNL A   1      34.118  22.891  22.968  1.00  0.00     0.036 C 
ATOM     16  C   UNL A   1      33.198  23.706  22.430  1.00  0.00     0.110 C 
ATOM     17  S   UNL A   1      32.275  24.892  23.251  1.00  0.00     0.007 SA
ATOM     18  C   UNL A   1      33.032  23.895  20.962  1.00  0.00     0.348 C 
ATOM     19  C   UNL A   1      32.274  25.925  21.841  1.00  0.00     0.324 C 
ATOM     20  N   UNL A   1      32.527  25.163  20.726  1.00  0.00    -0.189 N 
ATOM     21  O   UNL A   1      33.396  23.080  20.125  1.00  0.00    -0.240 OA
ATOM     22  C   UNL A   1      32.515  25.725  19.396  1.00  0.00     0.301 C 
ATOM     23  H   UNL A   1      31.983  27.680  20.951  1.00  0.00     0.313 HD
BRANCH  15  24
ATOM     24  C   UNL A   1      34.497  22.918  24.394  1.00  0.00     0.022 A 
ATOM     25  C   UNL A   1      36.173  23.515  26.051  1.00  0.00     0.119 A 
ATOM     26  C   UNL A   1      35.479  22.802  27.025  1.00  0.00     0.050 A 
ATOM     27  C   UNL A   1      35.698  23.559  24.736  1.00  0.00     0.058 A 
ATOM     28  C   UNL A   1      34.269  22.191  26.707  1.00  0.00     0.051 A 
ATOM     29  C   UNL A   1      33.754  22.279  25.412  1.00  0.00     0.126 A 
BRANCH  25  30
ATOM     30  O   UNL A   1      37.360  24.074  26.440  1.00  0.00    -0.497 OA
ATOM     31  C   UNL A   1      38.478  23.221  26.207  1.00  0.00     0.278 C 
ENDBRANCH  25  30
BRANCH  29  32
ATOM     32  O   UNL A   1      32.574  21.601  25.229  1.00  0.00    -0.496 OA
ATOM     33  C   UNL A   1      31.443  22.200  25.855  1.00  0.00     0.278 C 
ENDBRANCH  29  32
ENDBRANCH  15  24
ENDBRANCH   9  14
ENDBRANCH   5   8
ENDBRANCH   3   4
ENDBRANCH   2   3
ENDBRANCH   1   2
BRANCH   1  34
ATOM     34  C   UNL A   1      34.999  33.307  28.153  1.00  0.00     0.002 C 
BRANCH  34  35
ATOM     35  C   UNL A   1      33.648  34.011  28.302  1.00  0.00     0.021 C 
BRANCH  35  36
ATOM     36  C   UNL A   1      33.731  35.468  28.749  1.00  0.00     0.116 C 
BRANCH  36  37
ATOM     37  N   UNL A   1      32.886  35.734  29.905  1.00  0.00    -0.352 N 
ATOM     38  C   UNL A   1      33.012  35.264  31.190  1.00  0.00     0.251 C 
ATOM     39  H   UNL A   1      32.121  36.331  29.743  1.00  0.00     0.163 HD
ATOM     40  O   UNL A   1      32.103  35.429  31.998  1.00  0.00    -0.269 OA
BRANCH  38  41
ATOM     41  C   UNL A   1      34.240  34.544  31.592  1.00  0.00     0.039 A 
ATOM     42  C   UNL A   1      35.479  35.177  31.455  1.00  0.00     0.014 A 
ATOM     43  C   UNL A   1      34.169  33.240  32.091  1.00  0.00     0.014 A 
ATOM     44  C   UNL A   1      36.643  34.524  31.872  1.00  0.00     0.010 A 
ATOM     45  C   UNL A   1      35.323  32.612  32.555  1.00  0.00     0.010 A 
ATOM     46  C   UNL A   1      36.571  33.246  32.448  1.00  0.00    -0.014 A 
BRANCH  46  47
ATOM     47  C   UNL A   1      37.783  32.534  32.930  1.00  0.00     0.031 A 
ATOM     48  C   UNL A   1      38.285  32.783  34.327  1.00  0.00     0.074 A 
ATOM     49  C   UNL A   1      38.475  31.736  32.094  1.00  0.00     0.049 A 
ATOM     50  N   UNL A   1      39.402  32.393  34.883  1.00  0.00    -0.248 NA
ATOM     51  C   UNL A   1      37.429  33.601  35.203  1.00  0.00     0.031 C 
ATOM     52  C   UNL A   1      38.103  31.426  30.711  1.00  0.00     0.029 A 
ATOM     53  N   UNL A   1      39.652  31.053  32.281  1.00  0.00    -0.354 N 
ATOM     54  C   UNL A   1      39.395  32.935  36.164  1.00  0.00     0.074 A 
ATOM     55  C   UNL A   1      38.180  33.710  36.290  1.00  0.00     0.031 C 
ATOM     56  C   UNL A   1      39.030  30.611  30.179  1.00  0.00     0.029 A 
ATOM     57  C   UNL A   1      40.082  30.375  31.164  1.00  0.00     0.049 A 
ATOM     58  H   UNL A   1      40.141  31.048  33.136  1.00  0.00     0.167 HD
ATOM     59  C   UNL A   1      40.312  32.790  37.150  1.00  0.00     0.031 A 
ATOM     60  C   UNL A   1      41.204  29.661  30.950  1.00  0.00     0.031 A 
ATOM     61  C   UNL A   1      41.508  32.002  37.032  1.00  0.00     0.049 A 
ATOM     62  C   UNL A   1      42.208  29.515  32.063  1.00  0.00     0.074 A 
ATOM     63  C   UNL A   1      42.488  31.776  37.983  1.00  0.00     0.029 A 
ATOM     64  N   UNL A   1      41.882  31.298  35.898  1.00  0.00    -0.354 N 
ATOM     65  N   UNL A   1      42.174  30.023  33.272  1.00  0.00    -0.248 NA
ATOM     66  C   UNL A   1      43.394  28.693  31.787  1.00  0.00     0.031 C 
ATOM     67  C   UNL A   1      43.467  30.956  37.416  1.00  0.00     0.029 A 
ATOM     68  C   UNL A   1      43.075  30.637  36.126  1.00  0.00     0.049 A 
ATOM     69  H   UNL A   1      41.372  31.273  35.055  1.00  0.00     0.167 HD
ATOM     70  C   UNL A   1      43.316  29.551  33.911  1.00  0.00     0.074 A 
ATOM     71  C   UNL A   1      44.016  28.716  32.959  1.00  0.00     0.031 C 
ATOM     72  C   UNL A   1      43.743  29.787  35.175  1.00  0.00     0.031 A 
BRANCH  59  73
ATOM     73  C   UNL A   1      40.053  33.500  38.452  1.00  0.00    -0.014 A 
ATOM     74  C   UNL A   1      40.754  34.674  38.783  1.00  0.00     0.010 A 
ATOM     75  C   UNL A   1      39.060  33.022  39.326  1.00  0.00     0.010 A 
ATOM     76  C   UNL A   1      40.488  35.339  39.982  1.00  0.00     0.020 A 
ATOM     77  C   UNL A   1      38.774  33.700  40.514  1.00  0.00     0.020 A 
ATOM     78  C   UNL A   1      39.501  34.847  40.842  1.00  0.00     0.054 A 
BRANCH  78  79
ATOM     79  S   UNL A   1      39.150  35.751  42.375  1.00  0.00     0.124 S 
ATOM     80  O   UNL A   1      39.288  37.140  41.942  1.00  0.00    -0.237 OA
ATOM     81  O   UNL A   1      37.790  35.326  42.694  1.00  0.00    -0.237 OA
ATOM     82  O   UNL A   1      40.179  35.280  43.298  1.00  0.00    -0.744 OA
ENDBRANCH  78  79
ENDBRANCH  59  73
BRANCH  60  83
ATOM     83  C   UNL A   1      41.448  29.026  29.627  1.00  0.00    -0.014 A 
ATOM     84  C   UNL A   1      40.964  27.735  29.354  1.00  0.00     0.010 A 
ATOM     85  C   UNL A   1      42.183  29.705  28.637  1.00  0.00     0.010 A 
ATOM     86  C   UNL A   1      41.237  27.120  28.130  1.00  0.00     0.020 A 
ATOM     87  C   UNL A   1      42.435  29.104  27.401  1.00  0.00     0.020 A 
ATOM     88  C   UNL A   1      41.975  27.807  27.162  1.00  0.00     0.054 A 
BRANCH  88  89
ATOM     89  S   UNL A   1      42.299  27.004  25.567  1.00  0.00     0.124 S 
ATOM     90  O   UNL A   1      43.583  26.354  25.811  1.00  0.00    -0.237 OA
ATOM     91  O   UNL A   1      41.153  26.110  25.420  1.00  0.00    -0.237 OA
ATOM     92  O   UNL A   1      42.330  28.122  24.626  1.00  0.00    -0.744 OA
ENDBRANCH  88  89
ENDBRANCH  60  83
BRANCH  72  93
ATOM     93  C   UNL A   1      44.993  29.087  35.632  1.00  0.00    -0.014 A 
ATOM     94  C   UNL A   1      46.242  29.729  35.601  1.00  0.00     0.010 A 
ATOM     95  C   UNL A   1      44.896  27.793  36.174  1.00  0.00     0.010 A 
ATOM     96  C   UNL A   1      47.378  29.081  36.092  1.00  0.00     0.020 A 
ATOM     97  C   UNL A   1      46.026  27.149  36.684  1.00  0.00     0.020 A 
ATOM     98  C   UNL A   1      47.262  27.796  36.632  1.00  0.00     0.054 A 
BRANCH  98  99
ATOM     99  S   UNL A   1      48.739  27.000  37.325  1.00  0.00     0.124 S 
ATOM    100  O   UNL A   1      49.555  26.785  36.134  1.00  0.00    -0.237 OA
ATOM    101  O   UNL A   1      49.239  28.007  38.257  1.00  0.00    -0.237 OA
ATOM    102  O   UNL A   1      48.216  25.787  37.951  1.00  0.00    -0.744 OA
ENDBRANCH  98  99
ENDBRANCH  72  93
ENDBRANCH  46  47
ENDBRANCH  38  41
ENDBRANCH  36  37
ENDBRANCH  35  36
ENDBRANCH  34  35
ENDBRANCH   1  34
TORSDOF 20
ENDMDL
MODEL 2
REMARK VINA RESULT:      -9.3      4.571     10.071
REMARK SMILES COc1ccc(OC)c(/C=C2\S/C(=[NH+]\c3ccc(C(=O)NCCCCCCNC(=O)c4ccc(-c5c6nc(c(-c7ccc(S(=O)(=O)[O-])cc7)c7ccc([nH]7)c(-c7ccc(S(=O)(=O)[O-])cc7)c7nc(c(-c8ccc(S(=O)(=O)[O-])cc8)c8ccc5[nH]8)C=C7)C=C6)cc4)cc3)N(C)C2=O)c1
REMARK SMILES IDX 24 1 23 2 22 3 21 4 19 5 20 6 18 8 15 9 16 10 92 11 17 12
REMARK SMILES IDX 91 13 14 14 10 15 11 16 12 17 95 18 13 19 93 20 96 21 94 22
REMARK SMILES IDX 9 24 3 25 4 26 97 27 5 28 6 29 2 30 1 31 7 32 8 33 25 34
REMARK SMILES IDX 26 35 27 36 28 37 29 38 30 40 31 41 32 42 90 43 33 44 89 45
REMARK SMILES IDX 34 46 35 47 36 48 83 49 37 50 88 51 82 52 84 53 38 54 87 55
REMARK SMILES IDX 81 56 80 57 39 59 69 60 50 61 68 62 51 63 54 64 67 65 85 66
REMARK SMILES IDX 52 67 53 68 66 70 86 71 55 72 40 73 41 74 49 75 42 76 48 77
REMARK SMILES IDX 43 78 44 79 45 80 46 81 47 82 70 83 71 84 79 85 72 86 78 87
REMARK SMILES IDX 73 88 74 89 75 90 76 91 77 92 56 93 57 94 65 95 58 96 64 97
REMARK SMILES IDX 59 98 60 99 61 100 62 101 63 102
REMARK H PARENT 21 7 14 23 28 39 84 58 54 69
REMARK Flexibility Score: inf
ROOT
ATOM      1  C   UNL A   1      38.795  32.735  30.393  1.00  0.00     0.002 C 
ENDROOT
BRANCH   1   2
ATOM      2  C   UNL A   1      39.643  33.932  30.849  1.00  0.00     0.021 C 
BRANCH   2   3
ATOM      3  C   UNL A   1      40.605  34.453  29.777  1.00  0.00     0.116 C 
BRANCH   3   4
ATOM      4  N   UNL A   1      41.933  34.639  30.337  1.00  0.00    -0.352 N 
ATOM      5  C   UNL A   1      43.108  33.940  30.226  1.00  0.00     0.251 C 
ATOM      6  O   UNL A   1      44.085  34.387  30.830  1.00  0.00    -0.269 OA
ATOM      7  H   UNL A   1      42.004  35.431  30.916  1.00  0.00     0.163 HD
BRANCH   5   8
ATOM      8  C   UNL A   1      43.282  32.722  29.385  1.00  0.00     0.040 A 
ATOM      9  C   UNL A   1      43.523  30.564  27.573  1.00  0.00     0.125 A 
ATOM     10  C   UNL A   1      43.961  31.837  27.209  1.00  0.00     0.052 A 
ATOM     11  C   UNL A   1      43.081  30.358  28.885  1.00  0.00     0.052 A 
ATOM     12  C   UNL A   1      43.815  32.909  28.098  1.00  0.00     0.018 A 
ATOM     13  C   UNL A   1      42.985  31.420  29.793  1.00  0.00     0.018 A 
BRANCH   9  14
ATOM     14  N   UNL A   1      43.445  29.489  26.669  1.00  0.00    -0.234 N 
ATOM     15  C   UNL A   1      39.383  27.155  28.088  1.00  0.00     0.036 C 
ATOM     16  C   UNL A   1      40.223  27.715  27.205  1.00  0.00     0.110 C 
ATOM     17  S   UNL A   1      40.762  29.340  27.193  1.00  0.00     0.007 SA
ATOM     18  C   UNL A   1      41.042  26.927  26.243  1.00  0.00     0.348 C 
ATOM     19  C   UNL A   1      42.318  28.861  26.555  1.00  0.00     0.324 C 
ATOM     20  N   UNL A   1      42.196  27.634  25.950  1.00  0.00    -0.189 N 
ATOM     21  O   UNL A   1      40.761  25.793  25.878  1.00  0.00    -0.240 OA
ATOM     22  C   UNL A   1      43.300  27.008  25.261  1.00  0.00     0.301 C 
ATOM     23  H   UNL A   1      44.229  29.220  26.135  1.00  0.00     0.313 HD
BRANCH  15  24
ATOM     24  C   UNL A   1      38.800  27.882  29.233  1.00  0.00     0.022 A 
ATOM     25  C   UNL A   1      38.713  28.155  31.647  1.00  0.00     0.119 A 
ATOM     26  C   UNL A   1      37.598  28.979  31.523  1.00  0.00     0.050 A 
ATOM     27  C   UNL A   1      39.303  27.591  30.511  1.00  0.00     0.058 A 
ATOM     28  C   UNL A   1      37.110  29.302  30.260  1.00  0.00     0.051 A 
ATOM     29  C   UNL A   1      37.728  28.793  29.116  1.00  0.00     0.126 A 
BRANCH  25  30
ATOM     30  O   UNL A   1      39.121  27.875  32.923  1.00  0.00    -0.497 OA
ATOM     31  C   UNL A   1      40.502  28.155  33.138  1.00  0.00     0.278 C 
ENDBRANCH  25  30
BRANCH  29  32
ATOM     32  O   UNL A   1      37.124  29.163  27.939  1.00  0.00    -0.496 OA
ATOM     33  C   UNL A   1      35.740  29.482  28.057  1.00  0.00     0.278 C 
ENDBRANCH  29  32
ENDBRANCH  15  24
ENDBRANCH   9  14
ENDBRANCH   5   8
ENDBRANCH   3   4
ENDBRANCH   2   3
ENDBRANCH   1   2
BRANCH   1  34
ATOM     34  C   UNL A   1      38.160  32.869  29.002  1.00  0.00     0.002 C 
BRANCH  34  35
ATOM     35  C   UNL A   1      36.676  33.251  28.992  1.00  0.00     0.021 C 
BRANCH  35  36
ATOM     36  C   UNL A   1      35.787  32.390  29.885  1.00  0.00     0.116 C 
BRANCH  36  37
ATOM     37  N   UNL A   1      34.769  33.178  30.563  1.00  0.00    -0.352 N 
ATOM     38  C   UNL A   1      34.717  33.572  31.878  1.00  0.00     0.251 C 
ATOM     39  H   UNL A   1      34.014  33.468  30.001  1.00  0.00     0.163 HD
ATOM     40  O   UNL A   1      33.691  34.068  32.333  1.00  0.00    -0.269 OA
BRANCH  38  41
ATOM     41  C   UNL A   1      35.897  33.379  32.749  1.00  0.00     0.039 A 
ATOM     42  C   UNL A   1      36.671  34.488  33.103  1.00  0.00     0.014 A 
ATOM     43  C   UNL A   1      36.246  32.104  33.205  1.00  0.00     0.014 A 
ATOM     44  C   UNL A   1      37.763  34.327  33.961  1.00  0.00     0.010 A 
ATOM     45  C   UNL A   1      37.301  31.954  34.102  1.00  0.00     0.010 A 
ATOM     46  C   UNL A   1      38.072  33.063  34.488  1.00  0.00    -0.014 A 
BRANCH  46  47
ATOM     47  C   UNL A   1      39.206  32.859  35.425  1.00  0.00     0.031 A 
ATOM     48  C   UNL A   1      40.513  32.323  34.906  1.00  0.00     0.074 A 
ATOM     49  C   UNL A   1      39.039  33.074  36.745  1.00  0.00     0.049 A 
ATOM     50  N   UNL A   1      41.565  31.925  35.573  1.00  0.00    -0.248 NA
ATOM     51  C   UNL A   1      40.641  32.195  33.444  1.00  0.00     0.031 C 
ATOM     52  C   UNL A   1      37.817  33.577  37.377  1.00  0.00     0.029 A 
ATOM     53  N   UNL A   1      39.899  32.876  37.797  1.00  0.00    -0.354 N 
ATOM     54  C   UNL A   1      42.470  31.478  34.617  1.00  0.00     0.074 A 
ATOM     55  C   UNL A   1      41.831  31.621  33.327  1.00  0.00     0.031 C 
ATOM     56  C   UNL A   1      38.008  33.652  38.705  1.00  0.00     0.029 A 
ATOM     57  C   UNL A   1      39.347  33.165  39.024  1.00  0.00     0.049 A 
ATOM     58  H   UNL A   1      40.824  32.558  37.684  1.00  0.00     0.167 HD
ATOM     59  C   UNL A   1      43.725  31.002  34.797  1.00  0.00     0.031 A 
ATOM     60  C   UNL A   1      39.854  33.034  40.265  1.00  0.00     0.031 A 
ATOM     61  C   UNL A   1      44.368  30.881  36.076  1.00  0.00     0.049 A 
ATOM     62  C   UNL A   1      41.252  32.502  40.438  1.00  0.00     0.074 A 
ATOM     63  C   UNL A   1      45.646  30.431  36.359  1.00  0.00     0.029 A 
ATOM     64  N   UNL A   1      43.788  31.225  37.287  1.00  0.00    -0.354 N 
ATOM     65  N   UNL A   1      42.097  32.099  39.520  1.00  0.00    -0.248 NA
ATOM     66  C   UNL A   1      41.768  32.417  41.812  1.00  0.00     0.031 C 
ATOM     67  C   UNL A   1      45.831  30.479  37.744  1.00  0.00     0.029 A 
ATOM     68  C   UNL A   1      44.682  31.000  38.318  1.00  0.00     0.049 A 
ATOM     69  H   UNL A   1      42.875  31.578  37.396  1.00  0.00     0.167 HD
ATOM     70  C   UNL A   1      43.257  31.748  40.203  1.00  0.00     0.074 A 
ATOM     71  C   UNL A   1      43.007  31.989  41.608  1.00  0.00     0.031 C 
ATOM     72  C   UNL A   1      44.425  31.272  39.708  1.00  0.00     0.031 A 
BRANCH  59  73
ATOM     73  C   UNL A   1      44.492  30.578  33.572  1.00  0.00    -0.014 A 
ATOM     74  C   UNL A   1      44.482  29.238  33.145  1.00  0.00     0.010 A 
ATOM     75  C   UNL A   1      45.182  31.538  32.810  1.00  0.00     0.010 A 
ATOM     76  C   UNL A   1      45.175  28.860  31.993  1.00  0.00     0.020 A 
ATOM     77  C   UNL A   1      45.856  31.167  31.643  1.00  0.00     0.020 A 
ATOM     78  C   UNL A   1      45.860  29.827  31.250  1.00  0.00     0.054 A 
BRANCH  78  79
ATOM     79  S   UNL A   1      46.722  29.315  29.738  1.00  0.00     0.124 S 
ATOM     80  O   UNL A   1      46.818  30.576  29.005  1.00  0.00    -0.237 OA
ATOM     81  O   UNL A   1      47.985  28.790  30.251  1.00  0.00    -0.237 OA
ATOM     82  O   UNL A   1      45.830  28.319  29.151  1.00  0.00    -0.744 OA
ENDBRANCH  78  79
ENDBRANCH  59  73
BRANCH  60  83
ATOM     83  C   UNL A   1      39.038  33.408  41.452  1.00  0.00    -0.014 A 
ATOM     84  C   UNL A   1      38.216  32.457  42.082  1.00  0.00     0.010 A 
ATOM     85  C   UNL A   1      39.066  34.724  41.948  1.00  0.00     0.010 A 
ATOM     86  C   UNL A   1      37.412  32.822  43.165  1.00  0.00     0.020 A 
ATOM     87  C   UNL A   1      38.283  35.087  43.047  1.00  0.00     0.020 A 
ATOM     88  C   UNL A   1      37.447  34.136  43.638  1.00  0.00     0.054 A 
BRANCH  88  89
ATOM     89  S   UNL A   1      36.416  34.588  45.061  1.00  0.00     0.124 S 
ATOM     90  O   UNL A   1      35.150  34.929  44.420  1.00  0.00    -0.237 OA
ATOM     91  O   UNL A   1      36.415  33.363  45.857  1.00  0.00    -0.237 OA
ATOM     92  O   UNL A   1      37.138  35.709  45.660  1.00  0.00    -0.744 OA
ENDBRANCH  88  89
ENDBRANCH  60  83
BRANCH  72  93
ATOM     93  C   UNL A   1      45.550  31.037  40.679  1.00  0.00    -0.014 A 
ATOM     94  C   UNL A   1      45.737  29.785  41.289  1.00  0.00     0.010 A 
ATOM     95  C   UNL A   1      46.477  32.067  40.918  1.00  0.00     0.010 A 
ATOM     96  C   UNL A   1      46.828  29.572  42.136  1.00  0.00     0.020 A 
ATOM     97  C   UNL A   1      47.580  31.852  41.748  1.00  0.00     0.020 A 
ATOM     98  C   UNL A   1      47.743  30.607  42.359  1.00  0.00     0.054 A 
BRANCH  98  99
ATOM     99  S   UNL A   1      49.188  30.287  43.409  1.00  0.00     0.124 S 
ATOM    100  O   UNL A   1      48.567  29.964  44.690  1.00  0.00    -0.237 OA
ATOM    101  O   UNL A   1      49.841  29.173  42.727  1.00  0.00    -0.237 OA
ATOM    102  O   UNL A   1      49.926  31.548  43.374  1.00  0.00    -0.744 OA
ENDBRANCH  98  99
ENDBRANCH  72  93
ENDBRANCH  46  47
ENDBRANCH  38  41
ENDBRANCH  36  37
ENDBRANCH  35  36
ENDBRANCH  34  35
ENDBRANCH   1  34
TORSDOF 20
ENDMDL
MODEL 3
REMARK VINA RESULT:      -9.1      6.939     10.360
REMARK SMILES COc1ccc(OC)c(/C=C2\S/C(=[NH+]\c3ccc(C(=O)NCCCCCCNC(=O)c4ccc(-c5c6nc(c(-c7ccc(S(=O)(=O)[O-])cc7)c7ccc([nH]7)c(-c7ccc(S(=O)(=O)[O-])cc7)c7nc(c(-c8ccc(S(=O)(=O)[O-])cc8)c8ccc5[nH]8)C=C7)C=C6)cc4)cc3)N(C)C2=O)c1
REMARK SMILES IDX 24 1 23 2 22 3 21 4 19 5 20 6 18 8 15 9 16 10 92 11 17 12
REMARK SMILES IDX 91 13 14 14 10 15 11 16 12 17 95 18 13 19 93 20 96 21 94 22
REMARK SMILES IDX 9 24 3 25 4 26 97 27 5 28 6 29 2 30 1 31 7 32 8 33 25 34
REMARK SMILES IDX 26 35 27 36 28 37 29 38 30 40 31 41 32 42 90 43 33 44 89 45
REMARK SMILES IDX 34 46 35 47 36 48 83 49 37 50 88 51 82 52 84 53 38 54 87 55
REMARK SMILES IDX 81 56 80 57 39 59 69 60 50 61 68 62 51 63 54 64 67 65 85 66
REMARK SMILES IDX 52 67 53 68 66 70 86 71 55 72 40 73 41 74 49 75 42 76 48 77
REMARK SMILES IDX 43 78 44 79 45 80 46 81 47 82 70 83 71 84 79 85 72 86 78 87
REMARK SMILES IDX 73 88 74 89 75 90 76 91 77 92 56 93 57 94 65 95 58 96 64 97
REMARK SMILES IDX 59 98 60 99 61 100 62 101 63 102
REMARK H PARENT 21 7 14 23 28 39 84 58 54 69
REMARK Flexibility Score: inf
ROOT
ATOM      1  C   UNL A   1      42.194  27.685  31.502  1.00  0.00     0.002 C 
ENDROOT
BRANCH   1   2
ATOM      2  C   UNL A   1      42.574  27.855  32.981  1.00  0.00     0.021 C 
BRANCH   2   3
ATOM      3  C   UNL A   1      44.083  27.968  33.224  1.00  0.00     0.116 C 
BRANCH   3   4
ATOM      4  N   UNL A   1      44.573  26.788  33.915  1.00  0.00    -0.352 N 
ATOM      5  C   UNL A   1      45.004  25.557  33.488  1.00  0.00     0.251 C 
ATOM      6  O   UNL A   1      45.384  24.765  34.353  1.00  0.00    -0.269 OA
ATOM      7  H   UNL A   1      44.601  26.893  34.893  1.00  0.00     0.163 HD
BRANCH   5   8
ATOM      8  C   UNL A   1      45.092  25.151  32.057  1.00  0.00     0.040 A 
ATOM      9  C   UNL A   1      45.256  24.115  29.430  1.00  0.00     0.125 A 
ATOM     10  C   UNL A   1      44.377  23.549  30.353  1.00  0.00     0.052 A 
ATOM     11  C   UNL A   1      45.955  25.271  29.795  1.00  0.00     0.052 A 
ATOM     12  C   UNL A   1      44.318  24.046  31.661  1.00  0.00     0.018 A 
ATOM     13  C   UNL A   1      45.857  25.801  31.087  1.00  0.00     0.018 A 
BRANCH   9  14
ATOM     14  N   UNL A   1      45.522  23.545  28.172  1.00  0.00    -0.234 N 
ATOM     15  C   UNL A   1      41.571  24.774  25.555  1.00  0.00     0.036 C 
ATOM     16  C   UNL A   1      42.885  24.637  25.791  1.00  0.00     0.110 C 
ATOM     17  S   UNL A   1      43.774  25.343  27.072  1.00  0.00     0.007 SA
ATOM     18  C   UNL A   1      43.733  23.614  25.119  1.00  0.00     0.348 C 
ATOM     19  C   UNL A   1      44.835  23.956  27.153  1.00  0.00     0.324 C 
ATOM     20  N   UNL A   1      44.785  23.283  25.956  1.00  0.00    -0.189 N 
ATOM     21  O   UNL A   1      43.453  23.093  24.048  1.00  0.00    -0.240 OA
ATOM     22  C   UNL A   1      45.616  22.131  25.692  1.00  0.00     0.301 C 
ATOM     23  H   UNL A   1      46.214  22.852  28.068  1.00  0.00     0.313 HD
BRANCH  15  24
ATOM     24  C   UNL A   1      40.667  25.563  26.414  1.00  0.00     0.022 A 
ATOM     25  C   UNL A   1      40.077  27.752  27.292  1.00  0.00     0.119 A 
ATOM     26  C   UNL A   1      39.207  27.163  28.205  1.00  0.00     0.050 A 
ATOM     27  C   UNL A   1      40.821  26.959  26.412  1.00  0.00     0.058 A 
ATOM     28  C   UNL A   1      39.020  25.784  28.195  1.00  0.00     0.051 A 
ATOM     29  C   UNL A   1      39.712  24.986  27.281  1.00  0.00     0.126 A 
BRANCH  25  30
ATOM     30  O   UNL A   1      40.215  29.111  27.376  1.00  0.00    -0.497 OA
ATOM     31  C   UNL A   1      39.090  29.746  27.977  1.00  0.00     0.278 C 
ENDBRANCH  25  30
BRANCH  29  32
ATOM     32  O   UNL A   1      39.460  23.642  27.404  1.00  0.00    -0.496 OA
ATOM     33  C   UNL A   1      38.548  23.118  26.443  1.00  0.00     0.278 C 
ENDBRANCH  29  32
ENDBRANCH  15  24
ENDBRANCH   9  14
ENDBRANCH   5   8
ENDBRANCH   3   4
ENDBRANCH   2   3
ENDBRANCH   1   2
BRANCH   1  34
ATOM     34  C   UNL A   1      40.806  28.212  31.114  1.00  0.00     0.002 C 
BRANCH  34  35
ATOM     35  C   UNL A   1      39.677  27.873  32.092  1.00  0.00     0.021 C 
BRANCH  35  36
ATOM     36  C   UNL A   1      38.309  28.431  31.710  1.00  0.00     0.116 C 
BRANCH  36  37
ATOM     37  N   UNL A   1      37.743  29.259  32.765  1.00  0.00    -0.352 N 
ATOM     38  C   UNL A   1      38.276  30.374  33.364  1.00  0.00     0.251 C 
ATOM     39  H   UNL A   1      36.858  28.981  33.094  1.00  0.00     0.163 HD
ATOM     40  O   UNL A   1      37.755  30.840  34.373  1.00  0.00    -0.269 OA
BRANCH  38  41
ATOM     41  C   UNL A   1      39.491  31.002  32.800  1.00  0.00     0.039 A 
ATOM     42  C   UNL A   1      40.676  30.982  33.541  1.00  0.00     0.014 A 
ATOM     43  C   UNL A   1      39.456  31.621  31.547  1.00  0.00     0.014 A 
ATOM     44  C   UNL A   1      41.842  31.534  33.001  1.00  0.00     0.010 A 
ATOM     45  C   UNL A   1      40.630  32.123  30.989  1.00  0.00     0.010 A 
ATOM     46  C   UNL A   1      41.834  32.086  31.710  1.00  0.00    -0.014 A 
BRANCH  46  47
ATOM     47  C   UNL A   1      43.060  32.653  31.093  1.00  0.00     0.031 A 
ATOM     48  C   UNL A   1      43.344  34.126  31.222  1.00  0.00     0.074 A 
ATOM     49  C   UNL A   1      43.869  31.870  30.353  1.00  0.00     0.049 A 
ATOM     50  N   UNL A   1      44.263  34.844  30.631  1.00  0.00    -0.248 NA
ATOM     51  C   UNL A   1      42.460  34.895  32.115  1.00  0.00     0.031 C 
ATOM     52  C   UNL A   1      43.696  30.432  30.136  1.00  0.00     0.029 A 
ATOM     53  N   UNL A   1      44.992  32.182  29.626  1.00  0.00    -0.354 N 
ATOM     54  C   UNL A   1      44.054  36.150  31.059  1.00  0.00     0.074 A 
ATOM     55  C   UNL A   1      42.902  36.132  31.934  1.00  0.00     0.031 C 
ATOM     56  C   UNL A   1      44.679  29.986  29.336  1.00  0.00     0.029 A 
ATOM     57  C   UNL A   1      45.527  31.111  28.949  1.00  0.00     0.049 A 
ATOM     58  H   UNL A   1      45.378  33.087  29.594  1.00  0.00     0.167 HD
ATOM     59  C   UNL A   1      44.767  37.263  30.761  1.00  0.00     0.031 A 
ATOM     60  C   UNL A   1      46.569  31.044  28.097  1.00  0.00     0.031 A 
ATOM     61  C   UNL A   1      45.925  37.277  29.910  1.00  0.00     0.049 A 
ATOM     62  C   UNL A   1      47.345  32.296  27.783  1.00  0.00     0.074 A 
ATOM     63  C   UNL A   1      46.727  38.352  29.567  1.00  0.00     0.029 A 
ATOM     64  N   UNL A   1      46.456  36.163  29.281  1.00  0.00    -0.354 N 
ATOM     65  N   UNL A   1      47.141  33.518  28.211  1.00  0.00    -0.248 NA
ATOM     66  C   UNL A   1      48.496  32.157  26.879  1.00  0.00     0.031 C 
ATOM     67  C   UNL A   1      47.730  37.891  28.708  1.00  0.00     0.029 A 
ATOM     68  C   UNL A   1      47.576  36.523  28.553  1.00  0.00     0.049 A 
ATOM     69  H   UNL A   1      46.091  35.250  29.344  1.00  0.00     0.167 HD
ATOM     70  C   UNL A   1      48.160  34.287  27.658  1.00  0.00     0.074 A 
ATOM     71  C   UNL A   1      48.980  33.392  26.868  1.00  0.00     0.031 C 
ATOM     72  C   UNL A   1      48.396  35.614  27.795  1.00  0.00     0.031 A 
BRANCH  59  73
ATOM     73  C   UNL A   1      44.312  38.564  31.367  1.00  0.00    -0.014 A 
ATOM     74  C   UNL A   1      44.689  38.920  32.674  1.00  0.00     0.010 A 
ATOM     75  C   UNL A   1      43.549  39.465  30.602  1.00  0.00     0.010 A 
ATOM     76  C   UNL A   1      44.283  40.141  33.217  1.00  0.00     0.020 A 
ATOM     77  C   UNL A   1      43.162  40.698  31.134  1.00  0.00     0.020 A 
ATOM     78  C   UNL A   1      43.521  41.023  32.445  1.00  0.00     0.054 A 
BRANCH  78  79
ATOM     79  S   UNL A   1      43.038  42.617  33.162  1.00  0.00     0.124 S 
ATOM     80  O   UNL A   1      42.451  43.299  32.010  1.00  0.00    -0.237 OA
ATOM     81  O   UNL A   1      42.095  42.227  34.207  1.00  0.00    -0.237 OA
ATOM     82  O   UNL A   1      44.299  43.177  33.641  1.00  0.00    -0.744 OA
ENDBRANCH  78  79
ENDBRANCH  59  73
BRANCH  60  83
ATOM     83  C   UNL A   1      46.946  29.747  27.474  1.00  0.00    -0.014 A 
ATOM     84  C   UNL A   1      46.530  29.435  26.168  1.00  0.00     0.010 A 
ATOM     85  C   UNL A   1      47.711  28.808  28.191  1.00  0.00     0.010 A 
ATOM     86  C   UNL A   1      46.842  28.196  25.601  1.00  0.00     0.020 A 
ATOM     87  C   UNL A   1      48.047  27.579  27.619  1.00  0.00     0.020 A 
ATOM     88  C   UNL A   1      47.595  27.273  26.332  1.00  0.00     0.054 A 
BRANCH  88  89
ATOM     89  S   UNL A   1      48.013  25.679  25.573  1.00  0.00     0.124 S 
ATOM     90  O   UNL A   1      46.901  25.484  24.649  1.00  0.00    -0.237 OA
ATOM     91  O   UNL A   1      49.310  25.948  24.959  1.00  0.00    -0.237 OA
ATOM     92  O   UNL A   1      48.051  24.762  26.712  1.00  0.00    -0.744 OA
ENDBRANCH  88  89
ENDBRANCH  60  83
BRANCH  72  93
ATOM     93  C   UNL A   1      49.622  36.177  27.132  1.00  0.00    -0.014 A 
ATOM     94  C   UNL A   1      50.842  36.281  27.821  1.00  0.00     0.010 A 
ATOM     95  C   UNL A   1      49.566  36.531  25.772  1.00  0.00     0.010 A 
ATOM     96  C   UNL A   1      51.984  36.746  27.164  1.00  0.00     0.020 A 
ATOM     97  C   UNL A   1      50.710  36.978  25.106  1.00  0.00     0.020 A 
ATOM     98  C   UNL A   1      51.911  37.090  25.810  1.00  0.00     0.054 A 
BRANCH  98  99
ATOM     99  S   UNL A   1      53.421  37.628  24.959  1.00  0.00     0.124 S 
ATOM    100  O   UNL A   1      53.160  37.210  23.585  1.00  0.00    -0.237 OA
ATOM    101  O   UNL A   1      53.422  39.070  25.189  1.00  0.00    -0.237 OA
ATOM    102  O   UNL A   1      54.483  36.895  25.645  1.00  0.00    -0.744 OA
ENDBRANCH  98  99
ENDBRANCH  72  93
ENDBRANCH  46  47
ENDBRANCH  38  41
ENDBRANCH  36  37
ENDBRANCH  35  36
ENDBRANCH  34  35
ENDBRANCH   1  34
TORSDOF 20
ENDMDL
