MODEL 1
REMARK VINA RESULT:     -10.7      0.000      0.000
REMARK SMILES Cc1ccc(/C=C/C(=O)N[C@](C)(C(=O)NCCCCCCNC(=O)c2ccc(-c3c4nc(c(-c5ccc(S(=O)(=O)[O-])cc5)c5ccc([nH]5)c(-c5ccc(S(=O)(=O)[O-])cc5)c5nc(c(-c6ccc(S(=O)(=O)[O-])cc6)c6ccc3[nH]6)C=C5)C=C4)cc2)C(F)(F)F)o1
REMARK SMILES IDX 18 1 17 2 16 3 15 4 13 5 14 6 11 8 12 9 10 10 8 11 9 12 7 14
REMARK SMILES IDX 6 15 5 16 1 17 2 18 3 19 89 20 4 21 85 22 86 23 87 24 88 25
REMARK SMILES IDX 19 26 20 27 21 28 22 29 23 30 24 32 25 33 26 34 84 35 27 36
REMARK SMILES IDX 83 37 28 38 29 39 30 40 77 41 31 42 82 43 76 44 78 45 32 46
REMARK SMILES IDX 81 47 75 48 74 49 33 51 63 52 44 53 62 54 45 55 48 56 61 57
REMARK SMILES IDX 79 58 46 59 47 60 60 62 80 63 49 64 34 65 35 66 43 67 36 68
REMARK SMILES IDX 42 69 37 70 38 71 39 72 40 73 41 74 64 75 65 76 73 77 66 78
REMARK SMILES IDX 72 79 67 80 68 81 69 82 70 83 71 84 50 85 51 86 59 87 52 88
REMARK SMILES IDX 58 89 53 90 54 91 55 92 56 93 57 94
REMARK H PARENT 15 7 10 13 22 31 78 50 48 61
REMARK Flexibility Score: inf
ROOT
ATOM      1  C   UNL A   1      37.154  22.274  24.615  1.00  0.00     0.002 C 
ENDROOT
BRANCH   1   2
ATOM      2  C   UNL A   1      36.695  23.048  25.851  1.00  0.00     0.021 C 
BRANCH   2   3
ATOM      3  C   UNL A   1      35.438  23.905  25.645  1.00  0.00     0.116 C 
BRANCH   3   4
ATOM      4  N   UNL A   1      35.139  24.042  24.226  1.00  0.00    -0.354 N 
ATOM      5  C   UNL A   1      34.097  24.504  23.485  1.00  0.00     0.254 C 
ATOM      6  O   UNL A   1      34.207  24.253  22.276  1.00  0.00    -0.272 OA
ATOM      7  H   UNL A   1      35.879  23.720  23.661  1.00  0.00     0.163 HD
BRANCH   5   8
ATOM      8  C   UNL A   1      32.798  25.172  24.018  1.00  0.00     0.212 C 
ATOM      9  C   UNL A   1      31.805  25.374  22.853  1.00  0.00     0.056 C 
BRANCH   8  10
ATOM     10  N   UNL A   1      32.174  24.557  25.242  1.00  0.00    -0.331 N 
ATOM     11  C   UNL A   1      31.697  23.362  25.660  1.00  0.00     0.245 C 
ATOM     12  O   UNL A   1      31.109  23.343  26.742  1.00  0.00    -0.270 OA
ATOM     13  H   UNL A   1      32.085  25.229  25.957  1.00  0.00     0.165 HD
BRANCH  11  14
ATOM     14  C   UNL A   1      31.837  22.091  24.923  1.00  0.00     0.075 C 
ATOM     15  C   UNL A   1      32.811  21.213  25.167  1.00  0.00     0.053 C 
BRANCH  15  16
ATOM     16  C   UNL A   1      32.901  19.938  24.561  1.00  0.00     0.127 A 
ATOM     17  C   UNL A   1      34.632  16.825  24.126  1.00  0.00     0.087 C 
ATOM     18  C   UNL A   1      33.675  17.943  24.005  1.00  0.00     0.101 A 
ATOM     19  C   UNL A   1      32.632  18.194  23.146  1.00  0.00     0.046 A 
ATOM     20  O   UNL A   1      33.825  18.974  24.880  1.00  0.00    -0.462 OA
ATOM     21  C   UNL A   1      32.143  19.469  23.496  1.00  0.00     0.050 A 
ENDBRANCH  15  16
ENDBRANCH  11  14
ENDBRANCH   8  10
BRANCH   8  22
ATOM     22  C   UNL A   1      33.277  26.606  24.412  1.00  0.00     0.420 C 
ATOM     23  F   UNL A   1      34.193  27.148  23.583  1.00  0.00    -0.168 F 
ATOM     24  F   UNL A   1      32.220  27.463  24.421  1.00  0.00    -0.168 F 
ATOM     25  F   UNL A   1      33.789  26.621  25.668  1.00  0.00    -0.168 F 
ENDBRANCH   8  22
ENDBRANCH   5   8
ENDBRANCH   3   4
ENDBRANCH   2   3
ENDBRANCH   1   2
BRANCH   1  26
ATOM     26  C   UNL A   1      36.775  20.790  24.603  1.00  0.00     0.002 C 
BRANCH  26  27
ATOM     27  C   UNL A   1      37.913  19.807  24.903  1.00  0.00     0.021 C 
BRANCH  27  28
ATOM     28  C   UNL A   1      39.022  20.334  25.814  1.00  0.00     0.116 C 
BRANCH  28  29
ATOM     29  N   UNL A   1      40.102  19.375  25.970  1.00  0.00    -0.352 N 
ATOM     30  C   UNL A   1      41.445  19.576  26.156  1.00  0.00     0.251 C 
ATOM     31  H   UNL A   1      39.826  18.432  25.937  1.00  0.00     0.163 HD
ATOM     32  O   UNL A   1      42.212  18.617  26.053  1.00  0.00    -0.269 OA
BRANCH  30  33
ATOM     33  C   UNL A   1      41.990  20.917  26.473  1.00  0.00     0.039 A 
ATOM     34  C   UNL A   1      42.177  21.824  25.426  1.00  0.00     0.014 A 
ATOM     35  C   UNL A   1      42.385  21.265  27.768  1.00  0.00     0.014 A 
ATOM     36  C   UNL A   1      42.724  23.085  25.680  1.00  0.00     0.010 A 
ATOM     37  C   UNL A   1      42.876  22.546  28.032  1.00  0.00     0.010 A 
ATOM     38  C   UNL A   1      43.063  23.466  26.990  1.00  0.00    -0.014 A 
BRANCH  38  39
ATOM     39  C   UNL A   1      43.609  24.821  27.263  1.00  0.00     0.031 A 
ATOM     40  C   UNL A   1      45.057  25.139  26.989  1.00  0.00     0.074 A 
ATOM     41  C   UNL A   1      42.803  25.766  27.789  1.00  0.00     0.049 A 
ATOM     42  N   UNL A   1      45.694  26.273  27.141  1.00  0.00    -0.248 NA
ATOM     43  C   UNL A   1      45.907  24.038  26.505  1.00  0.00     0.031 C 
ATOM     44  C   UNL A   1      41.400  25.569  28.164  1.00  0.00     0.029 A 
ATOM     45  N   UNL A   1      43.047  27.080  28.102  1.00  0.00    -0.354 N 
ATOM     46  C   UNL A   1      47.016  26.019  26.795  1.00  0.00     0.074 A 
ATOM     47  C   UNL A   1      47.100  24.615  26.457  1.00  0.00     0.031 C 
ATOM     48  C   UNL A   1      40.903  26.724  28.635  1.00  0.00     0.029 A 
ATOM     49  C   UNL A   1      41.952  27.738  28.615  1.00  0.00     0.049 A 
ATOM     50  H   UNL A   1      43.922  27.512  27.972  1.00  0.00     0.167 HD
ATOM     51  C   UNL A   1      48.062  26.879  26.748  1.00  0.00     0.031 A 
ATOM     52  C   UNL A   1      41.807  29.015  29.019  1.00  0.00     0.031 A 
ATOM     53  C   UNL A   1      47.970  28.284  27.051  1.00  0.00     0.049 A 
ATOM     54  C   UNL A   1      42.970  29.961  28.894  1.00  0.00     0.074 A 
ATOM     55  C   UNL A   1      48.954  29.253  26.942  1.00  0.00     0.029 A 
ATOM     56  N   UNL A   1      46.833  28.922  27.519  1.00  0.00    -0.354 N 
ATOM     57  N   UNL A   1      44.186  29.721  28.466  1.00  0.00    -0.248 NA
ATOM     58  C   UNL A   1      42.730  31.357  29.284  1.00  0.00     0.031 C 
ATOM     59  C   UNL A   1      48.425  30.468  27.387  1.00  0.00     0.029 A 
ATOM     60  C   UNL A   1      47.097  30.267  27.724  1.00  0.00     0.049 A 
ATOM     61  H   UNL A   1      45.967  28.485  27.681  1.00  0.00     0.167 HD
ATOM     62  C   UNL A   1      44.849  30.943  28.514  1.00  0.00     0.074 A 
ATOM     63  C   UNL A   1      43.892  31.921  28.986  1.00  0.00     0.031 C 
ATOM     64  C   UNL A   1      46.136  31.228  28.198  1.00  0.00     0.031 A 
BRANCH  51  65
ATOM     65  C   UNL A   1      49.408  26.334  26.350  1.00  0.00    -0.014 A 
ATOM     66  C   UNL A   1      49.912  26.519  25.051  1.00  0.00     0.010 A 
ATOM     67  C   UNL A   1      50.217  25.706  27.316  1.00  0.00     0.010 A 
ATOM     68  C   UNL A   1      51.193  26.066  24.718  1.00  0.00     0.020 A 
ATOM     69  C   UNL A   1      51.506  25.273  26.992  1.00  0.00     0.020 A 
ATOM     70  C   UNL A   1      51.982  25.447  25.692  1.00  0.00     0.054 A 
BRANCH  70  71
ATOM     71  S   UNL A   1      53.662  24.923  25.248  1.00  0.00     0.124 S 
ATOM     72  O   UNL A   1      54.419  25.299  26.440  1.00  0.00    -0.237 OA
ATOM     73  O   UNL A   1      53.503  23.487  25.032  1.00  0.00    -0.237 OA
ATOM     74  O   UNL A   1      53.963  25.701  24.049  1.00  0.00    -0.744 OA
ENDBRANCH  70  71
ENDBRANCH  51  65
BRANCH  52  75
ATOM     75  C   UNL A   1      40.505  29.484  29.567  1.00  0.00    -0.014 A 
ATOM     76  C   UNL A   1      39.437  29.799  28.709  1.00  0.00     0.010 A 
ATOM     77  C   UNL A   1      40.337  29.639  30.954  1.00  0.00     0.010 A 
ATOM     78  C   UNL A   1      38.239  30.302  29.225  1.00  0.00     0.020 A 
ATOM     79  C   UNL A   1      39.131  30.113  31.476  1.00  0.00     0.020 A 
ATOM     80  C   UNL A   1      38.096  30.461  30.607  1.00  0.00     0.054 A 
BRANCH  80  81
ATOM     81  S   UNL A   1      36.528  31.096  31.262  1.00  0.00     0.124 S 
ATOM     82  O   UNL A   1      35.710  31.184  30.055  1.00  0.00    -0.237 OA
ATOM     83  O   UNL A   1      36.138  30.061  32.216  1.00  0.00    -0.237 OA
ATOM     84  O   UNL A   1      36.903  32.374  31.861  1.00  0.00    -0.744 OA
ENDBRANCH  80  81
ENDBRANCH  52  75
BRANCH  64  85
ATOM     85  C   UNL A   1      46.568  32.664  28.323  1.00  0.00    -0.014 A 
ATOM     86  C   UNL A   1      46.449  33.558  27.242  1.00  0.00     0.010 A 
ATOM     87  C   UNL A   1      47.098  33.128  29.542  1.00  0.00     0.010 A 
ATOM     88  C   UNL A   1      46.907  34.873  27.360  1.00  0.00     0.020 A 
ATOM     89  C   UNL A   1      47.530  34.450  29.671  1.00  0.00     0.020 A 
ATOM     90  C   UNL A   1      47.454  35.307  28.571  1.00  0.00     0.054 A 
BRANCH  90  91
ATOM     91  S   UNL A   1      48.049  37.015  28.703  1.00  0.00     0.124 S 
ATOM     92  O   UNL A   1      48.233  37.161  30.144  1.00  0.00    -0.237 OA
ATOM     93  O   UNL A   1      49.277  36.993  27.911  1.00  0.00    -0.237 OA
ATOM     94  O   UNL A   1      46.961  37.804  28.129  1.00  0.00    -0.744 OA
ENDBRANCH  90  91
ENDBRANCH  64  85
ENDBRANCH  38  39
ENDBRANCH  30  33
ENDBRANCH  28  29
ENDBRANCH  27  28
ENDBRANCH  26  27
ENDBRANCH   1  26
TORSDOF 20
ENDMDL
MODEL 2
REMARK VINA RESULT:     -10.5      1.915      3.784
REMARK SMILES Cc1ccc(/C=C/C(=O)N[C@](C)(C(=O)NCCCCCCNC(=O)c2ccc(-c3c4nc(c(-c5ccc(S(=O)(=O)[O-])cc5)c5ccc([nH]5)c(-c5ccc(S(=O)(=O)[O-])cc5)c5nc(c(-c6ccc(S(=O)(=O)[O-])cc6)c6ccc3[nH]6)C=C5)C=C4)cc2)C(F)(F)F)o1
REMARK SMILES IDX 18 1 17 2 16 3 15 4 13 5 14 6 11 8 12 9 10 10 8 11 9 12 7 14
REMARK SMILES IDX 6 15 5 16 1 17 2 18 3 19 89 20 4 21 85 22 86 23 87 24 88 25
REMARK SMILES IDX 19 26 20 27 21 28 22 29 23 30 24 32 25 33 26 34 84 35 27 36
REMARK SMILES IDX 83 37 28 38 29 39 30 40 77 41 31 42 82 43 76 44 78 45 32 46
REMARK SMILES IDX 81 47 75 48 74 49 33 51 63 52 44 53 62 54 45 55 48 56 61 57
REMARK SMILES IDX 79 58 46 59 47 60 60 62 80 63 49 64 34 65 35 66 43 67 36 68
REMARK SMILES IDX 42 69 37 70 38 71 39 72 40 73 41 74 64 75 65 76 73 77 66 78
REMARK SMILES IDX 72 79 67 80 68 81 69 82 70 83 71 84 50 85 51 86 59 87 52 88
REMARK SMILES IDX 58 89 53 90 54 91 55 92 56 93 57 94
REMARK H PARENT 15 7 10 13 22 31 78 50 48 61
REMARK Flexibility Score: inf
ROOT
ATOM      1  C   UNL A   1      37.255  22.646  25.021  1.00  0.00     0.002 C 
ENDROOT
BRANCH   1   2
ATOM      2  C   UNL A   1      36.144  23.029  26.000  1.00  0.00     0.021 C 
BRANCH   2   3
ATOM      3  C   UNL A   1      35.293  24.232  25.569  1.00  0.00     0.116 C 
BRANCH   3   4
ATOM      4  N   UNL A   1      33.899  24.033  25.942  1.00  0.00    -0.354 N 
ATOM      5  C   UNL A   1      32.723  23.867  25.280  1.00  0.00     0.254 C 
ATOM      6  O   UNL A   1      31.732  23.916  26.023  1.00  0.00    -0.272 OA
ATOM      7  H   UNL A   1      33.778  24.012  26.918  1.00  0.00     0.163 HD
BRANCH   5   8
ATOM      8  C   UNL A   1      32.527  23.751  23.741  1.00  0.00     0.212 C 
ATOM      9  C   UNL A   1      31.033  23.526  23.426  1.00  0.00     0.056 C 
BRANCH   8  10
ATOM     10  N   UNL A   1      33.167  24.820  22.895  1.00  0.00    -0.331 N 
ATOM     11  C   UNL A   1      32.820  25.945  22.229  1.00  0.00     0.245 C 
ATOM     12  O   UNL A   1      33.679  26.454  21.510  1.00  0.00    -0.270 OA
ATOM     13  H   UNL A   1      34.131  24.647  22.797  1.00  0.00     0.165 HD
BRANCH  11  14
ATOM     14  C   UNL A   1      31.502  26.604  22.311  1.00  0.00     0.075 C 
ATOM     15  C   UNL A   1      31.349  27.929  22.301  1.00  0.00     0.053 C 
BRANCH  15  16
ATOM     16  C   UNL A   1      30.097  28.584  22.259  1.00  0.00     0.127 A 
ATOM     17  C   UNL A   1      28.066  31.329  21.155  1.00  0.00     0.087 C 
ATOM     18  C   UNL A   1      28.549  30.099  21.814  1.00  0.00     0.101 A 
ATOM     19  C   UNL A   1      27.990  29.253  22.741  1.00  0.00     0.046 A 
ATOM     20  O   UNL A   1      29.806  29.687  21.494  1.00  0.00    -0.462 OA
ATOM     21  C   UNL A   1      28.980  28.292  23.030  1.00  0.00     0.050 A 
ENDBRANCH  15  16
ENDBRANCH  11  14
ENDBRANCH   8  10
BRANCH   8  22
ATOM     22  C   UNL A   1      33.235  22.401  23.398  1.00  0.00     0.420 C 
ATOM     23  F   UNL A   1      33.372  21.550  24.436  1.00  0.00    -0.168 F 
ATOM     24  F   UNL A   1      32.524  21.732  22.450  1.00  0.00    -0.168 F 
ATOM     25  F   UNL A   1      34.464  22.618  22.868  1.00  0.00    -0.168 F 
ENDBRANCH   8  22
ENDBRANCH   5   8
ENDBRANCH   3   4
ENDBRANCH   2   3
ENDBRANCH   1   2
BRANCH   1  26
ATOM     26  C   UNL A   1      37.086  21.277  24.356  1.00  0.00     0.002 C 
BRANCH  26  27
ATOM     27  C   UNL A   1      37.886  20.127  24.980  1.00  0.00     0.021 C 
BRANCH  27  28
ATOM     28  C   UNL A   1      38.989  20.540  25.955  1.00  0.00     0.116 C 
BRANCH  28  29
ATOM     29  N   UNL A   1      40.066  19.565  26.006  1.00  0.00    -0.352 N 
ATOM     30  C   UNL A   1      41.419  19.745  26.130  1.00  0.00     0.251 C 
ATOM     31  H   UNL A   1      39.777  18.627  25.942  1.00  0.00     0.163 HD
ATOM     32  O   UNL A   1      42.168  18.785  25.940  1.00  0.00    -0.269 OA
BRANCH  30  33
ATOM     33  C   UNL A   1      41.995  21.063  26.482  1.00  0.00     0.039 A 
ATOM     34  C   UNL A   1      42.224  21.985  25.457  1.00  0.00     0.014 A 
ATOM     35  C   UNL A   1      42.378  21.374  27.791  1.00  0.00     0.014 A 
ATOM     36  C   UNL A   1      42.801  23.225  25.745  1.00  0.00     0.010 A 
ATOM     37  C   UNL A   1      42.900  22.636  28.088  1.00  0.00     0.010 A 
ATOM     38  C   UNL A   1      43.128  23.570  27.068  1.00  0.00    -0.014 A 
BRANCH  38  39
ATOM     39  C   UNL A   1      43.707  24.905  27.376  1.00  0.00     0.031 A 
ATOM     40  C   UNL A   1      45.160  25.199  27.099  1.00  0.00     0.074 A 
ATOM     41  C   UNL A   1      42.927  25.851  27.938  1.00  0.00     0.049 A 
ATOM     42  N   UNL A   1      45.823  26.313  27.280  1.00  0.00    -0.248 NA
ATOM     43  C   UNL A   1      45.980  24.095  26.575  1.00  0.00     0.031 C 
ATOM     44  C   UNL A   1      41.523  25.673  28.319  1.00  0.00     0.029 A 
ATOM     45  N   UNL A   1      43.202  27.149  28.288  1.00  0.00    -0.354 N 
ATOM     46  C   UNL A   1      47.136  26.040  26.914  1.00  0.00     0.074 A 
ATOM     47  C   UNL A   1      47.186  24.646  26.533  1.00  0.00     0.031 C 
ATOM     48  C   UNL A   1      41.056  26.825  28.829  1.00  0.00     0.029 A 
ATOM     49  C   UNL A   1      42.127  27.815  28.830  1.00  0.00     0.049 A 
ATOM     50  H   UNL A   1      44.086  27.565  28.163  1.00  0.00     0.167 HD
ATOM     51  C   UNL A   1      48.200  26.879  26.883  1.00  0.00     0.031 A 
ATOM     52  C   UNL A   1      42.014  29.082  29.274  1.00  0.00     0.031 A 
ATOM     53  C   UNL A   1      48.143  28.275  27.229  1.00  0.00     0.049 A 
ATOM     54  C   UNL A   1      43.197  30.006  29.167  1.00  0.00     0.074 A 
ATOM     55  C   UNL A   1      49.148  29.225  27.141  1.00  0.00     0.029 A 
ATOM     56  N   UNL A   1      47.025  28.924  27.727  1.00  0.00    -0.354 N 
ATOM     57  N   UNL A   1      44.404  29.752  28.721  1.00  0.00    -0.248 NA
ATOM     58  C   UNL A   1      42.992  31.395  29.601  1.00  0.00     0.031 C 
ATOM     59  C   UNL A   1      48.649  30.437  27.627  1.00  0.00     0.029 A 
ATOM     60  C   UNL A   1      47.320  30.255  27.970  1.00  0.00     0.049 A 
ATOM     61  H   UNL A   1      46.150  28.502  27.883  1.00  0.00     0.167 HD
ATOM     62  C   UNL A   1      45.094  30.957  28.800  1.00  0.00     0.074 A 
ATOM     63  C   UNL A   1      44.163  31.941  29.310  1.00  0.00     0.031 C 
ATOM     64  C   UNL A   1      46.385  31.223  28.481  1.00  0.00     0.031 A 
BRANCH  51  65
ATOM     65  C   UNL A   1      49.531  26.316  26.457  1.00  0.00    -0.014 A 
ATOM     66  C   UNL A   1      49.974  26.425  25.128  1.00  0.00     0.010 A 
ATOM     67  C   UNL A   1      50.387  25.750  27.421  1.00  0.00     0.010 A 
ATOM     68  C   UNL A   1      51.241  25.958  24.764  1.00  0.00     0.020 A 
ATOM     69  C   UNL A   1      51.663  25.303  27.064  1.00  0.00     0.020 A 
ATOM     70  C   UNL A   1      52.078  25.402  25.735  1.00  0.00     0.054 A 
BRANCH  70  71
ATOM     71  S   UNL A   1      53.740  24.858  25.247  1.00  0.00     0.124 S 
ATOM     72  O   UNL A   1      53.535  23.429  25.028  1.00  0.00    -0.237 OA
ATOM     73  O   UNL A   1      53.995  25.649  24.046  1.00  0.00    -0.237 OA
ATOM     74  O   UNL A   1      54.568  25.198  26.401  1.00  0.00    -0.744 OA
ENDBRANCH  70  71
ENDBRANCH  51  65
BRANCH  52  75
ATOM     75  C   UNL A   1      40.728  29.563  29.847  1.00  0.00    -0.014 A 
ATOM     76  C   UNL A   1      40.395  29.298  31.188  1.00  0.00     0.010 A 
ATOM     77  C   UNL A   1      39.816  30.270  29.044  1.00  0.00     0.010 A 
ATOM     78  C   UNL A   1      39.157  29.694  31.702  1.00  0.00     0.020 A 
ATOM     79  C   UNL A   1      38.590  30.694  29.563  1.00  0.00     0.020 A 
ATOM     80  C   UNL A   1      38.260  30.386  30.883  1.00  0.00     0.054 A 
BRANCH  80  81
ATOM     81  S   UNL A   1      36.666  30.911  31.572  1.00  0.00     0.124 S 
ATOM     82  O   UNL A   1      36.476  29.954  32.658  1.00  0.00    -0.237 OA
ATOM     83  O   UNL A   1      36.932  32.287  31.981  1.00  0.00    -0.237 OA
ATOM     84  O   UNL A   1      35.747  30.772  30.445  1.00  0.00    -0.744 OA
ENDBRANCH  80  81
ENDBRANCH  52  75
BRANCH  64  85
ATOM     85  C   UNL A   1      46.850  32.645  28.646  1.00  0.00    -0.014 A 
ATOM     86  C   UNL A   1      46.776  33.563  27.581  1.00  0.00     0.010 A 
ATOM     87  C   UNL A   1      47.365  33.070  29.884  1.00  0.00     0.010 A 
ATOM     88  C   UNL A   1      47.264  34.863  27.736  1.00  0.00     0.020 A 
ATOM     89  C   UNL A   1      47.827  34.377  30.051  1.00  0.00     0.020 A 
ATOM     90  C   UNL A   1      47.796  35.258  28.968  1.00  0.00     0.054 A 
BRANCH  90  91
ATOM     91  S   UNL A   1      48.431  36.947  29.148  1.00  0.00     0.124 S 
ATOM     92  O   UNL A   1      48.484  37.098  30.599  1.00  0.00    -0.237 OA
ATOM     93  O   UNL A   1      49.726  36.881  28.475  1.00  0.00    -0.237 OA
ATOM     94  O   UNL A   1      47.427  37.767  28.471  1.00  0.00    -0.744 OA
ENDBRANCH  90  91
ENDBRANCH  64  85
ENDBRANCH  38  39
ENDBRANCH  30  33
ENDBRANCH  28  29
ENDBRANCH  27  28
ENDBRANCH  26  27
ENDBRANCH   1  26
TORSDOF 20
ENDMDL
MODEL 3
REMARK VINA RESULT:     -10.0      1.714      3.348
REMARK SMILES Cc1ccc(/C=C/C(=O)N[C@](C)(C(=O)NCCCCCCNC(=O)c2ccc(-c3c4nc(c(-c5ccc(S(=O)(=O)[O-])cc5)c5ccc([nH]5)c(-c5ccc(S(=O)(=O)[O-])cc5)c5nc(c(-c6ccc(S(=O)(=O)[O-])cc6)c6ccc3[nH]6)C=C5)C=C4)cc2)C(F)(F)F)o1
REMARK SMILES IDX 18 1 17 2 16 3 15 4 13 5 14 6 11 8 12 9 10 10 8 11 9 12 7 14
REMARK SMILES IDX 6 15 5 16 1 17 2 18 3 19 89 20 4 21 85 22 86 23 87 24 88 25
REMARK SMILES IDX 19 26 20 27 21 28 22 29 23 30 24 32 25 33 26 34 84 35 27 36
REMARK SMILES IDX 83 37 28 38 29 39 30 40 77 41 31 42 82 43 76 44 78 45 32 46
REMARK SMILES IDX 81 47 75 48 74 49 33 51 63 52 44 53 62 54 45 55 48 56 61 57
REMARK SMILES IDX 79 58 46 59 47 60 60 62 80 63 49 64 34 65 35 66 43 67 36 68
REMARK SMILES IDX 42 69 37 70 38 71 39 72 40 73 41 74 64 75 65 76 73 77 66 78
REMARK SMILES IDX 72 79 67 80 68 81 69 82 70 83 71 84 50 85 51 86 59 87 52 88
REMARK SMILES IDX 58 89 53 90 54 91 55 92 56 93 57 94
REMARK H PARENT 15 7 10 13 22 31 78 50 48 61
REMARK Flexibility Score: inf
ROOT
ATOM      1  C   UNL A   1      37.407  22.725  24.922  1.00  0.00     0.002 C 
ENDROOT
BRANCH   1   2
ATOM      2  C   UNL A   1      36.543  23.242  26.073  1.00  0.00     0.021 C 
BRANCH   2   3
ATOM      3  C   UNL A   1      35.342  24.097  25.643  1.00  0.00     0.116 C 
BRANCH   3   4
ATOM      4  N   UNL A   1      34.574  23.417  24.609  1.00  0.00    -0.354 N 
ATOM      5  C   UNL A   1      33.689  22.385  24.566  1.00  0.00     0.254 C 
ATOM      6  O   UNL A   1      33.419  22.021  23.412  1.00  0.00    -0.272 OA
ATOM      7  H   UNL A   1      34.735  23.801  23.717  1.00  0.00     0.163 HD
BRANCH   5   8
ATOM      8  C   UNL A   1      33.120  21.594  25.777  1.00  0.00     0.212 C 
ATOM      9  C   UNL A   1      34.210  21.453  26.861  1.00  0.00     0.056 C 
BRANCH   8  10
ATOM     10  N   UNL A   1      31.789  22.048  26.316  1.00  0.00    -0.331 N 
ATOM     11  C   UNL A   1      31.219  23.157  26.840  1.00  0.00     0.245 C 
ATOM     12  O   UNL A   1      30.088  23.034  27.310  1.00  0.00    -0.270 OA
ATOM     13  H   UNL A   1      31.134  21.313  26.275  1.00  0.00     0.165 HD
BRANCH  11  14
ATOM     14  C   UNL A   1      31.847  24.493  26.879  1.00  0.00     0.075 C 
ATOM     15  C   UNL A   1      31.652  25.416  25.937  1.00  0.00     0.053 C 
BRANCH  15  16
ATOM     16  C   UNL A   1      32.143  26.740  26.008  1.00  0.00     0.127 A 
ATOM     17  C   UNL A   1      34.599  29.080  27.178  1.00  0.00     0.087 C 
ATOM     18  C   UNL A   1      33.410  28.469  26.552  1.00  0.00     0.101 A 
ATOM     19  C   UNL A   1      32.289  28.997  25.958  1.00  0.00     0.046 A 
ATOM     20  O   UNL A   1      33.345  27.109  26.559  1.00  0.00    -0.462 OA
ATOM     21  C   UNL A   1      31.478  27.895  25.617  1.00  0.00     0.050 A 
ENDBRANCH  15  16
ENDBRANCH  11  14
ENDBRANCH   8  10
BRANCH   8  22
ATOM     22  C   UNL A   1      32.920  20.158  25.196  1.00  0.00     0.420 C 
ATOM     23  F   UNL A   1      31.921  20.042  24.296  1.00  0.00    -0.168 F 
ATOM     24  F   UNL A   1      34.052  19.753  24.559  1.00  0.00    -0.168 F 
ATOM     25  F   UNL A   1      32.699  19.258  26.186  1.00  0.00    -0.168 F 
ENDBRANCH   8  22
ENDBRANCH   5   8
ENDBRANCH   3   4
ENDBRANCH   2   3
ENDBRANCH   1   2
BRANCH   1  26
ATOM     26  C   UNL A   1      37.055  21.317  24.433  1.00  0.00     0.002 C 
BRANCH  26  27
ATOM     27  C   UNL A   1      37.936  20.182  24.971  1.00  0.00     0.021 C 
BRANCH  27  28
ATOM     28  C   UNL A   1      39.017  20.599  25.969  1.00  0.00     0.116 C 
BRANCH  28  29
ATOM     29  N   UNL A   1      40.099  19.632  26.037  1.00  0.00    -0.352 N 
ATOM     30  C   UNL A   1      41.455  19.822  26.110  1.00  0.00     0.251 C 
ATOM     31  H   UNL A   1      39.814  18.690  26.030  1.00  0.00     0.163 HD
ATOM     32  O   UNL A   1      42.202  18.856  25.947  1.00  0.00    -0.269 OA
BRANCH  30  33
ATOM     33  C   UNL A   1      42.035  21.159  26.376  1.00  0.00     0.039 A 
ATOM     34  C   UNL A   1      42.330  21.506  27.697  1.00  0.00     0.014 A 
ATOM     35  C   UNL A   1      42.223  22.096  25.355  1.00  0.00     0.014 A 
ATOM     36  C   UNL A   1      42.843  22.772  27.991  1.00  0.00     0.010 A 
ATOM     37  C   UNL A   1      42.791  23.341  25.642  1.00  0.00     0.010 A 
ATOM     38  C   UNL A   1      43.096  23.697  26.963  1.00  0.00    -0.014 A 
BRANCH  38  39
ATOM     39  C   UNL A   1      43.678  25.029  27.275  1.00  0.00     0.031 A 
ATOM     40  C   UNL A   1      45.138  25.311  27.028  1.00  0.00     0.074 A 
ATOM     41  C   UNL A   1      42.892  25.985  27.812  1.00  0.00     0.049 A 
ATOM     42  N   UNL A   1      45.805  26.422  27.216  1.00  0.00    -0.248 NA
ATOM     43  C   UNL A   1      45.962  24.197  26.531  1.00  0.00     0.031 C 
ATOM     44  C   UNL A   1      41.478  25.820  28.163  1.00  0.00     0.029 A 
ATOM     45  N   UNL A   1      43.169  27.283  28.159  1.00  0.00    -0.354 N 
ATOM     46  C   UNL A   1      47.124  26.137  26.882  1.00  0.00     0.074 A 
ATOM     47  C   UNL A   1      47.173  24.740  26.512  1.00  0.00     0.031 C 
ATOM     48  C   UNL A   1      41.008  26.978  28.654  1.00  0.00     0.029 A 
ATOM     49  C   UNL A   1      42.086  27.961  28.673  1.00  0.00     0.049 A 
ATOM     50  H   UNL A   1      44.058  27.692  28.052  1.00  0.00     0.167 HD
ATOM     51  C   UNL A   1      48.195  26.968  26.869  1.00  0.00     0.031 A 
ATOM     52  C   UNL A   1      41.973  29.232  29.105  1.00  0.00     0.031 A 
ATOM     53  C   UNL A   1      48.140  28.367  27.204  1.00  0.00     0.049 A 
ATOM     54  C   UNL A   1      43.164  30.146  29.018  1.00  0.00     0.074 A 
ATOM     55  C   UNL A   1      49.153  29.309  27.132  1.00  0.00     0.029 A 
ATOM     56  N   UNL A   1      47.015  29.027  27.671  1.00  0.00    -0.354 N 
ATOM     57  N   UNL A   1      44.379  29.881  28.601  1.00  0.00    -0.248 NA
ATOM     58  C   UNL A   1      42.959  31.540  29.437  1.00  0.00     0.031 C 
ATOM     59  C   UNL A   1      48.652  30.528  27.598  1.00  0.00     0.029 A 
ATOM     60  C   UNL A   1      47.315  30.358  27.912  1.00  0.00     0.049 A 
ATOM     61  H   UNL A   1      46.134  28.612  27.811  1.00  0.00     0.167 HD
ATOM     62  C   UNL A   1      45.076  31.081  28.686  1.00  0.00     0.074 A 
ATOM     63  C   UNL A   1      44.140  32.076  29.168  1.00  0.00     0.031 C 
ATOM     64  C   UNL A   1      46.375  31.336  28.395  1.00  0.00     0.031 A 
BRANCH  51  65
ATOM     65  C   UNL A   1      49.531  26.393  26.477  1.00  0.00    -0.014 A 
ATOM     66  C   UNL A   1      49.998  26.477  25.154  1.00  0.00     0.010 A 
ATOM     67  C   UNL A   1      50.366  25.839  27.466  1.00  0.00     0.010 A 
ATOM     68  C   UNL A   1      51.270  25.999  24.822  1.00  0.00     0.020 A 
ATOM     69  C   UNL A   1      51.647  25.382  27.140  1.00  0.00     0.020 A 
ATOM     70  C   UNL A   1      52.087  25.456  25.818  1.00  0.00     0.054 A 
BRANCH  70  71
ATOM     71  S   UNL A   1      53.754  24.898  25.369  1.00  0.00     0.124 S 
ATOM     72  O   UNL A   1      53.525  23.490  25.055  1.00  0.00    -0.237 OA
ATOM     73  O   UNL A   1      54.082  25.751  24.230  1.00  0.00    -0.237 OA
ATOM     74  O   UNL A   1      54.539  25.146  26.576  1.00  0.00    -0.744 OA
ENDBRANCH  70  71
ENDBRANCH  51  65
BRANCH  52  75
ATOM     75  C   UNL A   1      40.677  29.725  29.646  1.00  0.00    -0.014 A 
ATOM     76  C   UNL A   1      40.475  29.841  31.033  1.00  0.00     0.010 A 
ATOM     77  C   UNL A   1      39.628  30.061  28.772  1.00  0.00     0.010 A 
ATOM     78  C   UNL A   1      39.235  30.242  31.537  1.00  0.00     0.020 A 
ATOM     79  C   UNL A   1      38.396  30.491  29.271  1.00  0.00     0.020 A 
ATOM     80  C   UNL A   1      38.200  30.560  30.651  1.00  0.00     0.054 A 
BRANCH  80  81
ATOM     81  S   UNL A   1      36.603  31.098  31.322  1.00  0.00     0.124 S 
ATOM     82  O   UNL A   1      35.806  31.260  30.110  1.00  0.00    -0.237 OA
ATOM     83  O   UNL A   1      36.225  29.981  32.183  1.00  0.00    -0.237 OA
ATOM     84  O   UNL A   1      36.931  32.334  32.028  1.00  0.00    -0.744 OA
ENDBRANCH  80  81
ENDBRANCH  52  75
BRANCH  64  85
ATOM     85  C   UNL A   1      46.846  32.756  28.560  1.00  0.00    -0.014 A 
ATOM     86  C   UNL A   1      46.766  33.678  27.500  1.00  0.00     0.010 A 
ATOM     87  C   UNL A   1      47.375  33.175  29.795  1.00  0.00     0.010 A 
ATOM     88  C   UNL A   1      47.260  34.976  27.654  1.00  0.00     0.020 A 
ATOM     89  C   UNL A   1      47.843  34.480  29.962  1.00  0.00     0.020 A 
ATOM     90  C   UNL A   1      47.805  35.365  28.882  1.00  0.00     0.054 A 
BRANCH  90  91
ATOM     91  S   UNL A   1      48.447  37.051  29.061  1.00  0.00     0.124 S 
ATOM     92  O   UNL A   1      47.462  37.657  29.953  1.00  0.00    -0.237 OA
ATOM     93  O   UNL A   1      49.771  36.835  29.641  1.00  0.00    -0.237 OA
ATOM     94  O   UNL A   1      48.451  37.567  27.693  1.00  0.00    -0.744 OA
ENDBRANCH  90  91
ENDBRANCH  64  85
ENDBRANCH  38  39
ENDBRANCH  30  33
ENDBRANCH  28  29
ENDBRANCH  27  28
ENDBRANCH  26  27
ENDBRANCH   1  26
TORSDOF 20
ENDMDL
