MODEL 1
REMARK VINA RESULT:     -10.2      0.000      0.000
REMARK SMILES O=C(NCCCCCCNC(=O)[C@H]1COCCN1C(=O)c1ccc(Br)nc1)c1ccc(-c2c3nc(c(-c4ccc(S(=O)(=O)[O-])cc4)c4ccc([nH]4)c(-c4ccc(S(=O)(=O)[O-])cc4)c4nc(c(-c5ccc(S(=O)(=O)[O-])cc5)c5ccc2[nH]5)C=C4)C=C3)cc1
REMARK SMILES IDX 6 1 5 2 4 3 3 4 1 5 2 6 28 8 29 9 87 10 30 11 86 12 31 13
REMARK SMILES IDX 32 14 33 15 80 16 34 17 85 18 79 19 81 20 35 21 84 22 78 23
REMARK SMILES IDX 77 24 36 26 66 27 47 28 65 29 48 30 51 31 64 32 82 33 49 34
REMARK SMILES IDX 50 35 63 37 83 38 52 39 37 40 38 41 46 42 39 43 45 44 40 45
REMARK SMILES IDX 41 46 42 47 43 48 44 49 67 50 68 51 76 52 69 53 75 54 70 55
REMARK SMILES IDX 71 56 72 57 73 58 74 59 53 60 54 61 62 62 55 63 61 64 56 65
REMARK SMILES IDX 57 66 58 67 59 68 60 69 7 70 8 71 9 72 10 73 11 74 12 76
REMARK SMILES IDX 13 77 14 78 18 79 15 80 17 81 16 82 19 83 20 84 21 85 22 86
REMARK SMILES IDX 27 87 23 88 26 89 24 90 25 91
REMARK H PARENT 3 7 81 25 51 36 10 75
REMARK Flexibility Score: inf
ROOT
ATOM      1  C   UNL A   1      32.764  28.692  24.577  1.00  0.00     0.002 C 
ENDROOT
BRANCH   1   2
ATOM      2  C   UNL A   1      33.838  27.749  25.119  1.00  0.00     0.021 C 
BRANCH   2   3
ATOM      3  C   UNL A   1      34.299  28.057  26.537  1.00  0.00     0.116 C 
BRANCH   3   4
ATOM      4  N   UNL A   1      33.879  29.374  26.987  1.00  0.00    -0.352 N 
ATOM      5  O   UNL A   1      34.000  31.272  28.205  1.00  0.00    -0.269 OA
ATOM      6  C   UNL A   1      34.561  30.263  27.785  1.00  0.00     0.251 C 
ATOM      7  H   UNL A   1      32.990  29.667  26.683  1.00  0.00     0.163 HD
BRANCH   6   8
ATOM      8  C   UNL A   1      35.966  29.979  28.155  1.00  0.00     0.039 A 
ATOM      9  C   UNL A   1      36.993  30.176  27.231  1.00  0.00     0.014 A 
ATOM     10  C   UNL A   1      36.256  29.499  29.436  1.00  0.00     0.014 A 
ATOM     11  C   UNL A   1      38.284  29.762  27.537  1.00  0.00     0.010 A 
ATOM     12  C   UNL A   1      37.573  29.165  29.772  1.00  0.00     0.010 A 
ATOM     13  C   UNL A   1      38.594  29.267  28.814  1.00  0.00    -0.014 A 
BRANCH  13  14
ATOM     14  C   UNL A   1      40.007  28.936  29.129  1.00  0.00     0.031 A 
ATOM     15  C   UNL A   1      40.609  27.608  28.762  1.00  0.00     0.074 A 
ATOM     16  C   UNL A   1      40.771  29.890  29.701  1.00  0.00     0.049 A 
ATOM     17  N   UNL A   1      41.848  27.206  28.892  1.00  0.00    -0.248 NA
ATOM     18  C   UNL A   1      39.711  26.598  28.180  1.00  0.00     0.031 C 
ATOM     19  C   UNL A   1      40.293  31.210  30.123  1.00  0.00     0.029 A 
ATOM     20  N   UNL A   1      42.109  29.914  29.993  1.00  0.00    -0.354 N 
ATOM     21  C   UNL A   1      41.880  25.900  28.420  1.00  0.00     0.074 A 
ATOM     22  C   UNL A   1      40.529  25.564  28.024  1.00  0.00     0.031 C 
ATOM     23  C   UNL A   1      41.331  31.936  30.561  1.00  0.00     0.029 A 
ATOM     24  C   UNL A   1      42.536  31.117  30.505  1.00  0.00     0.049 A 
ATOM     25  H   UNL A   1      42.707  29.145  29.852  1.00  0.00     0.167 HD
ATOM     26  C   UNL A   1      42.939  25.060  28.319  1.00  0.00     0.031 A 
ATOM     27  C   UNL A   1      43.760  31.521  30.893  1.00  0.00     0.031 A 
ATOM     28  C   UNL A   1      44.281  25.394  28.722  1.00  0.00     0.049 A 
ATOM     29  C   UNL A   1      44.914  30.573  30.764  1.00  0.00     0.074 A 
ATOM     30  C   UNL A   1      45.421  24.609  28.660  1.00  0.00     0.029 A 
ATOM     31  N   UNL A   1      44.669  26.613  29.257  1.00  0.00    -0.354 N 
ATOM     32  N   UNL A   1      44.921  29.346  30.300  1.00  0.00    -0.248 NA
ATOM     33  C   UNL A   1      46.225  31.064  31.208  1.00  0.00     0.031 C 
ATOM     34  C   UNL A   1      46.490  25.343  29.191  1.00  0.00     0.029 A 
ATOM     35  C   UNL A   1      46.024  26.599  29.539  1.00  0.00     0.049 A 
ATOM     36  H   UNL A   1      44.067  27.377  29.414  1.00  0.00     0.167 HD
ATOM     37  C   UNL A   1      46.238  28.916  30.396  1.00  0.00     0.074 A 
ATOM     38  C   UNL A   1      47.003  30.027  30.929  1.00  0.00     0.031 C 
ATOM     39  C   UNL A   1      46.765  27.708  30.083  1.00  0.00     0.031 A 
BRANCH  26  40
ATOM     40  C   UNL A   1      42.689  23.685  27.756  1.00  0.00    -0.014 A 
ATOM     41  C   UNL A   1      42.869  23.423  26.386  1.00  0.00     0.010 A 
ATOM     42  C   UNL A   1      42.327  22.629  28.612  1.00  0.00     0.010 A 
ATOM     43  C   UNL A   1      42.664  22.137  25.878  1.00  0.00     0.020 A 
ATOM     44  C   UNL A   1      42.140  21.336  28.111  1.00  0.00     0.020 A 
ATOM     45  C   UNL A   1      42.297  21.103  26.743  1.00  0.00     0.054 A 
BRANCH  45  46
ATOM     46  S   UNL A   1      42.063  19.438  26.060  1.00  0.00     0.124 S 
ATOM     47  O   UNL A   1      42.547  18.595  27.151  1.00  0.00    -0.237 OA
ATOM     48  O   UNL A   1      40.623  19.387  25.821  1.00  0.00    -0.237 OA
ATOM     49  O   UNL A   1      42.892  19.437  24.857  1.00  0.00    -0.744 OA
ENDBRANCH  45  46
ENDBRANCH  26  40
BRANCH  27  50
ATOM     50  C   UNL A   1      43.940  32.886  31.455  1.00  0.00    -0.014 A 
ATOM     51  C   UNL A   1      44.229  33.978  30.620  1.00  0.00     0.010 A 
ATOM     52  C   UNL A   1      43.790  33.099  32.837  1.00  0.00     0.010 A 
ATOM     53  C   UNL A   1      44.382  35.258  31.160  1.00  0.00     0.020 A 
ATOM     54  C   UNL A   1      43.915  34.381  33.377  1.00  0.00     0.020 A 
ATOM     55  C   UNL A   1      44.225  35.450  32.536  1.00  0.00     0.054 A 
BRANCH  55  56
ATOM     56  S   UNL A   1      44.373  37.126  33.216  1.00  0.00     0.124 S 
ATOM     57  O   UNL A   1      43.162  37.231  34.023  1.00  0.00    -0.237 OA
ATOM     58  O   UNL A   1      45.628  37.059  33.961  1.00  0.00    -0.237 OA
ATOM     59  O   UNL A   1      44.411  37.972  32.025  1.00  0.00    -0.744 OA
ENDBRANCH  55  56
ENDBRANCH  27  50
BRANCH  39  60
ATOM     60  C   UNL A   1      48.243  27.536  30.306  1.00  0.00    -0.014 A 
ATOM     61  C   UNL A   1      49.166  27.843  29.291  1.00  0.00     0.010 A 
ATOM     62  C   UNL A   1      48.712  27.071  31.547  1.00  0.00     0.010 A 
ATOM     63  C   UNL A   1      50.533  27.643  29.497  1.00  0.00     0.020 A 
ATOM     64  C   UNL A   1      50.081  26.892  31.764  1.00  0.00     0.020 A 
ATOM     65  C   UNL A   1      50.981  27.160  30.731  1.00  0.00     0.054 A 
BRANCH  65  66
ATOM     66  S   UNL A   1      52.760  26.918  30.983  1.00  0.00     0.124 S 
ATOM     67  O   UNL A   1      53.144  28.162  31.644  1.00  0.00    -0.237 OA
ATOM     68  O   UNL A   1      52.810  25.721  31.818  1.00  0.00    -0.237 OA
ATOM     69  O   UNL A   1      53.279  26.745  29.628  1.00  0.00    -0.744 OA
ENDBRANCH  65  66
ENDBRANCH  39  60
ENDBRANCH  13  14
ENDBRANCH   6   8
ENDBRANCH   3   4
ENDBRANCH   2   3
ENDBRANCH   1   2
BRANCH   1  70
ATOM     70  C   UNL A   1      32.520  28.606  23.066  1.00  0.00     0.002 C 
BRANCH  70  71
ATOM     71  C   UNL A   1      31.065  28.350  22.642  1.00  0.00     0.021 C 
BRANCH  71  72
ATOM     72  C   UNL A   1      30.178  27.780  23.749  1.00  0.00     0.116 C 
BRANCH  72  73
ATOM     73  N   UNL A   1      29.760  26.430  23.420  1.00  0.00    -0.354 N 
ATOM     74  C   UNL A   1      30.390  25.234  23.614  1.00  0.00     0.245 C 
ATOM     75  H   UNL A   1      28.879  26.366  22.986  1.00  0.00     0.163 HD
ATOM     76  O   UNL A   1      29.923  24.258  23.025  1.00  0.00    -0.273 OA
BRANCH  74  77
ATOM     77  C   UNL A   1      31.569  25.143  24.611  1.00  0.00     0.200 C 
ATOM     78  C   UNL A   1      31.002  24.943  26.026  1.00  0.00     0.195 C 
ATOM     79  N   UNL A   1      32.535  24.071  24.282  1.00  0.00    -0.322 N 
ATOM     80  O   UNL A   1      30.492  23.618  26.234  1.00  0.00    -0.377 OA
ATOM     81  C   UNL A   1      32.066  22.714  24.571  1.00  0.00     0.149 C 
ATOM     82  C   UNL A   1      31.498  22.623  25.990  1.00  0.00     0.181 C 
BRANCH  79  83
ATOM     83  C   UNL A   1      33.721  24.234  23.576  1.00  0.00     0.256 C 
ATOM     84  O   UNL A   1      33.781  24.713  22.447  1.00  0.00    -0.269 OA
BRANCH  83  85
ATOM     85  C   UNL A   1      34.986  23.774  24.172  1.00  0.00     0.058 A 
ATOM     86  C   UNL A   1      35.843  22.895  23.506  1.00  0.00     0.018 A 
ATOM     87  C   UNL A   1      35.385  24.285  25.396  1.00  0.00     0.126 A 
ATOM     88  C   UNL A   1      37.036  22.514  24.121  1.00  0.00     0.037 A 
ATOM     89  N   UNL A   1      36.534  23.924  26.017  1.00  0.00    -0.249 NA
ATOM     90  C   UNL A   1      37.336  23.048  25.369  1.00  0.00     0.106 A 
ATOM     91  Br  UNL A   1      38.946  22.528  26.221  1.00  0.00    -0.029 Br
ENDBRANCH  83  85
ENDBRANCH  79  83
ENDBRANCH  74  77
ENDBRANCH  72  73
ENDBRANCH  71  72
ENDBRANCH  70  71
ENDBRANCH   1  70
TORSDOF 18
ENDMDL
MODEL 2
REMARK VINA RESULT:      -9.9      2.564      8.621
REMARK SMILES O=C(NCCCCCCNC(=O)[C@H]1COCCN1C(=O)c1ccc(Br)nc1)c1ccc(-c2c3nc(c(-c4ccc(S(=O)(=O)[O-])cc4)c4ccc([nH]4)c(-c4ccc(S(=O)(=O)[O-])cc4)c4nc(c(-c5ccc(S(=O)(=O)[O-])cc5)c5ccc2[nH]5)C=C4)C=C3)cc1
REMARK SMILES IDX 6 1 5 2 4 3 3 4 1 5 2 6 28 8 29 9 87 10 30 11 86 12 31 13
REMARK SMILES IDX 32 14 33 15 80 16 34 17 85 18 79 19 81 20 35 21 84 22 78 23
REMARK SMILES IDX 77 24 36 26 66 27 47 28 65 29 48 30 51 31 64 32 82 33 49 34
REMARK SMILES IDX 50 35 63 37 83 38 52 39 37 40 38 41 46 42 39 43 45 44 40 45
REMARK SMILES IDX 41 46 42 47 43 48 44 49 67 50 68 51 76 52 69 53 75 54 70 55
REMARK SMILES IDX 71 56 72 57 73 58 74 59 53 60 54 61 62 62 55 63 61 64 56 65
REMARK SMILES IDX 57 66 58 67 59 68 60 69 7 70 8 71 9 72 10 73 11 74 12 76
REMARK SMILES IDX 13 77 14 78 18 79 15 80 17 81 16 82 19 83 20 84 21 85 22 86
REMARK SMILES IDX 27 87 23 88 26 89 24 90 25 91
REMARK H PARENT 3 7 81 25 51 36 10 75
REMARK Flexibility Score: inf
ROOT
ATOM      1  C   UNL A   1      33.470  28.446  26.200  1.00  0.00     0.002 C 
ENDROOT
BRANCH   1   2
ATOM      2  C   UNL A   1      34.083  29.625  26.958  1.00  0.00     0.021 C 
BRANCH   2   3
ATOM      3  C   UNL A   1      35.400  29.317  27.656  1.00  0.00     0.116 C 
BRANCH   3   4
ATOM      4  N   UNL A   1      35.401  29.724  29.052  1.00  0.00    -0.352 N 
ATOM      5  O   UNL A   1      36.240  29.929  31.139  1.00  0.00    -0.269 OA
ATOM      6  C   UNL A   1      36.443  29.697  29.950  1.00  0.00     0.251 C 
ATOM      7  H   UNL A   1      34.545  30.063  29.400  1.00  0.00     0.163 HD
BRANCH   6   8
ATOM      8  C   UNL A   1      37.804  29.360  29.475  1.00  0.00     0.039 A 
ATOM      9  C   UNL A   1      38.750  28.834  30.356  1.00  0.00     0.014 A 
ATOM     10  C   UNL A   1      38.140  29.583  28.136  1.00  0.00     0.014 A 
ATOM     11  C   UNL A   1      40.064  28.664  29.936  1.00  0.00     0.010 A 
ATOM     12  C   UNL A   1      39.443  29.329  27.694  1.00  0.00     0.010 A 
ATOM     13  C   UNL A   1      40.424  28.895  28.598  1.00  0.00    -0.014 A 
BRANCH  13  14
ATOM     14  C   UNL A   1      41.816  28.599  28.172  1.00  0.00     0.031 A 
ATOM     15  C   UNL A   1      42.888  29.654  28.188  1.00  0.00     0.074 A 
ATOM     16  C   UNL A   1      42.120  27.332  27.827  1.00  0.00     0.049 A 
ATOM     17  N   UNL A   1      44.164  29.528  27.928  1.00  0.00    -0.248 NA
ATOM     18  C   UNL A   1      42.480  31.025  28.533  1.00  0.00     0.031 C 
ATOM     19  C   UNL A   1      41.160  26.226  27.753  1.00  0.00     0.029 A 
ATOM     20  N   UNL A   1      43.319  26.749  27.511  1.00  0.00    -0.354 N 
ATOM     21  C   UNL A   1      44.712  30.798  28.068  1.00  0.00     0.074 A 
ATOM     22  C   UNL A   1      43.623  31.688  28.410  1.00  0.00     0.031 C 
ATOM     23  C   UNL A   1      41.815  25.091  27.475  1.00  0.00     0.029 A 
ATOM     24  C   UNL A   1      43.229  25.393  27.295  1.00  0.00     0.049 A 
ATOM     25  H   UNL A   1      44.163  27.251  27.444  1.00  0.00     0.167 HD
ATOM     26  C   UNL A   1      46.004  31.184  27.931  1.00  0.00     0.031 A 
ATOM     27  C   UNL A   1      44.176  24.490  26.982  1.00  0.00     0.031 A 
ATOM     28  C   UNL A   1      47.084  30.296  27.583  1.00  0.00     0.049 A 
ATOM     29  C   UNL A   1      45.598  24.945  26.844  1.00  0.00     0.074 A 
ATOM     30  C   UNL A   1      48.427  30.595  27.419  1.00  0.00     0.029 A 
ATOM     31  N   UNL A   1      46.949  28.936  27.349  1.00  0.00    -0.354 N 
ATOM     32  N   UNL A   1      46.094  26.150  26.995  1.00  0.00    -0.248 NA
ATOM     33  C   UNL A   1      46.589  23.919  26.495  1.00  0.00     0.031 C 
ATOM     34  C   UNL A   1      49.097  29.421  27.052  1.00  0.00     0.029 A 
ATOM     35  C   UNL A   1      48.179  28.384  27.034  1.00  0.00     0.049 A 
ATOM     36  H   UNL A   1      46.102  28.437  27.400  1.00  0.00     0.167 HD
ATOM     37  C   UNL A   1      47.457  26.028  26.759  1.00  0.00     0.074 A 
ATOM     38  C   UNL A   1      47.711  24.625  26.491  1.00  0.00     0.031 C 
ATOM     39  C   UNL A   1      48.411  26.990  26.754  1.00  0.00     0.031 A 
BRANCH  26  40
ATOM     40  C   UNL A   1      46.325  32.639  28.150  1.00  0.00    -0.014 A 
ATOM     41  C   UNL A   1      46.382  33.536  27.068  1.00  0.00     0.010 A 
ATOM     42  C   UNL A   1      46.513  33.130  29.456  1.00  0.00     0.010 A 
ATOM     43  C   UNL A   1      46.651  34.890  27.284  1.00  0.00     0.020 A 
ATOM     44  C   UNL A   1      46.762  34.489  29.678  1.00  0.00     0.020 A 
ATOM     45  C   UNL A   1      46.843  35.358  28.588  1.00  0.00     0.054 A 
BRANCH  45  46
ATOM     46  S   UNL A   1      47.164  37.126  28.841  1.00  0.00     0.124 S 
ATOM     47  O   UNL A   1      47.905  37.119  30.099  1.00  0.00    -0.237 OA
ATOM     48  O   UNL A   1      47.942  37.484  27.658  1.00  0.00    -0.237 OA
ATOM     49  O   UNL A   1      45.829  37.715  28.906  1.00  0.00    -0.744 OA
ENDBRANCH  45  46
ENDBRANCH  26  40
BRANCH  27  50
ATOM     50  C   UNL A   1      43.794  23.070  26.764  1.00  0.00    -0.014 A 
ATOM     51  C   UNL A   1      43.124  22.341  27.761  1.00  0.00     0.010 A 
ATOM     52  C   UNL A   1      44.078  22.450  25.534  1.00  0.00     0.010 A 
ATOM     53  C   UNL A   1      42.760  21.011  27.537  1.00  0.00     0.020 A 
ATOM     54  C   UNL A   1      43.690  21.130  25.296  1.00  0.00     0.020 A 
ATOM     55  C   UNL A   1      43.046  20.413  26.306  1.00  0.00     0.054 A 
BRANCH  55  56
ATOM     56  S   UNL A   1      42.519  18.703  26.010  1.00  0.00     0.124 S 
ATOM     57  O   UNL A   1      43.419  18.292  24.937  1.00  0.00    -0.237 OA
ATOM     58  O   UNL A   1      42.745  18.069  27.306  1.00  0.00    -0.237 OA
ATOM     59  O   UNL A   1      41.113  18.843  25.632  1.00  0.00    -0.744 OA
ENDBRANCH  55  56
ENDBRANCH  27  50
BRANCH  39  60
ATOM     60  C   UNL A   1      49.816  26.547  26.453  1.00  0.00    -0.014 A 
ATOM     61  C   UNL A   1      50.640  26.024  27.466  1.00  0.00     0.010 A 
ATOM     62  C   UNL A   1      50.315  26.649  25.143  1.00  0.00     0.010 A 
ATOM     63  C   UNL A   1      51.957  25.653  27.183  1.00  0.00     0.020 A 
ATOM     64  C   UNL A   1      51.624  26.256  24.851  1.00  0.00     0.020 A 
ATOM     65  C   UNL A   1      52.442  25.780  25.878  1.00  0.00     0.054 A 
BRANCH  65  66
ATOM     66  S   UNL A   1      54.150  25.281  25.527  1.00  0.00     0.124 S 
ATOM     67  O   UNL A   1      54.393  25.921  24.237  1.00  0.00    -0.237 OA
ATOM     68  O   UNL A   1      54.890  25.840  26.656  1.00  0.00    -0.237 OA
ATOM     69  O   UNL A   1      54.083  23.822  25.496  1.00  0.00    -0.744 OA
ENDBRANCH  65  66
ENDBRANCH  39  60
ENDBRANCH  13  14
ENDBRANCH   6   8
ENDBRANCH   3   4
ENDBRANCH   2   3
ENDBRANCH   1   2
BRANCH   1  70
ATOM     70  C   UNL A   1      32.518  28.826  25.060  1.00  0.00     0.002 C 
BRANCH  70  71
ATOM     71  C   UNL A   1      33.124  28.786  23.648  1.00  0.00     0.021 C 
BRANCH  71  72
ATOM     72  C   UNL A   1      32.914  27.464  22.910  1.00  0.00     0.116 C 
BRANCH  72  73
ATOM     73  N   UNL A   1      31.625  26.890  23.253  1.00  0.00    -0.354 N 
ATOM     74  C   UNL A   1      31.316  25.769  23.968  1.00  0.00     0.245 C 
ATOM     75  H   UNL A   1      30.848  27.391  22.916  1.00  0.00     0.163 HD
ATOM     76  O   UNL A   1      30.150  25.376  23.909  1.00  0.00    -0.273 OA
BRANCH  74  77
ATOM     77  C   UNL A   1      32.389  25.116  24.870  1.00  0.00     0.200 C 
ATOM     78  C   UNL A   1      31.726  24.677  26.186  1.00  0.00     0.195 C 
ATOM     79  N   UNL A   1      33.078  23.973  24.229  1.00  0.00    -0.322 N 
ATOM     80  O   UNL A   1      30.899  23.515  26.025  1.00  0.00    -0.377 OA
ATOM     81  C   UNL A   1      32.278  22.749  24.137  1.00  0.00     0.149 C 
ATOM     82  C   UNL A   1      31.641  22.411  25.487  1.00  0.00     0.181 C 
BRANCH  79  83
ATOM     83  C   UNL A   1      34.299  24.027  23.568  1.00  0.00     0.256 C 
ATOM     84  O   UNL A   1      34.429  24.403  22.406  1.00  0.00    -0.269 OA
BRANCH  83  85
ATOM     85  C   UNL A   1      35.517  23.569  24.259  1.00  0.00     0.058 A 
ATOM     86  C   UNL A   1      35.958  24.155  25.448  1.00  0.00     0.018 A 
ATOM     87  C   UNL A   1      36.206  22.474  23.767  1.00  0.00     0.126 A 
ATOM     88  C   UNL A   1      37.109  23.659  26.061  1.00  0.00     0.037 A 
ATOM     89  N   UNL A   1      37.331  21.980  24.339  1.00  0.00    -0.249 NA
ATOM     90  C   UNL A   1      37.759  22.581  25.473  1.00  0.00     0.106 A 
ATOM     91  Br  UNL A   1      39.331  21.908  26.289  1.00  0.00    -0.029 Br
ENDBRANCH  83  85
ENDBRANCH  79  83
ENDBRANCH  74  77
ENDBRANCH  72  73
ENDBRANCH  71  72
ENDBRANCH  70  71
ENDBRANCH   1  70
TORSDOF 18
ENDMDL
MODEL 3
REMARK VINA RESULT:      -9.7      5.039      6.502
REMARK SMILES O=C(NCCCCCCNC(=O)[C@H]1COCCN1C(=O)c1ccc(Br)nc1)c1ccc(-c2c3nc(c(-c4ccc(S(=O)(=O)[O-])cc4)c4ccc([nH]4)c(-c4ccc(S(=O)(=O)[O-])cc4)c4nc(c(-c5ccc(S(=O)(=O)[O-])cc5)c5ccc2[nH]5)C=C4)C=C3)cc1
REMARK SMILES IDX 6 1 5 2 4 3 3 4 1 5 2 6 28 8 29 9 87 10 30 11 86 12 31 13
REMARK SMILES IDX 32 14 33 15 80 16 34 17 85 18 79 19 81 20 35 21 84 22 78 23
REMARK SMILES IDX 77 24 36 26 66 27 47 28 65 29 48 30 51 31 64 32 82 33 49 34
REMARK SMILES IDX 50 35 63 37 83 38 52 39 37 40 38 41 46 42 39 43 45 44 40 45
REMARK SMILES IDX 41 46 42 47 43 48 44 49 67 50 68 51 76 52 69 53 75 54 70 55
REMARK SMILES IDX 71 56 72 57 73 58 74 59 53 60 54 61 62 62 55 63 61 64 56 65
REMARK SMILES IDX 57 66 58 67 59 68 60 69 7 70 8 71 9 72 10 73 11 74 12 76
REMARK SMILES IDX 13 77 14 78 18 79 15 80 17 81 16 82 19 83 20 84 21 85 22 86
REMARK SMILES IDX 27 87 23 88 26 89 24 90 25 91
REMARK H PARENT 3 7 81 25 51 36 10 75
REMARK Flexibility Score: inf
ROOT
ATOM      1  C   UNL A   1      35.466  32.081  28.147  1.00  0.00     0.002 C 
ENDROOT
BRANCH   1   2
ATOM      2  C   UNL A   1      34.101  32.761  28.032  1.00  0.00     0.021 C 
BRANCH   2   3
ATOM      3  C   UNL A   1      34.147  34.282  28.016  1.00  0.00     0.116 C 
BRANCH   3   4
ATOM      4  N   UNL A   1      33.242  34.879  28.986  1.00  0.00    -0.352 N 
ATOM      5  O   UNL A   1      32.365  35.243  31.035  1.00  0.00    -0.269 OA
ATOM      6  C   UNL A   1      33.297  34.816  30.359  1.00  0.00     0.251 C 
ATOM      7  H   UNL A   1      32.493  35.395  28.611  1.00  0.00     0.163 HD
BRANCH   6   8
ATOM      8  C   UNL A   1      34.475  34.202  31.012  1.00  0.00     0.039 A 
ATOM      9  C   UNL A   1      35.714  34.845  30.981  1.00  0.00     0.014 A 
ATOM     10  C   UNL A   1      34.341  32.966  31.653  1.00  0.00     0.014 A 
ATOM     11  C   UNL A   1      36.842  34.191  31.463  1.00  0.00     0.010 A 
ATOM     12  C   UNL A   1      35.464  32.349  32.214  1.00  0.00     0.010 A 
ATOM     13  C   UNL A   1      36.730  32.943  32.099  1.00  0.00    -0.014 A 
BRANCH  13  14
ATOM     14  C   UNL A   1      37.947  32.331  32.691  1.00  0.00     0.031 A 
ATOM     15  C   UNL A   1      38.878  31.477  31.876  1.00  0.00     0.074 A 
ATOM     16  C   UNL A   1      38.239  32.614  33.977  1.00  0.00     0.049 A 
ATOM     17  N   UNL A   1      40.022  30.948  32.229  1.00  0.00    -0.248 NA
ATOM     18  C   UNL A   1      38.479  31.174  30.493  1.00  0.00     0.031 C 
ATOM     19  C   UNL A   1      37.400  33.414  34.875  1.00  0.00     0.029 A 
ATOM     20  N   UNL A   1      39.331  32.297  34.741  1.00  0.00    -0.354 N 
ATOM     21  C   UNL A   1      40.476  30.242  31.121  1.00  0.00     0.074 A 
ATOM     22  C   UNL A   1      39.470  30.387  30.090  1.00  0.00     0.031 C 
ATOM     23  C   UNL A   1      38.034  33.575  36.044  1.00  0.00     0.029 A 
ATOM     24  C   UNL A   1      39.296  32.847  36.001  1.00  0.00     0.049 A 
ATOM     25  H   UNL A   1      40.069  31.730  34.420  1.00  0.00     0.167 HD
ATOM     26  C   UNL A   1      41.628  29.542  30.974  1.00  0.00     0.031 A 
ATOM     27  C   UNL A   1      40.177  32.773  37.016  1.00  0.00     0.031 A 
ATOM     28  C   UNL A   1      42.623  29.392  32.005  1.00  0.00     0.049 A 
ATOM     29  C   UNL A   1      41.446  31.998  36.823  1.00  0.00     0.074 A 
ATOM     30  C   UNL A   1      43.822  28.700  31.952  1.00  0.00     0.029 A 
ATOM     31  N   UNL A   1      42.540  29.944  33.275  1.00  0.00    -0.354 N 
ATOM     32  N   UNL A   1      41.859  31.350  35.760  1.00  0.00    -0.248 NA
ATOM     33  C   UNL A   1      42.368  31.946  37.965  1.00  0.00     0.031 C 
ATOM     34  C   UNL A   1      44.447  28.807  33.201  1.00  0.00     0.029 A 
ATOM     35  C   UNL A   1      43.659  29.602  34.015  1.00  0.00     0.049 A 
ATOM     36  H   UNL A   1      41.794  30.498  33.601  1.00  0.00     0.167 HD
ATOM     37  C   UNL A   1      43.092  30.811  36.104  1.00  0.00     0.074 A 
ATOM     38  C   UNL A   1      43.371  31.240  37.461  1.00  0.00     0.031 C 
ATOM     39  C   UNL A   1      43.913  30.024  35.369  1.00  0.00     0.031 A 
BRANCH  26  40
ATOM     40  C   UNL A   1      41.874  28.873  29.648  1.00  0.00    -0.014 A 
ATOM     41  C   UNL A   1      41.472  27.544  29.424  1.00  0.00     0.010 A 
ATOM     42  C   UNL A   1      42.461  29.596  28.592  1.00  0.00     0.010 A 
ATOM     43  C   UNL A   1      41.678  26.941  28.180  1.00  0.00     0.020 A 
ATOM     44  C   UNL A   1      42.650  29.003  27.340  1.00  0.00     0.020 A 
ATOM     45  C   UNL A   1      42.269  27.673  27.147  1.00  0.00     0.054 A 
BRANCH  45  46
ATOM     46  S   UNL A   1      42.500  26.873  25.534  1.00  0.00     0.124 S 
ATOM     47  O   UNL A   1      41.290  26.062  25.426  1.00  0.00    -0.237 OA
ATOM     48  O   UNL A   1      42.576  28.009  24.619  1.00  0.00    -0.237 OA
ATOM     49  O   UNL A   1      43.742  26.122  25.694  1.00  0.00    -0.744 OA
ENDBRANCH  45  46
ENDBRANCH  26  40
BRANCH  27  50
ATOM     50  C   UNL A   1      39.870  33.444  38.307  1.00  0.00    -0.014 A 
ATOM     51  C   UNL A   1      39.077  32.811  39.279  1.00  0.00     0.010 A 
ATOM     52  C   UNL A   1      40.401  34.719  38.576  1.00  0.00     0.010 A 
ATOM     53  C   UNL A   1      38.807  33.449  40.493  1.00  0.00     0.020 A 
ATOM     54  C   UNL A   1      40.157  35.347  39.800  1.00  0.00     0.020 A 
ATOM     55  C   UNL A   1      39.348  34.713  40.745  1.00  0.00     0.054 A 
BRANCH  55  56
ATOM     56  S   UNL A   1      39.034  35.505  42.346  1.00  0.00     0.124 S 
ATOM     57  O   UNL A   1      39.367  36.898  42.063  1.00  0.00    -0.237 OA
ATOM     58  O   UNL A   1      37.619  35.225  42.570  1.00  0.00    -0.237 OA
ATOM     59  O   UNL A   1      39.948  34.811  43.252  1.00  0.00    -0.744 OA
ENDBRANCH  55  56
ENDBRANCH  27  50
BRANCH  39  60
ATOM     60  C   UNL A   1      45.194  29.585  36.024  1.00  0.00    -0.014 A 
ATOM     61  C   UNL A   1      46.366  30.352  35.902  1.00  0.00     0.010 A 
ATOM     62  C   UNL A   1      45.222  28.396  36.774  1.00  0.00     0.010 A 
ATOM     63  C   UNL A   1      47.559  29.914  36.483  1.00  0.00     0.020 A 
ATOM     64  C   UNL A   1      46.408  27.967  37.376  1.00  0.00     0.020 A 
ATOM     65  C   UNL A   1      47.573  28.719  37.209  1.00  0.00     0.054 A 
BRANCH  65  66
ATOM     66  S   UNL A   1      49.129  28.172  37.965  1.00  0.00     0.124 S 
ATOM     67  O   UNL A   1      49.558  29.373  38.675  1.00  0.00    -0.237 OA
ATOM     68  O   UNL A   1      48.705  27.059  38.810  1.00  0.00    -0.237 OA
ATOM     69  O   UNL A   1      49.954  27.796  36.819  1.00  0.00    -0.744 OA
ENDBRANCH  65  66
ENDBRANCH  39  60
ENDBRANCH  13  14
ENDBRANCH   6   8
ENDBRANCH   3   4
ENDBRANCH   2   3
ENDBRANCH   1   2
BRANCH   1  70
ATOM     70  C   UNL A   1      35.484  30.588  27.802  1.00  0.00     0.002 C 
BRANCH  70  71
ATOM     71  C   UNL A   1      34.129  29.983  27.404  1.00  0.00     0.021 C 
BRANCH  71  72
ATOM     72  C   UNL A   1      34.224  28.825  26.408  1.00  0.00     0.116 C 
BRANCH  72  73
ATOM     73  N   UNL A   1      33.907  29.283  25.067  1.00  0.00    -0.354 N 
ATOM     74  C   UNL A   1      33.400  28.606  23.996  1.00  0.00     0.245 C 
ATOM     75  H   UNL A   1      34.087  30.236  24.905  1.00  0.00     0.163 HD
ATOM     76  O   UNL A   1      33.452  29.174  22.904  1.00  0.00    -0.273 OA
BRANCH  74  77
ATOM     77  C   UNL A   1      32.718  27.235  24.210  1.00  0.00     0.200 C 
ATOM     78  C   UNL A   1      31.482  27.434  25.103  1.00  0.00     0.195 C 
ATOM     79  N   UNL A   1      32.343  26.561  22.946  1.00  0.00    -0.322 N 
ATOM     80  O   UNL A   1      30.397  28.066  24.408  1.00  0.00    -0.377 OA
ATOM     81  C   UNL A   1      31.180  27.137  22.268  1.00  0.00     0.149 C 
ATOM     82  C   UNL A   1      30.014  27.320  23.242  1.00  0.00     0.181 C 
BRANCH  79  83
ATOM     83  C   UNL A   1      33.090  25.591  22.289  1.00  0.00     0.256 C 
ATOM     84  O   UNL A   1      33.586  25.750  21.178  1.00  0.00    -0.269 OA
BRANCH  83  85
ATOM     85  C   UNL A   1      33.275  24.272  22.919  1.00  0.00     0.058 A 
ATOM     86  C   UNL A   1      32.303  23.272  22.844  1.00  0.00     0.018 A 
ATOM     87  C   UNL A   1      34.480  23.979  23.536  1.00  0.00     0.126 A 
ATOM     88  C   UNL A   1      32.553  22.039  23.447  1.00  0.00     0.037 A 
ATOM     89  N   UNL A   1      34.741  22.792  24.137  1.00  0.00    -0.249 NA
ATOM     90  C   UNL A   1      33.775  21.847  24.080  1.00  0.00     0.106 A 
ATOM     91  Br  UNL A   1      34.119  20.181  24.914  1.00  0.00    -0.029 Br
ENDBRANCH  83  85
ENDBRANCH  79  83
ENDBRANCH  74  77
ENDBRANCH  72  73
ENDBRANCH  71  72
ENDBRANCH  70  71
ENDBRANCH   1  70
TORSDOF 18
ENDMDL
