MODEL 1
REMARK VINA RESULT:     -13.2      0.000      0.000
REMARK SMILES Cc1ccc(-c2ncc(C(=O)NCCCCCCNC(=O)c3ccc(-c4c5nc(c(-c6ccc(S(=O)(=O)[O-])cc6)c6ccc([nH]6)c(-c6ccc(S(=O)(=O)[O-])cc6)c6nc(c(-c7ccc(S(=O)(=O)[O-])cc7)c7ccc4[nH]7)C=C6)C=C5)cc3)c(Nc3ccccc3)n2)cc1
REMARK SMILES IDX 16 1 15 2 14 3 13 4 12 5 10 6 11 7 9 9 6 10 7 11 90 12 8 13
REMARK SMILES IDX 82 14 5 15 1 16 2 17 3 18 92 19 4 20 91 21 83 22 84 24 85 25
REMARK SMILES IDX 89 26 86 27 88 28 87 29 17 30 18 31 19 32 20 33 21 35 22 36
REMARK SMILES IDX 23 37 81 38 24 39 80 40 25 41 26 42 27 43 74 44 28 45 79 46
REMARK SMILES IDX 73 47 75 48 29 49 78 50 72 51 71 52 30 54 60 55 41 56 59 57
REMARK SMILES IDX 42 58 45 59 58 60 76 61 43 62 44 63 57 65 77 66 46 67 31 68
REMARK SMILES IDX 32 69 40 70 33 71 39 72 34 73 35 74 36 75 37 76 38 77 61 78
REMARK SMILES IDX 62 79 70 80 63 81 69 82 64 83 65 84 66 85 67 86 68 87 47 88
REMARK SMILES IDX 48 89 56 90 49 91 55 92 50 93 51 94 52 95 53 96 54 97
REMARK H PARENT 12 8 83 23 19 34 75 53 45 64
REMARK Flexibility Score: inf
ROOT
ATOM      1  C   UNL A   1      35.863  23.701  24.786  1.00  0.00     0.002 C 
ENDROOT
BRANCH   1   2
ATOM      2  C   UNL A   1      34.399  23.222  24.846  1.00  0.00     0.002 C 
BRANCH   2   3
ATOM      3  C   UNL A   1      33.658  23.095  23.505  1.00  0.00     0.021 C 
BRANCH   3   4
ATOM      4  C   UNL A   1      32.244  23.682  23.507  1.00  0.00     0.116 C 
BRANCH   4   5
ATOM      5  N   UNL A   1      31.753  23.833  24.868  1.00  0.00    -0.352 N 
ATOM      6  C   UNL A   1      31.022  24.797  25.515  1.00  0.00     0.256 C 
ATOM      7  O   UNL A   1      30.781  24.604  26.711  1.00  0.00    -0.269 OA
ATOM      8  H   UNL A   1      32.000  23.080  25.452  1.00  0.00     0.163 HD
BRANCH   6   9
ATOM      9  C   UNL A   1      30.480  26.018  24.872  1.00  0.00     0.100 A 
ATOM     10  C   UNL A   1      29.543  28.275  23.672  1.00  0.00     0.161 A 
ATOM     11  N   UNL A   1      28.905  27.126  23.411  1.00  0.00    -0.236 NA
ATOM     12  N   UNL A   1      30.627  28.382  24.451  1.00  0.00    -0.210 NA
ATOM     13  C   UNL A   1      29.419  26.019  23.993  1.00  0.00     0.131 A 
ATOM     14  C   UNL A   1      31.107  27.259  25.039  1.00  0.00     0.147 A 
BRANCH  10  15
ATOM     15  C   UNL A   1      29.067  29.489  23.012  1.00  0.00     0.019 A 
ATOM     16  C   UNL A   1      27.756  33.103  21.020  1.00  0.00     0.044 C 
ATOM     17  C   UNL A   1      28.202  31.854  21.721  1.00  0.00    -0.051 A 
ATOM     18  C   UNL A   1      27.977  30.603  21.137  1.00  0.00     0.004 A 
ATOM     19  C   UNL A   1      28.840  31.918  22.964  1.00  0.00     0.004 A 
ATOM     20  C   UNL A   1      28.413  29.434  21.771  1.00  0.00     0.012 A 
ATOM     21  C   UNL A   1      29.261  30.748  23.603  1.00  0.00     0.012 A 
ENDBRANCH  10  15
BRANCH  14  22
ATOM     22  N   UNL A   1      32.284  27.377  25.812  1.00  0.00    -0.339 N 
ATOM     23  H   UNL A   1      32.743  26.533  26.027  1.00  0.00     0.168 HD
BRANCH  22  24
ATOM     24  C   UNL A   1      32.883  28.545  26.310  1.00  0.00     0.040 A 
ATOM     25  C   UNL A   1      32.090  29.676  26.546  1.00  0.00     0.026 A 
ATOM     26  C   UNL A   1      34.230  28.587  26.685  1.00  0.00     0.026 A 
ATOM     27  C   UNL A   1      32.631  30.821  27.135  1.00  0.00     0.002 A 
ATOM     28  C   UNL A   1      34.780  29.738  27.254  1.00  0.00     0.002 A 
ATOM     29  C   UNL A   1      33.979  30.853  27.484  1.00  0.00     0.000 A 
ENDBRANCH  22  24
ENDBRANCH  14  22
ENDBRANCH   6   9
ENDBRANCH   4   5
ENDBRANCH   3   4
ENDBRANCH   2   3
ENDBRANCH   1   2
BRANCH   1  30
ATOM     30  C   UNL A   1      36.616  23.780  26.119  1.00  0.00     0.021 C 
BRANCH  30  31
ATOM     31  C   UNL A   1      38.103  23.503  26.007  1.00  0.00     0.116 C 
BRANCH  31  32
ATOM     32  N   UNL A   1      38.817  23.418  27.269  1.00  0.00    -0.352 N 
ATOM     33  C   UNL A   1      40.019  24.130  27.362  1.00  0.00     0.251 C 
ATOM     34  H   UNL A   1      38.473  22.886  28.023  1.00  0.00     0.163 HD
ATOM     35  O   UNL A   1      41.094  23.742  26.987  1.00  0.00    -0.269 OA
BRANCH  33  36
ATOM     36  C   UNL A   1      39.773  25.571  27.610  1.00  0.00     0.039 A 
ATOM     37  C   UNL A   1      40.261  26.566  26.768  1.00  0.00     0.014 A 
ATOM     38  C   UNL A   1      39.264  25.869  28.877  1.00  0.00     0.014 A 
ATOM     39  C   UNL A   1      40.346  27.873  27.254  1.00  0.00     0.010 A 
ATOM     40  C   UNL A   1      39.447  27.131  29.387  1.00  0.00     0.010 A 
ATOM     41  C   UNL A   1      40.011  28.129  28.586  1.00  0.00    -0.014 A 
BRANCH  41  42
ATOM     42  C   UNL A   1      40.238  29.391  29.276  1.00  0.00     0.031 A 
ATOM     43  C   UNL A   1      39.177  30.424  29.283  1.00  0.00     0.074 A 
ATOM     44  C   UNL A   1      41.337  29.543  30.047  1.00  0.00     0.049 A 
ATOM     45  N   UNL A   1      39.371  31.670  29.552  1.00  0.00    -0.248 NA
ATOM     46  C   UNL A   1      37.789  30.122  28.939  1.00  0.00     0.031 C 
ATOM     47  C   UNL A   1      41.557  30.556  31.075  1.00  0.00     0.029 A 
ATOM     48  N   UNL A   1      42.585  28.932  29.908  1.00  0.00    -0.354 N 
ATOM     49  C   UNL A   1      38.135  32.254  29.718  1.00  0.00     0.074 A 
ATOM     50  C   UNL A   1      37.186  31.273  29.245  1.00  0.00     0.031 C 
ATOM     51  C   UNL A   1      42.879  30.716  31.241  1.00  0.00     0.029 A 
ATOM     52  C   UNL A   1      43.535  29.919  30.217  1.00  0.00     0.049 A 
ATOM     53  H   UNL A   1      42.763  28.001  29.645  1.00  0.00     0.167 HD
ATOM     54  C   UNL A   1      38.032  33.445  30.373  1.00  0.00     0.031 A 
ATOM     55  C   UNL A   1      44.462  30.389  29.330  1.00  0.00     0.031 A 
ATOM     56  C   UNL A   1      39.344  33.977  30.730  1.00  0.00     0.049 A 
ATOM     57  C   UNL A   1      44.363  31.884  29.116  1.00  0.00     0.074 A 
ATOM     58  C   UNL A   1      40.076  33.969  31.906  1.00  0.00     0.029 A 
ATOM     59  N   UNL A   1      40.218  34.360  29.721  1.00  0.00    -0.354 N 
ATOM     60  N   UNL A   1      43.323  32.600  29.446  1.00  0.00    -0.248 NA
ATOM     61  C   UNL A   1      45.408  32.686  28.486  1.00  0.00     0.031 C 
ATOM     62  C   UNL A   1      41.424  34.273  31.581  1.00  0.00     0.029 A 
ATOM     63  C   UNL A   1      41.500  34.493  30.216  1.00  0.00     0.049 A 
ATOM     64  H   UNL A   1      39.960  34.515  28.783  1.00  0.00     0.167 HD
ATOM     65  C   UNL A   1      43.532  33.910  29.103  1.00  0.00     0.074 A 
ATOM     66  C   UNL A   1      44.857  33.914  28.510  1.00  0.00     0.031 C 
ATOM     67  C   UNL A   1      42.593  34.876  29.332  1.00  0.00     0.031 A 
BRANCH  54  68
ATOM     68  C   UNL A   1      36.734  33.978  30.941  1.00  0.00    -0.014 A 
ATOM     69  C   UNL A   1      35.566  33.948  30.149  1.00  0.00     0.010 A 
ATOM     70  C   UNL A   1      36.604  34.562  32.214  1.00  0.00     0.010 A 
ATOM     71  C   UNL A   1      34.370  34.557  30.559  1.00  0.00     0.020 A 
ATOM     72  C   UNL A   1      35.424  35.207  32.625  1.00  0.00     0.020 A 
ATOM     73  C   UNL A   1      34.315  35.210  31.786  1.00  0.00     0.054 A 
BRANCH  73  74
ATOM     74  S   UNL A   1      32.789  36.061  32.266  1.00  0.00     0.124 S 
ATOM     75  O   UNL A   1      32.470  36.835  31.068  1.00  0.00    -0.237 OA
ATOM     76  O   UNL A   1      31.888  34.949  32.555  1.00  0.00    -0.237 OA
ATOM     77  O   UNL A   1      33.184  36.858  33.425  1.00  0.00    -0.744 OA
ENDBRANCH  73  74
ENDBRANCH  54  68
BRANCH  55  78
ATOM     78  C   UNL A   1      44.873  29.397  28.295  1.00  0.00    -0.014 A 
ATOM     79  C   UNL A   1      45.876  28.471  28.658  1.00  0.00     0.010 A 
ATOM     80  C   UNL A   1      43.997  29.075  27.244  1.00  0.00     0.010 A 
ATOM     81  C   UNL A   1      45.865  27.175  28.136  1.00  0.00     0.020 A 
ATOM     82  C   UNL A   1      43.993  27.776  26.712  1.00  0.00     0.020 A 
ATOM     83  C   UNL A   1      44.867  26.815  27.229  1.00  0.00     0.054 A 
BRANCH  83  84
ATOM     84  S   UNL A   1      44.599  25.045  26.902  1.00  0.00     0.124 S 
ATOM     85  O   UNL A   1      43.793  25.065  25.687  1.00  0.00    -0.237 OA
ATOM     86  O   UNL A   1      45.971  24.552  26.747  1.00  0.00    -0.237 OA
ATOM     87  O   UNL A   1      43.915  24.581  28.105  1.00  0.00    -0.744 OA
ENDBRANCH  83  84
ENDBRANCH  55  78
BRANCH  67  88
ATOM     88  C   UNL A   1      42.625  36.299  28.824  1.00  0.00    -0.014 A 
ATOM     89  C   UNL A   1      43.390  37.326  29.392  1.00  0.00     0.010 A 
ATOM     90  C   UNL A   1      41.942  36.605  27.618  1.00  0.00     0.010 A 
ATOM     91  C   UNL A   1      43.427  38.609  28.823  1.00  0.00     0.020 A 
ATOM     92  C   UNL A   1      42.010  37.864  27.017  1.00  0.00     0.020 A 
ATOM     93  C   UNL A   1      42.735  38.870  27.640  1.00  0.00     0.054 A 
BRANCH  93  94
ATOM     94  S   UNL A   1      42.847  40.508  26.876  1.00  0.00     0.124 S 
ATOM     95  O   UNL A   1      43.392  41.311  27.967  1.00  0.00    -0.237 OA
ATOM     96  O   UNL A   1      43.753  40.284  25.751  1.00  0.00    -0.237 OA
ATOM     97  O   UNL A   1      41.467  40.807  26.503  1.00  0.00    -0.744 OA
ENDBRANCH  93  94
ENDBRANCH  67  88
ENDBRANCH  41  42
ENDBRANCH  33  36
ENDBRANCH  31  32
ENDBRANCH  30  31
ENDBRANCH   1  30
TORSDOF 19
ENDMDL
MODEL 2
REMARK VINA RESULT:     -13.1      1.760      3.535
REMARK SMILES Cc1ccc(-c2ncc(C(=O)NCCCCCCNC(=O)c3ccc(-c4c5nc(c(-c6ccc(S(=O)(=O)[O-])cc6)c6ccc([nH]6)c(-c6ccc(S(=O)(=O)[O-])cc6)c6nc(c(-c7ccc(S(=O)(=O)[O-])cc7)c7ccc4[nH]7)C=C6)C=C5)cc3)c(Nc3ccccc3)n2)cc1
REMARK SMILES IDX 16 1 15 2 14 3 13 4 12 5 10 6 11 7 9 9 6 10 7 11 90 12 8 13
REMARK SMILES IDX 82 14 5 15 1 16 2 17 3 18 92 19 4 20 91 21 83 22 84 24 85 25
REMARK SMILES IDX 89 26 86 27 88 28 87 29 17 30 18 31 19 32 20 33 21 35 22 36
REMARK SMILES IDX 23 37 81 38 24 39 80 40 25 41 26 42 27 43 74 44 28 45 79 46
REMARK SMILES IDX 73 47 75 48 29 49 78 50 72 51 71 52 30 54 60 55 41 56 59 57
REMARK SMILES IDX 42 58 45 59 58 60 76 61 43 62 44 63 57 65 77 66 46 67 31 68
REMARK SMILES IDX 32 69 40 70 33 71 39 72 34 73 35 74 36 75 37 76 38 77 61 78
REMARK SMILES IDX 62 79 70 80 63 81 69 82 64 83 65 84 66 85 67 86 68 87 47 88
REMARK SMILES IDX 48 89 56 90 49 91 55 92 50 93 51 94 52 95 53 96 54 97
REMARK H PARENT 12 8 83 23 19 34 75 53 45 64
REMARK Flexibility Score: inf
ROOT
ATOM      1  C   UNL A   1      35.601  21.688  25.766  1.00  0.00     0.002 C 
ENDROOT
BRANCH   1   2
ATOM      2  C   UNL A   1      34.204  22.123  26.251  1.00  0.00     0.002 C 
BRANCH   2   3
ATOM      3  C   UNL A   1      33.457  23.145  25.379  1.00  0.00     0.021 C 
BRANCH   3   4
ATOM      4  C   UNL A   1      32.804  24.287  26.163  1.00  0.00     0.116 C 
BRANCH   4   5
ATOM      5  N   UNL A   1      31.518  24.639  25.581  1.00  0.00    -0.352 N 
ATOM      6  C   UNL A   1      30.825  25.815  25.446  1.00  0.00     0.256 C 
ATOM      7  O   UNL A   1      29.725  25.753  24.890  1.00  0.00    -0.269 OA
ATOM      8  H   UNL A   1      31.042  23.866  25.202  1.00  0.00     0.163 HD
BRANCH   6   9
ATOM      9  C   UNL A   1      31.321  27.142  25.885  1.00  0.00     0.100 A 
ATOM     10  C   UNL A   1      32.181  29.606  26.662  1.00  0.00     0.161 A 
ATOM     11  N   UNL A   1      32.085  28.659  27.606  1.00  0.00    -0.236 NA
ATOM     12  N   UNL A   1      31.848  29.433  25.376  1.00  0.00    -0.210 NA
ATOM     13  C   UNL A   1      31.619  27.458  27.194  1.00  0.00     0.131 A 
ATOM     14  C   UNL A   1      31.406  28.213  24.987  1.00  0.00     0.147 A 
BRANCH  10  15
ATOM     15  C   UNL A   1      32.614  30.940  27.071  1.00  0.00     0.019 A 
ATOM     16  C   UNL A   1      33.839  34.884  28.373  1.00  0.00     0.044 C 
ATOM     17  C   UNL A   1      33.413  33.523  27.909  1.00  0.00    -0.051 A 
ATOM     18  C   UNL A   1      34.265  32.426  28.076  1.00  0.00     0.004 A 
ATOM     19  C   UNL A   1      32.169  33.329  27.300  1.00  0.00     0.004 A 
ATOM     20  C   UNL A   1      33.866  31.148  27.671  1.00  0.00     0.012 A 
ATOM     21  C   UNL A   1      31.779  32.053  26.881  1.00  0.00     0.012 A 
ENDBRANCH  10  15
BRANCH  14  22
ATOM     22  N   UNL A   1      31.005  28.061  23.640  1.00  0.00    -0.339 N 
ATOM     23  H   UNL A   1      31.501  27.391  23.117  1.00  0.00     0.168 HD
BRANCH  22  24
ATOM     24  C   UNL A   1      29.989  28.745  22.954  1.00  0.00     0.040 A 
ATOM     25  C   UNL A   1      28.650  28.489  23.278  1.00  0.00     0.026 A 
ATOM     26  C   UNL A   1      30.268  29.757  22.031  1.00  0.00     0.026 A 
ATOM     27  C   UNL A   1      27.616  29.222  22.689  1.00  0.00     0.002 A 
ATOM     28  C   UNL A   1      29.237  30.477  21.422  1.00  0.00     0.002 A 
ATOM     29  C   UNL A   1      27.911  30.213  21.755  1.00  0.00     0.000 A 
ENDBRANCH  22  24
ENDBRANCH  14  22
ENDBRANCH   6   9
ENDBRANCH   4   5
ENDBRANCH   3   4
ENDBRANCH   2   3
ENDBRANCH   1   2
BRANCH   1  30
ATOM     30  C   UNL A   1      36.661  22.789  25.646  1.00  0.00     0.021 C 
BRANCH  30  31
ATOM     31  C   UNL A   1      38.060  22.274  25.365  1.00  0.00     0.116 C 
BRANCH  31  32
ATOM     32  N   UNL A   1      38.915  22.125  26.530  1.00  0.00    -0.352 N 
ATOM     33  C   UNL A   1      40.153  22.775  26.490  1.00  0.00     0.251 C 
ATOM     34  H   UNL A   1      38.636  21.591  27.310  1.00  0.00     0.163 HD
ATOM     35  O   UNL A   1      41.155  22.346  25.982  1.00  0.00    -0.269 OA
BRANCH  33  36
ATOM     36  C   UNL A   1      40.012  24.220  26.794  1.00  0.00     0.039 A 
ATOM     37  C   UNL A   1      40.695  25.201  26.081  1.00  0.00     0.014 A 
ATOM     38  C   UNL A   1      39.372  24.506  28.002  1.00  0.00     0.014 A 
ATOM     39  C   UNL A   1      40.837  26.468  26.653  1.00  0.00     0.010 A 
ATOM     40  C   UNL A   1      39.602  25.717  28.608  1.00  0.00     0.010 A 
ATOM     41  C   UNL A   1      40.356  26.691  27.946  1.00  0.00    -0.014 A 
BRANCH  41  42
ATOM     42  C   UNL A   1      40.607  27.889  28.734  1.00  0.00     0.031 A 
ATOM     43  C   UNL A   1      39.590  28.964  28.777  1.00  0.00     0.074 A 
ATOM     44  C   UNL A   1      41.680  27.937  29.555  1.00  0.00     0.049 A 
ATOM     45  N   UNL A   1      39.824  30.179  29.144  1.00  0.00    -0.248 NA
ATOM     46  C   UNL A   1      38.206  28.749  28.361  1.00  0.00     0.031 C 
ATOM     47  C   UNL A   1      41.899  28.863  30.662  1.00  0.00     0.029 A 
ATOM     48  N   UNL A   1      42.906  27.284  29.417  1.00  0.00    -0.354 N 
ATOM     49  C   UNL A   1      38.608  30.803  29.306  1.00  0.00     0.074 A 
ATOM     50  C   UNL A   1      37.639  29.902  28.728  1.00  0.00     0.031 C 
ATOM     51  C   UNL A   1      43.220  28.953  30.888  1.00  0.00     0.029 A 
ATOM     52  C   UNL A   1      43.883  28.202  29.832  1.00  0.00     0.049 A 
ATOM     53  H   UNL A   1      43.056  26.366  29.094  1.00  0.00     0.167 HD
ATOM     54  C   UNL A   1      38.528  31.947  30.043  1.00  0.00     0.031 A 
ATOM     55  C   UNL A   1      44.863  28.694  29.018  1.00  0.00     0.031 A 
ATOM     56  C   UNL A   1      39.846  32.394  30.486  1.00  0.00     0.049 A 
ATOM     57  C   UNL A   1      44.834  30.203  28.910  1.00  0.00     0.074 A 
ATOM     58  C   UNL A   1      40.528  32.270  31.684  1.00  0.00     0.029 A 
ATOM     59  N   UNL A   1      40.774  32.810  29.541  1.00  0.00    -0.354 N 
ATOM     60  N   UNL A   1      43.813  30.939  29.253  1.00  0.00    -0.248 NA
ATOM     61  C   UNL A   1      45.936  31.002  28.380  1.00  0.00     0.031 C 
ATOM     62  C   UNL A   1      41.900  32.536  31.433  1.00  0.00     0.029 A 
ATOM     63  C   UNL A   1      42.040  32.850  30.092  1.00  0.00     0.049 A 
ATOM     64  H   UNL A   1      40.560  33.043  28.608  1.00  0.00     0.167 HD
ATOM     65  C   UNL A   1      44.089  32.259  29.015  1.00  0.00     0.074 A 
ATOM     66  C   UNL A   1      45.436  32.248  28.473  1.00  0.00     0.031 C 
ATOM     67  C   UNL A   1      43.183  33.247  29.280  1.00  0.00     0.031 A 
BRANCH  54  68
ATOM     68  C   UNL A   1      37.232  32.495  30.599  1.00  0.00    -0.014 A 
ATOM     69  C   UNL A   1      37.015  33.889  30.610  1.00  0.00     0.010 A 
ATOM     70  C   UNL A   1      36.215  31.706  31.169  1.00  0.00     0.010 A 
ATOM     71  C   UNL A   1      35.903  34.468  31.242  1.00  0.00     0.020 A 
ATOM     72  C   UNL A   1      35.115  32.271  31.837  1.00  0.00     0.020 A 
ATOM     73  C   UNL A   1      34.973  33.654  31.879  1.00  0.00     0.054 A 
BRANCH  73  74
ATOM     74  S   UNL A   1      33.587  34.420  32.761  1.00  0.00     0.124 S 
ATOM     75  O   UNL A   1      32.937  33.270  33.387  1.00  0.00    -0.237 OA
ATOM     76  O   UNL A   1      34.264  35.334  33.675  1.00  0.00    -0.237 OA
ATOM     77  O   UNL A   1      32.812  35.061  31.701  1.00  0.00    -0.744 OA
ENDBRANCH  73  74
ENDBRANCH  54  68
BRANCH  55  78
ATOM     78  C   UNL A   1      45.274  27.762  27.929  1.00  0.00    -0.014 A 
ATOM     79  C   UNL A   1      44.666  27.941  26.668  1.00  0.00     0.010 A 
ATOM     80  C   UNL A   1      46.516  27.104  27.998  1.00  0.00     0.010 A 
ATOM     81  C   UNL A   1      45.374  27.670  25.494  1.00  0.00     0.020 A 
ATOM     82  C   UNL A   1      47.223  26.822  26.819  1.00  0.00     0.020 A 
ATOM     83  C   UNL A   1      46.682  27.193  25.584  1.00  0.00     0.054 A 
BRANCH  83  84
ATOM     84  S   UNL A   1      47.729  27.262  24.097  1.00  0.00     0.124 S 
ATOM     85  O   UNL A   1      46.954  28.115  23.203  1.00  0.00    -0.237 OA
ATOM     86  O   UNL A   1      48.966  27.848  24.621  1.00  0.00    -0.237 OA
ATOM     87  O   UNL A   1      47.838  25.863  23.697  1.00  0.00    -0.744 OA
ENDBRANCH  83  84
ENDBRANCH  55  78
BRANCH  67  88
ATOM     88  C   UNL A   1      43.293  34.700  28.878  1.00  0.00    -0.014 A 
ATOM     89  C   UNL A   1      43.245  35.775  29.776  1.00  0.00     0.010 A 
ATOM     90  C   UNL A   1      43.594  35.011  27.527  1.00  0.00     0.010 A 
ATOM     91  C   UNL A   1      43.426  37.097  29.341  1.00  0.00     0.020 A 
ATOM     92  C   UNL A   1      43.824  36.318  27.091  1.00  0.00     0.020 A 
ATOM     93  C   UNL A   1      43.713  37.360  28.001  1.00  0.00     0.054 A 
BRANCH  93  94
ATOM     94  S   UNL A   1      44.017  39.063  27.464  1.00  0.00     0.124 S 
ATOM     95  O   UNL A   1      42.961  39.260  26.476  1.00  0.00    -0.237 OA
ATOM     96  O   UNL A   1      43.869  39.828  28.700  1.00  0.00    -0.237 OA
ATOM     97  O   UNL A   1      45.376  39.016  26.932  1.00  0.00    -0.744 OA
ENDBRANCH  93  94
ENDBRANCH  67  88
ENDBRANCH  41  42
ENDBRANCH  33  36
ENDBRANCH  31  32
ENDBRANCH  30  31
ENDBRANCH   1  30
TORSDOF 19
ENDMDL
MODEL 3
REMARK VINA RESULT:     -12.9      1.915      3.692
REMARK SMILES Cc1ccc(-c2ncc(C(=O)NCCCCCCNC(=O)c3ccc(-c4c5nc(c(-c6ccc(S(=O)(=O)[O-])cc6)c6ccc([nH]6)c(-c6ccc(S(=O)(=O)[O-])cc6)c6nc(c(-c7ccc(S(=O)(=O)[O-])cc7)c7ccc4[nH]7)C=C6)C=C5)cc3)c(Nc3ccccc3)n2)cc1
REMARK SMILES IDX 16 1 15 2 14 3 13 4 12 5 10 6 11 7 9 9 6 10 7 11 90 12 8 13
REMARK SMILES IDX 82 14 5 15 1 16 2 17 3 18 92 19 4 20 91 21 83 22 84 24 85 25
REMARK SMILES IDX 89 26 86 27 88 28 87 29 17 30 18 31 19 32 20 33 21 35 22 36
REMARK SMILES IDX 23 37 81 38 24 39 80 40 25 41 26 42 27 43 74 44 28 45 79 46
REMARK SMILES IDX 73 47 75 48 29 49 78 50 72 51 71 52 30 54 60 55 41 56 59 57
REMARK SMILES IDX 42 58 45 59 58 60 76 61 43 62 44 63 57 65 77 66 46 67 31 68
REMARK SMILES IDX 32 69 40 70 33 71 39 72 34 73 35 74 36 75 37 76 38 77 61 78
REMARK SMILES IDX 62 79 70 80 63 81 69 82 64 83 65 84 66 85 67 86 68 87 47 88
REMARK SMILES IDX 48 89 56 90 49 91 55 92 50 93 51 94 52 95 53 96 54 97
REMARK H PARENT 12 8 83 23 19 34 75 53 45 64
REMARK Flexibility Score: inf
ROOT
ATOM      1  C   UNL A   1      35.161  21.438  24.697  1.00  0.00     0.002 C 
ENDROOT
BRANCH   1   2
ATOM      2  C   UNL A   1      33.625  21.569  24.744  1.00  0.00     0.002 C 
BRANCH   2   3
ATOM      3  C   UNL A   1      32.921  21.923  23.424  1.00  0.00     0.021 C 
BRANCH   3   4
ATOM      4  C   UNL A   1      32.020  23.159  23.502  1.00  0.00     0.116 C 
BRANCH   4   5
ATOM      5  N   UNL A   1      32.107  23.934  22.273  1.00  0.00    -0.352 N 
ATOM      6  C   UNL A   1      32.372  25.251  21.995  1.00  0.00     0.256 C 
ATOM      7  O   UNL A   1      32.358  25.583  20.806  1.00  0.00    -0.269 OA
ATOM      8  H   UNL A   1      31.936  23.397  21.466  1.00  0.00     0.163 HD
BRANCH   6   9
ATOM      9  C   UNL A   1      32.707  26.277  23.012  1.00  0.00     0.100 A 
ATOM     10  C   UNL A   1      33.261  28.164  24.894  1.00  0.00     0.161 A 
ATOM     11  N   UNL A   1      34.007  27.051  24.898  1.00  0.00    -0.236 NA
ATOM     12  N   UNL A   1      32.243  28.394  24.055  1.00  0.00    -0.210 NA
ATOM     13  C   UNL A   1      33.681  26.118  23.975  1.00  0.00     0.131 A 
ATOM     14  C   UNL A   1      31.954  27.452  23.126  1.00  0.00     0.147 A 
BRANCH  10  15
ATOM     15  C   UNL A   1      33.530  29.172  25.918  1.00  0.00     0.019 A 
ATOM     16  C   UNL A   1      34.389  32.210  28.882  1.00  0.00     0.044 C 
ATOM     17  C   UNL A   1      34.093  31.147  27.865  1.00  0.00    -0.051 A 
ATOM     18  C   UNL A   1      32.889  31.175  27.152  1.00  0.00     0.004 A 
ATOM     19  C   UNL A   1      35.004  30.116  27.618  1.00  0.00     0.004 A 
ATOM     20  C   UNL A   1      32.616  30.203  26.183  1.00  0.00     0.012 A 
ATOM     21  C   UNL A   1      34.721  29.137  26.661  1.00  0.00     0.012 A 
ENDBRANCH  10  15
BRANCH  14  22
ATOM     22  N   UNL A   1      30.842  27.683  22.284  1.00  0.00    -0.339 N 
ATOM     23  H   UNL A   1      30.799  27.133  21.468  1.00  0.00     0.168 HD
BRANCH  22  24
ATOM     24  C   UNL A   1      29.791  28.595  22.465  1.00  0.00     0.040 A 
ATOM     25  C   UNL A   1      29.921  29.899  21.970  1.00  0.00     0.026 A 
ATOM     26  C   UNL A   1      28.567  28.216  23.027  1.00  0.00     0.026 A 
ATOM     27  C   UNL A   1      28.858  30.804  22.042  1.00  0.00     0.002 A 
ATOM     28  C   UNL A   1      27.510  29.123  23.122  1.00  0.00     0.002 A 
ATOM     29  C   UNL A   1      27.653  30.416  22.624  1.00  0.00     0.000 A 
ENDBRANCH  22  24
ENDBRANCH  14  22
ENDBRANCH   6   9
ENDBRANCH   4   5
ENDBRANCH   3   4
ENDBRANCH   2   3
ENDBRANCH   1   2
BRANCH   1  30
ATOM     30  C   UNL A   1      35.969  22.631  25.218  1.00  0.00     0.021 C 
BRANCH  30  31
ATOM     31  C   UNL A   1      37.471  22.464  25.093  1.00  0.00     0.116 C 
BRANCH  31  32
ATOM     32  N   UNL A   1      38.168  22.156  26.330  1.00  0.00    -0.352 N 
ATOM     33  C   UNL A   1      39.484  22.621  26.444  1.00  0.00     0.251 C 
ATOM     34  H   UNL A   1      37.737  21.645  27.053  1.00  0.00     0.163 HD
ATOM     35  O   UNL A   1      40.463  22.067  26.019  1.00  0.00    -0.269 OA
BRANCH  33  36
ATOM     36  C   UNL A   1      39.517  24.061  26.798  1.00  0.00     0.039 A 
ATOM     37  C   UNL A   1      40.208  25.000  26.037  1.00  0.00     0.014 A 
ATOM     38  C   UNL A   1      39.045  24.362  28.078  1.00  0.00     0.014 A 
ATOM     39  C   UNL A   1      40.533  26.227  26.620  1.00  0.00     0.010 A 
ATOM     40  C   UNL A   1      39.457  25.524  28.683  1.00  0.00     0.010 A 
ATOM     41  C   UNL A   1      40.223  26.448  27.964  1.00  0.00    -0.014 A 
BRANCH  41  42
ATOM     42  C   UNL A   1      40.674  27.588  28.749  1.00  0.00     0.031 A 
ATOM     43  C   UNL A   1      39.792  28.768  28.900  1.00  0.00     0.074 A 
ATOM     44  C   UNL A   1      41.811  27.494  29.472  1.00  0.00     0.049 A 
ATOM     45  N   UNL A   1      40.192  29.938  29.267  1.00  0.00    -0.248 NA
ATOM     46  C   UNL A   1      38.362  28.719  28.605  1.00  0.00     0.031 C 
ATOM     47  C   UNL A   1      42.228  28.359  30.571  1.00  0.00     0.029 A 
ATOM     48  N   UNL A   1      42.939  26.713  29.215  1.00  0.00    -0.354 N 
ATOM     49  C   UNL A   1      39.072  30.689  29.547  1.00  0.00     0.074 A 
ATOM     50  C   UNL A   1      37.961  29.916  29.040  1.00  0.00     0.031 C 
ATOM     51  C   UNL A   1      43.564  28.296  30.682  1.00  0.00     0.029 A 
ATOM     52  C   UNL A   1      44.046  27.506  29.559  1.00  0.00     0.049 A 
ATOM     53  H   UNL A   1      42.957  25.794  28.864  1.00  0.00     0.167 HD
ATOM     54  C   UNL A   1      39.185  31.814  30.307  1.00  0.00     0.031 A 
ATOM     55  C   UNL A   1      45.002  27.908  28.670  1.00  0.00     0.031 A 
ATOM     56  C   UNL A   1      40.578  32.100  30.640  1.00  0.00     0.049 A 
ATOM     57  C   UNL A   1      45.134  29.414  28.592  1.00  0.00     0.074 A 
ATOM     58  C   UNL A   1      41.342  31.868  31.771  1.00  0.00     0.029 A 
ATOM     59  N   UNL A   1      41.463  32.436  29.625  1.00  0.00    -0.354 N 
ATOM     60  N   UNL A   1      44.235  30.248  29.037  1.00  0.00    -0.248 NA
ATOM     61  C   UNL A   1      46.269  30.100  27.981  1.00  0.00     0.031 C 
ATOM     62  C   UNL A   1      42.709  31.987  31.405  1.00  0.00     0.029 A 
ATOM     63  C   UNL A   1      42.768  32.320  30.063  1.00  0.00     0.049 A 
ATOM     64  H   UNL A   1      41.198  32.716  28.718  1.00  0.00     0.167 HD
ATOM     65  C   UNL A   1      44.637  31.536  28.798  1.00  0.00     0.074 A 
ATOM     66  C   UNL A   1      45.923  31.390  28.140  1.00  0.00     0.031 C 
ATOM     67  C   UNL A   1      43.874  32.610  29.160  1.00  0.00     0.031 A 
BRANCH  54  68
ATOM     68  C   UNL A   1      38.011  32.486  30.986  1.00  0.00    -0.014 A 
ATOM     69  C   UNL A   1      38.050  33.876  31.225  1.00  0.00     0.010 A 
ATOM     70  C   UNL A   1      36.870  31.809  31.457  1.00  0.00     0.010 A 
ATOM     71  C   UNL A   1      37.064  34.533  31.976  1.00  0.00     0.020 A 
ATOM     72  C   UNL A   1      35.893  32.445  32.241  1.00  0.00     0.020 A 
ATOM     73  C   UNL A   1      36.004  33.806  32.506  1.00  0.00     0.054 A 
BRANCH  73  74
ATOM     74  S   UNL A   1      34.783  34.653  33.543  1.00  0.00     0.124 S 
ATOM     75  O   UNL A   1      35.145  34.206  34.887  1.00  0.00    -0.237 OA
ATOM     76  O   UNL A   1      35.049  36.060  33.256  1.00  0.00    -0.237 OA
ATOM     77  O   UNL A   1      33.501  34.151  33.053  1.00  0.00    -0.744 OA
ENDBRANCH  73  74
ENDBRANCH  54  68
BRANCH  55  78
ATOM     78  C   UNL A   1      45.210  26.966  27.533  1.00  0.00    -0.014 A 
ATOM     79  C   UNL A   1      46.077  25.874  27.756  1.00  0.00     0.010 A 
ATOM     80  C   UNL A   1      44.248  26.874  26.511  1.00  0.00     0.010 A 
ATOM     81  C   UNL A   1      45.846  24.647  27.128  1.00  0.00     0.020 A 
ATOM     82  C   UNL A   1      44.024  25.644  25.873  1.00  0.00     0.020 A 
ATOM     83  C   UNL A   1      44.765  24.522  26.255  1.00  0.00     0.054 A 
BRANCH  83  84
ATOM     84  S   UNL A   1      44.218  22.848  25.796  1.00  0.00     0.124 S 
ATOM     85  O   UNL A   1      43.394  23.095  24.619  1.00  0.00    -0.237 OA
ATOM     86  O   UNL A   1      45.492  22.167  25.550  1.00  0.00    -0.237 OA
ATOM     87  O   UNL A   1      43.502  22.392  26.983  1.00  0.00    -0.744 OA
ENDBRANCH  83  84
ENDBRANCH  55  78
BRANCH  67  88
ATOM     88  C   UNL A   1      44.112  34.053  28.776  1.00  0.00    -0.014 A 
ATOM     89  C   UNL A   1      44.995  34.914  29.442  1.00  0.00     0.010 A 
ATOM     90  C   UNL A   1      43.512  34.549  27.590  1.00  0.00     0.010 A 
ATOM     91  C   UNL A   1      45.222  36.222  28.987  1.00  0.00     0.020 A 
ATOM     92  C   UNL A   1      43.766  35.832  27.101  1.00  0.00     0.020 A 
ATOM     93  C   UNL A   1      44.604  36.673  27.820  1.00  0.00     0.054 A 
BRANCH  93  94
ATOM     94  S   UNL A   1      44.960  38.337  27.201  1.00  0.00     0.124 S 
ATOM     95  O   UNL A   1      45.412  39.017  28.411  1.00  0.00    -0.237 OA
ATOM     96  O   UNL A   1      45.991  38.101  26.193  1.00  0.00    -0.237 OA
ATOM     97  O   UNL A   1      43.675  38.787  26.670  1.00  0.00    -0.744 OA
ENDBRANCH  93  94
ENDBRANCH  67  88
ENDBRANCH  41  42
ENDBRANCH  33  36
ENDBRANCH  31  32
ENDBRANCH  30  31
ENDBRANCH   1  30
TORSDOF 19
ENDMDL
