MODEL 1
REMARK VINA RESULT:      -9.2      0.000      0.000
REMARK SMILES Cc1nc2nc(CNC(=O)OC(C)(C)C)nn2c(C)c1CCC(=O)NCCCCCCNC(=O)c1ccc(-c2c3nc(c(-c4ccc(S(=O)(=O)[O-])cc4)c4ccc([nH]4)c(-c4ccc(S(=O)(=O)[O-])cc4)c4nc(c(-c5ccc(S(=O)(=O)[O-])cc5)c5ccc2[nH]5)C=C4)C=C3)cc1
REMARK SMILES IDX 27 1 26 2 25 3 23 4 24 5 22 7 21 8 20 9 1 10 2 11 3 12 4 13
REMARK SMILES IDX 18 14 5 15 17 16 19 17 6 18 16 19 7 20 8 21 9 22 10 24 11 25
REMARK SMILES IDX 12 26 13 27 14 28 15 29 28 30 29 31 30 32 31 33 32 34 33 35
REMARK SMILES IDX 34 37 35 38 36 39 94 40 37 41 93 42 38 43 39 44 40 45 87 46
REMARK SMILES IDX 41 47 92 48 86 49 88 50 42 51 91 52 85 53 84 54 43 56 73 57
REMARK SMILES IDX 54 58 72 59 55 60 58 61 71 62 89 63 56 64 57 65 70 67 90 68
REMARK SMILES IDX 59 69 44 70 45 71 53 72 46 73 52 74 47 75 48 76 49 77 50 78
REMARK SMILES IDX 51 79 74 80 75 81 83 82 76 83 82 84 77 85 78 86 79 87 80 88
REMARK SMILES IDX 81 89 60 90 61 91 69 92 62 93 68 94 63 95 64 96 65 97 66 98
REMARK SMILES IDX 67 99
REMARK H PARENT 25 6 8 23 32 36 88 55 58 66
REMARK Flexibility Score: inf
ROOT
ATOM      1  C   UNL A   1      39.694  29.202  28.655  1.00  0.00     0.021 C 
ENDROOT
BRANCH   1   2
ATOM      2  C   UNL A   1      40.161  28.244  27.567  1.00  0.00     0.116 C 
BRANCH   2   3
ATOM      3  N   UNL A   1      40.579  26.966  28.148  1.00  0.00    -0.356 N 
ATOM      4  C   UNL A   1      41.690  26.202  27.927  1.00  0.00     0.220 C 
ATOM      5  O   UNL A   1      41.735  25.078  28.432  1.00  0.00    -0.275 OA
ATOM      6  H   UNL A   1      39.952  26.595  28.810  1.00  0.00     0.163 HD
BRANCH   4   7
ATOM      7  C   UNL A   1      42.855  26.725  27.105  1.00  0.00     0.105 C 
BRANCH   7   8
ATOM      8  C   UNL A   1      44.229  26.302  27.668  1.00  0.00     0.049 C 
BRANCH   8   9
ATOM      9  C   UNL A   1      44.890  25.229  26.825  1.00  0.00    -0.005 A 
ATOM     10  C   UNL A   1      45.612  27.087  25.131  1.00  0.00     0.067 C 
ATOM     11  C   UNL A   1      45.357  25.616  25.438  1.00  0.00     0.046 A 
ATOM     12  N   UNL A   1      45.580  24.761  24.487  1.00  0.00    -0.216 NA
ATOM     13  C   UNL A   1      45.422  23.433  24.789  1.00  0.00     0.252 A 
ATOM     14  C   UNL A   1      45.022  23.907  27.132  1.00  0.00     0.048 A 
ATOM     15  N   UNL A   1      45.283  22.416  23.966  1.00  0.00    -0.192 NA
ATOM     16  N   UNL A   1      45.288  22.975  26.092  1.00  0.00    -0.201 N 
ATOM     17  C   UNL A   1      44.729  23.329  28.480  1.00  0.00     0.067 C 
ATOM     18  C   UNL A   1      45.272  21.293  24.747  1.00  0.00     0.172 A 
ATOM     19  N   UNL A   1      45.255  21.590  26.068  1.00  0.00    -0.148 NA
BRANCH  18  20
ATOM     20  C   UNL A   1      45.303  19.852  24.148  1.00  0.00     0.199 C 
BRANCH  20  21
ATOM     21  N   UNL A   1      44.721  18.783  25.006  1.00  0.00    -0.314 N 
ATOM     22  C   UNL A   1      43.441  18.577  25.511  1.00  0.00     0.408 C 
ATOM     23  H   UNL A   1      45.367  18.087  25.267  1.00  0.00     0.167 HD
ATOM     24  O   UNL A   1      43.273  17.642  26.301  1.00  0.00    -0.225 OA
BRANCH  22  25
ATOM     25  O   UNL A   1      42.452  19.448  25.163  1.00  0.00    -0.444 OA
BRANCH  25  26
ATOM     26  C   UNL A   1      41.724  20.281  26.155  1.00  0.00     0.106 C 
ATOM     27  C   UNL A   1      42.255  20.053  27.572  1.00  0.00     0.056 C 
ATOM     28  C   UNL A   1      41.711  21.810  25.906  1.00  0.00     0.056 C 
ATOM     29  C   UNL A   1      40.252  19.812  26.099  1.00  0.00     0.056 C 
ENDBRANCH  25  26
ENDBRANCH  22  25
ENDBRANCH  20  21
ENDBRANCH  18  20
ENDBRANCH   8   9
ENDBRANCH   7   8
ENDBRANCH   4   7
ENDBRANCH   2   3
ENDBRANCH   1   2
BRANCH   1  30
ATOM     30  C   UNL A   1      38.208  29.270  28.999  1.00  0.00     0.002 C 
BRANCH  30  31
ATOM     31  C   UNL A   1      37.698  30.391  29.927  1.00  0.00     0.002 C 
BRANCH  31  32
ATOM     32  C   UNL A   1      36.415  31.205  29.656  1.00  0.00     0.021 C 
BRANCH  32  33
ATOM     33  C   UNL A   1      36.075  32.536  30.351  1.00  0.00     0.116 C 
BRANCH  33  34
ATOM     34  N   UNL A   1      34.895  32.561  31.164  1.00  0.00    -0.352 N 
ATOM     35  C   UNL A   1      34.810  33.064  32.429  1.00  0.00     0.251 C 
ATOM     36  H   UNL A   1      34.075  32.179  30.775  1.00  0.00     0.163 HD
ATOM     37  O   UNL A   1      33.748  33.364  32.960  1.00  0.00    -0.269 OA
BRANCH  35  38
ATOM     38  C   UNL A   1      35.926  33.388  33.283  1.00  0.00     0.039 A 
ATOM     39  C   UNL A   1      36.610  34.545  32.914  1.00  0.00     0.014 A 
ATOM     40  C   UNL A   1      36.597  32.280  33.786  1.00  0.00     0.014 A 
ATOM     41  C   UNL A   1      37.982  34.506  32.905  1.00  0.00     0.010 A 
ATOM     42  C   UNL A   1      37.958  32.240  33.819  1.00  0.00     0.010 A 
ATOM     43  C   UNL A   1      38.638  33.339  33.328  1.00  0.00    -0.014 A 
BRANCH  43  44
ATOM     44  C   UNL A   1      40.049  33.435  33.603  1.00  0.00     0.031 A 
ATOM     45  C   UNL A   1      40.806  32.609  32.626  1.00  0.00     0.074 A 
ATOM     46  C   UNL A   1      40.600  34.347  34.415  1.00  0.00     0.049 A 
ATOM     47  N   UNL A   1      41.481  31.536  32.858  1.00  0.00    -0.248 NA
ATOM     48  C   UNL A   1      40.510  32.843  31.194  1.00  0.00     0.031 C 
ATOM     49  C   UNL A   1      39.971  35.475  35.103  1.00  0.00     0.029 A 
ATOM     50  N   UNL A   1      41.917  34.549  34.625  1.00  0.00    -0.354 N 
ATOM     51  C   UNL A   1      41.854  31.066  31.607  1.00  0.00     0.074 A 
ATOM     52  C   UNL A   1      41.020  31.742  30.650  1.00  0.00     0.031 C 
ATOM     53  C   UNL A   1      40.928  36.385  35.398  1.00  0.00     0.029 A 
ATOM     54  C   UNL A   1      42.226  35.827  35.053  1.00  0.00     0.049 A 
ATOM     55  H   UNL A   1      42.597  33.851  34.488  1.00  0.00     0.167 HD
ATOM     56  C   UNL A   1      43.007  30.373  31.418  1.00  0.00     0.031 A 
ATOM     57  C   UNL A   1      43.455  36.389  34.976  1.00  0.00     0.031 A 
ATOM     58  C   UNL A   1      43.531  29.875  32.665  1.00  0.00     0.049 A 
ATOM     59  C   UNL A   1      44.433  35.276  34.784  1.00  0.00     0.074 A 
ATOM     60  C   UNL A   1      43.034  29.024  33.635  1.00  0.00     0.029 A 
ATOM     61  N   UNL A   1      44.509  30.625  33.281  1.00  0.00    -0.354 N 
ATOM     62  N   UNL A   1      44.628  34.327  35.661  1.00  0.00    -0.248 NA
ATOM     63  C   UNL A   1      44.855  34.946  33.428  1.00  0.00     0.031 C 
ATOM     64  C   UNL A   1      43.403  29.622  34.876  1.00  0.00     0.029 A 
ATOM     65  C   UNL A   1      44.160  30.765  34.604  1.00  0.00     0.049 A 
ATOM     66  H   UNL A   1      45.315  30.994  32.851  1.00  0.00     0.167 HD
ATOM     67  C   UNL A   1      44.801  33.164  34.917  1.00  0.00     0.074 A 
ATOM     68  C   UNL A   1      45.044  33.628  33.553  1.00  0.00     0.031 C 
ATOM     69  C   UNL A   1      44.443  31.939  35.413  1.00  0.00     0.031 A 
BRANCH  56  70
ATOM     70  C   UNL A   1      43.838  30.546  30.172  1.00  0.00    -0.014 A 
ATOM     71  C   UNL A   1      44.728  31.629  30.089  1.00  0.00     0.010 A 
ATOM     72  C   UNL A   1      43.579  29.840  28.975  1.00  0.00     0.010 A 
ATOM     73  C   UNL A   1      45.255  32.035  28.853  1.00  0.00     0.020 A 
ATOM     74  C   UNL A   1      44.132  30.202  27.752  1.00  0.00     0.020 A 
ATOM     75  C   UNL A   1      44.932  31.329  27.692  1.00  0.00     0.054 A 
BRANCH  75  76
ATOM     76  S   UNL A   1      45.468  31.951  26.083  1.00  0.00     0.124 S 
ATOM     77  O   UNL A   1      46.049  30.754  25.483  1.00  0.00    -0.237 OA
ATOM     78  O   UNL A   1      44.214  32.413  25.497  1.00  0.00    -0.237 OA
ATOM     79  O   UNL A   1      46.419  33.007  26.422  1.00  0.00    -0.744 OA
ENDBRANCH  75  76
ENDBRANCH  56  70
BRANCH  57  80
ATOM     80  C   UNL A   1      43.747  37.805  34.646  1.00  0.00    -0.014 A 
ATOM     81  C   UNL A   1      43.361  38.346  33.408  1.00  0.00     0.010 A 
ATOM     82  C   UNL A   1      44.182  38.702  35.647  1.00  0.00     0.010 A 
ATOM     83  C   UNL A   1      43.356  39.735  33.199  1.00  0.00     0.020 A 
ATOM     84  C   UNL A   1      44.192  40.086  35.442  1.00  0.00     0.020 A 
ATOM     85  C   UNL A   1      43.753  40.597  34.226  1.00  0.00     0.054 A 
BRANCH  85  86
ATOM     86  S   UNL A   1      43.573  42.390  34.004  1.00  0.00     0.124 S 
ATOM     87  O   UNL A   1      44.802  42.903  34.602  1.00  0.00    -0.237 OA
ATOM     88  O   UNL A   1      43.473  42.519  32.554  1.00  0.00    -0.237 OA
ATOM     89  O   UNL A   1      42.348  42.707  34.737  1.00  0.00    -0.744 OA
ENDBRANCH  85  86
ENDBRANCH  57  80
BRANCH  69  90
ATOM     90  C   UNL A   1      44.067  31.845  36.881  1.00  0.00    -0.014 A 
ATOM     91  C   UNL A   1      45.005  31.620  37.911  1.00  0.00     0.010 A 
ATOM     92  C   UNL A   1      42.746  32.153  37.248  1.00  0.00     0.010 A 
ATOM     93  C   UNL A   1      44.626  31.670  39.261  1.00  0.00     0.020 A 
ATOM     94  C   UNL A   1      42.365  32.221  38.592  1.00  0.00     0.020 A 
ATOM     95  C   UNL A   1      43.304  31.969  39.593  1.00  0.00     0.054 A 
BRANCH  95  96
ATOM     96  S   UNL A   1      42.827  32.066  41.342  1.00  0.00     0.124 S 
ATOM     97  O   UNL A   1      43.771  33.042  41.878  1.00  0.00    -0.237 OA
ATOM     98  O   UNL A   1      41.435  32.507  41.278  1.00  0.00    -0.237 OA
ATOM     99  O   UNL A   1      43.011  30.699  41.830  1.00  0.00    -0.744 OA
ENDBRANCH  95  96
ENDBRANCH  69  90
ENDBRANCH  43  44
ENDBRANCH  35  38
ENDBRANCH  33  34
ENDBRANCH  32  33
ENDBRANCH  31  32
ENDBRANCH  30  31
ENDBRANCH   1  30
TORSDOF 22
ENDMDL
MODEL 2
REMARK VINA RESULT:      -9.0      7.114     15.594
REMARK SMILES Cc1nc2nc(CNC(=O)OC(C)(C)C)nn2c(C)c1CCC(=O)NCCCCCCNC(=O)c1ccc(-c2c3nc(c(-c4ccc(S(=O)(=O)[O-])cc4)c4ccc([nH]4)c(-c4ccc(S(=O)(=O)[O-])cc4)c4nc(c(-c5ccc(S(=O)(=O)[O-])cc5)c5ccc2[nH]5)C=C4)C=C3)cc1
REMARK SMILES IDX 27 1 26 2 25 3 23 4 24 5 22 7 21 8 20 9 1 10 2 11 3 12 4 13
REMARK SMILES IDX 18 14 5 15 17 16 19 17 6 18 16 19 7 20 8 21 9 22 10 24 11 25
REMARK SMILES IDX 12 26 13 27 14 28 15 29 28 30 29 31 30 32 31 33 32 34 33 35
REMARK SMILES IDX 34 37 35 38 36 39 94 40 37 41 93 42 38 43 39 44 40 45 87 46
REMARK SMILES IDX 41 47 92 48 86 49 88 50 42 51 91 52 85 53 84 54 43 56 73 57
REMARK SMILES IDX 54 58 72 59 55 60 58 61 71 62 89 63 56 64 57 65 70 67 90 68
REMARK SMILES IDX 59 69 44 70 45 71 53 72 46 73 52 74 47 75 48 76 49 77 50 78
REMARK SMILES IDX 51 79 74 80 75 81 83 82 76 83 82 84 77 85 78 86 79 87 80 88
REMARK SMILES IDX 81 89 60 90 61 91 69 92 62 93 68 94 63 95 64 96 65 97 66 98
REMARK SMILES IDX 67 99
REMARK H PARENT 25 6 8 23 32 36 88 55 58 66
REMARK Flexibility Score: inf
ROOT
ATOM      1  C   UNL A   1      44.482  38.192  32.518  1.00  0.00     0.021 C 
ENDROOT
BRANCH   1   2
ATOM      2  C   UNL A   1      44.370  38.685  31.080  1.00  0.00     0.116 C 
BRANCH   2   3
ATOM      3  N   UNL A   1      43.313  39.691  30.959  1.00  0.00    -0.356 N 
ATOM      4  C   UNL A   1      43.287  40.889  30.302  1.00  0.00     0.220 C 
ATOM      5  O   UNL A   1      42.321  41.633  30.483  1.00  0.00    -0.275 OA
ATOM      6  H   UNL A   1      42.479  39.465  31.432  1.00  0.00     0.163 HD
BRANCH   4   7
ATOM      7  C   UNL A   1      44.401  41.290  29.351  1.00  0.00     0.105 C 
BRANCH   7   8
ATOM      8  C   UNL A   1      44.370  40.508  28.020  1.00  0.00     0.049 C 
BRANCH   8   9
ATOM      9  C   UNL A   1      43.690  41.286  26.912  1.00  0.00    -0.005 A 
ATOM     10  C   UNL A   1      41.466  40.028  27.472  1.00  0.00     0.067 C 
ATOM     11  C   UNL A   1      42.303  40.846  26.496  1.00  0.00     0.046 A 
ATOM     12  N   UNL A   1      41.763  41.145  25.353  1.00  0.00    -0.216 NA
ATOM     13  C   UNL A   1      42.489  41.943  24.508  1.00  0.00     0.252 A 
ATOM     14  C   UNL A   1      44.230  42.287  26.158  1.00  0.00     0.048 A 
ATOM     15  N   UNL A   1      42.324  42.134  23.217  1.00  0.00    -0.192 NA
ATOM     16  N   UNL A   1      43.624  42.627  24.918  1.00  0.00    -0.201 N 
ATOM     17  C   UNL A   1      45.537  42.948  26.461  1.00  0.00     0.067 C 
ATOM     18  C   UNL A   1      43.223  43.099  22.856  1.00  0.00     0.172 A 
ATOM     19  N   UNL A   1      44.060  43.422  23.871  1.00  0.00    -0.148 NA
BRANCH  18  20
ATOM     20  C   UNL A   1      43.235  43.748  21.437  1.00  0.00     0.199 C 
BRANCH  20  21
ATOM     21  N   UNL A   1      41.994  43.568  20.633  1.00  0.00    -0.314 N 
ATOM     22  C   UNL A   1      41.738  43.662  19.268  1.00  0.00     0.408 C 
ATOM     23  H   UNL A   1      41.202  43.337  21.170  1.00  0.00     0.167 HD
ATOM     24  O   UNL A   1      40.566  43.566  18.891  1.00  0.00    -0.225 OA
BRANCH  22  25
ATOM     25  O   UNL A   1      42.777  43.917  18.424  1.00  0.00    -0.444 OA
BRANCH  25  26
ATOM     26  C   UNL A   1      42.815  45.102  17.525  1.00  0.00     0.106 C 
ATOM     27  C   UNL A   1      42.094  44.823  16.204  1.00  0.00     0.056 C 
ATOM     28  C   UNL A   1      42.245  46.425  18.093  1.00  0.00     0.056 C 
ATOM     29  C   UNL A   1      44.309  45.356  17.228  1.00  0.00     0.056 C 
ENDBRANCH  25  26
ENDBRANCH  22  25
ENDBRANCH  20  21
ENDBRANCH  18  20
ENDBRANCH   8   9
ENDBRANCH   7   8
ENDBRANCH   4   7
ENDBRANCH   2   3
ENDBRANCH   1   2
BRANCH   1  30
ATOM     30  C   UNL A   1      45.045  36.798  32.785  1.00  0.00     0.002 C 
BRANCH  30  31
ATOM     31  C   UNL A   1      44.090  35.670  33.222  1.00  0.00     0.002 C 
BRANCH  31  32
ATOM     32  C   UNL A   1      42.915  35.164  32.358  1.00  0.00     0.021 C 
BRANCH  32  33
ATOM     33  C   UNL A   1      42.904  35.189  30.818  1.00  0.00     0.116 C 
BRANCH  33  34
ATOM     34  N   UNL A   1      41.673  34.840  30.173  1.00  0.00    -0.352 N 
ATOM     35  C   UNL A   1      41.109  33.598  30.152  1.00  0.00     0.251 C 
ATOM     36  H   UNL A   1      41.192  35.560  29.704  1.00  0.00     0.163 HD
ATOM     37  O   UNL A   1      39.930  33.401  29.884  1.00  0.00    -0.269 OA
BRANCH  35  38
ATOM     38  C   UNL A   1      41.772  32.366  30.505  1.00  0.00     0.039 A 
ATOM     39  C   UNL A   1      43.036  32.216  29.937  1.00  0.00     0.014 A 
ATOM     40  C   UNL A   1      40.916  31.284  30.661  1.00  0.00     0.014 A 
ATOM     41  C   UNL A   1      43.353  31.000  29.384  1.00  0.00     0.010 A 
ATOM     42  C   UNL A   1      41.231  30.061  30.150  1.00  0.00     0.010 A 
ATOM     43  C   UNL A   1      42.429  29.946  29.470  1.00  0.00    -0.014 A 
BRANCH  43  44
ATOM     44  C   UNL A   1      42.906  28.621  29.167  1.00  0.00     0.031 A 
ATOM     45  C   UNL A   1      43.610  28.060  30.350  1.00  0.00     0.074 A 
ATOM     46  C   UNL A   1      42.522  27.904  28.102  1.00  0.00     0.049 A 
ATOM     47  N   UNL A   1      44.866  27.796  30.467  1.00  0.00    -0.248 NA
ATOM     48  C   UNL A   1      42.874  28.097  31.635  1.00  0.00     0.031 C 
ATOM     49  C   UNL A   1      41.507  28.215  27.095  1.00  0.00     0.029 A 
ATOM     50  N   UNL A   1      42.853  26.626  27.828  1.00  0.00    -0.354 N 
ATOM     51  C   UNL A   1      45.039  27.452  31.801  1.00  0.00     0.074 A 
ATOM     52  C   UNL A   1      43.868  27.908  32.498  1.00  0.00     0.031 C 
ATOM     53  C   UNL A   1      41.108  27.058  26.517  1.00  0.00     0.029 A 
ATOM     54  C   UNL A   1      41.946  25.976  27.012  1.00  0.00     0.049 A 
ATOM     55  H   UNL A   1      43.667  26.195  28.175  1.00  0.00     0.167 HD
ATOM     56  C   UNL A   1      45.994  26.568  32.191  1.00  0.00     0.031 A 
ATOM     57  C   UNL A   1      41.841  24.631  26.896  1.00  0.00     0.031 A 
ATOM     58  C   UNL A   1      46.988  26.379  31.164  1.00  0.00     0.049 A 
ATOM     59  C   UNL A   1      43.110  24.046  27.425  1.00  0.00     0.074 A 
ATOM     60  C   UNL A   1      47.866  27.232  30.521  1.00  0.00     0.029 A 
ATOM     61  N   UNL A   1      46.836  25.291  30.333  1.00  0.00    -0.354 N 
ATOM     62  N   UNL A   1      44.283  24.269  26.895  1.00  0.00    -0.248 NA
ATOM     63  C   UNL A   1      43.143  23.598  28.812  1.00  0.00     0.031 C 
ATOM     64  C   UNL A   1      47.828  26.837  29.151  1.00  0.00     0.029 A 
ATOM     65  C   UNL A   1      46.986  25.727  29.037  1.00  0.00     0.049 A 
ATOM     66  H   UNL A   1      46.653  24.365  30.616  1.00  0.00     0.167 HD
ATOM     67  C   UNL A   1      45.158  24.393  27.970  1.00  0.00     0.074 A 
ATOM     68  C   UNL A   1      44.421  23.857  29.113  1.00  0.00     0.031 C 
ATOM     69  C   UNL A   1      46.276  25.179  27.894  1.00  0.00     0.031 A 
BRANCH  56  70
ATOM     70  C   UNL A   1      45.753  25.587  33.311  1.00  0.00    -0.014 A 
ATOM     71  C   UNL A   1      46.543  25.664  34.469  1.00  0.00     0.010 A 
ATOM     72  C   UNL A   1      44.963  24.425  33.153  1.00  0.00     0.010 A 
ATOM     73  C   UNL A   1      46.604  24.592  35.372  1.00  0.00     0.020 A 
ATOM     74  C   UNL A   1      44.978  23.375  34.064  1.00  0.00     0.020 A 
ATOM     75  C   UNL A   1      45.837  23.446  35.147  1.00  0.00     0.054 A 
BRANCH  75  76
ATOM     76  S   UNL A   1      46.043  22.001  36.211  1.00  0.00     0.124 S 
ATOM     77  O   UNL A   1      45.222  21.009  35.525  1.00  0.00    -0.237 OA
ATOM     78  O   UNL A   1      47.486  21.783  36.156  1.00  0.00    -0.237 OA
ATOM     79  O   UNL A   1      45.534  22.451  37.504  1.00  0.00    -0.744 OA
ENDBRANCH  75  76
ENDBRANCH  56  70
BRANCH  57  80
ATOM     80  C   UNL A   1      40.578  23.865  26.754  1.00  0.00    -0.014 A 
ATOM     81  C   UNL A   1      39.348  24.530  26.623  1.00  0.00     0.010 A 
ATOM     82  C   UNL A   1      40.605  22.476  26.494  1.00  0.00     0.010 A 
ATOM     83  C   UNL A   1      38.201  23.843  26.192  1.00  0.00     0.020 A 
ATOM     84  C   UNL A   1      39.464  21.783  26.077  1.00  0.00     0.020 A 
ATOM     85  C   UNL A   1      38.272  22.478  25.902  1.00  0.00     0.054 A 
BRANCH  85  86
ATOM     86  S   UNL A   1      36.831  21.643  25.178  1.00  0.00     0.124 S 
ATOM     87  O   UNL A   1      36.649  22.365  23.923  1.00  0.00    -0.237 OA
ATOM     88  O   UNL A   1      37.295  20.265  25.055  1.00  0.00    -0.237 OA
ATOM     89  O   UNL A   1      35.777  21.852  26.171  1.00  0.00    -0.744 OA
ENDBRANCH  85  86
ENDBRANCH  57  80
BRANCH  69  90
ATOM     90  C   UNL A   1      46.668  25.733  26.536  1.00  0.00    -0.014 A 
ATOM     91  C   UNL A   1      46.130  26.922  25.998  1.00  0.00     0.010 A 
ATOM     92  C   UNL A   1      47.733  25.123  25.853  1.00  0.00     0.010 A 
ATOM     93  C   UNL A   1      46.619  27.461  24.798  1.00  0.00     0.020 A 
ATOM     94  C   UNL A   1      48.237  25.664  24.665  1.00  0.00     0.020 A 
ATOM     95  C   UNL A   1      47.672  26.825  24.137  1.00  0.00     0.054 A 
BRANCH  95  96
ATOM     96  S   UNL A   1      48.323  27.546  22.603  1.00  0.00     0.124 S 
ATOM     97  O   UNL A   1      49.515  28.253  23.063  1.00  0.00    -0.237 OA
ATOM     98  O   UNL A   1      48.571  26.372  21.769  1.00  0.00    -0.237 OA
ATOM     99  O   UNL A   1      47.239  28.409  22.135  1.00  0.00    -0.744 OA
ENDBRANCH  95  96
ENDBRANCH  69  90
ENDBRANCH  43  44
ENDBRANCH  35  38
ENDBRANCH  33  34
ENDBRANCH  32  33
ENDBRANCH  31  32
ENDBRANCH  30  31
ENDBRANCH   1  30
TORSDOF 22
ENDMDL
MODEL 3
REMARK VINA RESULT:      -9.0      2.807      8.376
REMARK SMILES Cc1nc2nc(CNC(=O)OC(C)(C)C)nn2c(C)c1CCC(=O)NCCCCCCNC(=O)c1ccc(-c2c3nc(c(-c4ccc(S(=O)(=O)[O-])cc4)c4ccc([nH]4)c(-c4ccc(S(=O)(=O)[O-])cc4)c4nc(c(-c5ccc(S(=O)(=O)[O-])cc5)c5ccc2[nH]5)C=C4)C=C3)cc1
REMARK SMILES IDX 27 1 26 2 25 3 23 4 24 5 22 7 21 8 20 9 1 10 2 11 3 12 4 13
REMARK SMILES IDX 18 14 5 15 17 16 19 17 6 18 16 19 7 20 8 21 9 22 10 24 11 25
REMARK SMILES IDX 12 26 13 27 14 28 15 29 28 30 29 31 30 32 31 33 32 34 33 35
REMARK SMILES IDX 34 37 35 38 36 39 94 40 37 41 93 42 38 43 39 44 40 45 87 46
REMARK SMILES IDX 41 47 92 48 86 49 88 50 42 51 91 52 85 53 84 54 43 56 73 57
REMARK SMILES IDX 54 58 72 59 55 60 58 61 71 62 89 63 56 64 57 65 70 67 90 68
REMARK SMILES IDX 59 69 44 70 45 71 53 72 46 73 52 74 47 75 48 76 49 77 50 78
REMARK SMILES IDX 51 79 74 80 75 81 83 82 76 83 82 84 77 85 78 86 79 87 80 88
REMARK SMILES IDX 81 89 60 90 61 91 69 92 62 93 68 94 63 95 64 96 65 97 66 98
REMARK SMILES IDX 67 99
REMARK H PARENT 25 6 8 23 32 36 88 55 58 66
REMARK Flexibility Score: inf
ROOT
ATOM      1  C   UNL A   1      38.515  28.979  28.495  1.00  0.00     0.021 C 
ENDROOT
BRANCH   1   2
ATOM      2  C   UNL A   1      39.977  28.904  28.072  1.00  0.00     0.116 C 
BRANCH   2   3
ATOM      3  N   UNL A   1      40.170  27.860  27.063  1.00  0.00    -0.356 N 
ATOM      4  C   UNL A   1      41.224  27.600  26.233  1.00  0.00     0.220 C 
ATOM      5  O   UNL A   1      41.079  26.748  25.355  1.00  0.00    -0.275 OA
ATOM      6  H   UNL A   1      39.410  27.241  26.966  1.00  0.00     0.163 HD
BRANCH   4   7
ATOM      7  C   UNL A   1      42.552  28.318  26.400  1.00  0.00     0.105 C 
BRANCH   7   8
ATOM      8  C   UNL A   1      43.544  27.552  27.302  1.00  0.00     0.049 C 
BRANCH   8   9
ATOM      9  C   UNL A   1      43.581  26.070  26.988  1.00  0.00    -0.005 A 
ATOM     10  C   UNL A   1      45.300  26.576  25.082  1.00  0.00     0.067 C 
ATOM     11  C   UNL A   1      44.276  25.641  25.713  1.00  0.00     0.046 A 
ATOM     12  N   UNL A   1      44.069  24.501  25.126  1.00  0.00    -0.216 NA
ATOM     13  C   UNL A   1      43.203  23.631  25.737  1.00  0.00     0.252 A 
ATOM     14  C   UNL A   1      42.962  25.067  27.674  1.00  0.00     0.048 A 
ATOM     15  N   UNL A   1      42.596  22.583  25.224  1.00  0.00    -0.192 NA
ATOM     16  N   UNL A   1      42.756  23.812  27.038  1.00  0.00    -0.201 N 
ATOM     17  C   UNL A   1      42.314  25.246  29.011  1.00  0.00     0.067 C 
ATOM     18  C   UNL A   1      41.931  21.983  26.257  1.00  0.00     0.172 A 
ATOM     19  N   UNL A   1      41.987  22.717  27.395  1.00  0.00    -0.148 NA
BRANCH  18  20
ATOM     20  C   UNL A   1      41.225  20.599  26.113  1.00  0.00     0.199 C 
BRANCH  20  21
ATOM     21  N   UNL A   1      41.935  19.443  26.729  1.00  0.00    -0.314 N 
ATOM     22  C   UNL A   1      42.892  18.560  26.238  1.00  0.00     0.408 C 
ATOM     23  H   UNL A   1      41.678  19.271  27.663  1.00  0.00     0.167 HD
ATOM     24  O   UNL A   1      43.227  17.612  26.956  1.00  0.00    -0.225 OA
BRANCH  22  25
ATOM     25  O   UNL A   1      43.364  18.744  24.973  1.00  0.00    -0.444 OA
BRANCH  25  26
ATOM     26  C   UNL A   1      44.748  19.208  24.688  1.00  0.00     0.106 C 
ATOM     27  C   UNL A   1      45.081  19.085  23.199  1.00  0.00     0.056 C 
ATOM     28  C   UNL A   1      45.103  20.651  25.125  1.00  0.00     0.056 C 
ATOM     29  C   UNL A   1      45.680  18.264  25.481  1.00  0.00     0.056 C 
ENDBRANCH  25  26
ENDBRANCH  22  25
ENDBRANCH  20  21
ENDBRANCH  18  20
ENDBRANCH   8   9
ENDBRANCH   7   8
ENDBRANCH   4   7
ENDBRANCH   2   3
ENDBRANCH   1   2
BRANCH   1  30
ATOM     30  C   UNL A   1      37.671  30.170  28.047  1.00  0.00     0.002 C 
BRANCH  30  31
ATOM     31  C   UNL A   1      37.429  31.335  29.027  1.00  0.00     0.002 C 
BRANCH  31  32
ATOM     32  C   UNL A   1      36.098  31.555  29.779  1.00  0.00     0.021 C 
BRANCH  32  33
ATOM     33  C   UNL A   1      35.437  32.931  29.978  1.00  0.00     0.116 C 
BRANCH  33  34
ATOM     34  N   UNL A   1      34.371  33.006  30.932  1.00  0.00    -0.352 N 
ATOM     35  C   UNL A   1      34.500  33.355  32.245  1.00  0.00     0.251 C 
ATOM     36  H   UNL A   1      33.466  32.786  30.612  1.00  0.00     0.163 HD
ATOM     37  O   UNL A   1      33.558  33.721  32.936  1.00  0.00    -0.269 OA
BRANCH  35  38
ATOM     38  C   UNL A   1      35.738  33.422  32.980  1.00  0.00     0.039 A 
ATOM     39  C   UNL A   1      36.607  34.422  32.545  1.00  0.00     0.014 A 
ATOM     40  C   UNL A   1      36.213  32.189  33.410  1.00  0.00     0.014 A 
ATOM     41  C   UNL A   1      37.933  34.102  32.394  1.00  0.00     0.010 A 
ATOM     42  C   UNL A   1      37.532  31.868  33.302  1.00  0.00     0.010 A 
ATOM     43  C   UNL A   1      38.372  32.815  32.745  1.00  0.00    -0.014 A 
BRANCH  43  44
ATOM     44  C   UNL A   1      39.792  32.612  32.874  1.00  0.00     0.031 A 
ATOM     45  C   UNL A   1      40.323  33.467  33.969  1.00  0.00     0.074 A 
ATOM     46  C   UNL A   1      40.467  31.606  32.302  1.00  0.00     0.049 A 
ATOM     47  N   UNL A   1      41.119  34.474  33.865  1.00  0.00    -0.248 NA
ATOM     48  C   UNL A   1      39.634  33.367  35.276  1.00  0.00     0.031 C 
ATOM     49  C   UNL A   1      39.958  30.466  31.538  1.00  0.00     0.029 A 
ATOM     50  N   UNL A   1      41.771  31.308  32.474  1.00  0.00    -0.354 N 
ATOM     51  C   UNL A   1      41.177  35.020  35.140  1.00  0.00     0.074 A 
ATOM     52  C   UNL A   1      40.066  34.476  35.871  1.00  0.00     0.031 C 
ATOM     53  C   UNL A   1      40.882  29.478  31.573  1.00  0.00     0.029 A 
ATOM     54  C   UNL A   1      42.080  29.983  32.226  1.00  0.00     0.049 A 
ATOM     55  H   UNL A   1      42.443  31.972  32.750  1.00  0.00     0.167 HD
ATOM     56  C   UNL A   1      42.289  35.655  35.595  1.00  0.00     0.031 A 
ATOM     57  C   UNL A   1      43.194  29.356  32.672  1.00  0.00     0.031 A 
ATOM     58  C   UNL A   1      43.167  36.018  34.512  1.00  0.00     0.049 A 
ATOM     59  C   UNL A   1      44.171  30.420  33.056  1.00  0.00     0.074 A 
ATOM     60  C   UNL A   1      43.020  36.817  33.393  1.00  0.00     0.029 A 
ATOM     61  N   UNL A   1      44.212  35.163  34.235  1.00  0.00    -0.354 N 
ATOM     62  N   UNL A   1      44.670  31.281  32.210  1.00  0.00    -0.248 NA
ATOM     63  C   UNL A   1      44.236  30.831  34.453  1.00  0.00     0.031 C 
ATOM     64  C   UNL A   1      43.661  36.099  32.339  1.00  0.00     0.029 A 
ATOM     65  C   UNL A   1      44.222  34.938  32.878  1.00  0.00     0.049 A 
ATOM     66  H   UNL A   1      44.840  34.782  34.891  1.00  0.00     0.167 HD
ATOM     67  C   UNL A   1      44.729  32.488  32.900  1.00  0.00     0.074 A 
ATOM     68  C   UNL A   1      44.557  32.121  34.305  1.00  0.00     0.031 C 
ATOM     69  C   UNL A   1      44.617  33.688  32.251  1.00  0.00     0.031 A 
BRANCH  56  70
ATOM     70  C   UNL A   1      42.737  35.534  37.030  1.00  0.00    -0.014 A 
ATOM     71  C   UNL A   1      43.386  34.360  37.445  1.00  0.00     0.010 A 
ATOM     72  C   UNL A   1      42.303  36.417  38.045  1.00  0.00     0.010 A 
ATOM     73  C   UNL A   1      43.509  34.050  38.809  1.00  0.00     0.020 A 
ATOM     74  C   UNL A   1      42.461  36.144  39.398  1.00  0.00     0.020 A 
ATOM     75  C   UNL A   1      43.022  34.936  39.772  1.00  0.00     0.054 A 
BRANCH  75  76
ATOM     76  S   UNL A   1      43.024  34.461  41.515  1.00  0.00     0.124 S 
ATOM     77  O   UNL A   1      41.822  35.126  42.004  1.00  0.00    -0.237 OA
ATOM     78  O   UNL A   1      42.960  33.004  41.436  1.00  0.00    -0.237 OA
ATOM     79  O   UNL A   1      44.287  34.999  42.017  1.00  0.00    -0.744 OA
ENDBRANCH  75  76
ENDBRANCH  56  70
BRANCH  57  80
ATOM     80  C   UNL A   1      43.271  27.956  33.156  1.00  0.00    -0.014 A 
ATOM     81  C   UNL A   1      44.355  27.135  32.802  1.00  0.00     0.010 A 
ATOM     82  C   UNL A   1      42.405  27.498  34.174  1.00  0.00     0.010 A 
ATOM     83  C   UNL A   1      44.596  25.929  33.482  1.00  0.00     0.020 A 
ATOM     84  C   UNL A   1      42.631  26.293  34.846  1.00  0.00     0.020 A 
ATOM     85  C   UNL A   1      43.743  25.526  34.514  1.00  0.00     0.054 A 
BRANCH  85  86
ATOM     86  S   UNL A   1      44.166  24.060  35.499  1.00  0.00     0.124 S 
ATOM     87  O   UNL A   1      43.208  23.072  35.014  1.00  0.00    -0.237 OA
ATOM     88  O   UNL A   1      45.559  23.826  35.132  1.00  0.00    -0.237 OA
ATOM     89  O   UNL A   1      43.957  24.500  36.878  1.00  0.00    -0.744 OA
ENDBRANCH  85  86
ENDBRANCH  57  80
BRANCH  69  90
ATOM     90  C   UNL A   1      44.658  33.686  30.734  1.00  0.00    -0.014 A 
ATOM     91  C   UNL A   1      45.850  33.819  29.989  1.00  0.00     0.010 A 
ATOM     92  C   UNL A   1      43.477  33.377  30.038  1.00  0.00     0.010 A 
ATOM     93  C   UNL A   1      45.852  33.682  28.592  1.00  0.00     0.020 A 
ATOM     94  C   UNL A   1      43.475  33.222  28.648  1.00  0.00     0.020 A 
ATOM     95  C   UNL A   1      44.659  33.385  27.929  1.00  0.00     0.054 A 
BRANCH  95  96
ATOM     96  S   UNL A   1      44.674  33.175  26.126  1.00  0.00     0.124 S 
ATOM     97  O   UNL A   1      43.902  34.325  25.664  1.00  0.00    -0.237 OA
ATOM     98  O   UNL A   1      46.099  33.204  25.804  1.00  0.00    -0.237 OA
ATOM     99  O   UNL A   1      44.029  31.879  25.920  1.00  0.00    -0.744 OA
ENDBRANCH  95  96
ENDBRANCH  69  90
ENDBRANCH  43  44
ENDBRANCH  35  38
ENDBRANCH  33  34
ENDBRANCH  32  33
ENDBRANCH  31  32
ENDBRANCH  30  31
ENDBRANCH   1  30
TORSDOF 22
ENDMDL
