MODEL 1
REMARK VINA RESULT:     -10.8      0.000      0.000
REMARK SMILES CSc1nc(O)nc(C)c1C(=O)N1C[C@@H](O)C[C@@H]1C(=O)NCCCCCCNC(=O)c1ccc(-c2c3nc(c(-c4ccc(S(=O)(=O)[O-])cc4)c4ccc([nH]4)c(-c4ccc(S(=O)(=O)[O-])cc4)c4nc(c(-c5ccc(S(=O)(=O)[O-])cc5)c5ccc2[nH]5)C=C4)C=C3)cc1
REMARK SMILES IDX 24 1 23 2 22 3 21 4 19 5 20 6 18 8 13 9 14 10 15 11 17 12
REMARK SMILES IDX 11 13 12 14 10 15 3 16 4 17 5 18 8 19 7 20 9 21 2 22 1 23
REMARK SMILES IDX 6 24 16 26 25 28 26 29 27 30 28 31 29 32 30 34 31 35 32 36
REMARK SMILES IDX 90 37 33 38 89 39 34 40 35 41 36 42 83 43 37 44 88 45 82 46
REMARK SMILES IDX 84 47 38 48 87 49 81 50 80 51 39 53 69 54 50 55 68 56 51 57
REMARK SMILES IDX 54 58 67 59 85 60 52 61 53 62 66 64 86 65 55 66 40 67 41 68
REMARK SMILES IDX 49 69 42 70 48 71 43 72 44 73 45 74 46 75 47 76 70 77 71 78
REMARK SMILES IDX 79 79 72 80 78 81 73 82 74 83 75 84 76 85 77 86 56 87 57 88
REMARK SMILES IDX 65 89 58 90 64 91 59 92 60 93 61 94 62 95 63 96
REMARK H PARENT 21 7 6 25 16 27 28 33 84 52 54 63
REMARK Flexibility Score: inf
ROOT
ATOM      1  C   UNL A   1      33.788  30.557  27.076  1.00  0.00     0.002 C 
ENDROOT
BRANCH   1   2
ATOM      2  C   UNL A   1      32.278  30.389  26.896  1.00  0.00     0.021 C 
BRANCH   2   3
ATOM      3  C   UNL A   1      31.819  30.025  25.482  1.00  0.00     0.116 C 
BRANCH   3   4
ATOM      4  N   UNL A   1      32.965  29.721  24.648  1.00  0.00    -0.354 N 
ATOM      5  C   UNL A   1      33.315  28.604  23.949  1.00  0.00     0.242 C 
ATOM      6  O   UNL A   1      34.429  28.639  23.410  1.00  0.00    -0.273 OA
ATOM      7  H   UNL A   1      33.612  30.460  24.571  1.00  0.00     0.163 HD
BRANCH   5   8
ATOM      8  C   UNL A   1      32.354  27.394  23.745  1.00  0.00     0.177 C 
ATOM      9  N   UNL A   1      32.982  26.053  23.769  1.00  0.00    -0.324 N 
ATOM     10  C   UNL A   1      32.662  25.335  22.543  1.00  0.00     0.152 C 
ATOM     11  C   UNL A   1      32.464  26.442  21.521  1.00  0.00     0.136 C 
ATOM     12  C   UNL A   1      31.689  27.466  22.348  1.00  0.00     0.069 C 
BRANCH   9  13
ATOM     13  C   UNL A   1      33.107  25.341  24.943  1.00  0.00     0.259 C 
ATOM     14  O   UNL A   1      34.155  25.429  25.577  1.00  0.00    -0.269 OA
BRANCH  13  15
ATOM     15  C   UNL A   1      32.011  24.403  25.377  1.00  0.00     0.093 A 
ATOM     16  C   UNL A   1      32.022  23.004  25.253  1.00  0.00     0.116 A 
ATOM     17  N   UNL A   1      31.066  22.206  25.787  1.00  0.00    -0.188 NA
ATOM     18  C   UNL A   1      30.116  22.808  26.482  1.00  0.00     0.315 A 
ATOM     19  C   UNL A   1      30.938  24.907  26.135  1.00  0.00     0.058 A 
ATOM     20  N   UNL A   1      29.996  24.108  26.701  1.00  0.00    -0.200 NA
ATOM     21  C   UNL A   1      30.776  26.353  26.525  1.00  0.00     0.068 C 
BRANCH  16  22
ATOM     22  S   UNL A   1      33.352  22.002  24.587  1.00  0.00    -0.109 SA
ATOM     23  C   UNL A   1      32.394  20.587  23.993  1.00  0.00     0.092 C 
ENDBRANCH  16  22
BRANCH  18  24
ATOM     24  O   UNL A   1      29.219  22.032  27.137  1.00  0.00    -0.479 OA
ATOM     25  H   UNL A   1      29.201  22.025  28.073  1.00  0.00     0.297 HD
ENDBRANCH  18  24
ENDBRANCH  13  15
ENDBRANCH   9  13
BRANCH  11  26
ATOM     26  O   UNL A   1      31.748  26.016  20.373  1.00  0.00    -0.391 OA
ATOM     27  H   UNL A   1      32.372  25.844  19.650  1.00  0.00     0.211 HD
ENDBRANCH  11  26
ENDBRANCH   5   8
ENDBRANCH   3   4
ENDBRANCH   2   3
ENDBRANCH   1   2
BRANCH   1  28
ATOM     28  C   UNL A   1      34.202  31.720  27.985  1.00  0.00     0.002 C 
BRANCH  28  29
ATOM     29  C   UNL A   1      35.641  32.227  27.815  1.00  0.00     0.021 C 
BRANCH  29  30
ATOM     30  C   UNL A   1      36.416  32.437  29.116  1.00  0.00     0.116 C 
BRANCH  30  31
ATOM     31  N   UNL A   1      36.067  31.436  30.111  1.00  0.00    -0.352 N 
ATOM     32  C   UNL A   1      36.695  30.256  30.412  1.00  0.00     0.251 C 
ATOM     33  H   UNL A   1      35.264  31.634  30.645  1.00  0.00     0.163 HD
ATOM     34  O   UNL A   1      36.115  29.407  31.093  1.00  0.00    -0.269 OA
BRANCH  32  35
ATOM     35  C   UNL A   1      38.068  29.993  29.929  1.00  0.00     0.039 A 
ATOM     36  C   UNL A   1      38.275  29.718  28.575  1.00  0.00     0.014 A 
ATOM     37  C   UNL A   1      39.141  29.953  30.826  1.00  0.00     0.014 A 
ATOM     38  C   UNL A   1      39.563  29.440  28.109  1.00  0.00     0.010 A 
ATOM     39  C   UNL A   1      40.431  29.715  30.354  1.00  0.00     0.010 A 
ATOM     40  C   UNL A   1      40.652  29.448  28.994  1.00  0.00    -0.014 A 
BRANCH  40  41
ATOM     41  C   UNL A   1      42.026  29.129  28.532  1.00  0.00     0.031 A 
ATOM     42  C   UNL A   1      42.375  27.718  28.147  1.00  0.00     0.074 A 
ATOM     43  C   UNL A   1      42.967  30.090  28.490  1.00  0.00     0.049 A 
ATOM     44  N   UNL A   1      43.537  27.219  27.815  1.00  0.00    -0.248 NA
ATOM     45  C   UNL A   1      41.273  26.743  28.146  1.00  0.00     0.031 C 
ATOM     46  C   UNL A   1      42.752  31.499  28.814  1.00  0.00     0.029 A 
ATOM     47  N   UNL A   1      44.297  30.020  28.159  1.00  0.00    -0.354 N 
ATOM     48  C   UNL A   1      43.308  25.873  27.560  1.00  0.00     0.074 A 
ATOM     49  C   UNL A   1      41.906  25.624  27.822  1.00  0.00     0.031 C 
ATOM     50  C   UNL A   1      43.906  32.166  28.650  1.00  0.00     0.029 A 
ATOM     51  C   UNL A   1      44.950  31.225  28.246  1.00  0.00     0.049 A 
ATOM     52  H   UNL A   1      44.742  29.185  27.884  1.00  0.00     0.167 HD
ATOM     53  C   UNL A   1      44.180  24.932  27.129  1.00  0.00     0.031 A 
ATOM     54  C   UNL A   1      46.243  31.541  28.036  1.00  0.00     0.031 A 
ATOM     55  C   UNL A   1      45.576  25.172  26.881  1.00  0.00     0.049 A 
ATOM     56  C   UNL A   1      47.213  30.471  27.625  1.00  0.00     0.074 A 
ATOM     57  C   UNL A   1      46.542  24.275  26.462  1.00  0.00     0.029 A 
ATOM     58  N   UNL A   1      46.204  26.400  27.022  1.00  0.00    -0.354 N 
ATOM     59  N   UNL A   1      46.988  29.194  27.429  1.00  0.00    -0.248 NA
ATOM     60  C   UNL A   1      48.607  30.881  27.407  1.00  0.00     0.031 C 
ATOM     61  C   UNL A   1      47.763  24.953  26.382  1.00  0.00     0.029 A 
ATOM     62  C   UNL A   1      47.547  26.284  26.701  1.00  0.00     0.049 A 
ATOM     63  H   UNL A   1      45.761  27.232  27.307  1.00  0.00     0.167 HD
ATOM     64  C   UNL A   1      48.207  28.650  27.039  1.00  0.00     0.074 A 
ATOM     65  C   UNL A   1      49.166  29.736  27.031  1.00  0.00     0.031 C 
ATOM     66  C   UNL A   1      48.496  27.369  26.705  1.00  0.00     0.031 A 
BRANCH  53  67
ATOM     67  C   UNL A   1      43.640  23.547  26.898  1.00  0.00    -0.014 A 
ATOM     68  C   UNL A   1      43.494  23.044  25.592  1.00  0.00     0.010 A 
ATOM     69  C   UNL A   1      43.300  22.731  27.991  1.00  0.00     0.010 A 
ATOM     70  C   UNL A   1      42.984  21.761  25.383  1.00  0.00     0.020 A 
ATOM     71  C   UNL A   1      42.813  21.436  27.786  1.00  0.00     0.020 A 
ATOM     72  C   UNL A   1      42.647  20.965  26.483  1.00  0.00     0.054 A 
BRANCH  72  73
ATOM     73  S   UNL A   1      41.987  19.304  26.173  1.00  0.00     0.124 S 
ATOM     74  O   UNL A   1      42.745  18.889  24.995  1.00  0.00    -0.237 OA
ATOM     75  O   UNL A   1      42.312  18.601  27.411  1.00  0.00    -0.237 OA
ATOM     76  O   UNL A   1      40.562  19.534  25.942  1.00  0.00    -0.744 OA
ENDBRANCH  72  73
ENDBRANCH  53  67
BRANCH  54  77
ATOM     77  C   UNL A   1      46.667  32.958  28.183  1.00  0.00    -0.014 A 
ATOM     78  C   UNL A   1      47.193  33.412  29.405  1.00  0.00     0.010 A 
ATOM     79  C   UNL A   1      46.648  33.827  27.077  1.00  0.00     0.010 A 
ATOM     80  C   UNL A   1      47.721  34.701  29.510  1.00  0.00     0.020 A 
ATOM     81  C   UNL A   1      47.190  35.111  27.175  1.00  0.00     0.020 A 
ATOM     82  C   UNL A   1      47.736  35.535  28.389  1.00  0.00     0.054 A 
BRANCH  82  83
ATOM     83  S   UNL A   1      48.535  37.158  28.527  1.00  0.00     0.124 S 
ATOM     84  O   UNL A   1      49.291  37.240  27.281  1.00  0.00    -0.237 OA
ATOM     85  O   UNL A   1      47.386  38.055  28.630  1.00  0.00    -0.237 OA
ATOM     86  O   UNL A   1      49.341  37.044  29.740  1.00  0.00    -0.744 OA
ENDBRANCH  82  83
ENDBRANCH  54  77
BRANCH  66  87
ATOM     87  C   UNL A   1      49.901  27.053  26.272  1.00  0.00    -0.014 A 
ATOM     88  C   UNL A   1      50.272  27.099  24.917  1.00  0.00     0.010 A 
ATOM     89  C   UNL A   1      50.885  26.807  27.247  1.00  0.00     0.010 A 
ATOM     90  C   UNL A   1      51.604  26.899  24.545  1.00  0.00     0.020 A 
ATOM     91  C   UNL A   1      52.221  26.627  26.880  1.00  0.00     0.020 A 
ATOM     92  C   UNL A   1      52.572  26.673  25.529  1.00  0.00     0.054 A 
BRANCH  92  93
ATOM     93  S   UNL A   1      54.300  26.472  25.016  1.00  0.00     0.124 S 
ATOM     94  O   UNL A   1      54.389  25.031  24.790  1.00  0.00    -0.237 OA
ATOM     95  O   UNL A   1      54.370  27.303  23.817  1.00  0.00    -0.237 OA
ATOM     96  O   UNL A   1      55.064  26.967  26.159  1.00  0.00    -0.744 OA
ENDBRANCH  92  93
ENDBRANCH  66  87
ENDBRANCH  40  41
ENDBRANCH  32  35
ENDBRANCH  30  31
ENDBRANCH  29  30
ENDBRANCH  28  29
ENDBRANCH   1  28
TORSDOF 21
ENDMDL
MODEL 2
REMARK VINA RESULT:     -10.6      1.389      8.211
REMARK SMILES CSc1nc(O)nc(C)c1C(=O)N1C[C@@H](O)C[C@@H]1C(=O)NCCCCCCNC(=O)c1ccc(-c2c3nc(c(-c4ccc(S(=O)(=O)[O-])cc4)c4ccc([nH]4)c(-c4ccc(S(=O)(=O)[O-])cc4)c4nc(c(-c5ccc(S(=O)(=O)[O-])cc5)c5ccc2[nH]5)C=C4)C=C3)cc1
REMARK SMILES IDX 24 1 23 2 22 3 21 4 19 5 20 6 18 8 13 9 14 10 15 11 17 12
REMARK SMILES IDX 11 13 12 14 10 15 3 16 4 17 5 18 8 19 7 20 9 21 2 22 1 23
REMARK SMILES IDX 6 24 16 26 25 28 26 29 27 30 28 31 29 32 30 34 31 35 32 36
REMARK SMILES IDX 90 37 33 38 89 39 34 40 35 41 36 42 83 43 37 44 88 45 82 46
REMARK SMILES IDX 84 47 38 48 87 49 81 50 80 51 39 53 69 54 50 55 68 56 51 57
REMARK SMILES IDX 54 58 67 59 85 60 52 61 53 62 66 64 86 65 55 66 40 67 41 68
REMARK SMILES IDX 49 69 42 70 48 71 43 72 44 73 45 74 46 75 47 76 70 77 71 78
REMARK SMILES IDX 79 79 72 80 78 81 73 82 74 83 75 84 76 85 77 86 56 87 57 88
REMARK SMILES IDX 65 89 58 90 64 91 59 92 60 93 61 94 62 95 63 96
REMARK H PARENT 21 7 6 25 16 27 28 33 84 52 54 63
REMARK Flexibility Score: inf
ROOT
ATOM      1  C   UNL A   1      33.519  29.383  27.117  1.00  0.00     0.002 C 
ENDROOT
BRANCH   1   2
ATOM      2  C   UNL A   1      32.083  28.908  27.342  1.00  0.00     0.021 C 
BRANCH   2   3
ATOM      3  C   UNL A   1      31.739  27.541  26.747  1.00  0.00     0.116 C 
BRANCH   3   4
ATOM      4  N   UNL A   1      32.953  26.831  26.393  1.00  0.00    -0.354 N 
ATOM      5  C   UNL A   1      33.245  25.972  25.376  1.00  0.00     0.242 C 
ATOM      6  O   UNL A   1      34.370  25.457  25.420  1.00  0.00    -0.273 OA
ATOM      7  H   UNL A   1      33.708  27.003  27.001  1.00  0.00     0.163 HD
BRANCH   5   8
ATOM      8  C   UNL A   1      32.283  25.719  24.176  1.00  0.00     0.177 C 
ATOM      9  N   UNL A   1      32.397  24.397  23.519  1.00  0.00    -0.324 N 
ATOM     10  C   UNL A   1      32.646  24.572  22.094  1.00  0.00     0.152 C 
ATOM     11  C   UNL A   1      33.366  25.908  22.018  1.00  0.00     0.136 C 
ATOM     12  C   UNL A   1      32.572  26.725  23.035  1.00  0.00     0.069 C 
BRANCH   9  13
ATOM     13  C   UNL A   1      31.641  23.322  23.934  1.00  0.00     0.259 C 
ATOM     14  O   UNL A   1      30.423  23.452  24.013  1.00  0.00    -0.269 OA
BRANCH  13  15
ATOM     15  C   UNL A   1      32.318  22.049  24.372  1.00  0.00     0.093 A 
ATOM     16  C   UNL A   1      32.719  21.732  25.680  1.00  0.00     0.116 A 
ATOM     17  N   UNL A   1      33.198  20.515  26.034  1.00  0.00    -0.188 NA
ATOM     18  C   UNL A   1      33.237  19.598  25.083  1.00  0.00     0.315 A 
ATOM     19  C   UNL A   1      32.421  20.980  23.462  1.00  0.00     0.058 A 
ATOM     20  N   UNL A   1      32.868  19.747  23.820  1.00  0.00    -0.200 NA
ATOM     21  C   UNL A   1      31.930  21.022  22.039  1.00  0.00     0.068 C 
BRANCH  16  22
ATOM     22  S   UNL A   1      32.491  22.747  27.142  1.00  0.00    -0.109 SA
ATOM     23  C   UNL A   1      34.185  22.745  27.776  1.00  0.00     0.092 C 
ENDBRANCH  16  22
BRANCH  18  24
ATOM     24  O   UNL A   1      33.587  18.336  25.431  1.00  0.00    -0.479 OA
ATOM     25  H   UNL A   1      33.762  17.698  24.768  1.00  0.00     0.297 HD
ENDBRANCH  18  24
ENDBRANCH  13  15
ENDBRANCH   9  13
BRANCH  11  26
ATOM     26  O   UNL A   1      33.341  26.479  20.721  1.00  0.00    -0.391 OA
ATOM     27  H   UNL A   1      33.628  25.818  20.072  1.00  0.00     0.211 HD
ENDBRANCH  11  26
ENDBRANCH   5   8
ENDBRANCH   3   4
ENDBRANCH   2   3
ENDBRANCH   1   2
BRANCH   1  28
ATOM     28  C   UNL A   1      33.677  30.898  26.941  1.00  0.00     0.002 C 
BRANCH  28  29
ATOM     29  C   UNL A   1      34.270  31.656  28.136  1.00  0.00     0.021 C 
BRANCH  29  30
ATOM     30  C   UNL A   1      35.584  31.093  28.678  1.00  0.00     0.116 C 
BRANCH  30  31
ATOM     31  N   UNL A   1      35.564  30.998  30.129  1.00  0.00    -0.352 N 
ATOM     32  C   UNL A   1      36.470  30.411  30.973  1.00  0.00     0.251 C 
ATOM     33  H   UNL A   1      34.788  31.415  30.568  1.00  0.00     0.163 HD
ATOM     34  O   UNL A   1      36.163  30.189  32.146  1.00  0.00    -0.269 OA
BRANCH  32  35
ATOM     35  C   UNL A   1      37.818  30.045  30.488  1.00  0.00     0.039 A 
ATOM     36  C   UNL A   1      38.090  30.103  29.118  1.00  0.00     0.014 A 
ATOM     37  C   UNL A   1      38.792  29.581  31.378  1.00  0.00     0.014 A 
ATOM     38  C   UNL A   1      39.351  29.732  28.642  1.00  0.00     0.010 A 
ATOM     39  C   UNL A   1      40.062  29.250  30.907  1.00  0.00     0.010 A 
ATOM     40  C   UNL A   1      40.349  29.314  29.535  1.00  0.00    -0.014 A 
BRANCH  40  41
ATOM     41  C   UNL A   1      41.687  28.889  29.054  1.00  0.00     0.031 A 
ATOM     42  C   UNL A   1      42.817  29.879  29.017  1.00  0.00     0.074 A 
ATOM     43  C   UNL A   1      41.882  27.630  28.617  1.00  0.00     0.049 A 
ATOM     44  N   UNL A   1      44.027  29.731  28.541  1.00  0.00    -0.248 NA
ATOM     45  C   UNL A   1      42.547  31.210  29.583  1.00  0.00     0.031 C 
ATOM     46  C   UNL A   1      40.875  26.569  28.621  1.00  0.00     0.029 A 
ATOM     47  N   UNL A   1      42.996  27.035  28.081  1.00  0.00    -0.354 N 
ATOM     48  C   UNL A   1      44.664  30.947  28.753  1.00  0.00     0.074 A 
ATOM     49  C   UNL A   1      43.693  31.835  29.357  1.00  0.00     0.031 C 
ATOM     50  C   UNL A   1      41.424  25.447  28.127  1.00  0.00     0.029 A 
ATOM     51  C   UNL A   1      42.806  25.719  27.736  1.00  0.00     0.049 A 
ATOM     52  H   UNL A   1      43.851  27.507  27.955  1.00  0.00     0.167 HD
ATOM     53  C   UNL A   1      45.946  31.289  28.486  1.00  0.00     0.031 A 
ATOM     54  C   UNL A   1      43.642  24.832  27.163  1.00  0.00     0.031 A 
ATOM     55  C   UNL A   1      46.909  30.414  27.874  1.00  0.00     0.049 A 
ATOM     56  C   UNL A   1      45.041  25.248  26.809  1.00  0.00     0.074 A 
ATOM     57  C   UNL A   1      48.227  30.680  27.546  1.00  0.00     0.029 A 
ATOM     58  N   UNL A   1      46.661  29.101  27.504  1.00  0.00    -0.354 N 
ATOM     59  N   UNL A   1      45.615  26.415  26.978  1.00  0.00    -0.248 NA
ATOM     60  C   UNL A   1      45.903  24.233  26.190  1.00  0.00     0.031 C 
ATOM     61  C   UNL A   1      48.766  29.537  26.946  1.00  0.00     0.029 A 
ATOM     62  C   UNL A   1      47.800  28.543  26.948  1.00  0.00     0.049 A 
ATOM     63  H   UNL A   1      45.802  28.633  27.620  1.00  0.00     0.167 HD
ATOM     64  C   UNL A   1      46.916  26.268  26.510  1.00  0.00     0.074 A 
ATOM     65  C   UNL A   1      47.042  24.901  26.048  1.00  0.00     0.031 C 
ATOM     66  C   UNL A   1      47.915  27.184  26.481  1.00  0.00     0.031 A 
BRANCH  53  67
ATOM     67  C   UNL A   1      46.379  32.681  28.861  1.00  0.00    -0.014 A 
ATOM     68  C   UNL A   1      46.255  33.740  27.944  1.00  0.00     0.010 A 
ATOM     69  C   UNL A   1      46.889  32.939  30.145  1.00  0.00     0.010 A 
ATOM     70  C   UNL A   1      46.665  35.028  28.294  1.00  0.00     0.020 A 
ATOM     71  C   UNL A   1      47.278  34.232  30.508  1.00  0.00     0.020 A 
ATOM     72  C   UNL A   1      47.174  35.266  29.575  1.00  0.00     0.054 A 
BRANCH  72  73
ATOM     73  S   UNL A   1      47.699  36.950  29.994  1.00  0.00     0.124 S 
ATOM     74  O   UNL A   1      46.423  37.656  30.080  1.00  0.00    -0.237 OA
ATOM     75  O   UNL A   1      48.397  36.756  31.262  1.00  0.00    -0.237 OA
ATOM     76  O   UNL A   1      48.546  37.341  28.869  1.00  0.00    -0.744 OA
ENDBRANCH  72  73
ENDBRANCH  53  67
BRANCH  54  77
ATOM     77  C   UNL A   1      43.162  23.445  26.927  1.00  0.00    -0.014 A 
ATOM     78  C   UNL A   1      43.025  22.961  25.615  1.00  0.00     0.010 A 
ATOM     79  C   UNL A   1      42.944  22.572  28.009  1.00  0.00     0.010 A 
ATOM     80  C   UNL A   1      42.709  21.620  25.388  1.00  0.00     0.020 A 
ATOM     81  C   UNL A   1      42.644  21.226  27.784  1.00  0.00     0.020 A 
ATOM     82  C   UNL A   1      42.542  20.756  26.473  1.00  0.00     0.054 A 
BRANCH  82  83
ATOM     83  S   UNL A   1      42.248  18.995  26.143  1.00  0.00     0.124 S 
ATOM     84  O   UNL A   1      42.561  18.381  27.430  1.00  0.00    -0.237 OA
ATOM     85  O   UNL A   1      40.837  18.988  25.765  1.00  0.00    -0.237 OA
ATOM     86  O   UNL A   1      43.180  18.687  25.061  1.00  0.00    -0.744 OA
ENDBRANCH  82  83
ENDBRANCH  54  77
BRANCH  66  87
ATOM     87  C   UNL A   1      49.256  26.748  25.958  1.00  0.00    -0.014 A 
ATOM     88  C   UNL A   1      49.647  27.028  24.638  1.00  0.00     0.010 A 
ATOM     89  C   UNL A   1      50.174  26.142  26.835  1.00  0.00     0.010 A 
ATOM     90  C   UNL A   1      50.934  26.702  24.202  1.00  0.00     0.020 A 
ATOM     91  C   UNL A   1      51.469  25.834  26.408  1.00  0.00     0.020 A 
ATOM     92  C   UNL A   1      51.839  26.115  25.092  1.00  0.00     0.054 A 
BRANCH  92  93
ATOM     93  S   UNL A   1      53.519  25.756  24.509  1.00  0.00     0.124 S 
ATOM     94  O   UNL A   1      54.328  26.658  25.327  1.00  0.00    -0.237 OA
ATOM     95  O   UNL A   1      53.660  24.335  24.814  1.00  0.00    -0.237 OA
ATOM     96  O   UNL A   1      53.474  26.084  23.087  1.00  0.00    -0.744 OA
ENDBRANCH  92  93
ENDBRANCH  66  87
ENDBRANCH  40  41
ENDBRANCH  32  35
ENDBRANCH  30  31
ENDBRANCH  29  30
ENDBRANCH  28  29
ENDBRANCH   1  28
TORSDOF 21
ENDMDL
MODEL 3
REMARK VINA RESULT:     -10.5      6.125      8.521
REMARK SMILES CSc1nc(O)nc(C)c1C(=O)N1C[C@@H](O)C[C@@H]1C(=O)NCCCCCCNC(=O)c1ccc(-c2c3nc(c(-c4ccc(S(=O)(=O)[O-])cc4)c4ccc([nH]4)c(-c4ccc(S(=O)(=O)[O-])cc4)c4nc(c(-c5ccc(S(=O)(=O)[O-])cc5)c5ccc2[nH]5)C=C4)C=C3)cc1
REMARK SMILES IDX 24 1 23 2 22 3 21 4 19 5 20 6 18 8 13 9 14 10 15 11 17 12
REMARK SMILES IDX 11 13 12 14 10 15 3 16 4 17 5 18 8 19 7 20 9 21 2 22 1 23
REMARK SMILES IDX 6 24 16 26 25 28 26 29 27 30 28 31 29 32 30 34 31 35 32 36
REMARK SMILES IDX 90 37 33 38 89 39 34 40 35 41 36 42 83 43 37 44 88 45 82 46
REMARK SMILES IDX 84 47 38 48 87 49 81 50 80 51 39 53 69 54 50 55 68 56 51 57
REMARK SMILES IDX 54 58 67 59 85 60 52 61 53 62 66 64 86 65 55 66 40 67 41 68
REMARK SMILES IDX 49 69 42 70 48 71 43 72 44 73 45 74 46 75 47 76 70 77 71 78
REMARK SMILES IDX 79 79 72 80 78 81 73 82 74 83 75 84 76 85 77 86 56 87 57 88
REMARK SMILES IDX 65 89 58 90 64 91 59 92 60 93 61 94 62 95 63 96
REMARK H PARENT 21 7 6 25 16 27 28 33 84 52 54 63
REMARK Flexibility Score: inf
ROOT
ATOM      1  C   UNL A   1      32.155  29.381  27.052  1.00  0.00     0.002 C 
ENDROOT
BRANCH   1   2
ATOM      2  C   UNL A   1      32.939  28.277  26.340  1.00  0.00     0.021 C 
BRANCH   2   3
ATOM      3  C   UNL A   1      32.447  27.919  24.936  1.00  0.00     0.116 C 
BRANCH   3   4
ATOM      4  N   UNL A   1      31.105  27.372  25.002  1.00  0.00    -0.354 N 
ATOM      5  C   UNL A   1      30.550  26.248  24.466  1.00  0.00     0.242 C 
ATOM      6  O   UNL A   1      29.330  26.124  24.635  1.00  0.00    -0.273 OA
ATOM      7  H   UNL A   1      30.478  27.914  25.534  1.00  0.00     0.163 HD
BRANCH   5   8
ATOM      8  C   UNL A   1      31.390  25.134  23.772  1.00  0.00     0.177 C 
ATOM      9  N   UNL A   1      32.815  25.055  24.164  1.00  0.00    -0.324 N 
ATOM     10  C   UNL A   1      33.659  25.149  22.980  1.00  0.00     0.152 C 
ATOM     11  C   UNL A   1      32.825  25.966  22.009  1.00  0.00     0.136 C 
ATOM     12  C   UNL A   1      31.438  25.370  22.243  1.00  0.00     0.069 C 
BRANCH   9  13
ATOM     13  C   UNL A   1      33.228  24.264  25.214  1.00  0.00     0.259 C 
ATOM     14  O   UNL A   1      33.577  24.805  26.260  1.00  0.00    -0.269 OA
BRANCH  13  15
ATOM     15  C   UNL A   1      33.335  22.772  25.037  1.00  0.00     0.093 A 
ATOM     16  C   UNL A   1      34.505  22.057  24.727  1.00  0.00     0.116 A 
ATOM     17  N   UNL A   1      34.565  20.703  24.716  1.00  0.00    -0.188 NA
ATOM     18  C   UNL A   1      33.459  20.062  25.057  1.00  0.00     0.315 A 
ATOM     19  C   UNL A   1      32.235  21.961  25.372  1.00  0.00     0.058 A 
ATOM     20  N   UNL A   1      32.300  20.603  25.396  1.00  0.00    -0.200 NA
ATOM     21  C   UNL A   1      30.914  22.482  25.871  1.00  0.00     0.068 C 
BRANCH  16  22
ATOM     22  S   UNL A   1      36.147  22.742  24.505  1.00  0.00    -0.109 SA
ATOM     23  C   UNL A   1      37.126  21.229  24.646  1.00  0.00     0.092 C 
ENDBRANCH  16  22
BRANCH  18  24
ATOM     24  O   UNL A   1      33.521  18.714  25.182  1.00  0.00    -0.479 OA
ATOM     25  H   UNL A   1      33.927  18.200  24.513  1.00  0.00     0.297 HD
ENDBRANCH  18  24
ENDBRANCH  13  15
ENDBRANCH   9  13
BRANCH  11  26
ATOM     26  O   UNL A   1      33.253  25.837  20.664  1.00  0.00    -0.391 OA
ATOM     27  H   UNL A   1      33.360  26.719  20.273  1.00  0.00     0.211 HD
ENDBRANCH  11  26
ENDBRANCH   5   8
ENDBRANCH   3   4
ENDBRANCH   2   3
ENDBRANCH   1   2
BRANCH   1  28
ATOM     28  C   UNL A   1      31.747  30.559  26.161  1.00  0.00     0.002 C 
BRANCH  28  29
ATOM     29  C   UNL A   1      31.649  31.925  26.854  1.00  0.00     0.021 C 
BRANCH  29  30
ATOM     30  C   UNL A   1      32.976  32.504  27.345  1.00  0.00     0.116 C 
BRANCH  30  31
ATOM     31  N   UNL A   1      32.852  33.914  27.675  1.00  0.00    -0.352 N 
ATOM     32  C   UNL A   1      33.440  34.624  28.690  1.00  0.00     0.251 C 
ATOM     33  H   UNL A   1      32.259  34.435  27.086  1.00  0.00     0.163 HD
ATOM     34  O   UNL A   1      33.015  35.743  28.983  1.00  0.00    -0.269 OA
BRANCH  32  35
ATOM     35  C   UNL A   1      34.584  34.057  29.435  1.00  0.00     0.039 A 
ATOM     36  C   UNL A   1      34.340  33.207  30.518  1.00  0.00     0.014 A 
ATOM     37  C   UNL A   1      35.895  34.417  29.106  1.00  0.00     0.014 A 
ATOM     38  C   UNL A   1      35.412  32.686  31.249  1.00  0.00     0.010 A 
ATOM     39  C   UNL A   1      36.964  33.865  29.810  1.00  0.00     0.010 A 
ATOM     40  C   UNL A   1      36.732  33.003  30.892  1.00  0.00    -0.014 A 
BRANCH  40  41
ATOM     41  C   UNL A   1      37.887  32.486  31.669  1.00  0.00     0.031 A 
ATOM     42  C   UNL A   1      38.726  31.373  31.107  1.00  0.00     0.074 A 
ATOM     43  C   UNL A   1      38.162  32.986  32.888  1.00  0.00     0.049 A 
ATOM     44  N   UNL A   1      39.710  30.719  31.669  1.00  0.00    -0.248 NA
ATOM     45  C   UNL A   1      38.409  30.933  29.739  1.00  0.00     0.031 C 
ATOM     46  C   UNL A   1      37.440  34.082  33.535  1.00  0.00     0.029 A 
ATOM     47  N   UNL A   1      39.125  32.633  33.799  1.00  0.00    -0.354 N 
ATOM     48  C   UNL A   1      40.134  29.795  30.723  1.00  0.00     0.074 A 
ATOM     49  C   UNL A   1      39.270  29.940  29.571  1.00  0.00     0.031 C 
ATOM     50  C   UNL A   1      37.997  34.322  34.733  1.00  0.00     0.029 A 
ATOM     51  C   UNL A   1      39.088  33.375  34.955  1.00  0.00     0.049 A 
ATOM     52  H   UNL A   1      39.781  31.916  33.640  1.00  0.00     0.167 HD
ATOM     53  C   UNL A   1      41.161  28.917  30.798  1.00  0.00     0.031 A 
ATOM     54  C   UNL A   1      39.838  33.298  36.071  1.00  0.00     0.031 A 
ATOM     55  C   UNL A   1      42.013  28.760  31.946  1.00  0.00     0.049 A 
ATOM     56  C   UNL A   1      40.929  32.271  36.166  1.00  0.00     0.074 A 
ATOM     57  C   UNL A   1      43.067  27.881  32.122  1.00  0.00     0.029 A 
ATOM     58  N   UNL A   1      41.914  29.505  33.111  1.00  0.00    -0.354 N 
ATOM     59  N   UNL A   1      41.290  31.376  35.279  1.00  0.00    -0.248 NA
ATOM     60  C   UNL A   1      41.714  32.243  37.408  1.00  0.00     0.031 C 
ATOM     61  C   UNL A   1      43.584  28.072  33.408  1.00  0.00     0.029 A 
ATOM     62  C   UNL A   1      42.885  29.104  34.013  1.00  0.00     0.049 A 
ATOM     63  H   UNL A   1      41.250  30.215  33.274  1.00  0.00     0.167 HD
ATOM     64  C   UNL A   1      42.362  30.693  35.844  1.00  0.00     0.074 A 
ATOM     65  C   UNL A   1      42.587  31.276  37.150  1.00  0.00     0.031 C 
ATOM     66  C   UNL A   1      43.097  29.684  35.316  1.00  0.00     0.031 A 
BRANCH  53  67
ATOM     67  C   UNL A   1      41.418  28.053  29.593  1.00  0.00    -0.014 A 
ATOM     68  C   UNL A   1      40.619  26.924  29.339  1.00  0.00     0.010 A 
ATOM     69  C   UNL A   1      42.445  28.385  28.693  1.00  0.00     0.010 A 
ATOM     70  C   UNL A   1      40.866  26.120  28.223  1.00  0.00     0.020 A 
ATOM     71  C   UNL A   1      42.680  27.598  27.561  1.00  0.00     0.020 A 
ATOM     72  C   UNL A   1      41.895  26.464  27.341  1.00  0.00     0.054 A 
BRANCH  72  73
ATOM     73  S   UNL A   1      42.189  25.397  25.904  1.00  0.00     0.124 S 
ATOM     74  O   UNL A   1      41.200  25.893  24.949  1.00  0.00    -0.237 OA
ATOM     75  O   UNL A   1      43.581  25.690  25.575  1.00  0.00    -0.237 OA
ATOM     76  O   UNL A   1      41.937  24.051  26.412  1.00  0.00    -0.744 OA
ENDBRANCH  72  73
ENDBRANCH  53  67
BRANCH  54  77
ATOM     77  C   UNL A   1      39.584  34.265  37.172  1.00  0.00    -0.014 A 
ATOM     78  C   UNL A   1      38.842  33.870  38.298  1.00  0.00     0.010 A 
ATOM     79  C   UNL A   1      40.172  35.543  37.148  1.00  0.00     0.010 A 
ATOM     80  C   UNL A   1      38.717  34.725  39.395  1.00  0.00     0.020 A 
ATOM     81  C   UNL A   1      40.061  36.395  38.251  1.00  0.00     0.020 A 
ATOM     82  C   UNL A   1      39.345  35.974  39.373  1.00  0.00     0.054 A 
BRANCH  82  83
ATOM     83  S   UNL A   1      39.262  37.012  40.859  1.00  0.00     0.124 S 
ATOM     84  O   UNL A   1      40.673  37.230  41.166  1.00  0.00    -0.237 OA
ATOM     85  O   UNL A   1      38.531  38.180  40.374  1.00  0.00    -0.237 OA
ATOM     86  O   UNL A   1      38.536  36.183  41.819  1.00  0.00    -0.744 OA
ENDBRANCH  82  83
ENDBRANCH  54  77
BRANCH  66  87
ATOM     87  C   UNL A   1      44.243  29.146  36.129  1.00  0.00    -0.014 A 
ATOM     88  C   UNL A   1      44.083  28.021  36.954  1.00  0.00     0.010 A 
ATOM     89  C   UNL A   1      45.520  29.717  35.981  1.00  0.00     0.010 A 
ATOM     90  C   UNL A   1      45.183  27.478  37.624  1.00  0.00     0.020 A 
ATOM     91  C   UNL A   1      46.626  29.165  36.634  1.00  0.00     0.020 A 
ATOM     92  C   UNL A   1      46.449  28.048  37.453  1.00  0.00     0.054 A 
BRANCH  92  93
ATOM     93  S   UNL A   1      47.864  27.286  38.292  1.00  0.00     0.124 S 
ATOM     94  O   UNL A   1      47.794  25.904  37.821  1.00  0.00    -0.237 OA
ATOM     95  O   UNL A   1      48.989  28.067  37.784  1.00  0.00    -0.237 OA
ATOM     96  O   UNL A   1      47.571  27.471  39.711  1.00  0.00    -0.744 OA
ENDBRANCH  92  93
ENDBRANCH  66  87
ENDBRANCH  40  41
ENDBRANCH  32  35
ENDBRANCH  30  31
ENDBRANCH  29  30
ENDBRANCH  28  29
ENDBRANCH   1  28
TORSDOF 21
ENDMDL
