MODEL 1
REMARK VINA RESULT:     -10.6      0.000      0.000
REMARK SMILES COc1cccc(CC2(CO)CCN(c3nc(C)ccc3C(=O)NCCCCCCNC(=O)c3ccc(-c4c5nc(c(-c6ccc(S(=O)(=O)[O-])cc6)c6ccc([nH]6)c(-c6ccc(S(=O)(=O)[O-])cc6)c6nc(c(-c7ccc(S(=O)(=O)[O-])cc7)c7ccc4[nH]7)C=C6)C=C5)cc3)CC2)c1
REMARK SMILES IDX 27 1 26 2 25 3 24 4 22 5 23 6 21 8 15 9 16 10 17 11 20 12
REMARK SMILES IDX 18 13 19 14 14 15 9 16 12 17 95 18 13 19 94 20 8 21 7 22
REMARK SMILES IDX 3 23 4 24 96 25 5 26 6 27 2 28 1 29 10 30 11 31 28 33 29 34
REMARK SMILES IDX 30 35 31 36 32 37 33 39 34 40 35 41 93 42 36 43 92 44 37 45
REMARK SMILES IDX 38 46 39 47 86 48 40 49 91 50 85 51 87 52 41 53 90 54 84 55
REMARK SMILES IDX 83 56 42 58 72 59 53 60 71 61 54 62 57 63 70 64 88 65 55 66
REMARK SMILES IDX 56 67 69 69 89 70 58 71 43 72 44 73 52 74 45 75 51 76 46 77
REMARK SMILES IDX 47 78 48 79 49 80 50 81 73 82 74 83 82 84 75 85 81 86 76 87
REMARK SMILES IDX 77 88 78 89 79 90 80 91 59 92 60 93 68 94 61 95 67 96 62 97
REMARK SMILES IDX 63 98 64 99 65 100 66 101
REMARK H PARENT 24 7 11 32 31 38 87 57 57 68
REMARK Flexibility Score: inf
ROOT
ATOM      1  C   UNL A   1      39.191  22.355  26.273  1.00  0.00     0.002 C 
ENDROOT
BRANCH   1   2
ATOM      2  C   UNL A   1      38.462  23.698  26.444  1.00  0.00     0.021 C 
BRANCH   2   3
ATOM      3  C   UNL A   1      37.147  23.768  25.671  1.00  0.00     0.116 C 
BRANCH   3   4
ATOM      4  N   UNL A   1      36.032  23.550  26.565  1.00  0.00    -0.352 N 
ATOM      5  C   UNL A   1      34.867  22.830  26.574  1.00  0.00     0.255 C 
ATOM      6  O   UNL A   1      34.280  22.944  27.648  1.00  0.00    -0.269 OA
ATOM      7  H   UNL A   1      36.139  24.063  27.399  1.00  0.00     0.163 HD
BRANCH   5   8
ATOM      8  C   UNL A   1      34.356  21.925  25.488  1.00  0.00     0.082 A 
ATOM      9  C   UNL A   1      33.333  22.324  24.597  1.00  0.00     0.141 A 
ATOM     10  N   UNL A   1      32.651  21.399  23.856  1.00  0.00    -0.235 NA
ATOM     11  C   UNL A   1      32.992  20.097  23.900  1.00  0.00     0.040 A 
ATOM     12  C   UNL A   1      34.774  20.591  25.394  1.00  0.00     0.019 A 
ATOM     13  C   UNL A   1      32.149  19.155  23.101  1.00  0.00     0.067 C 
ATOM     14  C   UNL A   1      34.081  19.662  24.620  1.00  0.00     0.024 A 
BRANCH   9  15
ATOM     15  N   UNL A   1      32.915  23.606  24.312  1.00  0.00    -0.356 N 
ATOM     16  C   UNL A   1      32.317  26.467  24.068  1.00  0.00     0.001 C 
ATOM     17  C   UNL A   1      33.744  25.881  23.894  1.00  0.00     0.031 C 
ATOM     18  C   UNL A   1      31.424  25.461  24.845  1.00  0.00     0.031 C 
ATOM     19  C   UNL A   1      33.838  24.401  23.525  1.00  0.00     0.119 C 
ATOM     20  C   UNL A   1      31.524  24.017  24.363  1.00  0.00     0.119 C 
BRANCH  16  21
ATOM     21  C   UNL A   1      31.685  26.961  22.714  1.00  0.00     0.045 C 
BRANCH  21  22
ATOM     22  C   UNL A   1      30.420  27.784  22.728  1.00  0.00    -0.044 A 
ATOM     23  C   UNL A   1      29.271  29.897  22.378  1.00  0.00     0.119 A 
ATOM     24  C   UNL A   1      28.127  29.385  22.985  1.00  0.00     0.046 A 
ATOM     25  C   UNL A   1      30.419  29.108  22.259  1.00  0.00     0.050 A 
ATOM     26  C   UNL A   1      28.095  28.052  23.387  1.00  0.00     0.004 A 
ATOM     27  C   UNL A   1      29.225  27.248  23.224  1.00  0.00     0.004 A 
BRANCH  23  28
ATOM     28  O   UNL A   1      29.238  31.215  22.007  1.00  0.00    -0.497 OA
ATOM     29  C   UNL A   1      28.277  31.955  22.754  1.00  0.00     0.278 C 
ENDBRANCH  23  28
ENDBRANCH  21  22
ENDBRANCH  16  21
BRANCH  16  30
ATOM     30  C   UNL A   1      32.424  27.731  24.976  1.00  0.00     0.163 C 
BRANCH  30  31
ATOM     31  O   UNL A   1      31.360  27.814  25.918  1.00  0.00    -0.396 OA
ATOM     32  H   UNL A   1      30.541  27.490  25.509  1.00  0.00     0.210 HD
ENDBRANCH  30  31
ENDBRANCH  16  30
ENDBRANCH   9  15
ENDBRANCH   5   8
ENDBRANCH   3   4
ENDBRANCH   2   3
ENDBRANCH   1   2
BRANCH   1  33
ATOM     33  C   UNL A   1      38.512  21.364  25.317  1.00  0.00     0.002 C 
BRANCH  33  34
ATOM     34  C   UNL A   1      39.005  19.920  25.433  1.00  0.00     0.021 C 
BRANCH  34  35
ATOM     35  C   UNL A   1      39.993  19.694  26.571  1.00  0.00     0.116 C 
BRANCH  35  36
ATOM     36  N   UNL A   1      41.152  18.937  26.126  1.00  0.00    -0.352 N 
ATOM     37  C   UNL A   1      42.398  19.395  25.779  1.00  0.00     0.251 C 
ATOM     38  H   UNL A   1      41.025  17.963  26.065  1.00  0.00     0.163 HD
ATOM     39  O   UNL A   1      43.184  18.661  25.190  1.00  0.00    -0.269 OA
BRANCH  37  40
ATOM     40  C   UNL A   1      42.778  20.784  26.112  1.00  0.00     0.039 A 
ATOM     41  C   UNL A   1      42.858  21.166  27.453  1.00  0.00     0.014 A 
ATOM     42  C   UNL A   1      43.057  21.703  25.097  1.00  0.00     0.014 A 
ATOM     43  C   UNL A   1      43.275  22.458  27.776  1.00  0.00     0.010 A 
ATOM     44  C   UNL A   1      43.543  22.965  25.422  1.00  0.00     0.010 A 
ATOM     45  C   UNL A   1      43.652  23.357  26.765  1.00  0.00    -0.014 A 
BRANCH  45  46
ATOM     46  C   UNL A   1      44.162  24.714  27.086  1.00  0.00     0.031 A 
ATOM     47  C   UNL A   1      43.208  25.796  27.514  1.00  0.00     0.074 A 
ATOM     48  C   UNL A   1      45.474  24.986  26.936  1.00  0.00     0.049 A 
ATOM     49  N   UNL A   1      43.449  27.056  27.765  1.00  0.00    -0.248 NA
ATOM     50  C   UNL A   1      41.790  25.417  27.654  1.00  0.00     0.031 C 
ATOM     51  C   UNL A   1      46.495  24.029  26.503  1.00  0.00     0.029 A 
ATOM     52  N   UNL A   1      46.174  26.152  27.126  1.00  0.00    -0.354 N 
ATOM     53  C   UNL A   1      42.220  27.621  28.086  1.00  0.00     0.074 A 
ATOM     54  C   UNL A   1      41.226  26.581  27.939  1.00  0.00     0.031 C 
ATOM     55  C   UNL A   1      47.692  24.638  26.490  1.00  0.00     0.029 A 
ATOM     56  C   UNL A   1      47.519  26.038  26.864  1.00  0.00     0.049 A 
ATOM     57  H   UNL A   1      45.752  26.990  27.424  1.00  0.00     0.167 HD
ATOM     58  C   UNL A   1      41.946  28.885  28.490  1.00  0.00     0.031 A 
ATOM     59  C   UNL A   1      48.501  26.959  26.909  1.00  0.00     0.031 A 
ATOM     60  C   UNL A   1      42.939  29.915  28.634  1.00  0.00     0.049 A 
ATOM     61  C   UNL A   1      48.163  28.369  27.313  1.00  0.00     0.074 A 
ATOM     62  C   UNL A   1      42.769  31.218  29.069  1.00  0.00     0.029 A 
ATOM     63  N   UNL A   1      44.288  29.762  28.349  1.00  0.00    -0.354 N 
ATOM     64  N   UNL A   1      47.002  28.869  27.664  1.00  0.00    -0.248 NA
ATOM     65  C   UNL A   1      49.268  29.336  27.333  1.00  0.00     0.031 C 
ATOM     66  C   UNL A   1      44.005  31.868  28.993  1.00  0.00     0.029 A 
ATOM     67  C   UNL A   1      44.957  30.952  28.573  1.00  0.00     0.049 A 
ATOM     68  H   UNL A   1      44.707  28.929  28.033  1.00  0.00     0.167 HD
ATOM     69  C   UNL A   1      47.244  30.202  27.979  1.00  0.00     0.074 A 
ATOM     70  C   UNL A   1      48.663  30.425  27.790  1.00  0.00     0.031 C 
ATOM     71  C   UNL A   1      46.371  31.156  28.387  1.00  0.00     0.031 A 
BRANCH  58  72
ATOM     72  C   UNL A   1      40.512  29.220  28.804  1.00  0.00    -0.014 A 
ATOM     73  C   UNL A   1      40.075  29.365  30.134  1.00  0.00     0.010 A 
ATOM     74  C   UNL A   1      39.596  29.440  27.759  1.00  0.00     0.010 A 
ATOM     75  C   UNL A   1      38.744  29.680  30.414  1.00  0.00     0.020 A 
ATOM     76  C   UNL A   1      38.269  29.786  28.033  1.00  0.00     0.020 A 
ATOM     77  C   UNL A   1      37.849  29.889  29.361  1.00  0.00     0.054 A 
BRANCH  77  78
ATOM     78  S   UNL A   1      36.133  30.324  29.756  1.00  0.00     0.124 S 
ATOM     79  O   UNL A   1      35.947  29.671  31.050  1.00  0.00    -0.237 OA
ATOM     80  O   UNL A   1      36.172  31.783  29.790  1.00  0.00    -0.237 OA
ATOM     81  O   UNL A   1      35.365  29.748  28.654  1.00  0.00    -0.744 OA
ENDBRANCH  77  78
ENDBRANCH  58  72
BRANCH  59  82
ATOM     82  C   UNL A   1      49.901  26.580  26.567  1.00  0.00    -0.014 A 
ATOM     83  C   UNL A   1      50.365  26.683  25.244  1.00  0.00     0.010 A 
ATOM     84  C   UNL A   1      50.775  26.103  27.561  1.00  0.00     0.010 A 
ATOM     85  C   UNL A   1      51.665  26.289  24.915  1.00  0.00     0.020 A 
ATOM     86  C   UNL A   1      52.086  25.739  27.243  1.00  0.00     0.020 A 
ATOM     87  C   UNL A   1      52.518  25.819  25.918  1.00  0.00     0.054 A 
BRANCH  87  88
ATOM     88  S   UNL A   1      54.211  25.341  25.474  1.00  0.00     0.124 S 
ATOM     89  O   UNL A   1      54.848  25.233  26.783  1.00  0.00    -0.237 OA
ATOM     90  O   UNL A   1      54.006  24.081  24.763  1.00  0.00    -0.237 OA
ATOM     91  O   UNL A   1      54.671  26.450  24.643  1.00  0.00    -0.744 OA
ENDBRANCH  87  88
ENDBRANCH  59  82
BRANCH  71  92
ATOM     92  C   UNL A   1      46.927  32.520  28.699  1.00  0.00    -0.014 A 
ATOM     93  C   UNL A   1      47.432  32.829  29.974  1.00  0.00     0.010 A 
ATOM     94  C   UNL A   1      47.007  33.484  27.678  1.00  0.00     0.010 A 
ATOM     95  C   UNL A   1      47.984  34.088  30.229  1.00  0.00     0.020 A 
ATOM     96  C   UNL A   1      47.586  34.732  27.920  1.00  0.00     0.020 A 
ATOM     97  C   UNL A   1      48.062  35.029  29.198  1.00  0.00     0.054 A 
BRANCH  97  98
ATOM     98  S   UNL A   1      48.838  36.633  29.540  1.00  0.00     0.124 S 
ATOM     99  O   UNL A   1      50.023  36.585  28.689  1.00  0.00    -0.237 OA
ATOM    100  O   UNL A   1      47.805  37.581  29.128  1.00  0.00    -0.237 OA
ATOM    101  O   UNL A   1      49.100  36.592  30.977  1.00  0.00    -0.744 OA
ENDBRANCH  97  98
ENDBRANCH  71  92
ENDBRANCH  45  46
ENDBRANCH  37  40
ENDBRANCH  35  36
ENDBRANCH  34  35
ENDBRANCH  33  34
ENDBRANCH   1  33
TORSDOF 22
ENDMDL
MODEL 2
REMARK VINA RESULT:     -10.5      0.966      7.850
REMARK SMILES COc1cccc(CC2(CO)CCN(c3nc(C)ccc3C(=O)NCCCCCCNC(=O)c3ccc(-c4c5nc(c(-c6ccc(S(=O)(=O)[O-])cc6)c6ccc([nH]6)c(-c6ccc(S(=O)(=O)[O-])cc6)c6nc(c(-c7ccc(S(=O)(=O)[O-])cc7)c7ccc4[nH]7)C=C6)C=C5)cc3)CC2)c1
REMARK SMILES IDX 27 1 26 2 25 3 24 4 22 5 23 6 21 8 15 9 16 10 17 11 20 12
REMARK SMILES IDX 18 13 19 14 14 15 9 16 12 17 95 18 13 19 94 20 8 21 7 22
REMARK SMILES IDX 3 23 4 24 96 25 5 26 6 27 2 28 1 29 10 30 11 31 28 33 29 34
REMARK SMILES IDX 30 35 31 36 32 37 33 39 34 40 35 41 93 42 36 43 92 44 37 45
REMARK SMILES IDX 38 46 39 47 86 48 40 49 91 50 85 51 87 52 41 53 90 54 84 55
REMARK SMILES IDX 83 56 42 58 72 59 53 60 71 61 54 62 57 63 70 64 88 65 55 66
REMARK SMILES IDX 56 67 69 69 89 70 58 71 43 72 44 73 52 74 45 75 51 76 46 77
REMARK SMILES IDX 47 78 48 79 49 80 50 81 73 82 74 83 82 84 75 85 81 86 76 87
REMARK SMILES IDX 77 88 78 89 79 90 80 91 59 92 60 93 68 94 61 95 67 96 62 97
REMARK SMILES IDX 63 98 64 99 65 100 66 101
REMARK H PARENT 24 7 11 32 31 38 87 57 57 68
REMARK Flexibility Score: inf
ROOT
ATOM      1  C   UNL A   1      39.406  23.094  26.950  1.00  0.00     0.002 C 
ENDROOT
BRANCH   1   2
ATOM      2  C   UNL A   1      38.377  24.108  26.421  1.00  0.00     0.021 C 
BRANCH   2   3
ATOM      3  C   UNL A   1      37.241  23.454  25.637  1.00  0.00     0.116 C 
BRANCH   3   4
ATOM      4  N   UNL A   1      36.061  23.349  26.466  1.00  0.00    -0.352 N 
ATOM      5  C   UNL A   1      34.877  22.659  26.460  1.00  0.00     0.255 C 
ATOM      6  O   UNL A   1      34.222  22.889  27.473  1.00  0.00    -0.269 OA
ATOM      7  H   UNL A   1      36.126  23.936  27.253  1.00  0.00     0.163 HD
BRANCH   5   8
ATOM      8  C   UNL A   1      34.416  21.666  25.430  1.00  0.00     0.082 A 
ATOM      9  C   UNL A   1      33.389  21.965  24.504  1.00  0.00     0.141 A 
ATOM     10  N   UNL A   1      32.754  20.968  23.818  1.00  0.00    -0.235 NA
ATOM     11  C   UNL A   1      33.145  19.686  23.951  1.00  0.00     0.040 A 
ATOM     12  C   UNL A   1      34.886  20.347  25.427  1.00  0.00     0.019 A 
ATOM     13  C   UNL A   1      32.349  18.661  23.207  1.00  0.00     0.067 C 
ATOM     14  C   UNL A   1      34.240  19.342  24.709  1.00  0.00     0.024 A 
BRANCH   9  15
ATOM     15  N   UNL A   1      32.925  23.209  24.132  1.00  0.00    -0.356 N 
ATOM     16  C   UNL A   1      31.875  25.656  22.905  1.00  0.00     0.001 C 
ATOM     17  C   UNL A   1      31.060  24.338  23.000  1.00  0.00     0.031 C 
ATOM     18  C   UNL A   1      33.389  25.354  23.069  1.00  0.00     0.031 C 
ATOM     19  C   UNL A   1      31.484  23.347  24.084  1.00  0.00     0.119 C 
ATOM     20  C   UNL A   1      33.730  24.414  24.221  1.00  0.00     0.119 C 
BRANCH  16  21
ATOM     21  C   UNL A   1      31.343  26.779  23.871  1.00  0.00     0.045 C 
BRANCH  21  22
ATOM     22  C   UNL A   1      30.096  27.553  23.515  1.00  0.00    -0.044 A 
ATOM     23  C   UNL A   1      29.017  29.616  22.819  1.00  0.00     0.119 A 
ATOM     24  C   UNL A   1      27.768  29.065  23.093  1.00  0.00     0.046 A 
ATOM     25  C   UNL A   1      30.179  28.872  23.040  1.00  0.00     0.050 A 
ATOM     26  C   UNL A   1      27.672  27.735  23.495  1.00  0.00     0.004 A 
ATOM     27  C   UNL A   1      28.830  26.974  23.669  1.00  0.00     0.004 A 
BRANCH  23  28
ATOM     28  O   UNL A   1      29.042  30.929  22.430  1.00  0.00    -0.497 OA
ATOM     29  C   UNL A   1      28.843  31.815  23.526  1.00  0.00     0.278 C 
ENDBRANCH  23  28
ENDBRANCH  21  22
ENDBRANCH  16  21
BRANCH  16  30
ATOM     30  C   UNL A   1      31.707  26.221  21.460  1.00  0.00     0.163 C 
BRANCH  30  31
ATOM     31  O   UNL A   1      32.955  26.384  20.794  1.00  0.00    -0.396 OA
ATOM     32  H   UNL A   1      33.192  25.557  20.346  1.00  0.00     0.210 HD
ENDBRANCH  30  31
ENDBRANCH  16  30
ENDBRANCH   9  15
ENDBRANCH   5   8
ENDBRANCH   3   4
ENDBRANCH   2   3
ENDBRANCH   1   2
BRANCH   1  33
ATOM     33  C   UNL A   1      39.946  22.110  25.902  1.00  0.00     0.002 C 
BRANCH  33  34
ATOM     34  C   UNL A   1      39.726  20.633  26.237  1.00  0.00     0.021 C 
BRANCH  34  35
ATOM     35  C   UNL A   1      40.826  20.024  27.098  1.00  0.00     0.116 C 
BRANCH  35  36
ATOM     36  N   UNL A   1      41.780  19.277  26.294  1.00  0.00    -0.352 N 
ATOM     37  C   UNL A   1      42.874  19.737  25.607  1.00  0.00     0.251 C 
ATOM     38  H   UNL A   1      41.617  18.307  26.235  1.00  0.00     0.163 HD
ATOM     39  O   UNL A   1      43.429  19.023  24.779  1.00  0.00    -0.269 OA
BRANCH  37  40
ATOM     40  C   UNL A   1      43.368  21.105  25.866  1.00  0.00     0.039 A 
ATOM     41  C   UNL A   1      43.562  21.976  24.791  1.00  0.00     0.014 A 
ATOM     42  C   UNL A   1      43.635  21.526  27.173  1.00  0.00     0.014 A 
ATOM     43  C   UNL A   1      43.969  23.289  25.033  1.00  0.00     0.010 A 
ATOM     44  C   UNL A   1      43.969  22.854  27.417  1.00  0.00     0.010 A 
ATOM     45  C   UNL A   1      44.144  23.747  26.349  1.00  0.00    -0.014 A 
BRANCH  45  46
ATOM     46  C   UNL A   1      44.513  25.156  26.635  1.00  0.00     0.031 A 
ATOM     47  C   UNL A   1      45.939  25.611  26.473  1.00  0.00     0.074 A 
ATOM     48  C   UNL A   1      43.577  26.010  27.096  1.00  0.00     0.049 A 
ATOM     49  N   UNL A   1      46.468  26.776  26.742  1.00  0.00    -0.248 NA
ATOM     50  C   UNL A   1      46.900  24.617  25.964  1.00  0.00     0.031 C 
ATOM     51  C   UNL A   1      42.167  25.683  27.320  1.00  0.00     0.029 A 
ATOM     52  N   UNL A   1      43.672  27.329  27.465  1.00  0.00    -0.354 N 
ATOM     53  C   UNL A   1      47.821  26.654  26.442  1.00  0.00     0.074 A 
ATOM     54  C   UNL A   1      48.041  25.286  26.028  1.00  0.00     0.031 C 
ATOM     55  C   UNL A   1      41.524  26.777  27.758  1.00  0.00     0.029 A 
ATOM     56  C   UNL A   1      42.483  27.870  27.894  1.00  0.00     0.049 A 
ATOM     57  H   UNL A   1      44.512  27.840  27.425  1.00  0.00     0.167 HD
ATOM     58  C   UNL A   1      48.787  27.603  26.484  1.00  0.00     0.031 A 
ATOM     59  C   UNL A   1      42.198  29.103  28.356  1.00  0.00     0.031 A 
ATOM     60  C   UNL A   1      48.562  28.962  26.896  1.00  0.00     0.049 A 
ATOM     61  C   UNL A   1      43.300  30.125  28.439  1.00  0.00     0.074 A 
ATOM     62  C   UNL A   1      49.467  30.008  26.942  1.00  0.00     0.029 A 
ATOM     63  N   UNL A   1      47.345  29.467  27.333  1.00  0.00    -0.354 N 
ATOM     64  N   UNL A   1      44.561  30.005  28.101  1.00  0.00    -0.248 NA
ATOM     65  C   UNL A   1      42.938  31.449  28.962  1.00  0.00     0.031 C 
ATOM     66  C   UNL A   1      48.812  31.130  27.459  1.00  0.00     0.029 A 
ATOM     67  C   UNL A   1      47.482  30.801  27.674  1.00  0.00     0.049 A 
ATOM     68  H   UNL A   1      46.509  28.952  27.392  1.00  0.00     0.167 HD
ATOM     69  C   UNL A   1      45.136  31.250  28.338  1.00  0.00     0.074 A 
ATOM     70  C   UNL A   1      44.082  32.109  28.836  1.00  0.00     0.031 C 
ATOM     71  C   UNL A   1      46.421  31.645  28.161  1.00  0.00     0.031 A 
BRANCH  58  72
ATOM     72  C   UNL A   1      50.178  27.198  26.073  1.00  0.00    -0.014 A 
ATOM     73  C   UNL A   1      51.067  26.617  26.997  1.00  0.00     0.010 A 
ATOM     74  C   UNL A   1      50.591  27.357  24.738  1.00  0.00     0.010 A 
ATOM     75  C   UNL A   1      52.353  26.241  26.604  1.00  0.00     0.020 A 
ATOM     76  C   UNL A   1      51.867  26.955  24.332  1.00  0.00     0.020 A 
ATOM     77  C   UNL A   1      52.746  26.413  25.273  1.00  0.00     0.054 A 
BRANCH  77  78
ATOM     78  S   UNL A   1      54.414  25.891  24.787  1.00  0.00     0.124 S 
ATOM     79  O   UNL A   1      55.247  26.616  25.744  1.00  0.00    -0.237 OA
ATOM     80  O   UNL A   1      54.363  24.444  24.972  1.00  0.00    -0.237 OA
ATOM     81  O   UNL A   1      54.528  26.337  23.401  1.00  0.00    -0.744 OA
ENDBRANCH  77  78
ENDBRANCH  58  72
BRANCH  59  82
ATOM     82  C   UNL A   1      40.808  29.446  28.771  1.00  0.00    -0.014 A 
ATOM     83  C   UNL A   1      40.532  29.820  30.098  1.00  0.00     0.010 A 
ATOM     84  C   UNL A   1      39.751  29.389  27.844  1.00  0.00     0.010 A 
ATOM     85  C   UNL A   1      39.222  30.102  30.498  1.00  0.00     0.020 A 
ATOM     86  C   UNL A   1      38.445  29.702  28.232  1.00  0.00     0.020 A 
ATOM     87  C   UNL A   1      38.187  30.041  29.561  1.00  0.00     0.054 A 
BRANCH  87  88
ATOM     88  S   UNL A   1      36.499  30.439  30.095  1.00  0.00     0.124 S 
ATOM     89  O   UNL A   1      35.765  30.394  28.835  1.00  0.00    -0.237 OA
ATOM     90  O   UNL A   1      36.205  29.363  31.038  1.00  0.00    -0.237 OA
ATOM     91  O   UNL A   1      36.635  31.764  30.694  1.00  0.00    -0.744 OA
ENDBRANCH  87  88
ENDBRANCH  59  82
BRANCH  71  92
ATOM     92  C   UNL A   1      46.755  33.081  28.466  1.00  0.00    -0.014 A 
ATOM     93  C   UNL A   1      47.237  33.467  29.729  1.00  0.00     0.010 A 
ATOM     94  C   UNL A   1      46.648  34.047  27.449  1.00  0.00     0.010 A 
ATOM     95  C   UNL A   1      47.582  34.798  29.976  1.00  0.00     0.020 A 
ATOM     96  C   UNL A   1      47.022  35.373  27.683  1.00  0.00     0.020 A 
ATOM     97  C   UNL A   1      47.477  35.742  28.950  1.00  0.00     0.054 A 
BRANCH  97  98
ATOM     98  S   UNL A   1      47.990  37.450  29.281  1.00  0.00     0.124 S 
ATOM     99  O   UNL A   1      47.677  37.592  30.700  1.00  0.00    -0.237 OA
ATOM    100  O   UNL A   1      49.413  37.425  28.950  1.00  0.00    -0.237 OA
ATOM    101  O   UNL A   1      47.159  38.243  28.377  1.00  0.00    -0.744 OA
ENDBRANCH  97  98
ENDBRANCH  71  92
ENDBRANCH  45  46
ENDBRANCH  37  40
ENDBRANCH  35  36
ENDBRANCH  34  35
ENDBRANCH  33  34
ENDBRANCH   1  33
TORSDOF 22
ENDMDL
MODEL 3
REMARK VINA RESULT:     -10.2      5.934      8.039
REMARK SMILES COc1cccc(CC2(CO)CCN(c3nc(C)ccc3C(=O)NCCCCCCNC(=O)c3ccc(-c4c5nc(c(-c6ccc(S(=O)(=O)[O-])cc6)c6ccc([nH]6)c(-c6ccc(S(=O)(=O)[O-])cc6)c6nc(c(-c7ccc(S(=O)(=O)[O-])cc7)c7ccc4[nH]7)C=C6)C=C5)cc3)CC2)c1
REMARK SMILES IDX 27 1 26 2 25 3 24 4 22 5 23 6 21 8 15 9 16 10 17 11 20 12
REMARK SMILES IDX 18 13 19 14 14 15 9 16 12 17 95 18 13 19 94 20 8 21 7 22
REMARK SMILES IDX 3 23 4 24 96 25 5 26 6 27 2 28 1 29 10 30 11 31 28 33 29 34
REMARK SMILES IDX 30 35 31 36 32 37 33 39 34 40 35 41 93 42 36 43 92 44 37 45
REMARK SMILES IDX 38 46 39 47 86 48 40 49 91 50 85 51 87 52 41 53 90 54 84 55
REMARK SMILES IDX 83 56 42 58 72 59 53 60 71 61 54 62 57 63 70 64 88 65 55 66
REMARK SMILES IDX 56 67 69 69 89 70 58 71 43 72 44 73 52 74 45 75 51 76 46 77
REMARK SMILES IDX 47 78 48 79 49 80 50 81 73 82 74 83 82 84 75 85 81 86 76 87
REMARK SMILES IDX 77 88 78 89 79 90 80 91 59 92 60 93 68 94 61 95 67 96 62 97
REMARK SMILES IDX 63 98 64 99 65 100 66 101
REMARK H PARENT 24 7 11 32 31 38 87 57 57 68
REMARK Flexibility Score: inf
ROOT
ATOM      1  C   UNL A   1      39.033  23.399  26.965  1.00  0.00     0.002 C 
ENDROOT
BRANCH   1   2
ATOM      2  C   UNL A   1      37.864  23.689  26.008  1.00  0.00     0.021 C 
BRANCH   2   3
ATOM      3  C   UNL A   1      37.134  22.426  25.555  1.00  0.00     0.116 C 
BRANCH   3   4
ATOM      4  N   UNL A   1      35.979  22.192  26.390  1.00  0.00    -0.352 N 
ATOM      5  C   UNL A   1      34.808  21.483  26.326  1.00  0.00     0.255 C 
ATOM      6  O   UNL A   1      34.175  21.571  27.375  1.00  0.00    -0.269 OA
ATOM      7  H   UNL A   1      36.053  22.678  27.243  1.00  0.00     0.163 HD
BRANCH   5   8
ATOM      8  C   UNL A   1      34.339  20.616  25.191  1.00  0.00     0.082 A 
ATOM      9  C   UNL A   1      33.382  21.062  24.250  1.00  0.00     0.141 A 
ATOM     10  N   UNL A   1      32.722  20.173  23.449  1.00  0.00    -0.235 NA
ATOM     11  C   UNL A   1      33.024  18.862  23.483  1.00  0.00     0.040 A 
ATOM     12  C   UNL A   1      34.726  19.273  25.091  1.00  0.00     0.019 A 
ATOM     13  C   UNL A   1      32.205  17.961  22.614  1.00  0.00     0.067 C 
ATOM     14  C   UNL A   1      34.056  18.381  24.256  1.00  0.00     0.024 A 
BRANCH   9  15
ATOM     15  N   UNL A   1      33.016  22.362  23.970  1.00  0.00    -0.356 N 
ATOM     16  C   UNL A   1      32.633  25.136  23.099  1.00  0.00     0.001 C 
ATOM     17  C   UNL A   1      32.661  23.934  22.116  1.00  0.00     0.031 C 
ATOM     18  C   UNL A   1      33.309  24.737  24.439  1.00  0.00     0.031 C 
ATOM     19  C   UNL A   1      32.340  22.560  22.704  1.00  0.00     0.119 C 
ATOM     20  C   UNL A   1      32.876  23.384  24.993  1.00  0.00     0.119 C 
BRANCH  16  21
ATOM     21  C   UNL A   1      31.198  25.757  23.271  1.00  0.00     0.045 C 
BRANCH  21  22
ATOM     22  C   UNL A   1      31.042  27.235  23.535  1.00  0.00    -0.044 A 
ATOM     23  C   UNL A   1      31.535  29.207  24.868  1.00  0.00     0.119 A 
ATOM     24  C   UNL A   1      30.562  29.926  24.179  1.00  0.00     0.046 A 
ATOM     25  C   UNL A   1      31.768  27.863  24.560  1.00  0.00     0.050 A 
ATOM     26  C   UNL A   1      29.889  29.333  23.113  1.00  0.00     0.004 A 
ATOM     27  C   UNL A   1      30.156  28.006  22.772  1.00  0.00     0.004 A 
BRANCH  23  28
ATOM     28  O   UNL A   1      32.159  29.846  25.906  1.00  0.00    -0.497 OA
ATOM     29  C   UNL A   1      31.721  29.363  27.171  1.00  0.00     0.278 C 
ENDBRANCH  23  28
ENDBRANCH  21  22
ENDBRANCH  16  21
BRANCH  16  30
ATOM     30  C   UNL A   1      33.520  26.269  22.495  1.00  0.00     0.163 C 
BRANCH  30  31
ATOM     31  O   UNL A   1      33.413  26.345  21.078  1.00  0.00    -0.396 OA
ATOM     32  H   UNL A   1      32.786  27.046  20.839  1.00  0.00     0.210 HD
ENDBRANCH  30  31
ENDBRANCH  16  30
ENDBRANCH   9  15
ENDBRANCH   5   8
ENDBRANCH   3   4
ENDBRANCH   2   3
ENDBRANCH   1   2
BRANCH   1  33
ATOM     33  C   UNL A   1      39.979  22.277  26.514  1.00  0.00     0.002 C 
BRANCH  33  34
ATOM     34  C   UNL A   1      41.221  22.095  27.390  1.00  0.00     0.021 C 
BRANCH  34  35
ATOM     35  C   UNL A   1      41.977  23.389  27.667  1.00  0.00     0.116 C 
BRANCH  35  36
ATOM     36  N   UNL A   1      42.199  24.148  26.448  1.00  0.00    -0.352 N 
ATOM     37  C   UNL A   1      41.957  25.476  26.204  1.00  0.00     0.251 C 
ATOM     38  H   UNL A   1      42.574  23.639  25.693  1.00  0.00     0.163 HD
ATOM     39  O   UNL A   1      41.963  25.905  25.055  1.00  0.00    -0.269 OA
BRANCH  37  40
ATOM     40  C   UNL A   1      41.675  26.381  27.338  1.00  0.00     0.039 A 
ATOM     41  C   UNL A   1      40.549  26.150  28.131  1.00  0.00     0.014 A 
ATOM     42  C   UNL A   1      42.528  27.453  27.616  1.00  0.00     0.014 A 
ATOM     43  C   UNL A   1      40.311  26.963  29.241  1.00  0.00     0.010 A 
ATOM     44  C   UNL A   1      42.330  28.215  28.763  1.00  0.00     0.010 A 
ATOM     45  C   UNL A   1      41.217  27.981  29.584  1.00  0.00    -0.014 A 
BRANCH  45  46
ATOM     46  C   UNL A   1      41.020  28.815  30.796  1.00  0.00     0.031 A 
ATOM     47  C   UNL A   1      39.947  29.870  30.819  1.00  0.00     0.074 A 
ATOM     48  C   UNL A   1      41.845  28.662  31.852  1.00  0.00     0.049 A 
ATOM     49  N   UNL A   1      39.670  30.743  31.752  1.00  0.00    -0.248 NA
ATOM     50  C   UNL A   1      39.088  29.972  29.626  1.00  0.00     0.031 C 
ATOM     51  C   UNL A   1      42.939  27.692  31.940  1.00  0.00     0.029 A 
ATOM     52  N   UNL A   1      41.895  29.326  33.052  1.00  0.00    -0.354 N 
ATOM     53  C   UNL A   1      38.612  31.500  31.259  1.00  0.00     0.074 A 
ATOM     54  C   UNL A   1      38.338  31.023  29.922  1.00  0.00     0.031 C 
ATOM     55  C   UNL A   1      43.531  27.804  33.140  1.00  0.00     0.029 A 
ATOM     56  C   UNL A   1      42.894  28.884  33.887  1.00  0.00     0.049 A 
ATOM     57  H   UNL A   1      41.272  30.050  33.293  1.00  0.00     0.167 HD
ATOM     58  C   UNL A   1      37.917  32.487  31.874  1.00  0.00     0.031 A 
ATOM     59  C   UNL A   1      43.263  29.308  35.112  1.00  0.00     0.031 A 
ATOM     60  C   UNL A   1      38.194  32.957  33.204  1.00  0.00     0.049 A 
ATOM     61  C   UNL A   1      42.506  30.440  35.753  1.00  0.00     0.074 A 
ATOM     62  C   UNL A   1      37.527  33.928  33.929  1.00  0.00     0.029 A 
ATOM     63  N   UNL A   1      39.221  32.491  34.012  1.00  0.00    -0.354 N 
ATOM     64  N   UNL A   1      41.475  31.107  35.291  1.00  0.00    -0.248 NA
ATOM     65  C   UNL A   1      42.958  30.871  37.082  1.00  0.00     0.031 C 
ATOM     66  C   UNL A   1      38.184  34.089  35.153  1.00  0.00     0.029 A 
ATOM     67  C   UNL A   1      39.222  33.172  35.217  1.00  0.00     0.049 A 
ATOM     68  H   UNL A   1      39.856  31.781  33.764  1.00  0.00     0.167 HD
ATOM     69  C   UNL A   1      41.135  32.015  36.288  1.00  0.00     0.074 A 
ATOM     70  C   UNL A   1      42.060  31.801  37.382  1.00  0.00     0.031 C 
ATOM     71  C   UNL A   1      40.146  32.942  36.298  1.00  0.00     0.031 A 
BRANCH  58  72
ATOM     72  C   UNL A   1      36.788  33.124  31.107  1.00  0.00    -0.014 A 
ATOM     73  C   UNL A   1      37.040  33.952  29.997  1.00  0.00     0.010 A 
ATOM     74  C   UNL A   1      35.455  32.859  31.470  1.00  0.00     0.010 A 
ATOM     75  C   UNL A   1      35.986  34.533  29.291  1.00  0.00     0.020 A 
ATOM     76  C   UNL A   1      34.394  33.415  30.748  1.00  0.00     0.020 A 
ATOM     77  C   UNL A   1      34.668  34.261  29.671  1.00  0.00     0.054 A 
BRANCH  77  78
ATOM     78  S   UNL A   1      33.319  35.011  28.718  1.00  0.00     0.124 S 
ATOM     79  O   UNL A   1      32.458  35.534  29.776  1.00  0.00    -0.237 OA
ATOM     80  O   UNL A   1      34.012  36.018  27.920  1.00  0.00    -0.237 OA
ATOM     81  O   UNL A   1      32.764  33.892  27.961  1.00  0.00    -0.744 OA
ENDBRANCH  77  78
ENDBRANCH  58  72
BRANCH  59  82
ATOM     82  C   UNL A   1      44.403  28.658  35.818  1.00  0.00    -0.014 A 
ATOM     83  C   UNL A   1      44.186  27.547  36.652  1.00  0.00     0.010 A 
ATOM     84  C   UNL A   1      45.712  29.153  35.668  1.00  0.00     0.010 A 
ATOM     85  C   UNL A   1      45.250  26.963  37.345  1.00  0.00     0.020 A 
ATOM     86  C   UNL A   1      46.783  28.552  36.335  1.00  0.00     0.020 A 
ATOM     87  C   UNL A   1      46.542  27.470  37.182  1.00  0.00     0.054 A 
BRANCH  87  88
ATOM     88  S   UNL A   1      47.911  26.677  38.071  1.00  0.00     0.124 S 
ATOM     89  O   UNL A   1      47.604  25.261  37.897  1.00  0.00    -0.237 OA
ATOM     90  O   UNL A   1      49.082  27.165  37.346  1.00  0.00    -0.237 OA
ATOM     91  O   UNL A   1      47.774  27.186  39.433  1.00  0.00    -0.744 OA
ENDBRANCH  87  88
ENDBRANCH  59  82
BRANCH  71  92
ATOM     92  C   UNL A   1      39.982  33.771  37.544  1.00  0.00    -0.014 A 
ATOM     93  C   UNL A   1      40.844  34.845  37.826  1.00  0.00     0.010 A 
ATOM     94  C   UNL A   1      38.906  33.511  38.412  1.00  0.00     0.010 A 
ATOM     95  C   UNL A   1      40.646  35.629  38.966  1.00  0.00     0.020 A 
ATOM     96  C   UNL A   1      38.686  34.310  39.536  1.00  0.00     0.020 A 
ATOM     97  C   UNL A   1      39.566  35.359  39.811  1.00  0.00     0.054 A 
BRANCH  97  98
ATOM     98  S   UNL A   1      39.297  36.429  41.251  1.00  0.00     0.124 S 
ATOM     99  O   UNL A   1      38.745  37.633  40.637  1.00  0.00    -0.237 OA
ATOM    100  O   UNL A   1      38.362  35.649  42.057  1.00  0.00    -0.237 OA
ATOM    101  O   UNL A   1      40.632  36.578  41.826  1.00  0.00    -0.744 OA
ENDBRANCH  97  98
ENDBRANCH  71  92
ENDBRANCH  45  46
ENDBRANCH  37  40
ENDBRANCH  35  36
ENDBRANCH  34  35
ENDBRANCH  33  34
ENDBRANCH   1  33
TORSDOF 22
ENDMDL
