MODEL 1
REMARK VINA RESULT:     -11.3      0.000      0.000
REMARK SMILES NS(=O)(=O)c1ccc(N2N=C(C(=O)NCCCCCCNC(=O)c3ccc(-c4c5nc(c(-c6ccc(S(=O)(=O)[O-])cc6)c6ccc([nH]6)c(-c6ccc(S(=O)(=O)[O-])cc6)c6nc(c(-c7ccc(S(=O)(=O)[O-])cc7)c7ccc4[nH]7)C=C6)C=C5)cc3)C[C@H]2c2ccco2)cc1
REMARK SMILES IDX 17 1 16 2 15 3 14 4 12 5 13 6 11 8 9 9 10 10 85 11 84 12
REMARK SMILES IDX 8 13 5 14 6 15 92 16 7 17 91 18 2 19 3 20 4 21 1 22 86 25
REMARK SMILES IDX 87 26 90 27 88 28 89 29 18 30 19 31 20 32 21 33 22 34 23 36
REMARK SMILES IDX 24 37 25 38 83 39 26 40 82 41 27 42 28 43 29 44 76 45 30 46
REMARK SMILES IDX 81 47 75 48 77 49 31 50 80 51 74 52 73 53 32 55 62 56 43 57
REMARK SMILES IDX 61 58 44 59 47 60 60 61 78 62 45 63 46 64 59 66 79 67 48 68
REMARK SMILES IDX 33 69 34 70 42 71 35 72 41 73 36 74 37 75 38 76 39 77 40 78
REMARK SMILES IDX 63 79 64 80 72 81 65 82 71 83 66 84 67 85 68 86 69 87 70 88
REMARK SMILES IDX 49 89 50 90 58 91 51 92 57 93 52 94 53 95 54 96 55 97 56 98
REMARK H PARENT 14 7 1 23 1 24 21 35 77 54 47 65
REMARK Flexibility Score: inf
ROOT
ATOM      1  C   UNL A   1      31.728  27.635  23.609  1.00  0.00     0.002 C 
ENDROOT
BRANCH   1   2
ATOM      2  C   UNL A   1      30.441  27.327  24.381  1.00  0.00     0.021 C 
BRANCH   2   3
ATOM      3  C   UNL A   1      29.955  25.885  24.266  1.00  0.00     0.116 C 
BRANCH   3   4
ATOM      4  N   UNL A   1      29.831  25.268  25.572  1.00  0.00    -0.351 N 
ATOM      5  C   UNL A   1      30.441  24.208  26.193  1.00  0.00     0.267 C 
ATOM      6  O   UNL A   1      30.029  23.896  27.309  1.00  0.00    -0.268 OA
ATOM      7  H   UNL A   1      29.159  25.708  26.140  1.00  0.00     0.163 HD
BRANCH   5   8
ATOM      8  C   UNL A   1      31.612  23.431  25.610  1.00  0.00     0.128 C 
ATOM      9  N   UNL A   1      32.956  21.794  25.339  1.00  0.00    -0.254 N 
ATOM     10  N   UNL A   1      31.749  22.160  25.848  1.00  0.00    -0.171 NA
ATOM     11  C   UNL A   1      33.590  22.835  24.525  1.00  0.00     0.180 C 
ATOM     12  C   UNL A   1      32.676  24.040  24.762  1.00  0.00     0.099 C 
BRANCH   9  13
ATOM     13  C   UNL A   1      33.241  20.447  25.127  1.00  0.00     0.060 A 
ATOM     14  C   UNL A   1      33.852  17.757  24.625  1.00  0.00     0.082 A 
ATOM     15  C   UNL A   1      32.538  18.122  24.926  1.00  0.00     0.024 A 
ATOM     16  C   UNL A   1      34.867  18.713  24.594  1.00  0.00     0.024 A 
ATOM     17  C   UNL A   1      32.243  19.464  25.190  1.00  0.00     0.029 A 
ATOM     18  C   UNL A   1      34.554  20.049  24.843  1.00  0.00     0.029 A 
BRANCH  14  19
ATOM     19  S   UNL A   1      34.241  16.076  24.254  1.00  0.00     0.238 S 
ATOM     20  O   UNL A   1      35.263  15.606  25.159  1.00  0.00    -0.207 OA
ATOM     21  O   UNL A   1      34.335  15.923  22.821  1.00  0.00    -0.207 OA
BRANCH  19  22
ATOM     22  N   UNL A   1      32.843  15.262  24.717  1.00  0.00    -0.225 NA
ATOM     23  H   UNL A   1      33.020  14.746  25.580  1.00  0.00     0.137 HD
ATOM     24  H   UNL A   1      32.568  14.611  23.982  1.00  0.00     0.137 HD
ENDBRANCH  19  22
ENDBRANCH  14  19
ENDBRANCH   9  13
BRANCH  11  25
ATOM     25  C   UNL A   1      35.036  23.137  24.792  1.00  0.00     0.128 A 
ATOM     26  C   UNL A   1      36.132  23.268  23.960  1.00  0.00     0.048 A 
ATOM     27  O   UNL A   1      35.421  23.353  26.085  1.00  0.00    -0.467 OA
ATOM     28  C   UNL A   1      37.237  23.574  24.789  1.00  0.00     0.042 A 
ATOM     29  C   UNL A   1      36.748  23.629  26.072  1.00  0.00     0.195 A 
ENDBRANCH  11  25
ENDBRANCH   5   8
ENDBRANCH   3   4
ENDBRANCH   2   3
ENDBRANCH   1   2
BRANCH   1  30
ATOM     30  C   UNL A   1      33.025  27.517  24.416  1.00  0.00     0.002 C 
BRANCH  30  31
ATOM     31  C   UNL A   1      32.855  27.393  25.932  1.00  0.00     0.021 C 
BRANCH  31  32
ATOM     32  C   UNL A   1      33.941  28.066  26.767  1.00  0.00     0.116 C 
BRANCH  32  33
ATOM     33  N   UNL A   1      33.608  29.438  27.105  1.00  0.00    -0.352 N 
ATOM     34  C   UNL A   1      34.344  30.363  27.802  1.00  0.00     0.251 C 
ATOM     35  H   UNL A   1      32.729  29.749  26.788  1.00  0.00     0.163 HD
ATOM     36  O   UNL A   1      33.827  31.425  28.137  1.00  0.00    -0.269 OA
BRANCH  34  37
ATOM     37  C   UNL A   1      35.747  30.073  28.169  1.00  0.00     0.039 A 
ATOM     38  C   UNL A   1      36.023  29.597  29.454  1.00  0.00     0.014 A 
ATOM     39  C   UNL A   1      36.792  30.288  27.263  1.00  0.00     0.014 A 
ATOM     40  C   UNL A   1      37.338  29.292  29.814  1.00  0.00     0.010 A 
ATOM     41  C   UNL A   1      38.093  29.924  27.602  1.00  0.00     0.010 A 
ATOM     42  C   UNL A   1      38.381  29.431  28.884  1.00  0.00    -0.014 A 
BRANCH  42  43
ATOM     43  C   UNL A   1      39.780  29.080  29.239  1.00  0.00     0.031 A 
ATOM     44  C   UNL A   1      40.663  30.093  29.917  1.00  0.00     0.074 A 
ATOM     45  C   UNL A   1      40.274  27.873  28.902  1.00  0.00     0.049 A 
ATOM     46  N   UNL A   1      41.925  29.996  30.248  1.00  0.00    -0.248 NA
ATOM     47  C   UNL A   1      40.056  31.394  30.241  1.00  0.00     0.031 C 
ATOM     48  C   UNL A   1      39.533  26.816  28.210  1.00  0.00     0.029 A 
ATOM     49  N   UNL A   1      41.523  27.333  29.089  1.00  0.00    -0.354 N 
ATOM     50  C   UNL A   1      42.268  31.225  30.799  1.00  0.00     0.074 A 
ATOM     51  C   UNL A   1      41.094  32.066  30.718  1.00  0.00     0.031 C 
ATOM     52  C   UNL A   1      40.333  25.749  28.050  1.00  0.00     0.029 A 
ATOM     53  C   UNL A   1      41.652  26.057  28.594  1.00  0.00     0.049 A 
ATOM     54  H   UNL A   1      42.256  27.814  29.535  1.00  0.00     0.167 HD
ATOM     55  C   UNL A   1      43.448  31.615  31.340  1.00  0.00     0.031 A 
ATOM     56  C   UNL A   1      42.713  25.228  28.576  1.00  0.00     0.031 A 
ATOM     57  C   UNL A   1      44.609  30.772  31.437  1.00  0.00     0.049 A 
ATOM     58  C   UNL A   1      44.010  25.678  29.192  1.00  0.00     0.074 A 
ATOM     59  C   UNL A   1      45.834  31.058  32.017  1.00  0.00     0.029 A 
ATOM     60  N   UNL A   1      44.691  29.478  30.947  1.00  0.00    -0.354 N 
ATOM     61  N   UNL A   1      44.296  26.826  29.757  1.00  0.00    -0.248 NA
ATOM     62  C   UNL A   1      45.121  24.716  29.180  1.00  0.00     0.031 C 
ATOM     63  C   UNL A   1      46.670  29.950  31.840  1.00  0.00     0.029 A 
ATOM     64  C   UNL A   1      45.949  28.957  31.195  1.00  0.00     0.049 A 
ATOM     65  H   UNL A   1      43.961  29.000  30.489  1.00  0.00     0.167 HD
ATOM     66  C   UNL A   1      45.613  26.714  30.193  1.00  0.00     0.074 A 
ATOM     67  C   UNL A   1      46.061  25.384  29.834  1.00  0.00     0.031 C 
ATOM     68  C   UNL A   1      46.379  27.630  30.834  1.00  0.00     0.031 A 
BRANCH  55  69
ATOM     69  C   UNL A   1      43.538  33.024  31.864  1.00  0.00    -0.014 A 
ATOM     70  C   UNL A   1      43.188  33.329  33.192  1.00  0.00     0.010 A 
ATOM     71  C   UNL A   1      44.010  34.052  31.028  1.00  0.00     0.010 A 
ATOM     72  C   UNL A   1      43.262  34.643  33.660  1.00  0.00     0.020 A 
ATOM     73  C   UNL A   1      44.111  35.364  31.500  1.00  0.00     0.020 A 
ATOM     74  C   UNL A   1      43.719  35.654  32.808  1.00  0.00     0.054 A 
BRANCH  74  75
ATOM     75  S   UNL A   1      43.817  37.350  33.443  1.00  0.00     0.124 S 
ATOM     76  O   UNL A   1      45.113  37.342  34.118  1.00  0.00    -0.237 OA
ATOM     77  O   UNL A   1      43.750  38.155  32.226  1.00  0.00    -0.237 OA
ATOM     78  O   UNL A   1      42.657  37.458  34.323  1.00  0.00    -0.744 OA
ENDBRANCH  74  75
ENDBRANCH  55  69
BRANCH  56  79
ATOM     79  C   UNL A   1      42.587  23.875  27.967  1.00  0.00    -0.014 A 
ATOM     80  C   UNL A   1      42.239  22.767  28.760  1.00  0.00     0.010 A 
ATOM     81  C   UNL A   1      42.796  23.694  26.588  1.00  0.00     0.010 A 
ATOM     82  C   UNL A   1      42.117  21.498  28.187  1.00  0.00     0.020 A 
ATOM     83  C   UNL A   1      42.650  22.432  26.007  1.00  0.00     0.020 A 
ATOM     84  C   UNL A   1      42.323  21.338  26.813  1.00  0.00     0.054 A 
BRANCH  84  85
ATOM     85  S   UNL A   1      42.102  19.694  26.078  1.00  0.00     0.124 S 
ATOM     86  O   UNL A   1      42.474  18.817  27.184  1.00  0.00    -0.237 OA
ATOM     87  O   UNL A   1      40.687  19.694  25.717  1.00  0.00    -0.237 OA
ATOM     88  O   UNL A   1      43.026  19.701  24.946  1.00  0.00    -0.744 OA
ENDBRANCH  84  85
ENDBRANCH  56  79
BRANCH  68  89
ATOM     89  C   UNL A   1      47.772  27.216  31.223  1.00  0.00    -0.014 A 
ATOM     90  C   UNL A   1      48.009  26.459  32.384  1.00  0.00     0.010 A 
ATOM     91  C   UNL A   1      48.853  27.543  30.385  1.00  0.00     0.010 A 
ATOM     92  C   UNL A   1      49.307  26.062  32.714  1.00  0.00     0.020 A 
ATOM     93  C   UNL A   1      50.148  27.127  30.697  1.00  0.00     0.020 A 
ATOM     94  C   UNL A   1      50.369  26.399  31.869  1.00  0.00     0.054 A 
BRANCH  94  95
ATOM     95  S   UNL A   1      52.040  25.835  32.294  1.00  0.00     0.124 S 
ATOM     96  O   UNL A   1      52.625  25.600  30.977  1.00  0.00    -0.237 OA
ATOM     97  O   UNL A   1      52.586  26.972  33.030  1.00  0.00    -0.237 OA
ATOM     98  O   UNL A   1      51.806  24.637  33.097  1.00  0.00    -0.744 OA
ENDBRANCH  94  95
ENDBRANCH  68  89
ENDBRANCH  42  43
ENDBRANCH  34  37
ENDBRANCH  32  33
ENDBRANCH  31  32
ENDBRANCH  30  31
ENDBRANCH   1  30
TORSDOF 20
ENDMDL
MODEL 2
REMARK VINA RESULT:     -10.8      2.529      8.089
REMARK SMILES NS(=O)(=O)c1ccc(N2N=C(C(=O)NCCCCCCNC(=O)c3ccc(-c4c5nc(c(-c6ccc(S(=O)(=O)[O-])cc6)c6ccc([nH]6)c(-c6ccc(S(=O)(=O)[O-])cc6)c6nc(c(-c7ccc(S(=O)(=O)[O-])cc7)c7ccc4[nH]7)C=C6)C=C5)cc3)C[C@H]2c2ccco2)cc1
REMARK SMILES IDX 17 1 16 2 15 3 14 4 12 5 13 6 11 8 9 9 10 10 85 11 84 12
REMARK SMILES IDX 8 13 5 14 6 15 92 16 7 17 91 18 2 19 3 20 4 21 1 22 86 25
REMARK SMILES IDX 87 26 90 27 88 28 89 29 18 30 19 31 20 32 21 33 22 34 23 36
REMARK SMILES IDX 24 37 25 38 83 39 26 40 82 41 27 42 28 43 29 44 76 45 30 46
REMARK SMILES IDX 81 47 75 48 77 49 31 50 80 51 74 52 73 53 32 55 62 56 43 57
REMARK SMILES IDX 61 58 44 59 47 60 60 61 78 62 45 63 46 64 59 66 79 67 48 68
REMARK SMILES IDX 33 69 34 70 42 71 35 72 41 73 36 74 37 75 38 76 39 77 40 78
REMARK SMILES IDX 63 79 64 80 72 81 65 82 71 83 66 84 67 85 68 86 69 87 70 88
REMARK SMILES IDX 49 89 50 90 58 91 51 92 57 93 52 94 53 95 54 96 55 97 56 98
REMARK H PARENT 14 7 1 23 1 24 21 35 77 54 47 65
REMARK Flexibility Score: inf
ROOT
ATOM      1  C   UNL A   1      31.745  27.759  23.621  1.00  0.00     0.002 C 
ENDROOT
BRANCH   1   2
ATOM      2  C   UNL A   1      30.431  27.618  24.395  1.00  0.00     0.021 C 
BRANCH   2   3
ATOM      3  C   UNL A   1      29.728  26.275  24.222  1.00  0.00     0.116 C 
BRANCH   3   4
ATOM      4  N   UNL A   1      29.508  25.629  25.502  1.00  0.00    -0.351 N 
ATOM      5  C   UNL A   1      30.029  24.522  26.119  1.00  0.00     0.267 C 
ATOM      6  O   UNL A   1      29.547  24.202  27.205  1.00  0.00    -0.268 OA
ATOM      7  H   UNL A   1      28.832  26.090  26.050  1.00  0.00     0.163 HD
BRANCH   5   8
ATOM      8  C   UNL A   1      31.185  23.698  25.570  1.00  0.00     0.128 C 
ATOM      9  N   UNL A   1      32.453  21.999  25.316  1.00  0.00    -0.254 N 
ATOM     10  N   UNL A   1      31.244  22.416  25.778  1.00  0.00    -0.171 NA
ATOM     11  C   UNL A   1      33.179  23.026  24.562  1.00  0.00     0.180 C 
ATOM     12  C   UNL A   1      32.318  24.271  24.789  1.00  0.00     0.099 C 
BRANCH   9  13
ATOM     13  C   UNL A   1      32.677  20.645  25.080  1.00  0.00     0.060 A 
ATOM     14  C   UNL A   1      33.203  17.925  24.647  1.00  0.00     0.082 A 
ATOM     15  C   UNL A   1      32.891  18.749  23.564  1.00  0.00     0.024 A 
ATOM     16  C   UNL A   1      33.233  18.436  25.944  1.00  0.00     0.024 A 
ATOM     17  C   UNL A   1      32.614  20.102  23.789  1.00  0.00     0.029 A 
ATOM     18  C   UNL A   1      32.973  19.790  26.150  1.00  0.00     0.029 A 
BRANCH  14  19
ATOM     19  S   UNL A   1      33.589  16.223  24.383  1.00  0.00     0.238 S 
ATOM     20  O   UNL A   1      34.073  16.042  23.035  1.00  0.00    -0.207 OA
ATOM     21  O   UNL A   1      32.540  15.411  24.954  1.00  0.00    -0.207 OA
BRANCH  19  22
ATOM     22  N   UNL A   1      34.938  15.994  25.363  1.00  0.00    -0.225 NA
ATOM     23  H   UNL A   1      35.539  16.818  25.312  1.00  0.00     0.137 HD
ATOM     24  H   UNL A   1      35.456  15.175  25.044  1.00  0.00     0.137 HD
ENDBRANCH  19  22
ENDBRANCH  14  19
ENDBRANCH   9  13
BRANCH  11  25
ATOM     25  C   UNL A   1      34.624  23.243  24.903  1.00  0.00     0.128 A 
ATOM     26  C   UNL A   1      35.295  23.341  26.107  1.00  0.00     0.048 A 
ATOM     27  O   UNL A   1      35.517  23.363  23.875  1.00  0.00    -0.467 OA
ATOM     28  C   UNL A   1      36.662  23.533  25.796  1.00  0.00     0.042 A 
ATOM     29  C   UNL A   1      36.746  23.524  24.424  1.00  0.00     0.195 A 
ENDBRANCH  11  25
ENDBRANCH   5   8
ENDBRANCH   3   4
ENDBRANCH   2   3
ENDBRANCH   1   2
BRANCH   1  30
ATOM     30  C   UNL A   1      33.019  27.502  24.432  1.00  0.00     0.002 C 
BRANCH  30  31
ATOM     31  C   UNL A   1      33.004  28.016  25.874  1.00  0.00     0.021 C 
BRANCH  31  32
ATOM     32  C   UNL A   1      34.182  28.907  26.259  1.00  0.00     0.116 C 
BRANCH  32  33
ATOM     33  N   UNL A   1      33.764  30.246  26.633  1.00  0.00    -0.352 N 
ATOM     34  C   UNL A   1      34.294  31.089  27.578  1.00  0.00     0.251 C 
ATOM     35  H   UNL A   1      32.989  30.600  26.138  1.00  0.00     0.163 HD
ATOM     36  O   UNL A   1      33.701  32.123  27.874  1.00  0.00    -0.269 OA
BRANCH  34  37
ATOM     37  C   UNL A   1      35.564  30.743  28.253  1.00  0.00     0.039 A 
ATOM     38  C   UNL A   1      36.691  31.536  28.016  1.00  0.00     0.014 A 
ATOM     39  C   UNL A   1      35.655  29.633  29.099  1.00  0.00     0.014 A 
ATOM     40  C   UNL A   1      37.894  31.243  28.661  1.00  0.00     0.010 A 
ATOM     41  C   UNL A   1      36.838  29.380  29.790  1.00  0.00     0.010 A 
ATOM     42  C   UNL A   1      37.972  30.177  29.572  1.00  0.00    -0.014 A 
BRANCH  42  43
ATOM     43  C   UNL A   1      39.235  29.873  30.293  1.00  0.00     0.031 A 
ATOM     44  C   UNL A   1      40.139  28.774  29.800  1.00  0.00     0.074 A 
ATOM     45  C   UNL A   1      39.540  30.542  31.422  1.00  0.00     0.049 A 
ATOM     46  N   UNL A   1      41.247  28.321  30.327  1.00  0.00    -0.248 NA
ATOM     47  C   UNL A   1      39.731  28.080  28.569  1.00  0.00     0.031 C 
ATOM     48  C   UNL A   1      38.730  31.603  32.025  1.00  0.00     0.029 A 
ATOM     49  N   UNL A   1      40.614  30.424  32.270  1.00  0.00    -0.354 N 
ATOM     50  C   UNL A   1      41.657  27.277  29.506  1.00  0.00     0.074 A 
ATOM     51  C   UNL A   1      40.657  27.136  28.471  1.00  0.00     0.031 C 
ATOM     52  C   UNL A   1      39.344  32.051  33.131  1.00  0.00     0.029 A 
ATOM     53  C   UNL A   1      40.572  31.289  33.337  1.00  0.00     0.049 A 
ATOM     54  H   UNL A   1      41.344  29.781  32.126  1.00  0.00     0.167 HD
ATOM     55  C   UNL A   1      42.774  26.514  29.594  1.00  0.00     0.031 A 
ATOM     56  C   UNL A   1      41.423  31.449  34.369  1.00  0.00     0.031 A 
ATOM     57  C   UNL A   1      43.777  26.666  30.613  1.00  0.00     0.049 A 
ATOM     58  C   UNL A   1      42.662  30.598  34.440  1.00  0.00     0.074 A 
ATOM     59  C   UNL A   1      44.970  25.978  30.756  1.00  0.00     0.029 A 
ATOM     60  N   UNL A   1      43.709  27.571  31.662  1.00  0.00    -0.354 N 
ATOM     61  N   UNL A   1      43.058  29.653  33.622  1.00  0.00    -0.248 NA
ATOM     62  C   UNL A   1      43.574  30.846  35.565  1.00  0.00     0.031 C 
ATOM     63  C   UNL A   1      45.604  26.439  31.915  1.00  0.00     0.029 A 
ATOM     64  C   UNL A   1      44.830  27.449  32.465  1.00  0.00     0.049 A 
ATOM     65  H   UNL A   1      42.972  28.206  31.813  1.00  0.00     0.167 HD
ATOM     66  C   UNL A   1      44.280  29.212  34.119  1.00  0.00     0.074 A 
ATOM     67  C   UNL A   1      44.561  30.001  35.302  1.00  0.00     0.031 C 
ATOM     68  C   UNL A   1      45.096  28.243  33.637  1.00  0.00     0.031 A 
BRANCH  55  69
ATOM     69  C   UNL A   1      42.961  25.438  28.558  1.00  0.00    -0.014 A 
ATOM     70  C   UNL A   1      43.625  25.704  27.346  1.00  0.00     0.010 A 
ATOM     71  C   UNL A   1      42.497  24.134  28.810  1.00  0.00     0.010 A 
ATOM     72  C   UNL A   1      43.779  24.701  26.388  1.00  0.00     0.020 A 
ATOM     73  C   UNL A   1      42.673  23.120  27.865  1.00  0.00     0.020 A 
ATOM     74  C   UNL A   1      43.296  23.414  26.651  1.00  0.00     0.054 A 
BRANCH  74  75
ATOM     75  S   UNL A   1      43.519  22.126  25.395  1.00  0.00     0.124 S 
ATOM     76  O   UNL A   1      42.372  21.257  25.650  1.00  0.00    -0.237 OA
ATOM     77  O   UNL A   1      43.468  22.881  24.145  1.00  0.00    -0.237 OA
ATOM     78  O   UNL A   1      44.821  21.549  25.718  1.00  0.00    -0.744 OA
ENDBRANCH  74  75
ENDBRANCH  55  69
BRANCH  56  79
ATOM     79  C   UNL A   1      41.140  32.474  35.411  1.00  0.00    -0.014 A 
ATOM     80  C   UNL A   1      41.596  33.795  35.253  1.00  0.00     0.010 A 
ATOM     81  C   UNL A   1      40.397  32.136  36.556  1.00  0.00     0.010 A 
ATOM     82  C   UNL A   1      41.326  34.757  36.230  1.00  0.00     0.020 A 
ATOM     83  C   UNL A   1      40.104  33.102  37.523  1.00  0.00     0.020 A 
ATOM     84  C   UNL A   1      40.581  34.404  37.360  1.00  0.00     0.054 A 
BRANCH  84  85
ATOM     85  S   UNL A   1      40.193  35.682  38.588  1.00  0.00     0.124 S 
ATOM     86  O   UNL A   1      39.874  36.827  37.743  1.00  0.00    -0.237 OA
ATOM     87  O   UNL A   1      39.068  35.095  39.312  1.00  0.00    -0.237 OA
ATOM     88  O   UNL A   1      41.428  35.797  39.361  1.00  0.00    -0.744 OA
ENDBRANCH  84  85
ENDBRANCH  56  79
BRANCH  68  89
ATOM     89  C   UNL A   1      46.390  28.002  34.366  1.00  0.00    -0.014 A 
ATOM     90  C   UNL A   1      47.553  28.723  34.043  1.00  0.00     0.010 A 
ATOM     91  C   UNL A   1      46.427  27.080  35.427  1.00  0.00     0.010 A 
ATOM     92  C   UNL A   1      48.738  28.504  34.750  1.00  0.00     0.020 A 
ATOM     93  C   UNL A   1      47.602  26.876  36.153  1.00  0.00     0.020 A 
ATOM     94  C   UNL A   1      48.755  27.580  35.800  1.00  0.00     0.054 A 
BRANCH  94  95
ATOM     95  S   UNL A   1      50.293  27.344  36.733  1.00  0.00     0.124 S 
ATOM     96  O   UNL A   1      51.284  27.245  35.665  1.00  0.00    -0.237 OA
ATOM     97  O   UNL A   1      50.365  28.556  37.546  1.00  0.00    -0.237 OA
ATOM     98  O   UNL A   1      50.057  26.113  37.482  1.00  0.00    -0.744 OA
ENDBRANCH  94  95
ENDBRANCH  68  89
ENDBRANCH  42  43
ENDBRANCH  34  37
ENDBRANCH  32  33
ENDBRANCH  31  32
ENDBRANCH  30  31
ENDBRANCH   1  30
TORSDOF 20
ENDMDL
MODEL 3
REMARK VINA RESULT:     -10.6      4.748     10.667
REMARK SMILES NS(=O)(=O)c1ccc(N2N=C(C(=O)NCCCCCCNC(=O)c3ccc(-c4c5nc(c(-c6ccc(S(=O)(=O)[O-])cc6)c6ccc([nH]6)c(-c6ccc(S(=O)(=O)[O-])cc6)c6nc(c(-c7ccc(S(=O)(=O)[O-])cc7)c7ccc4[nH]7)C=C6)C=C5)cc3)C[C@H]2c2ccco2)cc1
REMARK SMILES IDX 17 1 16 2 15 3 14 4 12 5 13 6 11 8 9 9 10 10 85 11 84 12
REMARK SMILES IDX 8 13 5 14 6 15 92 16 7 17 91 18 2 19 3 20 4 21 1 22 86 25
REMARK SMILES IDX 87 26 90 27 88 28 89 29 18 30 19 31 20 32 21 33 22 34 23 36
REMARK SMILES IDX 24 37 25 38 83 39 26 40 82 41 27 42 28 43 29 44 76 45 30 46
REMARK SMILES IDX 81 47 75 48 77 49 31 50 80 51 74 52 73 53 32 55 62 56 43 57
REMARK SMILES IDX 61 58 44 59 47 60 60 61 78 62 45 63 46 64 59 66 79 67 48 68
REMARK SMILES IDX 33 69 34 70 42 71 35 72 41 73 36 74 37 75 38 76 39 77 40 78
REMARK SMILES IDX 63 79 64 80 72 81 65 82 71 83 66 84 67 85 68 86 69 87 70 88
REMARK SMILES IDX 49 89 50 90 58 91 51 92 57 93 52 94 53 95 54 96 55 97 56 98
REMARK H PARENT 14 7 1 23 1 24 21 35 77 54 47 65
REMARK Flexibility Score: inf
ROOT
ATOM      1  C   UNL A   1      35.503  23.668  25.820  1.00  0.00     0.002 C 
ENDROOT
BRANCH   1   2
ATOM      2  C   UNL A   1      34.658  22.457  26.229  1.00  0.00     0.021 C 
BRANCH   2   3
ATOM      3  C   UNL A   1      34.008  22.567  27.605  1.00  0.00     0.116 C 
BRANCH   3   4
ATOM      4  N   UNL A   1      32.562  22.511  27.508  1.00  0.00    -0.351 N 
ATOM      5  C   UNL A   1      31.597  23.378  27.066  1.00  0.00     0.267 C 
ATOM      6  O   UNL A   1      30.424  23.033  27.201  1.00  0.00    -0.268 OA
ATOM      7  H   UNL A   1      32.191  21.659  27.832  1.00  0.00     0.163 HD
BRANCH   5   8
ATOM      8  C   UNL A   1      31.886  24.708  26.384  1.00  0.00     0.128 C 
ATOM      9  N   UNL A   1      32.173  26.817  26.211  1.00  0.00    -0.254 N 
ATOM     10  N   UNL A   1      32.117  25.777  27.086  1.00  0.00    -0.171 NA
ATOM     11  C   UNL A   1      32.183  26.400  24.805  1.00  0.00     0.180 C 
ATOM     12  C   UNL A   1      31.910  24.897  24.905  1.00  0.00     0.099 C 
BRANCH   9  13
ATOM     13  C   UNL A   1      32.743  28.025  26.603  1.00  0.00     0.060 A 
ATOM     14  C   UNL A   1      33.934  30.416  27.457  1.00  0.00     0.082 A 
ATOM     15  C   UNL A   1      32.545  30.343  27.330  1.00  0.00     0.024 A 
ATOM     16  C   UNL A   1      34.736  29.319  27.142  1.00  0.00     0.024 A 
ATOM     17  C   UNL A   1      31.959  29.151  26.889  1.00  0.00     0.029 A 
ATOM     18  C   UNL A   1      34.136  28.133  26.721  1.00  0.00     0.029 A 
BRANCH  14  19
ATOM     19  S   UNL A   1      34.693  31.897  28.045  1.00  0.00     0.238 S 
ATOM     20  O   UNL A   1      33.855  33.028  27.723  1.00  0.00    -0.207 OA
ATOM     21  O   UNL A   1      36.102  31.855  27.736  1.00  0.00    -0.207 OA
BRANCH  19  22
ATOM     22  N   UNL A   1      34.578  31.733  29.715  1.00  0.00    -0.225 NA
ATOM     23  H   UNL A   1      33.643  32.007  30.021  1.00  0.00     0.137 HD
ATOM     24  H   UNL A   1      35.271  32.332  30.165  1.00  0.00     0.137 HD
ENDBRANCH  19  22
ENDBRANCH  14  19
ENDBRANCH   9  13
BRANCH  11  25
ATOM     25  C   UNL A   1      31.246  27.103  23.868  1.00  0.00     0.128 A 
ATOM     26  C   UNL A   1      31.432  27.709  22.639  1.00  0.00     0.048 A 
ATOM     27  O   UNL A   1      29.929  27.192  24.222  1.00  0.00    -0.467 OA
ATOM     28  C   UNL A   1      30.167  28.191  22.228  1.00  0.00     0.042 A 
ATOM     29  C   UNL A   1      29.283  27.838  23.220  1.00  0.00     0.195 A 
ENDBRANCH  11  25
ENDBRANCH   5   8
ENDBRANCH   3   4
ENDBRANCH   2   3
ENDBRANCH   1   2
BRANCH   1  30
ATOM     30  C   UNL A   1      37.019  23.480  25.927  1.00  0.00     0.002 C 
BRANCH  30  31
ATOM     31  C   UNL A   1      37.764  24.540  26.743  1.00  0.00     0.021 C 
BRANCH  31  32
ATOM     32  C   UNL A   1      39.222  24.216  27.055  1.00  0.00     0.116 C 
BRANCH  32  33
ATOM     33  N   UNL A   1      40.137  24.804  26.094  1.00  0.00    -0.352 N 
ATOM     34  C   UNL A   1      40.786  26.013  26.140  1.00  0.00     0.251 C 
ATOM     35  H   UNL A   1      40.319  24.257  25.295  1.00  0.00     0.163 HD
ATOM     36  O   UNL A   1      41.393  26.417  25.153  1.00  0.00    -0.269 OA
BRANCH  34  37
ATOM     37  C   UNL A   1      40.735  26.836  27.368  1.00  0.00     0.039 A 
ATOM     38  C   UNL A   1      40.115  26.311  28.505  1.00  0.00     0.014 A 
ATOM     39  C   UNL A   1      41.275  28.126  27.398  1.00  0.00     0.014 A 
ATOM     40  C   UNL A   1      40.077  27.060  29.684  1.00  0.00     0.010 A 
ATOM     41  C   UNL A   1      41.292  28.846  28.590  1.00  0.00     0.010 A 
ATOM     42  C   UNL A   1      40.685  28.325  29.744  1.00  0.00    -0.014 A 
BRANCH  42  43
ATOM     43  C   UNL A   1      40.684  29.121  30.998  1.00  0.00     0.031 A 
ATOM     44  C   UNL A   1      41.740  28.882  32.044  1.00  0.00     0.074 A 
ATOM     45  C   UNL A   1      39.702  30.016  31.222  1.00  0.00     0.049 A 
ATOM     46  N   UNL A   1      41.868  29.430  33.225  1.00  0.00    -0.248 NA
ATOM     47  C   UNL A   1      42.770  27.879  31.731  1.00  0.00     0.031 C 
ATOM     48  C   UNL A   1      38.600  30.313  30.305  1.00  0.00     0.029 A 
ATOM     49  N   UNL A   1      39.468  30.836  32.298  1.00  0.00    -0.354 N 
ATOM     50  C   UNL A   1      42.978  28.825  33.804  1.00  0.00     0.074 A 
ATOM     51  C   UNL A   1      43.461  27.839  32.863  1.00  0.00     0.031 C 
ATOM     52  C   UNL A   1      37.820  31.263  30.847  1.00  0.00     0.029 A 
ATOM     53  C   UNL A   1      38.345  31.616  32.163  1.00  0.00     0.049 A 
ATOM     54  H   UNL A   1      40.050  30.863  33.091  1.00  0.00     0.167 HD
ATOM     55  C   UNL A   1      43.556  29.080  35.004  1.00  0.00     0.031 A 
ATOM     56  C   UNL A   1      37.795  32.513  33.004  1.00  0.00     0.031 A 
ATOM     57  C   UNL A   1      43.086  30.073  35.931  1.00  0.00     0.049 A 
ATOM     58  C   UNL A   1      38.459  32.787  34.325  1.00  0.00     0.074 A 
ATOM     59  C   UNL A   1      43.635  30.442  37.148  1.00  0.00     0.029 A 
ATOM     60  N   UNL A   1      41.960  30.860  35.745  1.00  0.00    -0.354 N 
ATOM     61  N   UNL A   1      39.540  32.243  34.830  1.00  0.00    -0.248 NA
ATOM     62  C   UNL A   1      37.837  33.805  35.183  1.00  0.00     0.031 C 
ATOM     63  C   UNL A   1      42.815  31.424  37.716  1.00  0.00     0.029 A 
ATOM     64  C   UNL A   1      41.786  31.702  36.830  1.00  0.00     0.049 A 
ATOM     65  H   UNL A   1      41.370  30.825  34.957  1.00  0.00     0.167 HD
ATOM     66  C   UNL A   1      39.743  32.872  36.054  1.00  0.00     0.074 A 
ATOM     67  C   UNL A   1      38.679  33.844  36.207  1.00  0.00     0.031 C 
ATOM     68  C   UNL A   1      40.723  32.665  36.966  1.00  0.00     0.031 A 
BRANCH  55  69
ATOM     69  C   UNL A   1      44.759  28.258  35.381  1.00  0.00    -0.014 A 
ATOM     70  C   UNL A   1      44.619  27.033  36.058  1.00  0.00     0.010 A 
ATOM     71  C   UNL A   1      46.048  28.699  35.027  1.00  0.00     0.010 A 
ATOM     72  C   UNL A   1      45.745  26.288  36.416  1.00  0.00     0.020 A 
ATOM     73  C   UNL A   1      47.175  27.944  35.359  1.00  0.00     0.020 A 
ATOM     74  C   UNL A   1      47.018  26.752  36.069  1.00  0.00     0.054 A 
BRANCH  74  75
ATOM     75  S   UNL A   1      48.464  25.760  36.534  1.00  0.00     0.124 S 
ATOM     76  O   UNL A   1      48.318  24.594  35.667  1.00  0.00    -0.237 OA
ATOM     77  O   UNL A   1      49.580  26.646  36.212  1.00  0.00    -0.237 OA
ATOM     78  O   UNL A   1      48.265  25.506  37.958  1.00  0.00    -0.744 OA
ENDBRANCH  74  75
ENDBRANCH  55  69
BRANCH  56  79
ATOM     79  C   UNL A   1      36.553  33.234  32.610  1.00  0.00    -0.014 A 
ATOM     80  C   UNL A   1      35.317  32.890  33.185  1.00  0.00     0.010 A 
ATOM     81  C   UNL A   1      36.606  34.280  31.672  1.00  0.00     0.010 A 
ATOM     82  C   UNL A   1      34.152  33.570  32.817  1.00  0.00     0.020 A 
ATOM     83  C   UNL A   1      35.448  34.979  31.320  1.00  0.00     0.020 A 
ATOM     84  C   UNL A   1      34.225  34.611  31.887  1.00  0.00     0.054 A 
BRANCH  84  85
ATOM     85  S   UNL A   1      32.712  35.520  31.467  1.00  0.00     0.124 S 
ATOM     86  O   UNL A   1      31.769  35.010  32.457  1.00  0.00    -0.237 OA
ATOM     87  O   UNL A   1      33.120  36.912  31.636  1.00  0.00    -0.237 OA
ATOM     88  O   UNL A   1      32.449  35.121  30.086  1.00  0.00    -0.744 OA
ENDBRANCH  84  85
ENDBRANCH  56  79
BRANCH  68  89
ATOM     89  C   UNL A   1      40.716  33.529  38.198  1.00  0.00    -0.014 A 
ATOM     90  C   UNL A   1      41.440  34.733  38.247  1.00  0.00     0.010 A 
ATOM     91  C   UNL A   1      39.929  33.155  39.303  1.00  0.00     0.010 A 
ATOM     92  C   UNL A   1      41.398  35.535  39.391  1.00  0.00     0.020 A 
ATOM     93  C   UNL A   1      39.865  33.966  40.438  1.00  0.00     0.020 A 
ATOM     94  C   UNL A   1      40.612  35.146  40.480  1.00  0.00     0.054 A 
BRANCH  94  95
ATOM     95  S   UNL A   1      40.538  36.224  41.936  1.00  0.00     0.124 S 
ATOM     96  O   UNL A   1      41.435  35.541  42.865  1.00  0.00    -0.237 OA
ATOM     97  O   UNL A   1      41.024  37.500  41.417  1.00  0.00    -0.237 OA
ATOM     98  O   UNL A   1      39.125  36.208  42.307  1.00  0.00    -0.744 OA
ENDBRANCH  94  95
ENDBRANCH  68  89
ENDBRANCH  42  43
ENDBRANCH  34  37
ENDBRANCH  32  33
ENDBRANCH  31  32
ENDBRANCH  30  31
ENDBRANCH   1  30
TORSDOF 20
ENDMDL
