MODEL 1
REMARK VINA RESULT:     -10.5      0.000      0.000
REMARK SMILES C[NH2+][C@@]1(C(=O)NCCCCCCNC(=O)c2ccc(-c3c4nc(c(-c5ccc(S(=O)(=O)[O-])cc5)c5ccc([nH]5)c(-c5ccc(S(=O)(=O)[O-])cc5)c5nc(c(-c6ccc(S(=O)(=O)[O-])cc6)c6ccc3[nH]6)C=C5)C=C4)cc2)CCC[C@H]1CCSc1nccc(=O)[nH]1
REMARK SMILES IDX 9 1 8 2 7 3 6 4 4 5 5 6 3 8 76 9 79 10 77 11 78 12 2 13 1 14
REMARK SMILES IDX 80 17 81 18 82 19 83 20 84 21 89 22 85 23 87 24 86 26 88 27
REMARK SMILES IDX 10 28 11 29 12 30 13 31 14 32 15 34 16 35 17 36 75 37 18 38
REMARK SMILES IDX 74 39 19 40 20 41 21 42 68 43 22 44 73 45 67 46 69 47 23 48
REMARK SMILES IDX 72 49 66 50 65 51 24 53 54 54 35 55 53 56 36 57 39 58 52 59
REMARK SMILES IDX 70 60 37 61 38 62 51 64 71 65 40 66 25 67 26 68 34 69 27 70
REMARK SMILES IDX 33 71 28 72 29 73 30 74 31 75 32 76 55 77 56 78 64 79 57 80
REMARK SMILES IDX 63 81 58 82 59 83 60 84 61 85 62 86 41 87 42 88 50 89 43 90
REMARK SMILES IDX 49 91 44 92 45 93 46 94 47 95 48 96
REMARK H PARENT 6 7 2 15 2 16 89 25 13 33 69 52 39 63
REMARK Flexibility Score: inf
ROOT
ATOM      1  C   UNL A   1      36.717  21.856  24.336  1.00  0.00     0.002 C 
ENDROOT
BRANCH   1   2
ATOM      2  C   UNL A   1      37.096  23.174  25.007  1.00  0.00     0.021 C 
BRANCH   2   3
ATOM      3  C   UNL A   1      35.952  23.913  25.685  1.00  0.00     0.116 C 
BRANCH   3   4
ATOM      4  N   UNL A   1      35.249  23.144  26.676  1.00  0.00    -0.351 N 
ATOM      5  C   UNL A   1      34.047  22.517  26.660  1.00  0.00     0.281 C 
ATOM      6  O   UNL A   1      33.859  21.766  27.637  1.00  0.00    -0.268 OA
ATOM      7  H   UNL A   1      35.734  23.055  27.529  1.00  0.00     0.163 HD
BRANCH   5   8
ATOM      8  C   UNL A   1      32.908  22.630  25.534  1.00  0.00     0.178 C 
ATOM      9  C   UNL A   1      31.839  21.546  25.781  1.00  0.00     0.079 C 
ATOM     10  C   UNL A   1      33.393  22.407  24.063  1.00  0.00     0.061 C 
ATOM     11  C   UNL A   1      32.167  20.380  24.869  1.00  0.00     0.008 C 
ATOM     12  C   UNL A   1      32.881  20.988  23.668  1.00  0.00     0.011 C 
BRANCH   8  13
ATOM     13  N   UNL A   1      32.433  24.033  25.679  1.00  0.00    -0.336 N 
ATOM     14  C   UNL A   1      31.091  24.285  26.151  1.00  0.00     0.331 C 
ATOM     15  H   UNL A   1      33.068  24.496  26.331  1.00  0.00     0.346 HD
ATOM     16  H   UNL A   1      32.419  24.382  24.721  1.00  0.00     0.346 HD
ENDBRANCH   8  13
BRANCH  10  17
ATOM     17  C   UNL A   1      32.860  23.370  22.959  1.00  0.00     0.022 C 
BRANCH  17  18
ATOM     18  C   UNL A   1      33.642  24.631  22.566  1.00  0.00     0.079 C 
BRANCH  18  19
ATOM     19  S   UNL A   1      32.776  25.734  21.418  1.00  0.00    -0.088 SA
BRANCH  19  20
ATOM     20  C   UNL A   1      31.913  26.770  22.501  1.00  0.00     0.168 A 
ATOM     21  N   UNL A   1      32.067  26.781  23.781  1.00  0.00    -0.233 NA
ATOM     22  N   UNL A   1      31.045  27.567  21.826  1.00  0.00    -0.301 N 
ATOM     23  C   UNL A   1      31.314  27.695  24.472  1.00  0.00     0.120 A 
ATOM     24  C   UNL A   1      30.281  28.493  22.459  1.00  0.00     0.251 A 
ATOM     25  H   UNL A   1      30.969  27.470  20.849  1.00  0.00     0.172 HD
ATOM     26  C   UNL A   1      30.452  28.553  23.917  1.00  0.00     0.091 A 
ATOM     27  O   UNL A   1      29.509  29.243  21.873  1.00  0.00    -0.269 OA
ENDBRANCH  19  20
ENDBRANCH  18  19
ENDBRANCH  17  18
ENDBRANCH  10  17
ENDBRANCH   5   8
ENDBRANCH   3   4
ENDBRANCH   2   3
ENDBRANCH   1   2
BRANCH   1  28
ATOM     28  C   UNL A   1      36.905  20.600  25.195  1.00  0.00     0.002 C 
BRANCH  28  29
ATOM     29  C   UNL A   1      38.228  19.851  25.003  1.00  0.00     0.021 C 
BRANCH  29  30
ATOM     30  C   UNL A   1      39.410  20.421  25.778  1.00  0.00     0.116 C 
BRANCH  30  31
ATOM     31  N   UNL A   1      40.402  19.404  26.079  1.00  0.00    -0.352 N 
ATOM     32  C   UNL A   1      41.749  19.539  26.304  1.00  0.00     0.251 C 
ATOM     33  H   UNL A   1      40.058  18.483  26.128  1.00  0.00     0.163 HD
ATOM     34  O   UNL A   1      42.469  18.545  26.310  1.00  0.00    -0.269 OA
BRANCH  32  35
ATOM     35  C   UNL A   1      42.329  20.880  26.528  1.00  0.00     0.039 A 
ATOM     36  C   UNL A   1      42.766  21.620  25.426  1.00  0.00     0.014 A 
ATOM     37  C   UNL A   1      42.462  21.400  27.818  1.00  0.00     0.014 A 
ATOM     38  C   UNL A   1      43.287  22.901  25.615  1.00  0.00     0.010 A 
ATOM     39  C   UNL A   1      42.908  22.706  27.998  1.00  0.00     0.010 A 
ATOM     40  C   UNL A   1      43.334  23.467  26.900  1.00  0.00    -0.014 A 
BRANCH  40  41
ATOM     41  C   UNL A   1      43.825  24.854  27.112  1.00  0.00     0.031 A 
ATOM     42  C   UNL A   1      45.279  25.183  26.908  1.00  0.00     0.074 A 
ATOM     43  C   UNL A   1      42.971  25.802  27.544  1.00  0.00     0.049 A 
ATOM     44  N   UNL A   1      45.900  26.321  27.088  1.00  0.00    -0.248 NA
ATOM     45  C   UNL A   1      46.157  24.085  26.466  1.00  0.00     0.031 C 
ATOM     46  C   UNL A   1      41.546  25.597  27.819  1.00  0.00     0.029 A 
ATOM     47  N   UNL A   1      43.176  27.127  27.836  1.00  0.00    -0.354 N 
ATOM     48  C   UNL A   1      47.237  26.073  26.798  1.00  0.00     0.074 A 
ATOM     49  C   UNL A   1      47.347  24.666  26.483  1.00  0.00     0.031 C 
ATOM     50  C   UNL A   1      41.002  26.760  28.211  1.00  0.00     0.029 A 
ATOM     51  C   UNL A   1      42.045  27.781  28.263  1.00  0.00     0.049 A 
ATOM     52  H   UNL A   1      44.052  27.569  27.748  1.00  0.00     0.167 HD
ATOM     53  C   UNL A   1      48.276  26.942  26.780  1.00  0.00     0.031 A 
ATOM     54  C   UNL A   1      41.864  29.055  28.662  1.00  0.00     0.031 A 
ATOM     55  C   UNL A   1      48.159  28.343  27.092  1.00  0.00     0.049 A 
ATOM     56  C   UNL A   1      43.037  29.998  28.650  1.00  0.00     0.074 A 
ATOM     57  C   UNL A   1      49.140  29.318  27.048  1.00  0.00     0.029 A 
ATOM     58  N   UNL A   1      46.994  28.966  27.514  1.00  0.00    -0.354 N 
ATOM     59  N   UNL A   1      44.279  29.762  28.302  1.00  0.00    -0.248 NA
ATOM     60  C   UNL A   1      42.779  31.382  29.071  1.00  0.00     0.031 C 
ATOM     61  C   UNL A   1      48.584  30.517  27.505  1.00  0.00     0.029 A 
ATOM     62  C   UNL A   1      47.239  30.306  27.764  1.00  0.00     0.049 A 
ATOM     63  H   UNL A   1      46.122  28.522  27.620  1.00  0.00     0.167 HD
ATOM     64  C   UNL A   1      44.946  30.975  28.436  1.00  0.00     0.074 A 
ATOM     65  C   UNL A   1      43.965  31.944  28.879  1.00  0.00     0.031 C 
ATOM     66  C   UNL A   1      46.253  31.260  28.210  1.00  0.00     0.031 A 
BRANCH  53  67
ATOM     67  C   UNL A   1      49.636  26.398  26.422  1.00  0.00    -0.014 A 
ATOM     68  C   UNL A   1      50.143  26.496  25.113  1.00  0.00     0.010 A 
ATOM     69  C   UNL A   1      50.437  25.811  27.419  1.00  0.00     0.010 A 
ATOM     70  C   UNL A   1      51.402  25.977  24.798  1.00  0.00     0.020 A 
ATOM     71  C   UNL A   1      51.711  25.321  27.116  1.00  0.00     0.020 A 
ATOM     72  C   UNL A   1      52.176  25.390  25.802  1.00  0.00     0.054 A 
BRANCH  72  73
ATOM     73  S   UNL A   1      53.814  24.742  25.367  1.00  0.00     0.124 S 
ATOM     74  O   UNL A   1      53.501  23.366  24.987  1.00  0.00    -0.237 OA
ATOM     75  O   UNL A   1      54.224  25.618  24.273  1.00  0.00    -0.237 OA
ATOM     76  O   UNL A   1      54.583  24.887  26.600  1.00  0.00    -0.744 OA
ENDBRANCH  72  73
ENDBRANCH  53  67
BRANCH  54  77
ATOM     77  C   UNL A   1      40.516  29.511  29.103  1.00  0.00    -0.014 A 
ATOM     78  C   UNL A   1      39.452  29.597  28.187  1.00  0.00     0.010 A 
ATOM     79  C   UNL A   1      40.286  29.846  30.449  1.00  0.00     0.010 A 
ATOM     80  C   UNL A   1      38.190  30.027  28.607  1.00  0.00     0.020 A 
ATOM     81  C   UNL A   1      39.017  30.246  30.880  1.00  0.00     0.020 A 
ATOM     82  C   UNL A   1      37.980  30.344  29.951  1.00  0.00     0.054 A 
BRANCH  82  83
ATOM     83  S   UNL A   1      36.320  30.848  30.484  1.00  0.00     0.124 S 
ATOM     84  O   UNL A   1      36.579  32.147  31.097  1.00  0.00    -0.237 OA
ATOM     85  O   UNL A   1      35.581  30.878  29.224  1.00  0.00    -0.237 OA
ATOM     86  O   UNL A   1      35.920  29.789  31.406  1.00  0.00    -0.744 OA
ENDBRANCH  82  83
ENDBRANCH  54  77
BRANCH  66  87
ATOM     87  C   UNL A   1      46.696  32.687  28.402  1.00  0.00    -0.014 A 
ATOM     88  C   UNL A   1      46.613  33.627  27.360  1.00  0.00     0.010 A 
ATOM     89  C   UNL A   1      47.152  33.106  29.666  1.00  0.00     0.010 A 
ATOM     90  C   UNL A   1      47.008  34.952  27.569  1.00  0.00     0.020 A 
ATOM     91  C   UNL A   1      47.517  34.435  29.889  1.00  0.00     0.020 A 
ATOM     92  C   UNL A   1      47.455  35.347  28.834  1.00  0.00     0.054 A 
BRANCH  92  93
ATOM     93  S   UNL A   1      47.918  37.082  29.092  1.00  0.00     0.124 S 
ATOM     94  O   UNL A   1      47.516  37.301  30.478  1.00  0.00    -0.237 OA
ATOM     95  O   UNL A   1      49.359  37.067  28.849  1.00  0.00    -0.237 OA
ATOM     96  O   UNL A   1      47.131  37.804  28.094  1.00  0.00    -0.744 OA
ENDBRANCH  92  93
ENDBRANCH  66  87
ENDBRANCH  40  41
ENDBRANCH  32  35
ENDBRANCH  30  31
ENDBRANCH  29  30
ENDBRANCH  28  29
ENDBRANCH   1  28
TORSDOF 21
ENDMDL
MODEL 2
REMARK VINA RESULT:     -10.5      1.552      2.373
REMARK SMILES C[NH2+][C@@]1(C(=O)NCCCCCCNC(=O)c2ccc(-c3c4nc(c(-c5ccc(S(=O)(=O)[O-])cc5)c5ccc([nH]5)c(-c5ccc(S(=O)(=O)[O-])cc5)c5nc(c(-c6ccc(S(=O)(=O)[O-])cc6)c6ccc3[nH]6)C=C5)C=C4)cc2)CCC[C@H]1CCSc1nccc(=O)[nH]1
REMARK SMILES IDX 9 1 8 2 7 3 6 4 4 5 5 6 3 8 76 9 79 10 77 11 78 12 2 13 1 14
REMARK SMILES IDX 80 17 81 18 82 19 83 20 84 21 89 22 85 23 87 24 86 26 88 27
REMARK SMILES IDX 10 28 11 29 12 30 13 31 14 32 15 34 16 35 17 36 75 37 18 38
REMARK SMILES IDX 74 39 19 40 20 41 21 42 68 43 22 44 73 45 67 46 69 47 23 48
REMARK SMILES IDX 72 49 66 50 65 51 24 53 54 54 35 55 53 56 36 57 39 58 52 59
REMARK SMILES IDX 70 60 37 61 38 62 51 64 71 65 40 66 25 67 26 68 34 69 27 70
REMARK SMILES IDX 33 71 28 72 29 73 30 74 31 75 32 76 55 77 56 78 64 79 57 80
REMARK SMILES IDX 63 81 58 82 59 83 60 84 61 85 62 86 41 87 42 88 50 89 43 90
REMARK SMILES IDX 49 91 44 92 45 93 46 94 47 95 48 96
REMARK H PARENT 6 7 2 15 2 16 89 25 13 33 69 52 39 63
REMARK Flexibility Score: inf
ROOT
ATOM      1  C   UNL A   1      36.046  21.642  25.009  1.00  0.00     0.002 C 
ENDROOT
BRANCH   1   2
ATOM      2  C   UNL A   1      35.624  23.054  24.609  1.00  0.00     0.021 C 
BRANCH   2   3
ATOM      3  C   UNL A   1      34.701  23.762  25.589  1.00  0.00     0.116 C 
BRANCH   3   4
ATOM      4  N   UNL A   1      34.577  25.179  25.375  1.00  0.00    -0.351 N 
ATOM      5  C   UNL A   1      33.592  25.937  24.836  1.00  0.00     0.281 C 
ATOM      6  O   UNL A   1      33.748  27.162  25.011  1.00  0.00    -0.268 OA
ATOM      7  H   UNL A   1      35.359  25.696  25.678  1.00  0.00     0.163 HD
BRANCH   5   8
ATOM      8  C   UNL A   1      32.288  25.422  24.054  1.00  0.00     0.178 C 
ATOM      9  C   UNL A   1      32.696  24.322  23.053  1.00  0.00     0.079 C 
ATOM     10  C   UNL A   1      31.545  26.505  23.201  1.00  0.00     0.061 C 
ATOM     11  C   UNL A   1      32.847  24.986  21.698  1.00  0.00     0.008 C 
ATOM     12  C   UNL A   1      31.899  26.178  21.718  1.00  0.00     0.011 C 
BRANCH   8  13
ATOM     13  N   UNL A   1      31.392  24.977  25.155  1.00  0.00    -0.336 N 
ATOM     14  C   UNL A   1      31.006  23.587  25.241  1.00  0.00     0.331 C 
ATOM     15  H   UNL A   1      31.861  25.208  26.032  1.00  0.00     0.346 HD
ATOM     16  H   UNL A   1      30.514  25.457  24.960  1.00  0.00     0.346 HD
ENDBRANCH   8  13
BRANCH  10  17
ATOM     17  C   UNL A   1      29.989  26.549  23.263  1.00  0.00     0.022 C 
BRANCH  17  18
ATOM     18  C   UNL A   1      29.246  27.862  23.552  1.00  0.00     0.079 C 
BRANCH  18  19
ATOM     19  S   UNL A   1      30.287  29.346  23.517  1.00  0.00    -0.088 SA
BRANCH  19  20
ATOM     20  C   UNL A   1      29.366  30.402  22.504  1.00  0.00     0.168 A 
ATOM     21  N   UNL A   1      28.794  30.046  21.404  1.00  0.00    -0.233 NA
ATOM     22  N   UNL A   1      29.329  31.659  23.015  1.00  0.00    -0.301 N 
ATOM     23  C   UNL A   1      28.081  31.019  20.752  1.00  0.00     0.120 A 
ATOM     24  C   UNL A   1      28.633  32.657  22.415  1.00  0.00     0.251 A 
ATOM     25  H   UNL A   1      29.821  31.851  23.846  1.00  0.00     0.172 HD
ATOM     26  C   UNL A   1      27.945  32.281  21.173  1.00  0.00     0.091 A 
ATOM     27  O   UNL A   1      28.561  33.795  22.868  1.00  0.00    -0.269 OA
ENDBRANCH  19  20
ENDBRANCH  18  19
ENDBRANCH  17  18
ENDBRANCH  10  17
ENDBRANCH   5   8
ENDBRANCH   3   4
ENDBRANCH   2   3
ENDBRANCH   1   2
BRANCH   1  28
ATOM     28  C   UNL A   1      37.357  21.144  24.388  1.00  0.00     0.002 C 
BRANCH  28  29
ATOM     29  C   UNL A   1      38.095  20.053  25.172  1.00  0.00     0.021 C 
BRANCH  29  30
ATOM     30  C   UNL A   1      39.325  20.528  25.935  1.00  0.00     0.116 C 
BRANCH  30  31
ATOM     31  N   UNL A   1      40.354  19.504  25.998  1.00  0.00    -0.352 N 
ATOM     32  C   UNL A   1      41.717  19.639  26.053  1.00  0.00     0.251 C 
ATOM     33  H   UNL A   1      40.023  18.576  26.000  1.00  0.00     0.163 HD
ATOM     34  O   UNL A   1      42.436  18.663  25.863  1.00  0.00    -0.269 OA
BRANCH  32  35
ATOM     35  C   UNL A   1      42.317  20.962  26.329  1.00  0.00     0.039 A 
ATOM     36  C   UNL A   1      42.627  21.802  25.256  1.00  0.00     0.014 A 
ATOM     37  C   UNL A   1      42.592  21.367  27.638  1.00  0.00     0.014 A 
ATOM     38  C   UNL A   1      43.164  23.067  25.500  1.00  0.00     0.010 A 
ATOM     39  C   UNL A   1      43.053  22.657  27.884  1.00  0.00     0.010 A 
ATOM     40  C   UNL A   1      43.353  23.518  26.817  1.00  0.00    -0.014 A 
BRANCH  40  41
ATOM     41  C   UNL A   1      43.862  24.886  27.096  1.00  0.00     0.031 A 
ATOM     42  C   UNL A   1      45.322  25.203  26.916  1.00  0.00     0.074 A 
ATOM     43  C   UNL A   1      43.019  25.825  27.568  1.00  0.00     0.049 A 
ATOM     44  N   UNL A   1      45.957  26.322  27.152  1.00  0.00    -0.248 NA
ATOM     45  C   UNL A   1      46.186  24.115  26.428  1.00  0.00     0.031 C 
ATOM     46  C   UNL A   1      41.589  25.628  27.825  1.00  0.00     0.029 A 
ATOM     47  N   UNL A   1      43.241  27.132  27.923  1.00  0.00    -0.354 N 
ATOM     48  C   UNL A   1      47.293  26.069  26.859  1.00  0.00     0.074 A 
ATOM     49  C   UNL A   1      47.384  24.677  26.479  1.00  0.00     0.031 C 
ATOM     50  C   UNL A   1      41.060  26.779  28.269  1.00  0.00     0.029 A 
ATOM     51  C   UNL A   1      42.116  27.781  28.374  1.00  0.00     0.049 A 
ATOM     52  H   UNL A   1      44.124  27.565  27.860  1.00  0.00     0.167 HD
ATOM     53  C   UNL A   1      48.344  26.923  26.886  1.00  0.00     0.031 A 
ATOM     54  C   UNL A   1      41.952  29.038  28.831  1.00  0.00     0.031 A 
ATOM     55  C   UNL A   1      48.245  28.309  27.263  1.00  0.00     0.049 A 
ATOM     56  C   UNL A   1      43.138  29.964  28.869  1.00  0.00     0.074 A 
ATOM     57  C   UNL A   1      49.240  29.271  27.270  1.00  0.00     0.029 A 
ATOM     58  N   UNL A   1      47.086  28.929  27.707  1.00  0.00    -0.354 N 
ATOM     59  N   UNL A   1      44.378  29.726  28.517  1.00  0.00    -0.248 NA
ATOM     60  C   UNL A   1      42.897  31.330  29.353  1.00  0.00     0.031 C 
ATOM     61  C   UNL A   1      48.698  30.456  27.779  1.00  0.00     0.029 A 
ATOM     62  C   UNL A   1      47.348  30.252  28.021  1.00  0.00     0.049 A 
ATOM     63  H   UNL A   1      46.207  28.492  27.788  1.00  0.00     0.167 HD
ATOM     64  C   UNL A   1      45.062  30.921  28.712  1.00  0.00     0.074 A 
ATOM     65  C   UNL A   1      44.092  31.883  29.194  1.00  0.00     0.031 C 
ATOM     66  C   UNL A   1      46.374  31.198  28.506  1.00  0.00     0.031 A 
BRANCH  53  67
ATOM     67  C   UNL A   1      49.699  26.377  26.511  1.00  0.00    -0.014 A 
ATOM     68  C   UNL A   1      50.168  26.431  25.186  1.00  0.00     0.010 A 
ATOM     69  C   UNL A   1      50.532  25.832  27.506  1.00  0.00     0.010 A 
ATOM     70  C   UNL A   1      51.422  25.911  24.855  1.00  0.00     0.020 A 
ATOM     71  C   UNL A   1      51.801  25.340  27.185  1.00  0.00     0.020 A 
ATOM     72  C   UNL A   1      52.229  25.366  25.857  1.00  0.00     0.054 A 
BRANCH  72  73
ATOM     73  S   UNL A   1      53.860  24.715  25.401  1.00  0.00     0.124 S 
ATOM     74  O   UNL A   1      54.613  24.898  26.639  1.00  0.00    -0.237 OA
ATOM     75  O   UNL A   1      53.562  23.330  25.046  1.00  0.00    -0.237 OA
ATOM     76  O   UNL A   1      54.275  25.566  24.289  1.00  0.00    -0.744 OA
ENDBRANCH  72  73
ENDBRANCH  53  67
BRANCH  54  77
ATOM     77  C   UNL A   1      40.607  29.492  29.286  1.00  0.00    -0.014 A 
ATOM     78  C   UNL A   1      39.620  29.858  28.354  1.00  0.00     0.010 A 
ATOM     79  C   UNL A   1      40.303  29.545  30.658  1.00  0.00     0.010 A 
ATOM     80  C   UNL A   1      38.361  30.285  28.787  1.00  0.00     0.020 A 
ATOM     81  C   UNL A   1      39.035  29.940  31.094  1.00  0.00     0.020 A 
ATOM     82  C   UNL A   1      38.076  30.319  30.154  1.00  0.00     0.054 A 
BRANCH  82  83
ATOM     83  S   UNL A   1      36.417  30.824  30.690  1.00  0.00     0.124 S 
ATOM     84  O   UNL A   1      36.184  29.941  31.829  1.00  0.00    -0.237 OA
ATOM     85  O   UNL A   1      36.608  32.236  31.013  1.00  0.00    -0.237 OA
ATOM     86  O   UNL A   1      35.585  30.568  29.518  1.00  0.00    -0.744 OA
ENDBRANCH  82  83
ENDBRANCH  54  77
BRANCH  66  87
ATOM     87  C   UNL A   1      46.836  32.608  28.767  1.00  0.00    -0.014 A 
ATOM     88  C   UNL A   1      47.355  32.990  30.017  1.00  0.00     0.010 A 
ATOM     89  C   UNL A   1      46.802  33.551  27.723  1.00  0.00     0.010 A 
ATOM     90  C   UNL A   1      47.800  34.298  30.227  1.00  0.00     0.020 A 
ATOM     91  C   UNL A   1      47.276  34.850  27.919  1.00  0.00     0.020 A 
ATOM     92  C   UNL A   1      47.760  35.220  29.175  1.00  0.00     0.054 A 
BRANCH  92  93
ATOM     93  S   UNL A   1      48.386  36.897  29.461  1.00  0.00     0.124 S 
ATOM     94  O   UNL A   1      49.798  36.651  29.740  1.00  0.00    -0.237 OA
ATOM     95  O   UNL A   1      48.103  37.564  28.192  1.00  0.00    -0.237 OA
ATOM     96  O   UNL A   1      47.601  37.373  30.598  1.00  0.00    -0.744 OA
ENDBRANCH  92  93
ENDBRANCH  66  87
ENDBRANCH  40  41
ENDBRANCH  32  35
ENDBRANCH  30  31
ENDBRANCH  29  30
ENDBRANCH  28  29
ENDBRANCH   1  28
TORSDOF 21
ENDMDL
MODEL 3
REMARK VINA RESULT:     -10.4      1.816      3.606
REMARK SMILES C[NH2+][C@@]1(C(=O)NCCCCCCNC(=O)c2ccc(-c3c4nc(c(-c5ccc(S(=O)(=O)[O-])cc5)c5ccc([nH]5)c(-c5ccc(S(=O)(=O)[O-])cc5)c5nc(c(-c6ccc(S(=O)(=O)[O-])cc6)c6ccc3[nH]6)C=C5)C=C4)cc2)CCC[C@H]1CCSc1nccc(=O)[nH]1
REMARK SMILES IDX 9 1 8 2 7 3 6 4 4 5 5 6 3 8 76 9 79 10 77 11 78 12 2 13 1 14
REMARK SMILES IDX 80 17 81 18 82 19 83 20 84 21 89 22 85 23 87 24 86 26 88 27
REMARK SMILES IDX 10 28 11 29 12 30 13 31 14 32 15 34 16 35 17 36 75 37 18 38
REMARK SMILES IDX 74 39 19 40 20 41 21 42 68 43 22 44 73 45 67 46 69 47 23 48
REMARK SMILES IDX 72 49 66 50 65 51 24 53 54 54 35 55 53 56 36 57 39 58 52 59
REMARK SMILES IDX 70 60 37 61 38 62 51 64 71 65 40 66 25 67 26 68 34 69 27 70
REMARK SMILES IDX 33 71 28 72 29 73 30 74 31 75 32 76 55 77 56 78 64 79 57 80
REMARK SMILES IDX 63 81 58 82 59 83 60 84 61 85 62 86 41 87 42 88 50 89 43 90
REMARK SMILES IDX 49 91 44 92 45 93 46 94 47 95 48 96
REMARK H PARENT 6 7 2 15 2 16 89 25 13 33 69 52 39 63
REMARK Flexibility Score: inf
ROOT
ATOM      1  C   UNL A   1      36.706  22.011  25.472  1.00  0.00     0.002 C 
ENDROOT
BRANCH   1   2
ATOM      2  C   UNL A   1      36.073  23.265  24.873  1.00  0.00     0.021 C 
BRANCH   2   3
ATOM      3  C   UNL A   1      35.005  23.929  25.729  1.00  0.00     0.116 C 
BRANCH   3   4
ATOM      4  N   UNL A   1      34.660  25.265  25.322  1.00  0.00    -0.351 N 
ATOM      5  C   UNL A   1      33.665  25.753  24.543  1.00  0.00     0.281 C 
ATOM      6  O   UNL A   1      33.556  26.994  24.586  1.00  0.00    -0.268 OA
ATOM      7  H   UNL A   1      35.263  25.957  25.680  1.00  0.00     0.163 HD
BRANCH   5   8
ATOM      8  C   UNL A   1      32.644  24.912  23.632  1.00  0.00     0.178 C 
ATOM      9  C   UNL A   1      31.260  25.592  23.658  1.00  0.00     0.079 C 
ATOM     10  C   UNL A   1      32.391  23.438  24.092  1.00  0.00     0.061 C 
ATOM     11  C   UNL A   1      30.425  24.865  24.693  1.00  0.00     0.008 C 
ATOM     12  C   UNL A   1      30.968  23.442  24.731  1.00  0.00     0.011 C 
BRANCH   8  13
ATOM     13  N   UNL A   1      33.317  24.895  22.304  1.00  0.00    -0.336 N 
ATOM     14  C   UNL A   1      32.785  25.696  21.226  1.00  0.00     0.331 C 
ATOM     15  H   UNL A   1      34.279  25.204  22.455  1.00  0.00     0.346 HD
ATOM     16  H   UNL A   1      33.184  23.938  21.980  1.00  0.00     0.346 HD
ENDBRANCH   8  13
BRANCH  10  17
ATOM     17  C   UNL A   1      32.361  22.323  23.004  1.00  0.00     0.022 C 
BRANCH  17  18
ATOM     18  C   UNL A   1      32.332  20.838  23.395  1.00  0.00     0.079 C 
BRANCH  18  19
ATOM     19  S   UNL A   1      33.305  20.421  24.866  1.00  0.00    -0.088 SA
BRANCH  19  20
ATOM     20  C   UNL A   1      33.170  18.698  24.905  1.00  0.00     0.168 A 
ATOM     21  N   UNL A   1      32.566  18.032  25.829  1.00  0.00    -0.233 NA
ATOM     22  N   UNL A   1      33.791  18.136  23.836  1.00  0.00    -0.301 N 
ATOM     23  C   UNL A   1      32.538  16.670  25.672  1.00  0.00     0.120 A 
ATOM     24  C   UNL A   1      33.788  16.795  23.629  1.00  0.00     0.251 A 
ATOM     25  H   UNL A   1      34.256  18.719  23.194  1.00  0.00     0.172 HD
ATOM     26  C   UNL A   1      33.084  16.006  24.648  1.00  0.00     0.091 A 
ATOM     27  O   UNL A   1      34.317  16.263  22.659  1.00  0.00    -0.269 OA
ENDBRANCH  19  20
ENDBRANCH  18  19
ENDBRANCH  17  18
ENDBRANCH  10  17
ENDBRANCH   5   8
ENDBRANCH   3   4
ENDBRANCH   2   3
ENDBRANCH   1   2
BRANCH   1  28
ATOM     28  C   UNL A   1      37.314  21.032  24.461  1.00  0.00     0.002 C 
BRANCH  28  29
ATOM     29  C   UNL A   1      38.232  19.952  25.045  1.00  0.00     0.021 C 
BRANCH  29  30
ATOM     30  C   UNL A   1      39.376  20.475  25.905  1.00  0.00     0.116 C 
BRANCH  30  31
ATOM     31  N   UNL A   1      40.388  19.459  26.137  1.00  0.00    -0.352 N 
ATOM     32  C   UNL A   1      41.742  19.598  26.305  1.00  0.00     0.251 C 
ATOM     33  H   UNL A   1      40.052  18.534  26.181  1.00  0.00     0.163 HD
ATOM     34  O   UNL A   1      42.468  18.610  26.255  1.00  0.00    -0.269 OA
BRANCH  32  35
ATOM     35  C   UNL A   1      42.324  20.938  26.532  1.00  0.00     0.039 A 
ATOM     36  C   UNL A   1      42.626  21.740  25.428  1.00  0.00     0.014 A 
ATOM     37  C   UNL A   1      42.589  21.397  27.825  1.00  0.00     0.014 A 
ATOM     38  C   UNL A   1      43.146  23.020  25.625  1.00  0.00     0.010 A 
ATOM     39  C   UNL A   1      43.033  22.701  28.022  1.00  0.00     0.010 A 
ATOM     40  C   UNL A   1      43.325  23.524  26.924  1.00  0.00    -0.014 A 
BRANCH  40  41
ATOM     41  C   UNL A   1      43.816  24.908  27.152  1.00  0.00     0.031 A 
ATOM     42  C   UNL A   1      45.262  25.248  26.918  1.00  0.00     0.074 A 
ATOM     43  C   UNL A   1      42.969  25.844  27.626  1.00  0.00     0.049 A 
ATOM     44  N   UNL A   1      45.883  26.385  27.106  1.00  0.00    -0.248 NA
ATOM     45  C   UNL A   1      46.133  24.164  26.431  1.00  0.00     0.031 C 
ATOM     46  C   UNL A   1      41.552  25.627  27.933  1.00  0.00     0.029 A 
ATOM     47  N   UNL A   1      43.176  27.163  27.940  1.00  0.00    -0.354 N 
ATOM     48  C   UNL A   1      47.213  26.149  26.777  1.00  0.00     0.074 A 
ATOM     49  C   UNL A   1      47.320  24.750  26.430  1.00  0.00     0.031 C 
ATOM     50  C   UNL A   1      41.014  26.778  28.363  1.00  0.00     0.029 A 
ATOM     51  C   UNL A   1      42.053  27.803  28.410  1.00  0.00     0.049 A 
ATOM     52  H   UNL A   1      44.047  27.611  27.839  1.00  0.00     0.167 HD
ATOM     53  C   UNL A   1      48.248  27.024  26.749  1.00  0.00     0.031 A 
ATOM     54  C   UNL A   1      41.878  29.067  28.839  1.00  0.00     0.031 A 
ATOM     55  C   UNL A   1      48.133  28.417  27.094  1.00  0.00     0.049 A 
ATOM     56  C   UNL A   1      43.046  30.016  28.816  1.00  0.00     0.074 A 
ATOM     57  C   UNL A   1      49.109  29.397  27.044  1.00  0.00     0.029 A 
ATOM     58  N   UNL A   1      46.977  29.026  27.558  1.00  0.00    -0.354 N 
ATOM     59  N   UNL A   1      44.280  29.793  28.432  1.00  0.00    -0.248 NA
ATOM     60  C   UNL A   1      42.794  31.389  29.273  1.00  0.00     0.031 C 
ATOM     61  C   UNL A   1      48.559  30.584  27.541  1.00  0.00     0.029 A 
ATOM     62  C   UNL A   1      47.222  30.362  27.830  1.00  0.00     0.049 A 
ATOM     63  H   UNL A   1      46.109  28.575  27.678  1.00  0.00     0.167 HD
ATOM     64  C   UNL A   1      44.945  31.006  28.574  1.00  0.00     0.074 A 
ATOM     65  C   UNL A   1      43.972  31.961  29.062  1.00  0.00     0.031 C 
ATOM     66  C   UNL A   1      46.244  31.301  28.320  1.00  0.00     0.031 A 
BRANCH  53  67
ATOM     67  C   UNL A   1      49.600  26.493  26.346  1.00  0.00    -0.014 A 
ATOM     68  C   UNL A   1      50.099  26.675  25.043  1.00  0.00     0.010 A 
ATOM     69  C   UNL A   1      50.403  25.834  27.295  1.00  0.00     0.010 A 
ATOM     70  C   UNL A   1      51.351  26.168  24.684  1.00  0.00     0.020 A 
ATOM     71  C   UNL A   1      51.670  25.354  26.950  1.00  0.00     0.020 A 
ATOM     72  C   UNL A   1      52.127  25.508  25.640  1.00  0.00     0.054 A 
BRANCH  72  73
ATOM     73  S   UNL A   1      53.756  24.877  25.151  1.00  0.00     0.124 S 
ATOM     74  O   UNL A   1      54.607  25.375  26.229  1.00  0.00    -0.237 OA
ATOM     75  O   UNL A   1      53.546  23.431  25.134  1.00  0.00    -0.237 OA
ATOM     76  O   UNL A   1      53.986  25.486  23.844  1.00  0.00    -0.744 OA
ENDBRANCH  72  73
ENDBRANCH  53  67
BRANCH  54  77
ATOM     77  C   UNL A   1      40.540  29.508  29.324  1.00  0.00    -0.014 A 
ATOM     78  C   UNL A   1      39.486  29.729  28.420  1.00  0.00     0.010 A 
ATOM     79  C   UNL A   1      40.309  29.692  30.699  1.00  0.00     0.010 A 
ATOM     80  C   UNL A   1      38.232  30.144  28.881  1.00  0.00     0.020 A 
ATOM     81  C   UNL A   1      39.049  30.076  31.167  1.00  0.00     0.020 A 
ATOM     82  C   UNL A   1      38.021  30.310  30.252  1.00  0.00     0.054 A 
BRANCH  82  83
ATOM     83  S   UNL A   1      36.372  30.797  30.831  1.00  0.00     0.124 S 
ATOM     84  O   UNL A   1      35.619  30.863  29.583  1.00  0.00    -0.237 OA
ATOM     85  O   UNL A   1      36.018  29.699  31.728  1.00  0.00    -0.237 OA
ATOM     86  O   UNL A   1      36.605  32.079  31.490  1.00  0.00    -0.744 OA
ENDBRANCH  82  83
ENDBRANCH  54  77
BRANCH  66  87
ATOM     87  C   UNL A   1      46.687  32.727  28.530  1.00  0.00    -0.014 A 
ATOM     88  C   UNL A   1      46.769  33.634  27.460  1.00  0.00     0.010 A 
ATOM     89  C   UNL A   1      46.971  33.178  29.833  1.00  0.00     0.010 A 
ATOM     90  C   UNL A   1      47.158  34.958  27.683  1.00  0.00     0.020 A 
ATOM     91  C   UNL A   1      47.329  34.507  30.066  1.00  0.00     0.020 A 
ATOM     92  C   UNL A   1      47.434  35.386  28.986  1.00  0.00     0.054 A 
BRANCH  92  93
ATOM     93  S   UNL A   1      47.893  37.120  29.255  1.00  0.00     0.124 S 
ATOM     94  O   UNL A   1      47.147  37.447  30.467  1.00  0.00    -0.237 OA
ATOM     95  O   UNL A   1      49.344  37.046  29.410  1.00  0.00    -0.237 OA
ATOM     96  O   UNL A   1      47.435  37.793  28.041  1.00  0.00    -0.744 OA
ENDBRANCH  92  93
ENDBRANCH  66  87
ENDBRANCH  40  41
ENDBRANCH  32  35
ENDBRANCH  30  31
ENDBRANCH  29  30
ENDBRANCH  28  29
ENDBRANCH   1  28
TORSDOF 21
ENDMDL
