MODEL 1
REMARK VINA RESULT:     -10.8      0.000      0.000
REMARK SMILES CSCc1ccc(C(=O)N[C@H]2C=C[C@@H](C(=O)NCCCCCCNC(=O)c3ccc(-c4c5nc(c(-c6ccc(S(=O)(=O)[O-])cc6)c6ccc([nH]6)c(-c6ccc(S(=O)(=O)[O-])cc6)c6nc(c(-c7ccc(S(=O)(=O)[O-])cc7)c7ccc4[nH]7)C=C6)C=C5)cc3)C2)o1
REMARK SMILES IDX 20 1 19 2 18 3 17 4 15 5 16 6 14 8 11 9 12 10 87 11 13 12
REMARK SMILES IDX 10 13 8 14 9 15 7 17 4 18 5 19 88 20 6 21 3 22 2 23 1 24
REMARK SMILES IDX 21 25 22 26 23 27 24 28 25 29 26 31 27 32 28 33 86 34 29 35
REMARK SMILES IDX 85 36 30 37 31 38 32 39 79 40 33 41 84 42 78 43 80 44 34 45
REMARK SMILES IDX 83 46 77 47 76 48 35 50 65 51 46 52 64 53 47 54 50 55 63 56
REMARK SMILES IDX 81 57 48 58 49 59 62 61 82 62 51 63 36 64 37 65 45 66 38 67
REMARK SMILES IDX 44 68 39 69 40 70 41 71 42 72 43 73 66 74 67 75 75 76 68 77
REMARK SMILES IDX 74 78 69 79 70 80 71 81 72 82 73 83 52 84 53 85 61 86 54 87
REMARK SMILES IDX 60 88 55 89 56 90 57 91 58 92 59 93
REMARK H PARENT 17 7 10 16 24 30 80 49 50 60
REMARK Flexibility Score: inf
ROOT
ATOM      1  C   UNL A   1      33.436  29.110  27.073  1.00  0.00     0.002 C 
ENDROOT
BRANCH   1   2
ATOM      2  C   UNL A   1      32.586  29.920  26.092  1.00  0.00     0.021 C 
BRANCH   2   3
ATOM      3  C   UNL A   1      31.602  29.068  25.295  1.00  0.00     0.116 C 
BRANCH   3   4
ATOM      4  N   UNL A   1      30.899  29.877  24.317  1.00  0.00    -0.356 N 
ATOM      5  C   UNL A   1      30.142  29.517  23.246  1.00  0.00     0.227 C 
ATOM      6  O   UNL A   1      29.685  30.418  22.536  1.00  0.00    -0.274 OA
ATOM      7  H   UNL A   1      30.983  30.848  24.450  1.00  0.00     0.163 HD
BRANCH   5   8
ATOM      8  C   UNL A   1      29.815  28.058  22.940  1.00  0.00     0.103 C 
ATOM      9  C   UNL A   1      29.653  25.899  24.065  1.00  0.00     0.106 C 
ATOM     10  C   UNL A   1      28.325  26.586  23.984  1.00  0.00    -0.006 C 
ATOM     11  C   UNL A   1      30.648  27.009  23.691  1.00  0.00     0.047 C 
ATOM     12  C   UNL A   1      28.402  27.742  23.321  1.00  0.00    -0.016 C 
BRANCH   9  13
ATOM     13  N   UNL A   1      29.826  25.354  25.384  1.00  0.00    -0.343 N 
ATOM     14  C   UNL A   1      30.652  24.332  25.807  1.00  0.00     0.287 C 
ATOM     15  O   UNL A   1      30.656  24.128  27.026  1.00  0.00    -0.266 OA
ATOM     16  H   UNL A   1      29.274  25.769  26.087  1.00  0.00     0.164 HD
BRANCH  14  17
ATOM     17  C   UNL A   1      31.456  23.557  24.868  1.00  0.00     0.191 A 
ATOM     18  C   UNL A   1      33.225  22.311  24.346  1.00  0.00     0.114 A 
ATOM     19  C   UNL A   1      32.451  22.377  23.212  1.00  0.00     0.047 A 
ATOM     20  O   UNL A   1      32.638  23.031  25.343  1.00  0.00    -0.455 OA
ATOM     21  C   UNL A   1      31.334  23.174  23.541  1.00  0.00     0.056 A 
BRANCH  18  22
ATOM     22  C   UNL A   1      34.535  21.647  24.582  1.00  0.00     0.144 C 
BRANCH  22  23
ATOM     23  S   UNL A   1      35.984  22.722  24.692  1.00  0.00    -0.157 SA
ATOM     24  C   UNL A   1      37.285  21.469  24.579  1.00  0.00     0.085 C 
ENDBRANCH  22  23
ENDBRANCH  18  22
ENDBRANCH  14  17
ENDBRANCH   9  13
ENDBRANCH   5   8
ENDBRANCH   3   4
ENDBRANCH   2   3
ENDBRANCH   1   2
BRANCH   1  25
ATOM     25  C   UNL A   1      34.721  29.808  27.526  1.00  0.00     0.002 C 
BRANCH  25  26
ATOM     26  C   UNL A   1      34.544  31.270  27.945  1.00  0.00     0.021 C 
BRANCH  26  27
ATOM     27  C   UNL A   1      35.661  31.812  28.834  1.00  0.00     0.116 C 
BRANCH  27  28
ATOM     28  N   UNL A   1      35.549  31.320  30.196  1.00  0.00    -0.352 N 
ATOM     29  C   UNL A   1      36.413  30.531  30.911  1.00  0.00     0.251 C 
ATOM     30  H   UNL A   1      34.733  31.591  30.676  1.00  0.00     0.163 HD
ATOM     31  O   UNL A   1      36.043  30.030  31.970  1.00  0.00    -0.269 OA
BRANCH  29  32
ATOM     32  C   UNL A   1      37.776  30.276  30.402  1.00  0.00     0.039 A 
ATOM     33  C   UNL A   1      38.806  30.068  31.321  1.00  0.00     0.014 A 
ATOM     34  C   UNL A   1      38.046  30.262  29.030  1.00  0.00     0.014 A 
ATOM     35  C   UNL A   1      40.096  29.797  30.862  1.00  0.00     0.010 A 
ATOM     36  C   UNL A   1      39.316  29.918  28.574  1.00  0.00     0.010 A 
ATOM     37  C   UNL A   1      40.358  29.688  29.485  1.00  0.00    -0.014 A 
BRANCH  37  38
ATOM     38  C   UNL A   1      41.711  29.317  28.998  1.00  0.00     0.031 A 
ATOM     39  C   UNL A   1      42.805  30.348  28.912  1.00  0.00     0.074 A 
ATOM     40  C   UNL A   1      41.942  28.049  28.601  1.00  0.00     0.049 A 
ATOM     41  N   UNL A   1      44.045  30.199  28.520  1.00  0.00    -0.248 NA
ATOM     42  C   UNL A   1      42.463  31.728  29.296  1.00  0.00     0.031 C 
ATOM     43  C   UNL A   1      40.948  26.972  28.586  1.00  0.00     0.029 A 
ATOM     44  N   UNL A   1      43.084  27.449  28.134  1.00  0.00    -0.354 N 
ATOM     45  C   UNL A   1      44.623  31.461  28.597  1.00  0.00     0.074 A 
ATOM     46  C   UNL A   1      43.589  32.374  29.030  1.00  0.00     0.031 C 
ATOM     47  C   UNL A   1      41.532  25.838  28.167  1.00  0.00     0.029 A 
ATOM     48  C   UNL A   1      42.927  26.113  27.841  1.00  0.00     0.049 A 
ATOM     49  H   UNL A   1      43.936  27.929  28.018  1.00  0.00     0.167 HD
ATOM     50  C   UNL A   1      45.905  31.821  28.348  1.00  0.00     0.031 A 
ATOM     51  C   UNL A   1      43.804  25.212  27.358  1.00  0.00     0.031 A 
ATOM     52  C   UNL A   1      46.934  30.906  27.929  1.00  0.00     0.049 A 
ATOM     53  C   UNL A   1      45.220  25.644  27.090  1.00  0.00     0.074 A 
ATOM     54  C   UNL A   1      48.278  31.165  27.717  1.00  0.00     0.029 A 
ATOM     55  N   UNL A   1      46.737  29.562  27.651  1.00  0.00    -0.354 N 
ATOM     56  N   UNL A   1      45.770  26.823  27.258  1.00  0.00    -0.248 NA
ATOM     57  C   UNL A   1      46.140  24.617  26.582  1.00  0.00     0.031 C 
ATOM     58  C   UNL A   1      48.879  29.992  27.249  1.00  0.00     0.029 A 
ATOM     59  C   UNL A   1      47.927  28.986  27.238  1.00  0.00     0.049 A 
ATOM     60  H   UNL A   1      45.879  29.088  27.734  1.00  0.00     0.167 HD
ATOM     61  C   UNL A   1      47.105  26.673  26.901  1.00  0.00     0.074 A 
ATOM     62  C   UNL A   1      47.286  25.283  26.535  1.00  0.00     0.031 C 
ATOM     63  C   UNL A   1      48.092  27.602  26.874  1.00  0.00     0.031 A 
BRANCH  50  64
ATOM     64  C   UNL A   1      46.279  33.272  28.518  1.00  0.00    -0.014 A 
ATOM     65  C   UNL A   1      46.160  34.185  27.456  1.00  0.00     0.010 A 
ATOM     66  C   UNL A   1      46.668  33.745  29.786  1.00  0.00     0.010 A 
ATOM     67  C   UNL A   1      46.443  35.540  27.652  1.00  0.00     0.020 A 
ATOM     68  C   UNL A   1      46.924  35.104  29.992  1.00  0.00     0.020 A 
ATOM     69  C   UNL A   1      46.817  35.992  28.921  1.00  0.00     0.054 A 
BRANCH  69  70
ATOM     70  S   UNL A   1      47.114  37.766  29.158  1.00  0.00     0.124 S 
ATOM     71  O   UNL A   1      47.511  38.188  27.818  1.00  0.00    -0.237 OA
ATOM     72  O   UNL A   1      45.811  38.249  29.608  1.00  0.00    -0.237 OA
ATOM     73  O   UNL A   1      48.173  37.810  30.163  1.00  0.00    -0.744 OA
ENDBRANCH  69  70
ENDBRANCH  50  64
BRANCH  51  74
ATOM     74  C   UNL A   1      43.371  23.811  27.093  1.00  0.00    -0.014 A 
ATOM     75  C   UNL A   1      43.188  23.348  25.777  1.00  0.00     0.010 A 
ATOM     76  C   UNL A   1      43.119  22.934  28.164  1.00  0.00     0.010 A 
ATOM     77  C   UNL A   1      42.726  22.050  25.540  1.00  0.00     0.020 A 
ATOM     78  C   UNL A   1      42.689  21.624  27.931  1.00  0.00     0.020 A 
ATOM     79  C   UNL A   1      42.477  21.198  26.619  1.00  0.00     0.054 A 
BRANCH  79  80
ATOM     80  S   UNL A   1      41.896  19.512  26.287  1.00  0.00     0.124 S 
ATOM     81  O   UNL A   1      42.336  18.798  27.481  1.00  0.00    -0.237 OA
ATOM     82  O   UNL A   1      40.453  19.695  26.153  1.00  0.00    -0.237 OA
ATOM     83  O   UNL A   1      42.587  19.149  25.051  1.00  0.00    -0.744 OA
ENDBRANCH  79  80
ENDBRANCH  51  74
BRANCH  63  84
ATOM     84  C   UNL A   1      49.467  27.137  26.469  1.00  0.00    -0.014 A 
ATOM     85  C   UNL A   1      49.904  27.216  25.135  1.00  0.00     0.010 A 
ATOM     86  C   UNL A   1      50.348  26.642  27.448  1.00  0.00     0.010 A 
ATOM     87  C   UNL A   1      51.177  26.764  24.780  1.00  0.00     0.020 A 
ATOM     88  C   UNL A   1      51.635  26.223  27.104  1.00  0.00     0.020 A 
ATOM     89  C   UNL A   1      52.034  26.267  25.767  1.00  0.00     0.054 A 
BRANCH  89  90
ATOM     90  S   UNL A   1      53.690  25.706  25.285  1.00  0.00     0.124 S 
ATOM     91  O   UNL A   1      53.475  25.274  23.907  1.00  0.00    -0.237 OA
ATOM     92  O   UNL A   1      54.496  26.914  25.445  1.00  0.00    -0.237 OA
ATOM     93  O   UNL A   1      53.986  24.636  26.235  1.00  0.00    -0.744 OA
ENDBRANCH  89  90
ENDBRANCH  63  84
ENDBRANCH  37  38
ENDBRANCH  29  32
ENDBRANCH  27  28
ENDBRANCH  26  27
ENDBRANCH  25  26
ENDBRANCH   1  25
TORSDOF 20
ENDMDL
MODEL 2
REMARK VINA RESULT:     -10.6      1.870      8.767
REMARK SMILES CSCc1ccc(C(=O)N[C@H]2C=C[C@@H](C(=O)NCCCCCCNC(=O)c3ccc(-c4c5nc(c(-c6ccc(S(=O)(=O)[O-])cc6)c6ccc([nH]6)c(-c6ccc(S(=O)(=O)[O-])cc6)c6nc(c(-c7ccc(S(=O)(=O)[O-])cc7)c7ccc4[nH]7)C=C6)C=C5)cc3)C2)o1
REMARK SMILES IDX 20 1 19 2 18 3 17 4 15 5 16 6 14 8 11 9 12 10 87 11 13 12
REMARK SMILES IDX 10 13 8 14 9 15 7 17 4 18 5 19 88 20 6 21 3 22 2 23 1 24
REMARK SMILES IDX 21 25 22 26 23 27 24 28 25 29 26 31 27 32 28 33 86 34 29 35
REMARK SMILES IDX 85 36 30 37 31 38 32 39 79 40 33 41 84 42 78 43 80 44 34 45
REMARK SMILES IDX 83 46 77 47 76 48 35 50 65 51 46 52 64 53 47 54 50 55 63 56
REMARK SMILES IDX 81 57 48 58 49 59 62 61 82 62 51 63 36 64 37 65 45 66 38 67
REMARK SMILES IDX 44 68 39 69 40 70 41 71 42 72 43 73 66 74 67 75 75 76 68 77
REMARK SMILES IDX 74 78 69 79 70 80 71 81 72 82 73 83 52 84 53 85 61 86 54 87
REMARK SMILES IDX 60 88 55 89 56 90 57 91 58 92 59 93
REMARK H PARENT 17 7 10 16 24 30 80 49 50 60
REMARK Flexibility Score: inf
ROOT
ATOM      1  C   UNL A   1      32.331  29.367  27.251  1.00  0.00     0.002 C 
ENDROOT
BRANCH   1   2
ATOM      2  C   UNL A   1      31.597  28.024  27.269  1.00  0.00     0.021 C 
BRANCH   2   3
ATOM      3  C   UNL A   1      32.253  26.963  26.389  1.00  0.00     0.116 C 
BRANCH   3   4
ATOM      4  N   UNL A   1      32.244  25.672  27.050  1.00  0.00    -0.356 N 
ATOM      5  C   UNL A   1      31.561  24.531  26.763  1.00  0.00     0.227 C 
ATOM      6  O   UNL A   1      31.703  23.569  27.524  1.00  0.00    -0.274 OA
ATOM      7  H   UNL A   1      32.830  25.610  27.839  1.00  0.00     0.163 HD
BRANCH   5   8
ATOM      8  C   UNL A   1      30.684  24.404  25.520  1.00  0.00     0.103 C 
ATOM      9  C   UNL A   1      30.848  24.546  23.090  1.00  0.00     0.106 C 
ATOM     10  C   UNL A   1      30.981  23.137  23.576  1.00  0.00    -0.006 C 
ATOM     11  C   UNL A   1      30.996  25.377  24.374  1.00  0.00     0.047 C 
ATOM     12  C   UNL A   1      30.838  23.050  24.900  1.00  0.00    -0.016 C 
BRANCH   9  13
ATOM     13  N   UNL A   1      31.848  24.800  22.088  1.00  0.00    -0.343 N 
ATOM     14  C   UNL A   1      32.427  25.996  21.715  1.00  0.00     0.287 C 
ATOM     15  O   UNL A   1      33.329  25.903  20.874  1.00  0.00    -0.266 OA
ATOM     16  H   UNL A   1      32.164  24.006  21.599  1.00  0.00     0.164 HD
BRANCH  14  17
ATOM     17  C   UNL A   1      31.995  27.268  22.282  1.00  0.00     0.191 A 
ATOM     18  C   UNL A   1      30.500  28.892  22.573  1.00  0.00     0.114 A 
ATOM     19  C   UNL A   1      31.585  29.221  23.351  1.00  0.00     0.047 A 
ATOM     20  O   UNL A   1      30.746  27.723  21.917  1.00  0.00    -0.455 OA
ATOM     21  C   UNL A   1      32.535  28.196  23.159  1.00  0.00     0.056 A 
BRANCH  18  22
ATOM     22  C   UNL A   1      29.222  29.617  22.344  1.00  0.00     0.144 C 
BRANCH  22  23
ATOM     23  S   UNL A   1      29.032  31.213  23.173  1.00  0.00    -0.157 SA
ATOM     24  C   UNL A   1      27.291  31.087  23.650  1.00  0.00     0.085 C 
ENDBRANCH  22  23
ENDBRANCH  18  22
ENDBRANCH  14  17
ENDBRANCH   9  13
ENDBRANCH   5   8
ENDBRANCH   3   4
ENDBRANCH   2   3
ENDBRANCH   1   2
BRANCH   1  25
ATOM     25  C   UNL A   1      33.691  29.337  26.548  1.00  0.00     0.002 C 
BRANCH  25  26
ATOM     26  C   UNL A   1      34.872  28.968  27.449  1.00  0.00     0.021 C 
BRANCH  26  27
ATOM     27  C   UNL A   1      35.627  30.165  28.022  1.00  0.00     0.116 C 
BRANCH  27  28
ATOM     28  N   UNL A   1      35.600  30.171  29.475  1.00  0.00    -0.352 N 
ATOM     29  C   UNL A   1      36.527  29.694  30.365  1.00  0.00     0.251 C 
ATOM     30  H   UNL A   1      34.798  30.574  29.879  1.00  0.00     0.163 HD
ATOM     31  O   UNL A   1      36.229  29.582  31.551  1.00  0.00    -0.269 OA
BRANCH  29  32
ATOM     32  C   UNL A   1      37.874  29.307  29.895  1.00  0.00     0.039 A 
ATOM     33  C   UNL A   1      38.255  29.651  28.597  1.00  0.00     0.014 A 
ATOM     34  C   UNL A   1      38.750  28.590  30.717  1.00  0.00     0.014 A 
ATOM     35  C   UNL A   1      39.532  29.320  28.142  1.00  0.00     0.010 A 
ATOM     36  C   UNL A   1      40.048  28.328  30.288  1.00  0.00     0.010 A 
ATOM     37  C   UNL A   1      40.452  28.684  28.993  1.00  0.00    -0.014 A 
BRANCH  37  38
ATOM     38  C   UNL A   1      41.839  28.406  28.538  1.00  0.00     0.031 A 
ATOM     39  C   UNL A   1      42.229  27.034  28.057  1.00  0.00     0.074 A 
ATOM     40  C   UNL A   1      42.757  29.392  28.591  1.00  0.00     0.049 A 
ATOM     41  N   UNL A   1      43.388  26.617  27.616  1.00  0.00    -0.248 NA
ATOM     42  C   UNL A   1      41.193  25.987  28.093  1.00  0.00     0.031 C 
ATOM     43  C   UNL A   1      42.515  30.750  29.087  1.00  0.00     0.029 A 
ATOM     44  N   UNL A   1      44.079  29.408  28.223  1.00  0.00    -0.354 N 
ATOM     45  C   UNL A   1      43.226  25.265  27.335  1.00  0.00     0.074 A 
ATOM     46  C   UNL A   1      41.870  24.919  27.698  1.00  0.00     0.031 C 
ATOM     47  C   UNL A   1      43.639  31.473  28.961  1.00  0.00     0.029 A 
ATOM     48  C   UNL A   1      44.693  30.625  28.417  1.00  0.00     0.049 A 
ATOM     49  H   UNL A   1      44.546  28.623  27.855  1.00  0.00     0.167 HD
ATOM     50  C   UNL A   1      44.121  24.397  26.807  1.00  0.00     0.031 A 
ATOM     51  C   UNL A   1      45.962  31.013  28.190  1.00  0.00     0.031 A 
ATOM     52  C   UNL A   1      45.467  24.750  26.436  1.00  0.00     0.049 A 
ATOM     53  C   UNL A   1      46.933  30.024  27.602  1.00  0.00     0.074 A 
ATOM     54  C   UNL A   1      46.426  23.956  25.830  1.00  0.00     0.029 A 
ATOM     55  N   UNL A   1      46.047  25.992  26.641  1.00  0.00    -0.354 N 
ATOM     56  N   UNL A   1      46.732  28.775  27.258  1.00  0.00    -0.248 NA
ATOM     57  C   UNL A   1      48.300  30.505  27.357  1.00  0.00     0.031 C 
ATOM     58  C   UNL A   1      47.606  24.699  25.728  1.00  0.00     0.029 A 
ATOM     59  C   UNL A   1      47.361  25.977  26.204  1.00  0.00     0.049 A 
ATOM     60  H   UNL A   1      45.593  26.769  27.039  1.00  0.00     0.167 HD
ATOM     61  C   UNL A   1      47.939  28.328  26.733  1.00  0.00     0.074 A 
ATOM     62  C   UNL A   1      48.855  29.449  26.778  1.00  0.00     0.031 C 
ATOM     63  C   UNL A   1      48.262  27.100  26.258  1.00  0.00     0.031 A 
BRANCH  50  64
ATOM     64  C   UNL A   1      43.682  22.971  26.592  1.00  0.00    -0.014 A 
ATOM     65  C   UNL A   1      44.031  22.268  25.425  1.00  0.00     0.010 A 
ATOM     66  C   UNL A   1      42.986  22.295  27.614  1.00  0.00     0.010 A 
ATOM     67  C   UNL A   1      43.678  20.924  25.274  1.00  0.00     0.020 A 
ATOM     68  C   UNL A   1      42.656  20.944  27.478  1.00  0.00     0.020 A 
ATOM     69  C   UNL A   1      42.997  20.269  26.305  1.00  0.00     0.054 A 
BRANCH  69  70
ATOM     70  S   UNL A   1      42.610  18.508  26.106  1.00  0.00     0.124 S 
ATOM     71  O   UNL A   1      43.531  18.113  25.044  1.00  0.00    -0.237 OA
ATOM     72  O   UNL A   1      42.907  17.965  27.429  1.00  0.00    -0.237 OA
ATOM     73  O   UNL A   1      41.196  18.502  25.738  1.00  0.00    -0.744 OA
ENDBRANCH  69  70
ENDBRANCH  50  64
BRANCH  51  74
ATOM     74  C   UNL A   1      46.393  32.401  28.520  1.00  0.00    -0.014 A 
ATOM     75  C   UNL A   1      47.020  32.690  29.746  1.00  0.00     0.010 A 
ATOM     76  C   UNL A   1      46.159  33.449  27.611  1.00  0.00     0.010 A 
ATOM     77  C   UNL A   1      47.368  34.005  30.071  1.00  0.00     0.020 A 
ATOM     78  C   UNL A   1      46.537  34.759  27.918  1.00  0.00     0.020 A 
ATOM     79  C   UNL A   1      47.122  35.031  29.155  1.00  0.00     0.054 A 
BRANCH  79  80
ATOM     80  S   UNL A   1      47.599  36.726  29.590  1.00  0.00     0.124 S 
ATOM     81  O   UNL A   1      47.321  37.448  28.352  1.00  0.00    -0.237 OA
ATOM     82  O   UNL A   1      46.714  37.026  30.712  1.00  0.00    -0.237 OA
ATOM     83  O   UNL A   1      49.014  36.604  29.939  1.00  0.00    -0.744 OA
ENDBRANCH  79  80
ENDBRANCH  51  74
BRANCH  63  84
ATOM     84  C   UNL A   1      49.656  26.914  25.716  1.00  0.00    -0.014 A 
ATOM     85  C   UNL A   1      49.956  27.162  24.364  1.00  0.00     0.010 A 
ATOM     86  C   UNL A   1      50.690  26.516  26.583  1.00  0.00     0.010 A 
ATOM     87  C   UNL A   1      51.252  26.968  23.881  1.00  0.00     0.020 A 
ATOM     88  C   UNL A   1      51.994  26.355  26.112  1.00  0.00     0.020 A 
ATOM     89  C   UNL A   1      52.263  26.562  24.758  1.00  0.00     0.054 A 
BRANCH  89  90
ATOM     90  S   UNL A   1      53.943  26.337  24.111  1.00  0.00     0.124 S 
ATOM     91  O   UNL A   1      53.703  26.228  22.675  1.00  0.00    -0.237 OA
ATOM     92  O   UNL A   1      54.619  27.558  24.543  1.00  0.00    -0.237 OA
ATOM     93  O   UNL A   1      54.405  25.113  24.760  1.00  0.00    -0.744 OA
ENDBRANCH  89  90
ENDBRANCH  63  84
ENDBRANCH  37  38
ENDBRANCH  29  32
ENDBRANCH  27  28
ENDBRANCH  26  27
ENDBRANCH  25  26
ENDBRANCH   1  25
TORSDOF 20
ENDMDL
MODEL 3
REMARK VINA RESULT:     -10.6      2.628      9.246
REMARK SMILES CSCc1ccc(C(=O)N[C@H]2C=C[C@@H](C(=O)NCCCCCCNC(=O)c3ccc(-c4c5nc(c(-c6ccc(S(=O)(=O)[O-])cc6)c6ccc([nH]6)c(-c6ccc(S(=O)(=O)[O-])cc6)c6nc(c(-c7ccc(S(=O)(=O)[O-])cc7)c7ccc4[nH]7)C=C6)C=C5)cc3)C2)o1
REMARK SMILES IDX 20 1 19 2 18 3 17 4 15 5 16 6 14 8 11 9 12 10 87 11 13 12
REMARK SMILES IDX 10 13 8 14 9 15 7 17 4 18 5 19 88 20 6 21 3 22 2 23 1 24
REMARK SMILES IDX 21 25 22 26 23 27 24 28 25 29 26 31 27 32 28 33 86 34 29 35
REMARK SMILES IDX 85 36 30 37 31 38 32 39 79 40 33 41 84 42 78 43 80 44 34 45
REMARK SMILES IDX 83 46 77 47 76 48 35 50 65 51 46 52 64 53 47 54 50 55 63 56
REMARK SMILES IDX 81 57 48 58 49 59 62 61 82 62 51 63 36 64 37 65 45 66 38 67
REMARK SMILES IDX 44 68 39 69 40 70 41 71 42 72 43 73 66 74 67 75 75 76 68 77
REMARK SMILES IDX 74 78 69 79 70 80 71 81 72 82 73 83 52 84 53 85 61 86 54 87
REMARK SMILES IDX 60 88 55 89 56 90 57 91 58 92 59 93
REMARK H PARENT 17 7 10 16 24 30 80 49 50 60
REMARK Flexibility Score: inf
ROOT
ATOM      1  C   UNL A   1      40.440  22.710  26.478  1.00  0.00     0.002 C 
ENDROOT
BRANCH   1   2
ATOM      2  C   UNL A   1      39.263  23.556  26.970  1.00  0.00     0.021 C 
BRANCH   2   3
ATOM      3  C   UNL A   1      38.098  23.603  25.985  1.00  0.00     0.116 C 
BRANCH   3   4
ATOM      4  N   UNL A   1      37.262  22.425  26.123  1.00  0.00    -0.356 N 
ATOM      5  C   UNL A   1      35.971  22.204  25.759  1.00  0.00     0.227 C 
ATOM      6  O   UNL A   1      35.475  21.108  26.035  1.00  0.00    -0.274 OA
ATOM      7  H   UNL A   1      37.703  21.656  26.551  1.00  0.00     0.163 HD
BRANCH   5   8
ATOM      8  C   UNL A   1      35.158  23.243  24.990  1.00  0.00     0.103 C 
ATOM      9  C   UNL A   1      32.936  24.251  24.982  1.00  0.00     0.106 C 
ATOM     10  C   UNL A   1      33.918  25.072  25.759  1.00  0.00    -0.006 C 
ATOM     11  C   UNL A   1      33.672  22.916  24.783  1.00  0.00     0.047 C 
ATOM     12  C   UNL A   1      35.146  24.551  25.719  1.00  0.00    -0.016 C 
BRANCH   9  13
ATOM     13  N   UNL A   1      31.706  24.158  25.720  1.00  0.00    -0.343 N 
ATOM     14  C   UNL A   1      30.845  25.162  26.115  1.00  0.00     0.287 C 
ATOM     15  O   UNL A   1      29.810  24.779  26.671  1.00  0.00    -0.266 OA
ATOM     16  H   UNL A   1      31.440  23.246  25.981  1.00  0.00     0.164 HD
BRANCH  14  17
ATOM     17  C   UNL A   1      31.152  26.570  25.885  1.00  0.00     0.191 A 
ATOM     18  C   UNL A   1      31.051  28.439  24.681  1.00  0.00     0.114 A 
ATOM     19  C   UNL A   1      31.725  28.759  25.835  1.00  0.00     0.047 A 
ATOM     20  O   UNL A   1      30.714  27.119  24.699  1.00  0.00    -0.455 OA
ATOM     21  C   UNL A   1      31.796  27.572  26.594  1.00  0.00     0.056 A 
BRANCH  18  22
ATOM     22  C   UNL A   1      30.716  29.275  23.497  1.00  0.00     0.144 C 
BRANCH  22  23
ATOM     23  S   UNL A   1      29.125  28.955  22.700  1.00  0.00    -0.157 SA
ATOM     24  C   UNL A   1      29.013  30.438  21.669  1.00  0.00     0.085 C 
ENDBRANCH  22  23
ENDBRANCH  18  22
ENDBRANCH  14  17
ENDBRANCH   9  13
ENDBRANCH   5   8
ENDBRANCH   3   4
ENDBRANCH   2   3
ENDBRANCH   1   2
BRANCH   1  25
ATOM     25  C   UNL A   1      40.763  21.500  27.360  1.00  0.00     0.002 C 
BRANCH  25  26
ATOM     26  C   UNL A   1      40.996  20.193  26.598  1.00  0.00     0.021 C 
BRANCH  26  27
ATOM     27  C   UNL A   1      42.284  19.465  26.973  1.00  0.00     0.116 C 
BRANCH  27  28
ATOM     28  N   UNL A   1      43.020  19.035  25.797  1.00  0.00    -0.352 N 
ATOM     29  C   UNL A   1      43.792  19.771  24.935  1.00  0.00     0.251 C 
ATOM     30  H   UNL A   1      42.954  18.076  25.587  1.00  0.00     0.163 HD
ATOM     31  O   UNL A   1      44.151  19.279  23.869  1.00  0.00    -0.269 OA
BRANCH  29  32
ATOM     32  C   UNL A   1      44.178  21.154  25.285  1.00  0.00     0.039 A 
ATOM     33  C   UNL A   1      43.748  22.198  24.463  1.00  0.00     0.014 A 
ATOM     34  C   UNL A   1      44.976  21.424  26.402  1.00  0.00     0.014 A 
ATOM     35  C   UNL A   1      44.077  23.514  24.789  1.00  0.00     0.010 A 
ATOM     36  C   UNL A   1      45.239  22.741  26.767  1.00  0.00     0.010 A 
ATOM     37  C   UNL A   1      44.799  23.802  25.961  1.00  0.00    -0.014 A 
BRANCH  37  38
ATOM     38  C   UNL A   1      45.077  25.207  26.354  1.00  0.00     0.031 A 
ATOM     39  C   UNL A   1      46.469  25.772  26.251  1.00  0.00     0.074 A 
ATOM     40  C   UNL A   1      44.072  25.965  26.838  1.00  0.00     0.049 A 
ATOM     41  N   UNL A   1      46.890  26.976  26.541  1.00  0.00    -0.248 NA
ATOM     42  C   UNL A   1      47.531  24.865  25.782  1.00  0.00     0.031 C 
ATOM     43  C   UNL A   1      42.691  25.516  27.036  1.00  0.00     0.029 A 
ATOM     44  N   UNL A   1      44.054  27.274  27.250  1.00  0.00    -0.354 N 
ATOM     45  C   UNL A   1      48.260  26.969  26.302  1.00  0.00     0.074 A 
ATOM     46  C   UNL A   1      48.609  25.629  25.888  1.00  0.00     0.031 C 
ATOM     47  C   UNL A   1      41.956  26.540  27.498  1.00  0.00     0.029 A 
ATOM     48  C   UNL A   1      42.816  27.704  27.671  1.00  0.00     0.049 A 
ATOM     49  H   UNL A   1      44.852  27.851  27.246  1.00  0.00     0.167 HD
ATOM     50  C   UNL A   1      49.142  27.992  26.403  1.00  0.00     0.031 A 
ATOM     51  C   UNL A   1      42.418  28.899  28.149  1.00  0.00     0.031 A 
ATOM     52  C   UNL A   1      48.787  29.328  26.805  1.00  0.00     0.049 A 
ATOM     53  C   UNL A   1      43.423  30.015  28.249  1.00  0.00     0.074 A 
ATOM     54  C   UNL A   1      49.598  30.448  26.871  1.00  0.00     0.029 A 
ATOM     55  N   UNL A   1      47.523  29.725  27.215  1.00  0.00    -0.354 N 
ATOM     56  N   UNL A   1      44.695  30.012  27.930  1.00  0.00    -0.248 NA
ATOM     57  C   UNL A   1      42.932  31.303  28.759  1.00  0.00     0.031 C 
ATOM     58  C   UNL A   1      48.840  31.506  27.383  1.00  0.00     0.029 A 
ATOM     59  C   UNL A   1      47.540  31.064  27.567  1.00  0.00     0.049 A 
ATOM     60  H   UNL A   1      46.732  29.141  27.251  1.00  0.00     0.167 HD
ATOM     61  C   UNL A   1      45.150  31.303  28.177  1.00  0.00     0.074 A 
ATOM     62  C   UNL A   1      44.011  32.065  28.644  1.00  0.00     0.031 C 
ATOM     63  C   UNL A   1      46.399  31.810  28.033  1.00  0.00     0.031 A 
BRANCH  50  64
ATOM     64  C   UNL A   1      50.587  27.716  26.074  1.00  0.00    -0.014 A 
ATOM     65  C   UNL A   1      51.493  27.297  27.064  1.00  0.00     0.010 A 
ATOM     66  C   UNL A   1      51.022  27.790  24.736  1.00  0.00     0.010 A 
ATOM     67  C   UNL A   1      52.812  26.976  26.728  1.00  0.00     0.020 A 
ATOM     68  C   UNL A   1      52.332  27.442  24.392  1.00  0.00     0.020 A 
ATOM     69  C   UNL A   1      53.221  27.045  25.392  1.00  0.00     0.054 A 
BRANCH  69  70
ATOM     70  S   UNL A   1      54.919  26.560  24.979  1.00  0.00     0.124 S 
ATOM     71  O   UNL A   1      55.203  27.406  23.823  1.00  0.00    -0.237 OA
ATOM     72  O   UNL A   1      55.652  26.897  26.198  1.00  0.00    -0.237 OA
ATOM     73  O   UNL A   1      54.814  25.132  24.695  1.00  0.00    -0.744 OA
ENDBRANCH  69  70
ENDBRANCH  50  64
BRANCH  51  74
ATOM     74  C   UNL A   1      41.004  29.105  28.572  1.00  0.00    -0.014 A 
ATOM     75  C   UNL A   1      39.990  29.321  27.622  1.00  0.00     0.010 A 
ATOM     76  C   UNL A   1      40.668  29.106  29.938  1.00  0.00     0.010 A 
ATOM     77  C   UNL A   1      38.677  29.572  28.031  1.00  0.00     0.020 A 
ATOM     78  C   UNL A   1      39.351  29.322  30.351  1.00  0.00     0.020 A 
ATOM     79  C   UNL A   1      38.366  29.573  29.394  1.00  0.00     0.054 A 
BRANCH  79  80
ATOM     80  S   UNL A   1      36.652  29.881  29.901  1.00  0.00     0.124 S 
ATOM     81  O   UNL A   1      36.630  31.335  30.028  1.00  0.00    -0.237 OA
ATOM     82  O   UNL A   1      35.888  29.330  28.785  1.00  0.00    -0.237 OA
ATOM     83  O   UNL A   1      36.529  29.142  31.156  1.00  0.00    -0.744 OA
ENDBRANCH  79  80
ENDBRANCH  51  74
BRANCH  63  84
ATOM     84  C   UNL A   1      46.591  33.270  28.351  1.00  0.00    -0.014 A 
ATOM     85  C   UNL A   1      46.404  34.265  27.375  1.00  0.00     0.010 A 
ATOM     86  C   UNL A   1      46.934  33.655  29.661  1.00  0.00     0.010 A 
ATOM     87  C   UNL A   1      46.603  35.611  27.689  1.00  0.00     0.020 A 
ATOM     88  C   UNL A   1      47.100  35.002  29.988  1.00  0.00     0.020 A 
ATOM     89  C   UNL A   1      46.953  35.972  28.994  1.00  0.00     0.054 A 
BRANCH  89  90
ATOM     90  S   UNL A   1      47.185  37.728  29.383  1.00  0.00     0.124 S 
ATOM     91  O   UNL A   1      46.769  38.371  28.141  1.00  0.00    -0.237 OA
ATOM     92  O   UNL A   1      46.292  37.924  30.523  1.00  0.00    -0.237 OA
ATOM     93  O   UNL A   1      48.610  37.831  29.691  1.00  0.00    -0.744 OA
ENDBRANCH  89  90
ENDBRANCH  63  84
ENDBRANCH  37  38
ENDBRANCH  29  32
ENDBRANCH  27  28
ENDBRANCH  26  27
ENDBRANCH  25  26
ENDBRANCH   1  25
TORSDOF 20
ENDMDL
