MODEL 1
REMARK VINA RESULT:     -10.3      0.000      0.000
REMARK SMILES CC(C)(O)CC[C@@H](C(=O)NCCCCCCNC(=O)c1ccc(-c2c3nc(c(-c4ccc(S(=O)(=O)[O-])cc4)c4ccc([nH]4)c(-c4ccc(S(=O)(=O)[O-])cc4)c4nc(c(-c5ccc(S(=O)(=O)[O-])cc5)c5ccc2[nH]5)C=C4)C=C3)cc1)[C@@H]1CCS(=O)(=O)C1
REMARK SMILES IDX 13 1 12 2 11 3 10 4 8 5 9 6 7 8 6 9 5 10 2 11 1 12 3 13 4 14
REMARK SMILES IDX 80 16 81 17 86 18 82 19 83 20 84 21 85 22 14 23 15 24 16 25
REMARK SMILES IDX 17 26 18 27 19 29 20 30 21 31 79 32 22 33 78 34 23 35 24 36
REMARK SMILES IDX 25 37 72 38 26 39 77 40 71 41 73 42 27 43 76 44 70 45 69 46
REMARK SMILES IDX 28 48 58 49 39 50 57 51 40 52 43 53 56 54 74 55 41 56 42 57
REMARK SMILES IDX 55 59 75 60 44 61 29 62 30 63 38 64 31 65 37 66 32 67 33 68
REMARK SMILES IDX 34 69 35 70 36 71 59 72 60 73 68 74 61 75 67 76 62 77 63 78
REMARK SMILES IDX 64 79 65 80 66 81 45 82 46 83 54 84 47 85 53 86 48 87 49 88
REMARK SMILES IDX 50 89 51 90 52 91
REMARK H PARENT 10 7 4 15 17 28 73 47 43 58
REMARK Flexibility Score: inf
ROOT
ATOM      1  C   UNL A   1      32.826  23.865  25.290  1.00  0.00     0.002 C 
ENDROOT
BRANCH   1   2
ATOM      2  C   UNL A   1      31.685  23.354  24.414  1.00  0.00     0.021 C 
BRANCH   2   3
ATOM      3  C   UNL A   1      30.656  24.436  24.068  1.00  0.00     0.116 C 
BRANCH   3   4
ATOM      4  N   UNL A   1      31.116  25.243  22.962  1.00  0.00    -0.356 N 
ATOM      5  C   UNL A   1      31.050  26.582  22.742  1.00  0.00     0.223 C 
ATOM      6  O   UNL A   1      31.393  26.969  21.622  1.00  0.00    -0.275 OA
ATOM      7  H   UNL A   1      31.555  24.734  22.242  1.00  0.00     0.163 HD
BRANCH   5   8
ATOM      8  C   UNL A   1      30.613  27.578  23.846  1.00  0.00     0.082 C 
BRANCH   8   9
ATOM      9  C   UNL A   1      29.473  28.502  23.335  1.00  0.00     0.017 C 
BRANCH   9  10
ATOM     10  C   UNL A   1      29.788  29.737  22.472  1.00  0.00     0.035 C 
BRANCH  10  11
ATOM     11  C   UNL A   1      28.789  30.917  22.340  1.00  0.00     0.059 C 
ATOM     12  C   UNL A   1      27.812  31.172  23.485  1.00  0.00     0.042 C 
ATOM     13  C   UNL A   1      27.985  30.728  21.044  1.00  0.00     0.042 C 
BRANCH  11  14
ATOM     14  O   UNL A   1      29.575  32.107  22.208  1.00  0.00    -0.390 OA
ATOM     15  H   UNL A   1      29.952  32.343  23.069  1.00  0.00     0.211 HD
ENDBRANCH  11  14
ENDBRANCH  10  11
ENDBRANCH   9  10
ENDBRANCH   8   9
BRANCH   8  16
ATOM     16  C   UNL A   1      31.867  28.457  24.229  1.00  0.00     0.017 C 
ATOM     17  C   UNL A   1      33.146  27.646  24.554  1.00  0.00     0.021 C 
ATOM     18  C   UNL A   1      31.687  29.379  25.456  1.00  0.00     0.141 C 
ATOM     19  C   UNL A   1      33.029  27.148  25.986  1.00  0.00     0.137 C 
ATOM     20  S   UNL A   1      32.308  28.503  26.882  1.00  0.00     0.150 S 
ATOM     21  O   UNL A   1      31.194  27.994  27.659  1.00  0.00    -0.229 OA
ATOM     22  O   UNL A   1      33.369  29.282  27.480  1.00  0.00    -0.229 OA
ENDBRANCH   8  16
ENDBRANCH   5   8
ENDBRANCH   3   4
ENDBRANCH   2   3
ENDBRANCH   1   2
BRANCH   1  23
ATOM     23  C   UNL A   1      34.087  22.993  25.250  1.00  0.00     0.002 C 
BRANCH  23  24
ATOM     24  C   UNL A   1      35.161  23.342  26.286  1.00  0.00     0.021 C 
BRANCH  24  25
ATOM     25  C   UNL A   1      36.484  23.823  25.699  1.00  0.00     0.116 C 
BRANCH  25  26
ATOM     26  N   UNL A   1      37.527  22.821  25.845  1.00  0.00    -0.352 N 
ATOM     27  C   UNL A   1      38.833  22.968  26.234  1.00  0.00     0.251 C 
ATOM     28  H   UNL A   1      37.255  21.899  25.632  1.00  0.00     0.163 HD
ATOM     29  O   UNL A   1      39.632  22.058  26.034  1.00  0.00    -0.269 OA
BRANCH  27  30
ATOM     30  C   UNL A   1      39.273  24.215  26.895  1.00  0.00     0.039 A 
ATOM     31  C   UNL A   1      38.895  24.448  28.219  1.00  0.00     0.014 A 
ATOM     32  C   UNL A   1      40.012  25.175  26.197  1.00  0.00     0.014 A 
ATOM     33  C   UNL A   1      39.283  25.631  28.850  1.00  0.00     0.010 A 
ATOM     34  C   UNL A   1      40.466  26.315  26.852  1.00  0.00     0.010 A 
ATOM     35  C   UNL A   1      40.085  26.567  28.178  1.00  0.00    -0.014 A 
BRANCH  35  36
ATOM     36  C   UNL A   1      40.490  27.839  28.830  1.00  0.00     0.031 A 
ATOM     37  C   UNL A   1      41.865  27.968  29.434  1.00  0.00     0.074 A 
ATOM     38  C   UNL A   1      39.618  28.864  28.902  1.00  0.00     0.049 A 
ATOM     39  N   UNL A   1      42.389  28.978  30.082  1.00  0.00    -0.248 NA
ATOM     40  C   UNL A   1      42.761  26.805  29.315  1.00  0.00     0.031 C 
ATOM     41  C   UNL A   1      38.246  28.849  28.385  1.00  0.00     0.029 A 
ATOM     42  N   UNL A   1      39.754  30.118  29.440  1.00  0.00    -0.354 N 
ATOM     43  C   UNL A   1      43.669  28.570  30.445  1.00  0.00     0.074 A 
ATOM     44  C   UNL A   1      43.817  27.200  30.010  1.00  0.00     0.031 C 
ATOM     45  C   UNL A   1      37.678  30.045  28.610  1.00  0.00     0.029 A 
ATOM     46  C   UNL A   1      38.626  30.896  29.322  1.00  0.00     0.049 A 
ATOM     47  H   UNL A   1      40.581  30.432  29.871  1.00  0.00     0.167 HD
ATOM     48  C   UNL A   1      44.646  29.282  31.054  1.00  0.00     0.031 A 
ATOM     49  C   UNL A   1      38.380  32.152  29.745  1.00  0.00     0.031 A 
ATOM     50  C   UNL A   1      44.498  30.648  31.482  1.00  0.00     0.049 A 
ATOM     51  C   UNL A   1      39.475  32.913  30.444  1.00  0.00     0.074 A 
ATOM     52  C   UNL A   1      45.432  31.464  32.096  1.00  0.00     0.029 A 
ATOM     53  N   UNL A   1      43.345  31.403  31.330  1.00  0.00    -0.354 N 
ATOM     54  N   UNL A   1      40.693  32.521  30.742  1.00  0.00    -0.248 NA
ATOM     55  C   UNL A   1      39.172  34.294  30.843  1.00  0.00     0.031 C 
ATOM     56  C   UNL A   1      44.829  32.698  32.356  1.00  0.00     0.029 A 
ATOM     57  C   UNL A   1      43.543  32.674  31.842  1.00  0.00     0.049 A 
ATOM     58  H   UNL A   1      42.510  31.083  30.920  1.00  0.00     0.167 HD
ATOM     59  C   UNL A   1      41.311  33.623  31.325  1.00  0.00     0.074 A 
ATOM     60  C   UNL A   1      40.341  34.698  31.322  1.00  0.00     0.031 C 
ATOM     61  C   UNL A   1      42.571  33.737  31.817  1.00  0.00     0.031 A 
BRANCH  48  62
ATOM     62  C   UNL A   1      45.971  28.601  31.277  1.00  0.00    -0.014 A 
ATOM     63  C   UNL A   1      46.167  27.752  32.382  1.00  0.00     0.010 A 
ATOM     64  C   UNL A   1      47.014  28.761  30.347  1.00  0.00     0.010 A 
ATOM     65  C   UNL A   1      47.388  27.101  32.570  1.00  0.00     0.020 A 
ATOM     66  C   UNL A   1      48.227  28.086  30.513  1.00  0.00     0.020 A 
ATOM     67  C   UNL A   1      48.410  27.269  31.631  1.00  0.00     0.054 A 
BRANCH  67  68
ATOM     68  S   UNL A   1      49.967  26.371  31.877  1.00  0.00     0.124 S 
ATOM     69  O   UNL A   1      50.906  27.179  31.103  1.00  0.00    -0.237 OA
ATOM     70  O   UNL A   1      50.140  26.425  33.327  1.00  0.00    -0.237 OA
ATOM     71  O   UNL A   1      49.693  25.044  31.333  1.00  0.00    -0.744 OA
ENDBRANCH  67  68
ENDBRANCH  48  62
BRANCH  49  72
ATOM     72  C   UNL A   1      37.044  32.773  29.524  1.00  0.00    -0.014 A 
ATOM     73  C   UNL A   1      36.724  33.388  28.300  1.00  0.00     0.010 A 
ATOM     74  C   UNL A   1      36.089  32.781  30.559  1.00  0.00     0.010 A 
ATOM     75  C   UNL A   1      35.499  34.040  28.131  1.00  0.00     0.020 A 
ATOM     76  C   UNL A   1      34.849  33.399  30.381  1.00  0.00     0.020 A 
ATOM     77  C   UNL A   1      34.571  34.045  29.176  1.00  0.00     0.054 A 
BRANCH  77  78
ATOM     78  S   UNL A   1      32.985  34.894  28.937  1.00  0.00     0.124 S 
ATOM     79  O   UNL A   1      32.441  34.903  30.291  1.00  0.00    -0.237 OA
ATOM     80  O   UNL A   1      33.398  36.192  28.410  1.00  0.00    -0.237 OA
ATOM     81  O   UNL A   1      32.281  34.039  27.984  1.00  0.00    -0.744 OA
ENDBRANCH  77  78
ENDBRANCH  49  72
BRANCH  61  82
ATOM     82  C   UNL A   1      42.996  35.089  32.326  1.00  0.00    -0.014 A 
ATOM     83  C   UNL A   1      43.654  36.017  31.499  1.00  0.00     0.010 A 
ATOM     84  C   UNL A   1      42.698  35.447  33.654  1.00  0.00     0.010 A 
ATOM     85  C   UNL A   1      44.049  37.258  32.007  1.00  0.00     0.020 A 
ATOM     86  C   UNL A   1      43.060  36.699  34.154  1.00  0.00     0.020 A 
ATOM     87  C   UNL A   1      43.752  37.590  33.333  1.00  0.00     0.054 A 
BRANCH  87  88
ATOM     88  S   UNL A   1      44.257  39.213  33.961  1.00  0.00     0.124 S 
ATOM     89  O   UNL A   1      43.040  40.001  33.783  1.00  0.00    -0.237 OA
ATOM     90  O   UNL A   1      44.620  38.921  35.346  1.00  0.00    -0.237 OA
ATOM     91  O   UNL A   1      45.374  39.588  33.097  1.00  0.00    -0.744 OA
ENDBRANCH  87  88
ENDBRANCH  61  82
ENDBRANCH  35  36
ENDBRANCH  27  30
ENDBRANCH  25  26
ENDBRANCH  24  25
ENDBRANCH  23  24
ENDBRANCH   1  23
TORSDOF 21
ENDMDL
MODEL 2
REMARK VINA RESULT:     -10.0      3.059      9.267
REMARK SMILES CC(C)(O)CC[C@@H](C(=O)NCCCCCCNC(=O)c1ccc(-c2c3nc(c(-c4ccc(S(=O)(=O)[O-])cc4)c4ccc([nH]4)c(-c4ccc(S(=O)(=O)[O-])cc4)c4nc(c(-c5ccc(S(=O)(=O)[O-])cc5)c5ccc2[nH]5)C=C4)C=C3)cc1)[C@@H]1CCS(=O)(=O)C1
REMARK SMILES IDX 13 1 12 2 11 3 10 4 8 5 9 6 7 8 6 9 5 10 2 11 1 12 3 13 4 14
REMARK SMILES IDX 80 16 81 17 86 18 82 19 83 20 84 21 85 22 14 23 15 24 16 25
REMARK SMILES IDX 17 26 18 27 19 29 20 30 21 31 79 32 22 33 78 34 23 35 24 36
REMARK SMILES IDX 25 37 72 38 26 39 77 40 71 41 73 42 27 43 76 44 70 45 69 46
REMARK SMILES IDX 28 48 58 49 39 50 57 51 40 52 43 53 56 54 74 55 41 56 42 57
REMARK SMILES IDX 55 59 75 60 44 61 29 62 30 63 38 64 31 65 37 66 32 67 33 68
REMARK SMILES IDX 34 69 35 70 36 71 59 72 60 73 68 74 61 75 67 76 62 77 63 78
REMARK SMILES IDX 64 79 65 80 66 81 45 82 46 83 54 84 47 85 53 86 48 87 49 88
REMARK SMILES IDX 50 89 51 90 52 91
REMARK H PARENT 10 7 4 15 17 28 73 47 43 58
REMARK Flexibility Score: inf
ROOT
ATOM      1  C   UNL A   1      31.873  24.936  26.680  1.00  0.00     0.002 C 
ENDROOT
BRANCH   1   2
ATOM      2  C   UNL A   1      31.245  23.970  25.679  1.00  0.00     0.021 C 
BRANCH   2   3
ATOM      3  C   UNL A   1      31.555  22.499  25.981  1.00  0.00     0.116 C 
BRANCH   3   4
ATOM      4  N   UNL A   1      31.639  21.734  24.758  1.00  0.00    -0.356 N 
ATOM      5  C   UNL A   1      32.518  21.793  23.725  1.00  0.00     0.223 C 
ATOM      6  O   UNL A   1      32.242  21.110  22.734  1.00  0.00    -0.275 OA
ATOM      7  H   UNL A   1      30.938  21.050  24.657  1.00  0.00     0.163 HD
BRANCH   5   8
ATOM      8  C   UNL A   1      33.820  22.630  23.795  1.00  0.00     0.082 C 
BRANCH   8   9
ATOM      9  C   UNL A   1      34.043  23.416  22.473  1.00  0.00     0.017 C 
BRANCH   9  10
ATOM     10  C   UNL A   1      32.962  24.368  21.931  1.00  0.00     0.035 C 
BRANCH  10  11
ATOM     11  C   UNL A   1      32.980  25.887  22.246  1.00  0.00     0.059 C 
ATOM     12  C   UNL A   1      33.883  26.384  23.373  1.00  0.00     0.042 C 
ATOM     13  C   UNL A   1      31.540  26.338  22.540  1.00  0.00     0.042 C 
BRANCH  11  14
ATOM     14  O   UNL A   1      33.421  26.548  21.055  1.00  0.00    -0.390 OA
ATOM     15  H   UNL A   1      34.321  26.884  21.186  1.00  0.00     0.211 HD
ENDBRANCH  11  14
ENDBRANCH  10  11
ENDBRANCH   9  10
ENDBRANCH   8   9
BRANCH   8  16
ATOM     16  C   UNL A   1      35.025  21.635  24.022  1.00  0.00     0.017 C 
ATOM     17  C   UNL A   1      35.005  20.901  25.386  1.00  0.00     0.021 C 
ATOM     18  C   UNL A   1      36.433  22.267  23.957  1.00  0.00     0.141 C 
ATOM     19  C   UNL A   1      35.564  21.852  26.433  1.00  0.00     0.137 C 
ATOM     20  S   UNL A   1      36.917  22.674  25.626  1.00  0.00     0.150 S 
ATOM     21  O   UNL A   1      36.773  24.102  25.836  1.00  0.00    -0.229 OA
ATOM     22  O   UNL A   1      38.141  21.972  25.939  1.00  0.00    -0.229 OA
ENDBRANCH   8  16
ENDBRANCH   5   8
ENDBRANCH   3   4
ENDBRANCH   2   3
ENDBRANCH   1   2
BRANCH   1  23
ATOM     23  C   UNL A   1      31.814  26.408  26.254  1.00  0.00     0.002 C 
BRANCH  23  24
ATOM     24  C   UNL A   1      32.302  27.416  27.300  1.00  0.00     0.021 C 
BRANCH  24  25
ATOM     25  C   UNL A   1      33.564  28.180  26.913  1.00  0.00     0.116 C 
BRANCH  25  26
ATOM     26  N   UNL A   1      33.402  29.611  27.112  1.00  0.00    -0.352 N 
ATOM     27  C   UNL A   1      34.213  30.500  27.768  1.00  0.00     0.251 C 
ATOM     28  H   UNL A   1      32.589  30.000  26.717  1.00  0.00     0.163 HD
ATOM     29  O   UNL A   1      33.781  31.608  28.068  1.00  0.00    -0.269 OA
BRANCH  27  30
ATOM     30  C   UNL A   1      35.602  30.124  28.108  1.00  0.00     0.039 A 
ATOM     31  C   UNL A   1      36.590  30.231  27.126  1.00  0.00     0.014 A 
ATOM     32  C   UNL A   1      35.921  29.621  29.372  1.00  0.00     0.014 A 
ATOM     33  C   UNL A   1      37.902  29.859  27.423  1.00  0.00     0.010 A 
ATOM     34  C   UNL A   1      37.243  29.328  29.692  1.00  0.00     0.010 A 
ATOM     35  C   UNL A   1      38.244  29.419  28.713  1.00  0.00    -0.014 A 
BRANCH  35  36
ATOM     36  C   UNL A   1      39.632  29.002  29.039  1.00  0.00     0.031 A 
ATOM     37  C   UNL A   1      40.572  29.977  29.698  1.00  0.00     0.074 A 
ATOM     38  C   UNL A   1      40.051  27.762  28.721  1.00  0.00     0.049 A 
ATOM     39  N   UNL A   1      41.831  29.817  30.022  1.00  0.00    -0.248 NA
ATOM     40  C   UNL A   1      40.039  31.314  30.014  1.00  0.00     0.031 C 
ATOM     41  C   UNL A   1      39.244  26.738  28.050  1.00  0.00     0.029 A 
ATOM     42  N   UNL A   1      41.263  27.150  28.918  1.00  0.00    -0.354 N 
ATOM     43  C   UNL A   1      42.235  31.027  30.577  1.00  0.00     0.074 A 
ATOM     44  C   UNL A   1      41.113  31.934  30.480  1.00  0.00     0.031 C 
ATOM     45  C   UNL A   1      39.976  25.620  27.915  1.00  0.00     0.029 A 
ATOM     46  C   UNL A   1      41.313  25.858  28.449  1.00  0.00     0.049 A 
ATOM     47  H   UNL A   1      42.025  27.593  29.354  1.00  0.00     0.167 HD
ATOM     48  C   UNL A   1      43.420  31.346  31.147  1.00  0.00     0.031 A 
ATOM     49  C   UNL A   1      42.324  24.967  28.444  1.00  0.00     0.031 A 
ATOM     50  C   UNL A   1      44.534  30.441  31.247  1.00  0.00     0.049 A 
ATOM     51  C   UNL A   1      43.641  25.356  29.061  1.00  0.00     0.074 A 
ATOM     52  C   UNL A   1      45.775  30.661  31.819  1.00  0.00     0.029 A 
ATOM     53  N   UNL A   1      44.538  29.138  30.773  1.00  0.00    -0.354 N 
ATOM     54  N   UNL A   1      43.989  26.494  29.616  1.00  0.00    -0.248 NA
ATOM     55  C   UNL A   1      44.696  24.333  29.071  1.00  0.00     0.031 C 
ATOM     56  C   UNL A   1      46.544  29.506  31.651  1.00  0.00     0.029 A 
ATOM     57  C   UNL A   1      45.761  28.544  31.036  1.00  0.00     0.049 A 
ATOM     58  H   UNL A   1      43.784  28.700  30.316  1.00  0.00     0.167 HD
ATOM     59  C   UNL A   1      45.288  26.306  30.079  1.00  0.00     0.074 A 
ATOM     60  C   UNL A   1      45.655  24.944  29.753  1.00  0.00     0.031 C 
ATOM     61  C   UNL A   1      46.104  27.181  30.718  1.00  0.00     0.031 A 
BRANCH  48  62
ATOM     62  C   UNL A   1      43.567  32.729  31.727  1.00  0.00    -0.014 A 
ATOM     63  C   UNL A   1      43.305  32.970  33.088  1.00  0.00     0.010 A 
ATOM     64  C   UNL A   1      44.025  33.788  30.923  1.00  0.00     0.010 A 
ATOM     65  C   UNL A   1      43.469  34.248  33.628  1.00  0.00     0.020 A 
ATOM     66  C   UNL A   1      44.221  35.062  31.466  1.00  0.00     0.020 A 
ATOM     67  C   UNL A   1      43.930  35.286  32.813  1.00  0.00     0.054 A 
BRANCH  67  68
ATOM     68  S   UNL A   1      44.180  36.923  33.555  1.00  0.00     0.124 S 
ATOM     69  O   UNL A   1      44.419  37.753  32.378  1.00  0.00    -0.237 OA
ATOM     70  O   UNL A   1      42.911  37.157  34.241  1.00  0.00    -0.237 OA
ATOM     71  O   UNL A   1      45.333  36.736  34.430  1.00  0.00    -0.744 OA
ENDBRANCH  67  68
ENDBRANCH  48  62
BRANCH  49  72
ATOM     72  C   UNL A   1      42.137  23.620  27.835  1.00  0.00    -0.014 A 
ATOM     73  C   UNL A   1      41.687  22.532  28.605  1.00  0.00     0.010 A 
ATOM     74  C   UNL A   1      42.444  23.410  26.477  1.00  0.00     0.010 A 
ATOM     75  C   UNL A   1      41.594  21.254  28.045  1.00  0.00     0.020 A 
ATOM     76  C   UNL A   1      42.317  22.143  25.904  1.00  0.00     0.020 A 
ATOM     77  C   UNL A   1      41.916  21.068  26.697  1.00  0.00     0.054 A 
BRANCH  77  78
ATOM     78  S   UNL A   1      41.787  19.403  25.988  1.00  0.00     0.124 S 
ATOM     79  O   UNL A   1      40.369  19.329  25.649  1.00  0.00    -0.237 OA
ATOM     80  O   UNL A   1      42.707  19.470  24.856  1.00  0.00    -0.237 OA
ATOM     81  O   UNL A   1      42.216  18.533  27.080  1.00  0.00    -0.744 OA
ENDBRANCH  77  78
ENDBRANCH  49  72
BRANCH  61  82
ATOM     82  C   UNL A   1      47.446  26.672  31.174  1.00  0.00    -0.014 A 
ATOM     83  C   UNL A   1      47.642  26.159  32.469  1.00  0.00     0.010 A 
ATOM     84  C   UNL A   1      48.524  26.677  30.269  1.00  0.00     0.010 A 
ATOM     85  C   UNL A   1      48.904  25.708  32.865  1.00  0.00     0.020 A 
ATOM     86  C   UNL A   1      49.778  26.194  30.651  1.00  0.00     0.020 A 
ATOM     87  C   UNL A   1      49.965  25.731  31.954  1.00  0.00     0.054 A 
BRANCH  87  88
ATOM     88  S   UNL A   1      51.587  25.122  32.486  1.00  0.00     0.124 S 
ATOM     89  O   UNL A   1      52.481  25.749  31.515  1.00  0.00    -0.237 OA
ATOM     90  O   UNL A   1      51.687  25.630  33.853  1.00  0.00    -0.237 OA
ATOM     91  O   UNL A   1      51.467  23.671  32.375  1.00  0.00    -0.744 OA
ENDBRANCH  87  88
ENDBRANCH  61  82
ENDBRANCH  35  36
ENDBRANCH  27  30
ENDBRANCH  25  26
ENDBRANCH  24  25
ENDBRANCH  23  24
ENDBRANCH   1  23
TORSDOF 21
ENDMDL
MODEL 3
REMARK VINA RESULT:      -9.9      3.429      9.463
REMARK SMILES CC(C)(O)CC[C@@H](C(=O)NCCCCCCNC(=O)c1ccc(-c2c3nc(c(-c4ccc(S(=O)(=O)[O-])cc4)c4ccc([nH]4)c(-c4ccc(S(=O)(=O)[O-])cc4)c4nc(c(-c5ccc(S(=O)(=O)[O-])cc5)c5ccc2[nH]5)C=C4)C=C3)cc1)[C@@H]1CCS(=O)(=O)C1
REMARK SMILES IDX 13 1 12 2 11 3 10 4 8 5 9 6 7 8 6 9 5 10 2 11 1 12 3 13 4 14
REMARK SMILES IDX 80 16 81 17 86 18 82 19 83 20 84 21 85 22 14 23 15 24 16 25
REMARK SMILES IDX 17 26 18 27 19 29 20 30 21 31 79 32 22 33 78 34 23 35 24 36
REMARK SMILES IDX 25 37 72 38 26 39 77 40 71 41 73 42 27 43 76 44 70 45 69 46
REMARK SMILES IDX 28 48 58 49 39 50 57 51 40 52 43 53 56 54 74 55 41 56 42 57
REMARK SMILES IDX 55 59 75 60 44 61 29 62 30 63 38 64 31 65 37 66 32 67 33 68
REMARK SMILES IDX 34 69 35 70 36 71 59 72 60 73 68 74 61 75 67 76 62 77 63 78
REMARK SMILES IDX 64 79 65 80 66 81 45 82 46 83 54 84 47 85 53 86 48 87 49 88
REMARK SMILES IDX 50 89 51 90 52 91
REMARK H PARENT 10 7 4 15 17 28 73 47 43 58
REMARK Flexibility Score: inf
ROOT
ATOM      1  C   UNL A   1      31.664  28.833  24.500  1.00  0.00     0.002 C 
ENDROOT
BRANCH   1   2
ATOM      2  C   UNL A   1      31.936  28.609  23.015  1.00  0.00     0.021 C 
BRANCH   2   3
ATOM      3  C   UNL A   1      31.029  27.545  22.387  1.00  0.00     0.116 C 
BRANCH   3   4
ATOM      4  N   UNL A   1      31.768  26.731  21.450  1.00  0.00    -0.356 N 
ATOM      5  C   UNL A   1      32.587  25.665  21.643  1.00  0.00     0.223 C 
ATOM      6  O   UNL A   1      33.207  25.267  20.652  1.00  0.00    -0.275 OA
ATOM      7  H   UNL A   1      31.659  26.995  20.507  1.00  0.00     0.163 HD
BRANCH   5   8
ATOM      8  C   UNL A   1      32.705  24.953  23.014  1.00  0.00     0.082 C 
BRANCH   8   9
ATOM      9  C   UNL A   1      33.980  24.067  23.067  1.00  0.00     0.017 C 
BRANCH   9  10
ATOM     10  C   UNL A   1      35.103  24.364  24.077  1.00  0.00     0.035 C 
BRANCH  10  11
ATOM     11  C   UNL A   1      36.021  23.242  24.631  1.00  0.00     0.059 C 
ATOM     12  C   UNL A   1      35.632  21.789  24.366  1.00  0.00     0.042 C 
ATOM     13  C   UNL A   1      36.167  23.440  26.148  1.00  0.00     0.042 C 
BRANCH  11  14
ATOM     14  O   UNL A   1      37.307  23.431  24.031  1.00  0.00    -0.390 OA
ATOM     15  H   UNL A   1      37.210  23.937  23.210  1.00  0.00     0.211 HD
ENDBRANCH  11  14
ENDBRANCH  10  11
ENDBRANCH   9  10
ENDBRANCH   8   9
BRANCH   8  16
ATOM     16  C   UNL A   1      31.428  24.042  23.199  1.00  0.00     0.017 C 
ATOM     17  C   UNL A   1      30.325  24.657  24.098  1.00  0.00     0.021 C 
ATOM     18  C   UNL A   1      31.684  22.651  23.820  1.00  0.00     0.141 C 
ATOM     19  C   UNL A   1      30.726  24.429  25.546  1.00  0.00     0.137 C 
ATOM     20  S   UNL A   1      31.407  22.788  25.578  1.00  0.00     0.150 S 
ATOM     21  O   UNL A   1      32.683  22.837  26.266  1.00  0.00    -0.229 OA
ATOM     22  O   UNL A   1      30.366  21.860  25.958  1.00  0.00    -0.229 OA
ENDBRANCH   8  16
ENDBRANCH   5   8
ENDBRANCH   3   4
ENDBRANCH   2   3
ENDBRANCH   1   2
BRANCH   1  23
ATOM     23  C   UNL A   1      32.135  27.687  25.404  1.00  0.00     0.002 C 
BRANCH  23  24
ATOM     24  C   UNL A   1      32.998  28.106  26.600  1.00  0.00     0.021 C 
BRANCH  24  25
ATOM     25  C   UNL A   1      34.138  29.063  26.263  1.00  0.00     0.116 C 
BRANCH  25  26
ATOM     26  N   UNL A   1      33.819  30.427  26.646  1.00  0.00    -0.352 N 
ATOM     27  C   UNL A   1      34.340  31.198  27.652  1.00  0.00     0.251 C 
ATOM     28  H   UNL A   1      33.123  30.864  26.102  1.00  0.00     0.163 HD
ATOM     29  O   UNL A   1      33.758  32.223  27.996  1.00  0.00    -0.269 OA
BRANCH  27  30
ATOM     30  C   UNL A   1      35.600  30.799  28.315  1.00  0.00     0.039 A 
ATOM     31  C   UNL A   1      36.771  31.500  28.018  1.00  0.00     0.014 A 
ATOM     32  C   UNL A   1      35.638  29.706  29.185  1.00  0.00     0.014 A 
ATOM     33  C   UNL A   1      37.973  31.121  28.617  1.00  0.00     0.010 A 
ATOM     34  C   UNL A   1      36.819  29.381  29.843  1.00  0.00     0.010 A 
ATOM     35  C   UNL A   1      38.006  30.069  29.547  1.00  0.00    -0.014 A 
BRANCH  35  36
ATOM     36  C   UNL A   1      39.281  29.642  30.179  1.00  0.00     0.031 A 
ATOM     37  C   UNL A   1      39.799  30.373  31.389  1.00  0.00     0.074 A 
ATOM     38  C   UNL A   1      39.980  28.619  29.651  1.00  0.00     0.049 A 
ATOM     39  N   UNL A   1      40.910  30.180  32.056  1.00  0.00    -0.248 NA
ATOM     40  C   UNL A   1      38.977  31.480  31.907  1.00  0.00     0.031 C 
ATOM     41  C   UNL A   1      39.600  27.854  28.459  1.00  0.00     0.029 A 
ATOM     42  N   UNL A   1      41.162  28.045  30.047  1.00  0.00    -0.354 N 
ATOM     43  C   UNL A   1      40.917  31.137  33.065  1.00  0.00     0.074 A 
ATOM     44  C   UNL A   1      39.739  31.955  32.881  1.00  0.00     0.031 C 
ATOM     45  C   UNL A   1      40.516  26.898  28.239  1.00  0.00     0.029 A 
ATOM     46  C   UNL A   1      41.570  27.006  29.243  1.00  0.00     0.049 A 
ATOM     47  H   UNL A   1      41.671  28.348  30.832  1.00  0.00     0.167 HD
ATOM     48  C   UNL A   1      41.803  31.300  34.075  1.00  0.00     0.031 A 
ATOM     49  C   UNL A   1      42.671  26.232  29.303  1.00  0.00     0.031 A 
ATOM     50  C   UNL A   1      42.972  30.482  34.259  1.00  0.00     0.049 A 
ATOM     51  C   UNL A   1      43.655  26.452  30.422  1.00  0.00     0.074 A 
ATOM     52  C   UNL A   1      43.926  30.555  35.259  1.00  0.00     0.029 A 
ATOM     53  N   UNL A   1      43.339  29.431  33.431  1.00  0.00    -0.354 N 
ATOM     54  N   UNL A   1      43.622  27.339  31.389  1.00  0.00    -0.248 NA
ATOM     55  C   UNL A   1      44.815  25.552  30.470  1.00  0.00     0.031 C 
ATOM     56  C   UNL A   1      44.895  29.578  35.010  1.00  0.00     0.029 A 
ATOM     57  C   UNL A   1      44.508  28.852  33.895  1.00  0.00     0.049 A 
ATOM     58  H   UNL A   1      42.843  29.141  32.632  1.00  0.00     0.167 HD
ATOM     59  C   UNL A   1      44.732  27.073  32.183  1.00  0.00     0.074 A 
ATOM     60  C   UNL A   1      45.407  25.935  31.593  1.00  0.00     0.031 C 
ATOM     61  C   UNL A   1      45.157  27.711  33.303  1.00  0.00     0.031 A 
BRANCH  48  62
ATOM     62  C   UNL A   1      41.531  32.396  35.073  1.00  0.00    -0.014 A 
ATOM     63  C   UNL A   1      42.151  33.653  34.947  1.00  0.00     0.010 A 
ATOM     64  C   UNL A   1      40.606  32.193  36.112  1.00  0.00     0.010 A 
ATOM     65  C   UNL A   1      41.875  34.675  35.859  1.00  0.00     0.020 A 
ATOM     66  C   UNL A   1      40.302  33.223  37.008  1.00  0.00     0.020 A 
ATOM     67  C   UNL A   1      40.948  34.454  36.882  1.00  0.00     0.054 A 
BRANCH  67  68
ATOM     68  S   UNL A   1      40.575  35.817  38.020  1.00  0.00     0.124 S 
ATOM     69  O   UNL A   1      39.904  35.120  39.114  1.00  0.00    -0.237 OA
ATOM     70  O   UNL A   1      41.902  36.343  38.332  1.00  0.00    -0.237 OA
ATOM     71  O   UNL A   1      39.725  36.705  37.232  1.00  0.00    -0.744 OA
ENDBRANCH  67  68
ENDBRANCH  48  62
BRANCH  49  72
ATOM     72  C   UNL A   1      42.908  25.178  28.277  1.00  0.00    -0.014 A 
ATOM     73  C   UNL A   1      42.343  23.897  28.410  1.00  0.00     0.010 A 
ATOM     74  C   UNL A   1      43.736  25.444  27.170  1.00  0.00     0.010 A 
ATOM     75  C   UNL A   1      42.638  22.890  27.486  1.00  0.00     0.020 A 
ATOM     76  C   UNL A   1      44.003  24.452  26.224  1.00  0.00     0.020 A 
ATOM     77  C   UNL A   1      43.472  23.174  26.401  1.00  0.00     0.054 A 
BRANCH  77  78
ATOM     78  S   UNL A   1      43.841  21.856  25.210  1.00  0.00     0.124 S 
ATOM     79  O   UNL A   1      43.654  22.540  23.935  1.00  0.00    -0.237 OA
ATOM     80  O   UNL A   1      45.218  21.504  25.546  1.00  0.00    -0.237 OA
ATOM     81  O   UNL A   1      42.850  20.828  25.522  1.00  0.00    -0.744 OA
ENDBRANCH  77  78
ENDBRANCH  49  72
BRANCH  61  82
ATOM     82  C   UNL A   1      46.366  27.149  34.005  1.00  0.00    -0.014 A 
ATOM     83  C   UNL A   1      46.252  26.153  34.991  1.00  0.00     0.010 A 
ATOM     84  C   UNL A   1      47.645  27.608  33.640  1.00  0.00     0.010 A 
ATOM     85  C   UNL A   1      47.393  25.664  35.634  1.00  0.00     0.020 A 
ATOM     86  C   UNL A   1      48.789  27.096  34.256  1.00  0.00     0.020 A 
ATOM     87  C   UNL A   1      48.654  26.141  35.264  1.00  0.00     0.054 A 
BRANCH  87  88
ATOM     88  S   UNL A   1      50.119  25.476  36.099  1.00  0.00     0.124 S 
ATOM     89  O   UNL A   1      49.526  24.565  37.074  1.00  0.00    -0.237 OA
ATOM     90  O   UNL A   1      50.850  24.839  35.005  1.00  0.00    -0.237 OA
ATOM     91  O   UNL A   1      50.764  26.659  36.664  1.00  0.00    -0.744 OA
ENDBRANCH  87  88
ENDBRANCH  61  82
ENDBRANCH  35  36
ENDBRANCH  27  30
ENDBRANCH  25  26
ENDBRANCH  24  25
ENDBRANCH  23  24
ENDBRANCH   1  23
TORSDOF 21
ENDMDL
