MODEL 1
REMARK VINA RESULT:     -11.8      0.000      0.000
REMARK SMILES NS(=O)(=O)c1ccc(C(=O)N2CC[C@H](c3ccccc3C(=O)NCCCCCCNC(=O)c3ccc(-c4c5nc(c(-c6ccc(S(=O)(=O)[O-])cc6)c6ccc([nH]6)c(-c6ccc(S(=O)(=O)[O-])cc6)c6nc(c(-c7ccc(S(=O)(=O)[O-])cc7)c7ccc4[nH]7)C=C6)C=C5)cc3)C2)cc1
REMARK SMILES IDX 25 1 24 2 23 3 21 4 22 5 20 7 15 8 16 9 17 10 19 11 18 12
REMARK SMILES IDX 14 13 11 14 12 15 93 16 13 17 9 18 10 19 8 20 5 21 6 22
REMARK SMILES IDX 95 23 7 24 94 25 2 26 3 27 4 28 1 29 26 32 27 33 28 34 29 35
REMARK SMILES IDX 30 36 31 37 32 39 33 40 34 41 92 42 35 43 91 44 36 45 37 46
REMARK SMILES IDX 38 47 85 48 39 49 90 50 84 51 86 52 40 53 89 54 83 55 82 56
REMARK SMILES IDX 41 58 71 59 52 60 70 61 53 62 56 63 69 64 87 65 54 66 55 67
REMARK SMILES IDX 68 69 88 70 57 71 42 72 43 73 51 74 44 75 50 76 45 77 46 78
REMARK SMILES IDX 47 79 48 80 49 81 72 82 73 83 81 84 74 85 80 86 75 87 76 88
REMARK SMILES IDX 77 89 78 90 79 91 58 92 59 93 67 94 60 95 66 96 61 97 62 98
REMARK SMILES IDX 63 99 64 100 65 101
REMARK H PARENT 23 6 1 30 1 31 30 38 86 57 56 68
REMARK Flexibility Score: inf
ROOT
ATOM      1  C   UNL A   1      34.903  29.807  27.854  1.00  0.00     0.021 C 
ENDROOT
BRANCH   1   2
ATOM      2  C   UNL A   1      34.645  29.072  26.541  1.00  0.00     0.116 C 
BRANCH   2   3
ATOM      3  N   UNL A   1      33.555  29.678  25.788  1.00  0.00    -0.352 N 
ATOM      4  C   UNL A   1      32.241  29.392  26.091  1.00  0.00     0.251 C 
ATOM      5  O   UNL A   1      31.727  29.816  27.121  1.00  0.00    -0.269 OA
ATOM      6  H   UNL A   1      33.760  30.301  25.053  1.00  0.00     0.163 HD
BRANCH   4   7
ATOM      7  C   UNL A   1      31.402  28.752  25.025  1.00  0.00     0.043 A 
ATOM      8  C   UNL A   1      31.325  27.360  24.751  1.00  0.00    -0.030 A 
ATOM      9  C   UNL A   1      30.465  26.938  23.719  1.00  0.00     0.005 A 
ATOM     10  C   UNL A   1      29.671  27.845  23.016  1.00  0.00     0.000 A 
ATOM     11  C   UNL A   1      30.586  29.649  24.311  1.00  0.00     0.014 A 
ATOM     12  C   UNL A   1      29.722  29.199  23.316  1.00  0.00     0.001 A 
BRANCH   8  13
ATOM     13  C   UNL A   1      32.052  26.344  25.597  1.00  0.00     0.041 C 
ATOM     14  N   UNL A   1      33.471  24.427  25.713  1.00  0.00    -0.338 N 
ATOM     15  C   UNL A   1      32.234  24.153  26.416  1.00  0.00     0.120 C 
ATOM     16  C   UNL A   1      33.471  25.812  25.235  1.00  0.00     0.128 C 
ATOM     17  C   UNL A   1      31.257  25.024  25.659  1.00  0.00     0.032 C 
BRANCH  14  18
ATOM     18  C   UNL A   1      34.415  23.531  25.233  1.00  0.00     0.253 C 
ATOM     19  O   UNL A   1      35.555  23.891  24.951  1.00  0.00    -0.269 OA
BRANCH  18  20
ATOM     20  C   UNL A   1      33.997  22.129  24.913  1.00  0.00     0.040 A 
ATOM     21  C   UNL A   1      33.349  19.523  24.101  1.00  0.00     0.082 A 
ATOM     22  C   UNL A   1      34.426  19.733  24.969  1.00  0.00     0.022 A 
ATOM     23  C   UNL A   1      32.603  20.598  23.632  1.00  0.00     0.022 A 
ATOM     24  C   UNL A   1      34.737  21.038  25.391  1.00  0.00     0.015 A 
ATOM     25  C   UNL A   1      32.971  21.886  23.991  1.00  0.00     0.015 A 
BRANCH  21  26
ATOM     26  S   UNL A   1      32.997  17.910  23.472  1.00  0.00     0.238 S 
ATOM     27  O   UNL A   1      34.160  17.088  23.612  1.00  0.00    -0.207 OA
ATOM     28  O   UNL A   1      32.217  18.038  22.255  1.00  0.00    -0.207 OA
BRANCH  26  29
ATOM     29  N   UNL A   1      31.883  17.294  24.592  1.00  0.00    -0.225 NA
ATOM     30  H   UNL A   1      30.940  17.574  24.323  1.00  0.00     0.137 HD
ATOM     31  H   UNL A   1      32.096  17.659  25.520  1.00  0.00     0.137 HD
ENDBRANCH  26  29
ENDBRANCH  21  26
ENDBRANCH  18  20
ENDBRANCH  14  18
ENDBRANCH   8  13
ENDBRANCH   4   7
ENDBRANCH   2   3
ENDBRANCH   1   2
BRANCH   1  32
ATOM     32  C   UNL A   1      35.660  31.121  27.650  1.00  0.00     0.002 C 
BRANCH  32  33
ATOM     33  C   UNL A   1      34.864  32.398  27.936  1.00  0.00     0.002 C 
BRANCH  33  34
ATOM     34  C   UNL A   1      35.273  33.169  29.189  1.00  0.00     0.021 C 
BRANCH  34  35
ATOM     35  C   UNL A   1      36.503  32.660  29.921  1.00  0.00     0.116 C 
BRANCH  35  36
ATOM     36  N   UNL A   1      36.181  31.736  30.993  1.00  0.00    -0.352 N 
ATOM     37  C   UNL A   1      36.844  30.605  31.399  1.00  0.00     0.251 C 
ATOM     38  H   UNL A   1      35.366  31.951  31.501  1.00  0.00     0.163 HD
ATOM     39  O   UNL A   1      36.321  29.856  32.220  1.00  0.00    -0.269 OA
BRANCH  37  40
ATOM     40  C   UNL A   1      38.173  30.279  30.834  1.00  0.00     0.039 A 
ATOM     41  C   UNL A   1      39.232  30.021  31.709  1.00  0.00     0.014 A 
ATOM     42  C   UNL A   1      38.380  30.231  29.453  1.00  0.00     0.014 A 
ATOM     43  C   UNL A   1      40.483  29.668  31.196  1.00  0.00     0.010 A 
ATOM     44  C   UNL A   1      39.598  29.786  28.948  1.00  0.00     0.010 A 
ATOM     45  C   UNL A   1      40.669  29.519  29.813  1.00  0.00    -0.014 A 
BRANCH  45  46
ATOM     46  C   UNL A   1      41.983  29.118  29.248  1.00  0.00     0.031 A 
ATOM     47  C   UNL A   1      43.096  30.128  29.140  1.00  0.00     0.074 A 
ATOM     48  C   UNL A   1      42.160  27.864  28.787  1.00  0.00     0.049 A 
ATOM     49  N   UNL A   1      44.295  29.984  28.636  1.00  0.00    -0.248 NA
ATOM     50  C   UNL A   1      42.815  31.486  29.636  1.00  0.00     0.031 C 
ATOM     51  C   UNL A   1      41.147  26.806  28.793  1.00  0.00     0.029 A 
ATOM     52  N   UNL A   1      43.257  27.267  28.217  1.00  0.00    -0.354 N 
ATOM     53  C   UNL A   1      44.899  31.233  28.735  1.00  0.00     0.074 A 
ATOM     54  C   UNL A   1      43.918  32.135  29.295  1.00  0.00     0.031 C 
ATOM     55  C   UNL A   1      41.679  25.684  28.284  1.00  0.00     0.029 A 
ATOM     56  C   UNL A   1      43.054  25.951  27.875  1.00  0.00     0.049 A 
ATOM     57  H   UNL A   1      44.109  27.737  28.068  1.00  0.00     0.167 HD
ATOM     58  C   UNL A   1      46.163  31.592  28.408  1.00  0.00     0.031 A 
ATOM     59  C   UNL A   1      43.879  25.060  27.292  1.00  0.00     0.031 A 
ATOM     60  C   UNL A   1      47.141  30.687  27.869  1.00  0.00     0.049 A 
ATOM     61  C   UNL A   1      45.280  25.482  26.939  1.00  0.00     0.074 A 
ATOM     62  C   UNL A   1      48.468  30.936  27.565  1.00  0.00     0.029 A 
ATOM     63  N   UNL A   1      46.899  29.359  27.550  1.00  0.00    -0.354 N 
ATOM     64  N   UNL A   1      45.856  26.648  27.108  1.00  0.00    -0.248 NA
ATOM     65  C   UNL A   1      46.147  24.463  26.331  1.00  0.00     0.031 C 
ATOM     66  C   UNL A   1      49.013  29.774  27.010  1.00  0.00     0.029 A 
ATOM     67  C   UNL A   1      48.045  28.782  27.028  1.00  0.00     0.049 A 
ATOM     68  H   UNL A   1      46.039  28.895  27.675  1.00  0.00     0.167 HD
ATOM     69  C   UNL A   1      47.161  26.496  26.651  1.00  0.00     0.074 A 
ATOM     70  C   UNL A   1      47.292  25.120  26.217  1.00  0.00     0.031 C 
ATOM     71  C   UNL A   1      48.160  27.411  26.600  1.00  0.00     0.031 A 
BRANCH  58  72
ATOM     72  C   UNL A   1      46.559  33.031  28.625  1.00  0.00    -0.014 A 
ATOM     73  C   UNL A   1      47.132  33.456  29.837  1.00  0.00     0.010 A 
ATOM     74  C   UNL A   1      46.389  33.965  27.586  1.00  0.00     0.010 A 
ATOM     75  C   UNL A   1      47.488  34.795  30.022  1.00  0.00     0.020 A 
ATOM     76  C   UNL A   1      46.773  35.299  27.756  1.00  0.00     0.020 A 
ATOM     77  C   UNL A   1      47.305  35.709  28.980  1.00  0.00     0.054 A 
BRANCH  77  78
ATOM     78  S   UNL A   1      47.800  37.433  29.240  1.00  0.00     0.124 S 
ATOM     79  O   UNL A   1      46.617  37.991  29.893  1.00  0.00    -0.237 OA
ATOM     80  O   UNL A   1      48.981  37.303  30.089  1.00  0.00    -0.237 OA
ATOM     81  O   UNL A   1      48.057  37.929  27.891  1.00  0.00    -0.744 OA
ENDBRANCH  77  78
ENDBRANCH  58  72
BRANCH  59  82
ATOM     82  C   UNL A   1      43.406  23.674  27.024  1.00  0.00    -0.014 A 
ATOM     83  C   UNL A   1      43.084  23.270  25.716  1.00  0.00     0.010 A 
ATOM     84  C   UNL A   1      43.288  22.746  28.074  1.00  0.00     0.010 A 
ATOM     85  C   UNL A   1      42.636  21.969  25.466  1.00  0.00     0.020 A 
ATOM     86  C   UNL A   1      42.869  21.437  27.825  1.00  0.00     0.020 A 
ATOM     87  C   UNL A   1      42.534  21.060  26.522  1.00  0.00     0.054 A 
BRANCH  87  88
ATOM     88  S   UNL A   1      41.999  19.364  26.166  1.00  0.00     0.124 S 
ATOM     89  O   UNL A   1      42.346  18.670  27.403  1.00  0.00    -0.237 OA
ATOM     90  O   UNL A   1      40.570  19.531  25.912  1.00  0.00    -0.237 OA
ATOM     91  O   UNL A   1      42.793  18.996  24.996  1.00  0.00    -0.744 OA
ENDBRANCH  87  88
ENDBRANCH  59  82
BRANCH  71  92
ATOM     92  C   UNL A   1      49.499  26.949  26.087  1.00  0.00    -0.014 A 
ATOM     93  C   UNL A   1      49.830  27.035  24.724  1.00  0.00     0.010 A 
ATOM     94  C   UNL A   1      50.461  26.478  27.000  1.00  0.00     0.010 A 
ATOM     95  C   UNL A   1      51.089  26.628  24.277  1.00  0.00     0.020 A 
ATOM     96  C   UNL A   1      51.732  26.098  26.561  1.00  0.00     0.020 A 
ATOM     97  C   UNL A   1      52.033  26.162  25.199  1.00  0.00     0.054 A 
BRANCH  97  98
ATOM     98  S   UNL A   1      53.676  25.682  24.600  1.00  0.00     0.124 S 
ATOM     99  O   UNL A   1      53.598  26.034  23.185  1.00  0.00    -0.237 OA
ATOM    100  O   UNL A   1      54.567  26.514  25.406  1.00  0.00    -0.237 OA
ATOM    101  O   UNL A   1      53.744  24.251  24.883  1.00  0.00    -0.744 OA
ENDBRANCH  97  98
ENDBRANCH  71  92
ENDBRANCH  45  46
ENDBRANCH  37  40
ENDBRANCH  35  36
ENDBRANCH  34  35
ENDBRANCH  33  34
ENDBRANCH  32  33
ENDBRANCH   1  32
TORSDOF 21
ENDMDL
MODEL 2
REMARK VINA RESULT:     -11.6      6.190     12.091
REMARK SMILES NS(=O)(=O)c1ccc(C(=O)N2CC[C@H](c3ccccc3C(=O)NCCCCCCNC(=O)c3ccc(-c4c5nc(c(-c6ccc(S(=O)(=O)[O-])cc6)c6ccc([nH]6)c(-c6ccc(S(=O)(=O)[O-])cc6)c6nc(c(-c7ccc(S(=O)(=O)[O-])cc7)c7ccc4[nH]7)C=C6)C=C5)cc3)C2)cc1
REMARK SMILES IDX 25 1 24 2 23 3 21 4 22 5 20 7 15 8 16 9 17 10 19 11 18 12
REMARK SMILES IDX 14 13 11 14 12 15 93 16 13 17 9 18 10 19 8 20 5 21 6 22
REMARK SMILES IDX 95 23 7 24 94 25 2 26 3 27 4 28 1 29 26 32 27 33 28 34 29 35
REMARK SMILES IDX 30 36 31 37 32 39 33 40 34 41 92 42 35 43 91 44 36 45 37 46
REMARK SMILES IDX 38 47 85 48 39 49 90 50 84 51 86 52 40 53 89 54 83 55 82 56
REMARK SMILES IDX 41 58 71 59 52 60 70 61 53 62 56 63 69 64 87 65 54 66 55 67
REMARK SMILES IDX 68 69 88 70 57 71 42 72 43 73 51 74 44 75 50 76 45 77 46 78
REMARK SMILES IDX 47 79 48 80 49 81 72 82 73 83 81 84 74 85 80 86 75 87 76 88
REMARK SMILES IDX 77 89 78 90 79 91 58 92 59 93 67 94 60 95 66 96 61 97 62 98
REMARK SMILES IDX 63 99 64 100 65 101
REMARK H PARENT 23 6 1 30 1 31 30 38 86 57 56 68
REMARK Flexibility Score: inf
ROOT
ATOM      1  C   UNL A   1      37.442  21.581  25.326  1.00  0.00     0.021 C 
ENDROOT
BRANCH   1   2
ATOM      2  C   UNL A   1      37.081  22.780  24.453  1.00  0.00     0.116 C 
BRANCH   2   3
ATOM      3  N   UNL A   1      35.721  22.687  23.942  1.00  0.00    -0.352 N 
ATOM      4  C   UNL A   1      34.682  22.295  24.761  1.00  0.00     0.251 C 
ATOM      5  O   UNL A   1      34.268  23.033  25.648  1.00  0.00    -0.269 OA
ATOM      6  H   UNL A   1      35.539  22.907  22.999  1.00  0.00     0.163 HD
BRANCH   4   7
ATOM      7  C   UNL A   1      33.931  21.050  24.389  1.00  0.00     0.043 A 
ATOM      8  C   UNL A   1      32.778  20.990  23.563  1.00  0.00    -0.030 A 
ATOM      9  C   UNL A   1      32.216  19.725  23.307  1.00  0.00     0.005 A 
ATOM     10  C   UNL A   1      32.795  18.556  23.804  1.00  0.00     0.000 A 
ATOM     11  C   UNL A   1      34.506  19.860  24.873  1.00  0.00     0.014 A 
ATOM     12  C   UNL A   1      33.944  18.620  24.579  1.00  0.00     0.001 A 
BRANCH   8  13
ATOM     13  C   UNL A   1      32.223  22.219  22.885  1.00  0.00     0.041 C 
ATOM     14  N   UNL A   1      32.407  24.555  22.431  1.00  0.00    -0.338 N 
ATOM     15  C   UNL A   1      31.116  24.282  23.030  1.00  0.00     0.120 C 
ATOM     16  C   UNL A   1      33.135  23.300  22.231  1.00  0.00     0.128 C 
ATOM     17  C   UNL A   1      31.431  23.080  23.890  1.00  0.00     0.032 C 
BRANCH  14  18
ATOM     18  C   UNL A   1      33.075  25.766  22.321  1.00  0.00     0.253 C 
ATOM     19  O   UNL A   1      33.817  26.005  21.371  1.00  0.00    -0.269 OA
BRANCH  18  20
ATOM     20  C   UNL A   1      33.009  26.744  23.454  1.00  0.00     0.040 A 
ATOM     21  C   UNL A   1      32.636  28.535  25.580  1.00  0.00     0.082 A 
ATOM     22  C   UNL A   1      32.991  27.208  25.843  1.00  0.00     0.022 A 
ATOM     23  C   UNL A   1      32.459  28.971  24.272  1.00  0.00     0.022 A 
ATOM     24  C   UNL A   1      33.197  26.316  24.776  1.00  0.00     0.015 A 
ATOM     25  C   UNL A   1      32.586  28.061  23.233  1.00  0.00     0.015 A 
BRANCH  21  26
ATOM     26  S   UNL A   1      32.271  29.651  26.900  1.00  0.00     0.238 S 
ATOM     27  O   UNL A   1      31.499  28.968  27.893  1.00  0.00    -0.207 OA
ATOM     28  O   UNL A   1      31.936  30.949  26.341  1.00  0.00    -0.207 OA
BRANCH  26  29
ATOM     29  N   UNL A   1      33.785  29.909  27.618  1.00  0.00    -0.225 NA
ATOM     30  H   UNL A   1      34.513  29.498  27.033  1.00  0.00     0.137 HD
ATOM     31  H   UNL A   1      33.803  29.474  28.540  1.00  0.00     0.137 HD
ENDBRANCH  26  29
ENDBRANCH  21  26
ENDBRANCH  18  20
ENDBRANCH  14  18
ENDBRANCH   8  13
ENDBRANCH   4   7
ENDBRANCH   2   3
ENDBRANCH   1   2
BRANCH   1  32
ATOM     32  C   UNL A   1      38.916  21.578  25.736  1.00  0.00     0.002 C 
BRANCH  32  33
ATOM     33  C   UNL A   1      39.350  22.718  26.663  1.00  0.00     0.002 C 
BRANCH  33  34
ATOM     34  C   UNL A   1      40.556  22.426  27.554  1.00  0.00     0.021 C 
BRANCH  34  35
ATOM     35  C   UNL A   1      41.649  23.480  27.573  1.00  0.00     0.116 C 
BRANCH  35  36
ATOM     36  N   UNL A   1      41.747  24.215  26.325  1.00  0.00    -0.352 N 
ATOM     37  C   UNL A   1      41.512  25.544  26.074  1.00  0.00     0.251 C 
ATOM     38  H   UNL A   1      42.022  23.682  25.545  1.00  0.00     0.163 HD
ATOM     39  O   UNL A   1      41.484  25.946  24.914  1.00  0.00    -0.269 OA
BRANCH  37  40
ATOM     40  C   UNL A   1      41.271  26.482  27.193  1.00  0.00     0.039 A 
ATOM     41  C   UNL A   1      40.235  26.210  28.090  1.00  0.00     0.014 A 
ATOM     42  C   UNL A   1      42.056  27.626  27.359  1.00  0.00     0.014 A 
ATOM     43  C   UNL A   1      40.021  27.059  29.179  1.00  0.00     0.010 A 
ATOM     44  C   UNL A   1      41.903  28.415  28.495  1.00  0.00     0.010 A 
ATOM     45  C   UNL A   1      40.870  28.153  29.407  1.00  0.00    -0.014 A 
BRANCH  45  46
ATOM     46  C   UNL A   1      40.677  29.052  30.573  1.00  0.00     0.031 A 
ATOM     47  C   UNL A   1      41.532  28.883  31.803  1.00  0.00     0.074 A 
ATOM     48  C   UNL A   1      39.704  29.983  30.548  1.00  0.00     0.049 A 
ATOM     49  N   UNL A   1      41.486  29.535  32.936  1.00  0.00    -0.248 NA
ATOM     50  C   UNL A   1      42.552  27.821  31.766  1.00  0.00     0.031 C 
ATOM     51  C   UNL A   1      38.781  30.217  29.435  1.00  0.00     0.029 A 
ATOM     52  N   UNL A   1      39.325  30.906  31.491  1.00  0.00    -0.354 N 
ATOM     53  C   UNL A   1      42.451  28.951  33.749  1.00  0.00     0.074 A 
ATOM     54  C   UNL A   1      43.029  27.858  33.001  1.00  0.00     0.031 C 
ATOM     55  C   UNL A   1      37.966  31.237  29.746  1.00  0.00     0.029 A 
ATOM     56  C   UNL A   1      38.276  31.703  31.094  1.00  0.00     0.049 A 
ATOM     57  H   UNL A   1      39.763  30.991  32.368  1.00  0.00     0.167 HD
ATOM     58  C   UNL A   1      42.837  29.306  34.997  1.00  0.00     0.031 A 
ATOM     59  C   UNL A   1      37.633  32.692  31.743  1.00  0.00     0.031 A 
ATOM     60  C   UNL A   1      42.272  30.406  35.730  1.00  0.00     0.049 A 
ATOM     61  C   UNL A   1      38.080  33.070  33.130  1.00  0.00     0.074 A 
ATOM     62  C   UNL A   1      42.637  30.888  36.974  1.00  0.00     0.029 A 
ATOM     63  N   UNL A   1      41.221  31.196  35.287  1.00  0.00    -0.354 N 
ATOM     64  N   UNL A   1      39.044  32.552  33.853  1.00  0.00    -0.248 NA
ATOM     65  C   UNL A   1      37.363  34.173  33.781  1.00  0.00     0.031 C 
ATOM     66  C   UNL A   1      41.770  31.933  37.309  1.00  0.00     0.029 A 
ATOM     67  C   UNL A   1      40.907  32.145  36.244  1.00  0.00     0.049 A 
ATOM     68  H   UNL A   1      40.765  31.095  34.419  1.00  0.00     0.167 HD
ATOM     69  C   UNL A   1      39.067  33.286  35.034  1.00  0.00     0.074 A 
ATOM     70  C   UNL A   1      38.031  34.293  34.919  1.00  0.00     0.031 C 
ATOM     71  C   UNL A   1      39.873  33.141  36.115  1.00  0.00     0.031 A 
BRANCH  58  72
ATOM     72  C   UNL A   1      43.923  28.490  35.651  1.00  0.00    -0.014 A 
ATOM     73  C   UNL A   1      45.282  28.798  35.461  1.00  0.00     0.010 A 
ATOM     74  C   UNL A   1      43.579  27.421  36.499  1.00  0.00     0.010 A 
ATOM     75  C   UNL A   1      46.277  28.029  36.071  1.00  0.00     0.020 A 
ATOM     76  C   UNL A   1      44.569  26.668  37.137  1.00  0.00     0.020 A 
ATOM     77  C   UNL A   1      45.913  26.966  36.904  1.00  0.00     0.054 A 
BRANCH  77  78
ATOM     78  S   UNL A   1      47.224  26.001  37.703  1.00  0.00     0.124 S 
ATOM     79  O   UNL A   1      46.733  25.905  39.076  1.00  0.00    -0.237 OA
ATOM     80  O   UNL A   1      47.212  24.754  36.944  1.00  0.00    -0.237 OA
ATOM     81  O   UNL A   1      48.419  26.823  37.527  1.00  0.00    -0.744 OA
ENDBRANCH  77  78
ENDBRANCH  58  72
BRANCH  59  82
ATOM     82  C   UNL A   1      36.509  33.408  31.080  1.00  0.00    -0.014 A 
ATOM     83  C   UNL A   1      36.631  33.853  29.751  1.00  0.00     0.010 A 
ATOM     84  C   UNL A   1      35.304  33.635  31.769  1.00  0.00     0.010 A 
ATOM     85  C   UNL A   1      35.575  34.528  29.131  1.00  0.00     0.020 A 
ATOM     86  C   UNL A   1      34.236  34.284  31.143  1.00  0.00     0.020 A 
ATOM     87  C   UNL A   1      34.384  34.737  29.830  1.00  0.00     0.054 A 
BRANCH  87  88
ATOM     88  S   UNL A   1      33.011  35.571  28.988  1.00  0.00     0.124 S 
ATOM     89  O   UNL A   1      32.454  34.494  28.176  1.00  0.00    -0.237 OA
ATOM     90  O   UNL A   1      32.181  36.017  30.104  1.00  0.00    -0.237 OA
ATOM     91  O   UNL A   1      33.669  36.642  28.244  1.00  0.00    -0.744 OA
ENDBRANCH  87  88
ENDBRANCH  59  82
BRANCH  71  92
ATOM     92  C   UNL A   1      39.696  34.115  37.250  1.00  0.00    -0.014 A 
ATOM     93  C   UNL A   1      38.954  33.778  38.394  1.00  0.00     0.010 A 
ATOM     94  C   UNL A   1      40.336  35.367  37.190  1.00  0.00     0.010 A 
ATOM     95  C   UNL A   1      38.828  34.689  39.447  1.00  0.00     0.020 A 
ATOM     96  C   UNL A   1      40.238  36.268  38.253  1.00  0.00     0.020 A 
ATOM     97  C   UNL A   1      39.472  35.929  39.369  1.00  0.00     0.054 A 
BRANCH  97  98
ATOM     98  S   UNL A   1      39.331  37.074  40.768  1.00  0.00     0.124 S 
ATOM     99  O   UNL A   1      40.719  37.480  40.970  1.00  0.00    -0.237 OA
ATOM    100  O   UNL A   1      38.443  38.110  40.245  1.00  0.00    -0.237 OA
ATOM    101  O   UNL A   1      38.761  36.253  41.833  1.00  0.00    -0.744 OA
ENDBRANCH  97  98
ENDBRANCH  71  92
ENDBRANCH  45  46
ENDBRANCH  37  40
ENDBRANCH  35  36
ENDBRANCH  34  35
ENDBRANCH  33  34
ENDBRANCH  32  33
ENDBRANCH   1  32
TORSDOF 21
ENDMDL
MODEL 3
REMARK VINA RESULT:     -11.6      5.746      8.042
REMARK SMILES NS(=O)(=O)c1ccc(C(=O)N2CC[C@H](c3ccccc3C(=O)NCCCCCCNC(=O)c3ccc(-c4c5nc(c(-c6ccc(S(=O)(=O)[O-])cc6)c6ccc([nH]6)c(-c6ccc(S(=O)(=O)[O-])cc6)c6nc(c(-c7ccc(S(=O)(=O)[O-])cc7)c7ccc4[nH]7)C=C6)C=C5)cc3)C2)cc1
REMARK SMILES IDX 25 1 24 2 23 3 21 4 22 5 20 7 15 8 16 9 17 10 19 11 18 12
REMARK SMILES IDX 14 13 11 14 12 15 93 16 13 17 9 18 10 19 8 20 5 21 6 22
REMARK SMILES IDX 95 23 7 24 94 25 2 26 3 27 4 28 1 29 26 32 27 33 28 34 29 35
REMARK SMILES IDX 30 36 31 37 32 39 33 40 34 41 92 42 35 43 91 44 36 45 37 46
REMARK SMILES IDX 38 47 85 48 39 49 90 50 84 51 86 52 40 53 89 54 83 55 82 56
REMARK SMILES IDX 41 58 71 59 52 60 70 61 53 62 56 63 69 64 87 65 54 66 55 67
REMARK SMILES IDX 68 69 88 70 57 71 42 72 43 73 51 74 44 75 50 76 45 77 46 78
REMARK SMILES IDX 47 79 48 80 49 81 72 82 73 83 81 84 74 85 80 86 75 87 76 88
REMARK SMILES IDX 77 89 78 90 79 91 58 92 59 93 67 94 60 95 66 96 61 97 62 98
REMARK SMILES IDX 63 99 64 100 65 101
REMARK H PARENT 23 6 1 30 1 31 30 38 86 57 56 68
REMARK Flexibility Score: inf
ROOT
ATOM      1  C   UNL A   1      35.074  30.320  27.626  1.00  0.00     0.021 C 
ENDROOT
BRANCH   1   2
ATOM      2  C   UNL A   1      34.502  29.399  26.551  1.00  0.00     0.116 C 
BRANCH   2   3
ATOM      3  N   UNL A   1      33.297  29.954  25.950  1.00  0.00    -0.352 N 
ATOM      4  C   UNL A   1      32.072  29.347  26.134  1.00  0.00     0.251 C 
ATOM      5  O   UNL A   1      31.510  29.381  27.224  1.00  0.00    -0.269 OA
ATOM      6  H   UNL A   1      33.356  30.773  25.407  1.00  0.00     0.163 HD
BRANCH   4   7
ATOM      7  C   UNL A   1      31.349  28.851  24.917  1.00  0.00     0.043 A 
ATOM      8  C   UNL A   1      31.387  27.526  24.408  1.00  0.00    -0.030 A 
ATOM      9  C   UNL A   1      30.625  27.238  23.260  1.00  0.00     0.005 A 
ATOM     10  C   UNL A   1      29.816  28.205  22.660  1.00  0.00     0.000 A 
ATOM     11  C   UNL A   1      30.520  29.810  24.304  1.00  0.00     0.014 A 
ATOM     12  C   UNL A   1      29.754  29.489  23.186  1.00  0.00     0.001 A 
BRANCH   8  13
ATOM     13  C   UNL A   1      32.127  26.423  25.124  1.00  0.00     0.041 C 
ATOM     14  N   UNL A   1      33.459  24.446  24.999  1.00  0.00    -0.338 N 
ATOM     15  C   UNL A   1      32.267  24.175  25.777  1.00  0.00     0.120 C 
ATOM     16  C   UNL A   1      33.488  25.859  24.616  1.00  0.00     0.128 C 
ATOM     17  C   UNL A   1      31.278  25.136  25.160  1.00  0.00     0.032 C 
BRANCH  14  18
ATOM     18  C   UNL A   1      34.321  23.547  24.387  1.00  0.00     0.253 C 
ATOM     19  O   UNL A   1      35.301  23.929  23.752  1.00  0.00    -0.269 OA
BRANCH  18  20
ATOM     20  C   UNL A   1      33.971  22.090  24.374  1.00  0.00     0.040 A 
ATOM     21  C   UNL A   1      33.442  19.347  24.131  1.00  0.00     0.082 A 
ATOM     22  C   UNL A   1      34.537  19.779  24.887  1.00  0.00     0.022 A 
ATOM     23  C   UNL A   1      32.620  20.267  23.492  1.00  0.00     0.022 A 
ATOM     24  C   UNL A   1      34.788  21.156  25.025  1.00  0.00     0.015 A 
ATOM     25  C   UNL A   1      32.927  21.617  23.569  1.00  0.00     0.015 A 
BRANCH  21  26
ATOM     26  S   UNL A   1      33.159  17.624  23.855  1.00  0.00     0.238 S 
ATOM     27  O   UNL A   1      34.225  16.873  24.444  1.00  0.00    -0.207 OA
ATOM     28  O   UNL A   1      32.666  17.439  22.502  1.00  0.00    -0.207 OA
BRANCH  26  29
ATOM     29  N   UNL A   1      31.803  17.297  24.818  1.00  0.00    -0.225 NA
ATOM     30  H   UNL A   1      31.893  17.785  25.710  1.00  0.00     0.137 HD
ATOM     31  H   UNL A   1      31.738  16.294  24.984  1.00  0.00     0.137 HD
ENDBRANCH  26  29
ENDBRANCH  21  26
ENDBRANCH  18  20
ENDBRANCH  14  18
ENDBRANCH   8  13
ENDBRANCH   4   7
ENDBRANCH   2   3
ENDBRANCH   1   2
BRANCH   1  32
ATOM     32  C   UNL A   1      34.077  31.394  28.067  1.00  0.00     0.002 C 
BRANCH  32  33
ATOM     33  C   UNL A   1      34.653  32.801  28.250  1.00  0.00     0.002 C 
BRANCH  33  34
ATOM     34  C   UNL A   1      33.673  33.953  28.040  1.00  0.00     0.021 C 
BRANCH  34  35
ATOM     35  C   UNL A   1      33.980  35.242  28.782  1.00  0.00     0.116 C 
BRANCH  35  36
ATOM     36  N   UNL A   1      33.063  35.494  29.879  1.00  0.00    -0.352 N 
ATOM     37  C   UNL A   1      33.153  35.116  31.195  1.00  0.00     0.251 C 
ATOM     38  H   UNL A   1      32.259  36.011  29.644  1.00  0.00     0.163 HD
ATOM     39  O   UNL A   1      32.190  35.279  31.940  1.00  0.00    -0.269 OA
BRANCH  37  40
ATOM     40  C   UNL A   1      34.394  34.495  31.709  1.00  0.00     0.039 A 
ATOM     41  C   UNL A   1      34.429  33.111  31.897  1.00  0.00     0.014 A 
ATOM     42  C   UNL A   1      35.519  35.269  32.008  1.00  0.00     0.014 A 
ATOM     43  C   UNL A   1      35.605  32.502  32.338  1.00  0.00     0.010 A 
ATOM     44  C   UNL A   1      36.716  34.650  32.355  1.00  0.00     0.010 A 
ATOM     45  C   UNL A   1      36.768  33.262  32.543  1.00  0.00    -0.014 A 
BRANCH  45  46
ATOM     46  C   UNL A   1      38.037  32.629  32.985  1.00  0.00     0.031 A 
ATOM     47  C   UNL A   1      38.561  32.887  34.374  1.00  0.00     0.074 A 
ATOM     48  C   UNL A   1      38.743  31.869  32.125  1.00  0.00     0.049 A 
ATOM     49  N   UNL A   1      39.668  32.465  34.930  1.00  0.00    -0.248 NA
ATOM     50  C   UNL A   1      37.749  33.754  35.245  1.00  0.00     0.031 C 
ATOM     51  C   UNL A   1      38.366  31.581  30.740  1.00  0.00     0.029 A 
ATOM     52  N   UNL A   1      39.931  31.202  32.289  1.00  0.00    -0.354 N 
ATOM     53  C   UNL A   1      39.695  33.033  36.199  1.00  0.00     0.074 A 
ATOM     54  C   UNL A   1      38.523  33.871  36.313  1.00  0.00     0.031 C 
ATOM     55  C   UNL A   1      39.285  30.771  30.192  1.00  0.00     0.029 A 
ATOM     56  C   UNL A   1      40.339  30.517  31.169  1.00  0.00     0.049 A 
ATOM     57  H   UNL A   1      40.443  31.212  33.130  1.00  0.00     0.167 HD
ATOM     58  C   UNL A   1      40.602  32.856  37.189  1.00  0.00     0.031 A 
ATOM     59  C   UNL A   1      41.440  29.772  30.950  1.00  0.00     0.031 A 
ATOM     60  C   UNL A   1      41.757  32.006  37.077  1.00  0.00     0.049 A 
ATOM     61  C   UNL A   1      42.434  29.588  32.066  1.00  0.00     0.074 A 
ATOM     62  C   UNL A   1      42.701  31.708  38.043  1.00  0.00     0.029 A 
ATOM     63  N   UNL A   1      42.126  31.320  35.931  1.00  0.00    -0.354 N 
ATOM     64  N   UNL A   1      42.403  30.075  33.283  1.00  0.00    -0.248 NA
ATOM     65  C   UNL A   1      43.601  28.744  31.782  1.00  0.00     0.031 C 
ATOM     66  C   UNL A   1      43.674  30.887  37.464  1.00  0.00     0.029 A 
ATOM     67  C   UNL A   1      43.299  30.620  36.156  1.00  0.00     0.049 A 
ATOM     68  H   UNL A   1      41.628  31.330  35.080  1.00  0.00     0.167 HD
ATOM     69  C   UNL A   1      43.534  29.573  33.919  1.00  0.00     0.074 A 
ATOM     70  C   UNL A   1      44.216  28.733  32.956  1.00  0.00     0.031 C 
ATOM     71  C   UNL A   1      43.966  29.787  35.187  1.00  0.00     0.031 A 
BRANCH  58  72
ATOM     72  C   UNL A   1      40.381  33.601  38.481  1.00  0.00    -0.014 A 
ATOM     73  C   UNL A   1      39.675  33.017  39.548  1.00  0.00     0.010 A 
ATOM     74  C   UNL A   1      40.920  34.891  38.644  1.00  0.00     0.010 A 
ATOM     75  C   UNL A   1      39.475  33.724  40.737  1.00  0.00     0.020 A 
ATOM     76  C   UNL A   1      40.749  35.589  39.843  1.00  0.00     0.020 A 
ATOM     77  C   UNL A   1      40.012  35.007  40.876  1.00  0.00     0.054 A 
BRANCH  77  78
ATOM     78  S   UNL A   1      39.759  35.890  42.439  1.00  0.00     0.124 S 
ATOM     79  O   UNL A   1      39.388  37.225  41.975  1.00  0.00    -0.237 OA
ATOM     80  O   UNL A   1      38.686  35.125  43.069  1.00  0.00    -0.237 OA
ATOM     81  O   UNL A   1      41.057  35.802  43.104  1.00  0.00    -0.744 OA
ENDBRANCH  77  78
ENDBRANCH  58  72
BRANCH  59  82
ATOM     82  C   UNL A   1      41.649  29.128  29.624  1.00  0.00    -0.014 A 
ATOM     83  C   UNL A   1      42.261  29.837  28.575  1.00  0.00     0.010 A 
ATOM     84  C   UNL A   1      41.251  27.796  29.409  1.00  0.00     0.010 A 
ATOM     85  C   UNL A   1      42.453  29.231  27.329  1.00  0.00     0.020 A 
ATOM     86  C   UNL A   1      41.468  27.178  28.174  1.00  0.00     0.020 A 
ATOM     87  C   UNL A   1      42.058  27.905  27.138  1.00  0.00     0.054 A 
BRANCH  87  88
ATOM     88  S   UNL A   1      42.364  27.126  25.529  1.00  0.00     0.124 S 
ATOM     89  O   UNL A   1      42.362  28.275  24.629  1.00  0.00    -0.237 OA
ATOM     90  O   UNL A   1      43.660  26.482  25.732  1.00  0.00    -0.237 OA
ATOM     91  O   UNL A   1      41.238  26.208  25.377  1.00  0.00    -0.744 OA
ENDBRANCH  87  88
ENDBRANCH  59  82
BRANCH  71  92
ATOM     92  C   UNL A   1      45.219  29.074  35.623  1.00  0.00    -0.014 A 
ATOM     93  C   UNL A   1      45.172  27.780  36.169  1.00  0.00     0.010 A 
ATOM     94  C   UNL A   1      46.468  29.691  35.423  1.00  0.00     0.010 A 
ATOM     95  C   UNL A   1      46.351  27.127  36.538  1.00  0.00     0.020 A 
ATOM     96  C   UNL A   1      47.651  29.030  35.763  1.00  0.00     0.020 A 
ATOM     97  C   UNL A   1      47.584  27.757  36.332  1.00  0.00     0.054 A 
BRANCH  97  98
ATOM     98  S   UNL A   1      49.102  26.870  36.777  1.00  0.00     0.124 S 
ATOM     99  O   UNL A   1      49.892  27.920  37.414  1.00  0.00    -0.237 OA
ATOM    100  O   UNL A   1      48.611  25.823  37.671  1.00  0.00    -0.237 OA
ATOM    101  O   UNL A   1      49.615  26.395  35.495  1.00  0.00    -0.744 OA
ENDBRANCH  97  98
ENDBRANCH  71  92
ENDBRANCH  45  46
ENDBRANCH  37  40
ENDBRANCH  35  36
ENDBRANCH  34  35
ENDBRANCH  33  34
ENDBRANCH  32  33
ENDBRANCH   1  32
TORSDOF 21
ENDMDL
