MODEL 1
REMARK VINA RESULT:      -7.7      0.000      0.000
REMARK SMILES CC[NH+](CC)C[C@H](F)C(=O)NCCCCCCNC(=O)c1ccc(-c2c3nc(c(-c4ccc(S(=O)(=O)[O-])cc4)c4ccc([nH]4)c(-c4ccc(S(=O)(=O)[O-])cc4)c4nc(c(-c5ccc(S(=O)(=O)[O-])cc5)c5ccc2[nH]5)C=C4)C=C3)cc1
REMARK SMILES IDX 14 1 13 2 12 3 11 4 9 5 10 6 7 8 8 9 6 10 3 11 2 13 1 14
REMARK SMILES IDX 4 15 5 16 15 17 16 18 17 19 18 20 19 21 20 23 21 24 22 25
REMARK SMILES IDX 80 26 23 27 79 28 24 29 25 30 26 31 73 32 27 33 78 34 72 35
REMARK SMILES IDX 74 36 28 37 77 38 71 39 70 40 29 42 59 43 40 44 58 45 41 46
REMARK SMILES IDX 44 47 57 48 75 49 42 50 43 51 56 53 76 54 45 55 30 56 31 57
REMARK SMILES IDX 39 58 32 59 38 60 33 61 34 62 35 63 36 64 37 65 60 66 61 67
REMARK SMILES IDX 69 68 62 69 68 70 63 71 64 72 65 73 66 74 67 75 46 76 47 77
REMARK SMILES IDX 55 78 48 79 54 80 49 81 50 82 51 83 52 84 53 85
REMARK H PARENT 11 7 3 12 18 22 74 41 44 52
REMARK Flexibility Score: inf
ROOT
ATOM      1  C   UNL A   1      36.272  32.198  31.416  1.00  0.00     0.002 C 
ENDROOT
BRANCH   1   2
ATOM      2  C   UNL A   1      37.006  32.359  32.755  1.00  0.00     0.021 C 
BRANCH   2   3
ATOM      3  C   UNL A   1      37.969  31.225  33.086  1.00  0.00     0.116 C 
BRANCH   3   4
ATOM      4  N   UNL A   1      37.815  30.802  34.463  1.00  0.00    -0.353 N 
ATOM      5  C   UNL A   1      38.757  30.703  35.443  1.00  0.00     0.260 C 
ATOM      6  O   UNL A   1      38.414  30.190  36.513  1.00  0.00    -0.271 OA
ATOM      7  H   UNL A   1      36.900  30.551  34.729  1.00  0.00     0.163 HD
BRANCH   5   8
ATOM      8  C   UNL A   1      40.156  31.264  35.242  1.00  0.00     0.309 C 
ATOM      9  F   UNL A   1      40.617  31.887  36.376  1.00  0.00    -0.230 F 
BRANCH   8  10
ATOM     10  C   UNL A   1      41.209  30.218  34.820  1.00  0.00     0.310 C 
BRANCH  10  11
ATOM     11  N   UNL A   1      41.076  28.772  35.085  1.00  0.00    -0.333 N 
ATOM     12  H   UNL A   1      40.134  28.744  35.477  1.00  0.00     0.348 HD
BRANCH  11  13
ATOM     13  C   UNL A   1      40.979  27.891  33.918  1.00  0.00     0.258 C 
ATOM     14  C   UNL A   1      42.182  27.970  32.980  1.00  0.00     0.071 C 
ENDBRANCH  11  13
BRANCH  11  15
ATOM     15  C   UNL A   1      41.950  28.244  36.138  1.00  0.00     0.258 C 
ATOM     16  C   UNL A   1      43.159  29.080  36.540  1.00  0.00     0.071 C 
ENDBRANCH  11  15
ENDBRANCH  10  11
ENDBRANCH   8  10
ENDBRANCH   5   8
ENDBRANCH   3   4
ENDBRANCH   2   3
ENDBRANCH   1   2
BRANCH   1  17
ATOM     17  C   UNL A   1      35.865  33.505  30.729  1.00  0.00     0.002 C 
BRANCH  17  18
ATOM     18  C   UNL A   1      34.620  33.414  29.844  1.00  0.00     0.021 C 
BRANCH  18  19
ATOM     19  C   UNL A   1      34.877  32.916  28.428  1.00  0.00     0.116 C 
BRANCH  19  20
ATOM     20  N   UNL A   1      34.012  31.809  28.059  1.00  0.00    -0.352 N 
ATOM     21  C   UNL A   1      34.341  30.491  27.855  1.00  0.00     0.251 C 
ATOM     22  H   UNL A   1      33.062  32.034  27.937  1.00  0.00     0.163 HD
ATOM     23  O   UNL A   1      33.514  29.713  27.400  1.00  0.00    -0.269 OA
BRANCH  21  24
ATOM     24  C   UNL A   1      35.713  30.029  28.165  1.00  0.00     0.039 A 
ATOM     25  C   UNL A   1      36.702  30.161  27.188  1.00  0.00     0.014 A 
ATOM     26  C   UNL A   1      36.023  29.488  29.415  1.00  0.00     0.014 A 
ATOM     27  C   UNL A   1      38.016  29.794  27.485  1.00  0.00     0.010 A 
ATOM     28  C   UNL A   1      37.347  29.200  29.736  1.00  0.00     0.010 A 
ATOM     29  C   UNL A   1      38.355  29.339  28.771  1.00  0.00    -0.014 A 
BRANCH  29  30
ATOM     30  C   UNL A   1      39.759  28.995  29.116  1.00  0.00     0.031 A 
ATOM     31  C   UNL A   1      40.641  30.010  29.792  1.00  0.00     0.074 A 
ATOM     32  C   UNL A   1      40.250  27.785  28.782  1.00  0.00     0.049 A 
ATOM     33  N   UNL A   1      41.897  29.906  30.144  1.00  0.00    -0.248 NA
ATOM     34  C   UNL A   1      40.042  31.321  30.091  1.00  0.00     0.031 C 
ATOM     35  C   UNL A   1      39.507  26.729  28.089  1.00  0.00     0.029 A 
ATOM     36  N   UNL A   1      41.493  27.237  28.980  1.00  0.00    -0.354 N 
ATOM     37  C   UNL A   1      42.239  31.135  30.695  1.00  0.00     0.074 A 
ATOM     38  C   UNL A   1      41.078  31.989  30.576  1.00  0.00     0.031 C 
ATOM     39  C   UNL A   1      40.297  25.653  27.950  1.00  0.00     0.029 A 
ATOM     40  C   UNL A   1      41.614  25.954  28.502  1.00  0.00     0.049 A 
ATOM     41  H   UNL A   1      42.229  27.720  29.423  1.00  0.00     0.167 HD
ATOM     42  C   UNL A   1      43.404  31.513  31.272  1.00  0.00     0.031 A 
ATOM     43  C   UNL A   1      42.668  25.114  28.505  1.00  0.00     0.031 A 
ATOM     44  C   UNL A   1      44.557  30.658  31.392  1.00  0.00     0.049 A 
ATOM     45  C   UNL A   1      43.960  25.565  29.130  1.00  0.00     0.074 A 
ATOM     46  C   UNL A   1      45.771  30.931  31.997  1.00  0.00     0.029 A 
ATOM     47  N   UNL A   1      44.638  29.365  30.897  1.00  0.00    -0.354 N 
ATOM     48  N   UNL A   1      44.243  26.710  29.704  1.00  0.00    -0.248 NA
ATOM     49  C   UNL A   1      45.070  24.602  29.124  1.00  0.00     0.031 C 
ATOM     50  C   UNL A   1      46.606  29.824  31.817  1.00  0.00     0.029 A 
ATOM     51  C   UNL A   1      45.889  28.836  31.161  1.00  0.00     0.049 A 
ATOM     52  H   UNL A   1      43.913  28.893  30.426  1.00  0.00     0.167 HD
ATOM     53  C   UNL A   1      45.553  26.594  30.156  1.00  0.00     0.074 A 
ATOM     54  C   UNL A   1      45.999  25.261  29.804  1.00  0.00     0.031 C 
ATOM     55  C   UNL A   1      46.318  27.506  30.805  1.00  0.00     0.031 A 
BRANCH  42  56
ATOM     56  C   UNL A   1      43.490  32.916  31.816  1.00  0.00    -0.014 A 
ATOM     57  C   UNL A   1      43.161  33.198  33.155  1.00  0.00     0.010 A 
ATOM     58  C   UNL A   1      43.941  33.962  30.991  1.00  0.00     0.010 A 
ATOM     59  C   UNL A   1      43.239  34.505  33.645  1.00  0.00     0.020 A 
ATOM     60  C   UNL A   1      44.053  35.264  31.486  1.00  0.00     0.020 A 
ATOM     61  C   UNL A   1      43.684  35.530  32.806  1.00  0.00     0.054 A 
BRANCH  61  62
ATOM     62  S   UNL A   1      43.797  37.211  33.478  1.00  0.00     0.124 S 
ATOM     63  O   UNL A   1      45.053  37.154  34.223  1.00  0.00    -0.237 OA
ATOM     64  O   UNL A   1      43.820  38.036  32.274  1.00  0.00    -0.237 OA
ATOM     65  O   UNL A   1      42.594  37.340  34.296  1.00  0.00    -0.744 OA
ENDBRANCH  61  62
ENDBRANCH  42  56
BRANCH  43  66
ATOM     66  C   UNL A   1      42.543  23.757  27.903  1.00  0.00    -0.014 A 
ATOM     67  C   UNL A   1      42.736  23.564  26.523  1.00  0.00     0.010 A 
ATOM     68  C   UNL A   1      42.228  22.648  28.708  1.00  0.00     0.010 A 
ATOM     69  C   UNL A   1      42.589  22.293  25.957  1.00  0.00     0.020 A 
ATOM     70  C   UNL A   1      42.113  21.371  28.152  1.00  0.00     0.020 A 
ATOM     71  C   UNL A   1      42.278  21.204  26.776  1.00  0.00     0.054 A 
BRANCH  71  72
ATOM     72  S   UNL A   1      42.127  19.560  26.026  1.00  0.00     0.124 S 
ATOM     73  O   UNL A   1      43.061  19.650  24.908  1.00  0.00    -0.237 OA
ATOM     74  O   UNL A   1      42.529  18.677  27.118  1.00  0.00    -0.237 OA
ATOM     75  O   UNL A   1      40.715  19.481  25.657  1.00  0.00    -0.744 OA
ENDBRANCH  71  72
ENDBRANCH  43  66
BRANCH  55  76
ATOM     76  C   UNL A   1      47.704  27.080  31.220  1.00  0.00    -0.014 A 
ATOM     77  C   UNL A   1      48.806  27.234  30.362  1.00  0.00     0.010 A 
ATOM     78  C   UNL A   1      47.907  26.559  32.512  1.00  0.00     0.010 A 
ATOM     79  C   UNL A   1      50.082  26.835  30.774  1.00  0.00     0.020 A 
ATOM     80  C   UNL A   1      49.184  26.192  32.939  1.00  0.00     0.020 A 
ATOM     81  C   UNL A   1      50.262  26.317  32.061  1.00  0.00     0.054 A 
BRANCH  81  82
ATOM     82  S   UNL A   1      51.932  25.840  32.582  1.00  0.00     0.124 S 
ATOM     83  O   UNL A   1      52.768  26.720  31.771  1.00  0.00    -0.237 OA
ATOM     84  O   UNL A   1      51.915  26.130  34.013  1.00  0.00    -0.237 OA
ATOM     85  O   UNL A   1      52.010  24.421  32.241  1.00  0.00    -0.744 OA
ENDBRANCH  81  82
ENDBRANCH  55  76
ENDBRANCH  29  30
ENDBRANCH  21  24
ENDBRANCH  19  20
ENDBRANCH  18  19
ENDBRANCH  17  18
ENDBRANCH   1  17
TORSDOF 20
ENDMDL
MODEL 2
REMARK VINA RESULT:      -7.7      3.453     10.471
REMARK SMILES CC[NH+](CC)C[C@H](F)C(=O)NCCCCCCNC(=O)c1ccc(-c2c3nc(c(-c4ccc(S(=O)(=O)[O-])cc4)c4ccc([nH]4)c(-c4ccc(S(=O)(=O)[O-])cc4)c4nc(c(-c5ccc(S(=O)(=O)[O-])cc5)c5ccc2[nH]5)C=C4)C=C3)cc1
REMARK SMILES IDX 14 1 13 2 12 3 11 4 9 5 10 6 7 8 8 9 6 10 3 11 2 13 1 14
REMARK SMILES IDX 4 15 5 16 15 17 16 18 17 19 18 20 19 21 20 23 21 24 22 25
REMARK SMILES IDX 80 26 23 27 79 28 24 29 25 30 26 31 73 32 27 33 78 34 72 35
REMARK SMILES IDX 74 36 28 37 77 38 71 39 70 40 29 42 59 43 40 44 58 45 41 46
REMARK SMILES IDX 44 47 57 48 75 49 42 50 43 51 56 53 76 54 45 55 30 56 31 57
REMARK SMILES IDX 39 58 32 59 38 60 33 61 34 62 35 63 36 64 37 65 60 66 61 67
REMARK SMILES IDX 69 68 62 69 68 70 63 71 64 72 65 73 66 74 67 75 46 76 47 77
REMARK SMILES IDX 55 78 48 79 54 80 49 81 50 82 51 83 52 84 53 85
REMARK H PARENT 11 7 3 12 18 22 74 41 44 52
REMARK Flexibility Score: inf
ROOT
ATOM      1  C   UNL A   1      43.771  24.217  26.857  1.00  0.00     0.002 C 
ENDROOT
BRANCH   1   2
ATOM      2  C   UNL A   1      43.948  25.154  25.655  1.00  0.00     0.021 C 
BRANCH   2   3
ATOM      3  C   UNL A   1      44.721  26.433  25.961  1.00  0.00     0.116 C 
BRANCH   3   4
ATOM      4  N   UNL A   1      45.536  26.826  24.830  1.00  0.00    -0.353 N 
ATOM      5  C   UNL A   1      46.362  27.902  24.699  1.00  0.00     0.260 C 
ATOM      6  O   UNL A   1      46.859  28.107  23.587  1.00  0.00    -0.271 OA
ATOM      7  H   UNL A   1      45.486  26.233  24.045  1.00  0.00     0.163 HD
BRANCH   5   8
ATOM      8  C   UNL A   1      46.707  28.774  25.896  1.00  0.00     0.309 C 
ATOM      9  F   UNL A   1      48.064  28.844  26.095  1.00  0.00    -0.230 F 
BRANCH   8  10
ATOM     10  C   UNL A   1      46.170  30.218  25.811  1.00  0.00     0.310 C 
BRANCH  10  11
ATOM     11  N   UNL A   1      45.072  30.733  26.653  1.00  0.00    -0.333 N 
ATOM     12  H   UNL A   1      44.527  31.238  25.954  1.00  0.00     0.348 HD
BRANCH  11  13
ATOM     13  C   UNL A   1      44.119  29.749  27.173  1.00  0.00     0.258 C 
ATOM     14  C   UNL A   1      42.812  29.676  26.387  1.00  0.00     0.071 C 
ENDBRANCH  11  13
BRANCH  11  15
ATOM     15  C   UNL A   1      45.462  31.741  27.644  1.00  0.00     0.258 C 
ATOM     16  C   UNL A   1      44.353  32.531  28.326  1.00  0.00     0.071 C 
ENDBRANCH  11  15
ENDBRANCH  10  11
ENDBRANCH   8  10
ENDBRANCH   5   8
ENDBRANCH   3   4
ENDBRANCH   2   3
ENDBRANCH   1   2
BRANCH   1  17
ATOM     17  C   UNL A   1      43.696  22.723  26.521  1.00  0.00     0.002 C 
BRANCH  17  18
ATOM     18  C   UNL A   1      42.410  22.278  25.824  1.00  0.00     0.021 C 
BRANCH  18  19
ATOM     19  C   UNL A   1      41.249  21.967  26.761  1.00  0.00     0.116 C 
BRANCH  19  20
ATOM     20  N   UNL A   1      39.960  22.034  26.096  1.00  0.00    -0.352 N 
ATOM     21  C   UNL A   1      39.028  23.043  26.123  1.00  0.00     0.251 C 
ATOM     22  H   UNL A   1      39.721  21.250  25.551  1.00  0.00     0.163 HD
ATOM     23  O   UNL A   1      37.923  22.876  25.626  1.00  0.00    -0.269 OA
BRANCH  21  24
ATOM     24  C   UNL A   1      39.365  24.323  26.788  1.00  0.00     0.039 A 
ATOM     25  C   UNL A   1      38.936  24.532  28.099  1.00  0.00     0.014 A 
ATOM     26  C   UNL A   1      40.114  25.300  26.125  1.00  0.00     0.014 A 
ATOM     27  C   UNL A   1      39.302  25.704  28.765  1.00  0.00     0.010 A 
ATOM     28  C   UNL A   1      40.546  26.428  26.816  1.00  0.00     0.010 A 
ATOM     29  C   UNL A   1      40.136  26.648  28.140  1.00  0.00    -0.014 A 
BRANCH  29  30
ATOM     30  C   UNL A   1      40.575  27.874  28.854  1.00  0.00     0.031 A 
ATOM     31  C   UNL A   1      41.945  27.936  29.476  1.00  0.00     0.074 A 
ATOM     32  C   UNL A   1      39.725  28.913  28.980  1.00  0.00     0.049 A 
ATOM     33  N   UNL A   1      42.494  28.904  30.163  1.00  0.00    -0.248 NA
ATOM     34  C   UNL A   1      42.800  26.747  29.326  1.00  0.00     0.031 C 
ATOM     35  C   UNL A   1      38.357  28.959  28.458  1.00  0.00     0.029 A 
ATOM     36  N   UNL A   1      39.887  30.132  29.590  1.00  0.00    -0.354 N 
ATOM     37  C   UNL A   1      43.751  28.439  30.533  1.00  0.00     0.074 A 
ATOM     38  C   UNL A   1      43.859  27.081  30.048  1.00  0.00     0.031 C 
ATOM     39  C   UNL A   1      37.818  30.156  28.740  1.00  0.00     0.029 A 
ATOM     40  C   UNL A   1      38.781  30.945  29.499  1.00  0.00     0.049 A 
ATOM     41  H   UNL A   1      40.716  30.399  30.049  1.00  0.00     0.167 HD
ATOM     42  C   UNL A   1      44.737  29.090  31.195  1.00  0.00     0.031 A 
ATOM     43  C   UNL A   1      38.566  32.186  29.978  1.00  0.00     0.031 A 
ATOM     44  C   UNL A   1      44.627  30.444  31.673  1.00  0.00     0.049 A 
ATOM     45  C   UNL A   1      39.668  32.881  30.731  1.00  0.00     0.074 A 
ATOM     46  C   UNL A   1      45.582  31.209  32.317  1.00  0.00     0.029 A 
ATOM     47  N   UNL A   1      43.492  31.233  31.560  1.00  0.00    -0.354 N 
ATOM     48  N   UNL A   1      40.873  32.448  31.015  1.00  0.00    -0.248 NA
ATOM     49  C   UNL A   1      39.387  34.241  31.213  1.00  0.00     0.031 C 
ATOM     50  C   UNL A   1      45.007  32.440  32.645  1.00  0.00     0.029 A 
ATOM     51  C   UNL A   1      43.716  32.469  32.143  1.00  0.00     0.049 A 
ATOM     52  H   UNL A   1      42.651  30.956  31.129  1.00  0.00     0.167 HD
ATOM     53  C   UNL A   1      41.505  33.492  31.680  1.00  0.00     0.074 A 
ATOM     54  C   UNL A   1      40.555  34.584  31.740  1.00  0.00     0.031 C 
ATOM     55  C   UNL A   1      42.759  33.546  32.194  1.00  0.00     0.031 A 
BRANCH  42  56
ATOM     56  C   UNL A   1      46.022  28.343  31.442  1.00  0.00    -0.014 A 
ATOM     57  C   UNL A   1      47.098  28.429  30.539  1.00  0.00     0.010 A 
ATOM     58  C   UNL A   1      46.173  27.573  32.610  1.00  0.00     0.010 A 
ATOM     59  C   UNL A   1      48.282  27.726  30.777  1.00  0.00     0.020 A 
ATOM     60  C   UNL A   1      47.368  26.895  32.868  1.00  0.00     0.020 A 
ATOM     61  C   UNL A   1      48.409  26.962  31.941  1.00  0.00     0.054 A 
BRANCH  61  62
ATOM     62  S   UNL A   1      49.966  26.080  32.233  1.00  0.00     0.124 S 
ATOM     63  O   UNL A   1      49.689  24.774  31.639  1.00  0.00    -0.237 OA
ATOM     64  O   UNL A   1      50.938  26.901  31.518  1.00  0.00    -0.237 OA
ATOM     65  O   UNL A   1      50.100  26.085  33.687  1.00  0.00    -0.744 OA
ENDBRANCH  61  62
ENDBRANCH  42  56
BRANCH  43  66
ATOM     66  C   UNL A   1      37.255  32.857  29.752  1.00  0.00    -0.014 A 
ATOM     67  C   UNL A   1      36.312  32.958  30.791  1.00  0.00     0.010 A 
ATOM     68  C   UNL A   1      36.941  33.399  28.492  1.00  0.00     0.010 A 
ATOM     69  C   UNL A   1      35.071  33.561  30.566  1.00  0.00     0.020 A 
ATOM     70  C   UNL A   1      35.715  34.033  28.272  1.00  0.00     0.020 A 
ATOM     71  C   UNL A   1      34.780  34.096  29.307  1.00  0.00     0.054 A 
BRANCH  71  72
ATOM     72  S   UNL A   1      33.178  34.906  29.049  1.00  0.00     0.124 S 
ATOM     73  O   UNL A   1      32.583  34.832  30.380  1.00  0.00    -0.237 OA
ATOM     74  O   UNL A   1      33.568  36.240  28.602  1.00  0.00    -0.237 OA
ATOM     75  O   UNL A   1      32.537  34.078  28.030  1.00  0.00    -0.744 OA
ENDBRANCH  71  72
ENDBRANCH  43  66
BRANCH  55  76
ATOM     76  C   UNL A   1      43.195  34.843  32.826  1.00  0.00    -0.014 A 
ATOM     77  C   UNL A   1      43.699  35.904  32.053  1.00  0.00     0.010 A 
ATOM     78  C   UNL A   1      43.054  35.014  34.217  1.00  0.00     0.010 A 
ATOM     79  C   UNL A   1      44.092  37.098  32.664  1.00  0.00     0.020 A 
ATOM     80  C   UNL A   1      43.414  36.218  34.826  1.00  0.00     0.020 A 
ATOM     81  C   UNL A   1      43.946  37.247  34.048  1.00  0.00     0.054 A 
BRANCH  81  82
ATOM     82  S   UNL A   1      44.432  38.818  34.811  1.00  0.00     0.124 S 
ATOM     83  O   UNL A   1      43.506  39.759  34.188  1.00  0.00    -0.237 OA
ATOM     84  O   UNL A   1      44.211  38.566  36.232  1.00  0.00    -0.237 OA
ATOM     85  O   UNL A   1      45.832  38.975  34.423  1.00  0.00    -0.744 OA
ENDBRANCH  81  82
ENDBRANCH  55  76
ENDBRANCH  29  30
ENDBRANCH  21  24
ENDBRANCH  19  20
ENDBRANCH  18  19
ENDBRANCH  17  18
ENDBRANCH   1  17
TORSDOF 20
ENDMDL
MODEL 3
REMARK VINA RESULT:      -7.6      3.358     10.527
REMARK SMILES CC[NH+](CC)C[C@H](F)C(=O)NCCCCCCNC(=O)c1ccc(-c2c3nc(c(-c4ccc(S(=O)(=O)[O-])cc4)c4ccc([nH]4)c(-c4ccc(S(=O)(=O)[O-])cc4)c4nc(c(-c5ccc(S(=O)(=O)[O-])cc5)c5ccc2[nH]5)C=C4)C=C3)cc1
REMARK SMILES IDX 14 1 13 2 12 3 11 4 9 5 10 6 7 8 8 9 6 10 3 11 2 13 1 14
REMARK SMILES IDX 4 15 5 16 15 17 16 18 17 19 18 20 19 21 20 23 21 24 22 25
REMARK SMILES IDX 80 26 23 27 79 28 24 29 25 30 26 31 73 32 27 33 78 34 72 35
REMARK SMILES IDX 74 36 28 37 77 38 71 39 70 40 29 42 59 43 40 44 58 45 41 46
REMARK SMILES IDX 44 47 57 48 75 49 42 50 43 51 56 53 76 54 45 55 30 56 31 57
REMARK SMILES IDX 39 58 32 59 38 60 33 61 34 62 35 63 36 64 37 65 60 66 61 67
REMARK SMILES IDX 69 68 62 69 68 70 63 71 64 72 65 73 66 74 67 75 46 76 47 77
REMARK SMILES IDX 55 78 48 79 54 80 49 81 50 82 51 83 52 84 53 85
REMARK H PARENT 11 7 3 12 18 22 74 41 44 52
REMARK Flexibility Score: inf
ROOT
ATOM      1  C   UNL A   1      43.649  24.487  26.648  1.00  0.00     0.002 C 
ENDROOT
BRANCH   1   2
ATOM      2  C   UNL A   1      44.633  25.281  25.778  1.00  0.00     0.021 C 
BRANCH   2   3
ATOM      3  C   UNL A   1      44.430  26.792  25.815  1.00  0.00     0.116 C 
BRANCH   3   4
ATOM      4  N   UNL A   1      45.184  27.440  24.763  1.00  0.00    -0.353 N 
ATOM      5  C   UNL A   1      46.291  28.230  24.860  1.00  0.00     0.260 C 
ATOM      6  O   UNL A   1      46.688  28.784  23.829  1.00  0.00    -0.271 OA
ATOM      7  H   UNL A   1      44.851  27.290  23.848  1.00  0.00     0.163 HD
BRANCH   5   8
ATOM      8  C   UNL A   1      47.042  28.366  26.175  1.00  0.00     0.309 C 
ATOM      9  F   UNL A   1      46.231  28.097  27.250  1.00  0.00    -0.230 F 
BRANCH   8  10
ATOM     10  C   UNL A   1      48.290  27.466  26.293  1.00  0.00     0.310 C 
BRANCH  10  11
ATOM     11  N   UNL A   1      48.540  26.561  27.433  1.00  0.00    -0.333 N 
ATOM     12  H   UNL A   1      48.119  27.101  28.190  1.00  0.00     0.348 HD
BRANCH  11  13
ATOM     13  C   UNL A   1      47.786  25.305  27.458  1.00  0.00     0.258 C 
ATOM     14  C   UNL A   1      46.911  25.132  28.698  1.00  0.00     0.071 C 
ENDBRANCH  11  13
BRANCH  11  15
ATOM     15  C   UNL A   1      49.948  26.400  27.808  1.00  0.00     0.258 C 
ATOM     16  C   UNL A   1      50.709  25.221  27.215  1.00  0.00     0.071 C 
ENDBRANCH  11  15
ENDBRANCH  10  11
ENDBRANCH   8  10
ENDBRANCH   5   8
ENDBRANCH   3   4
ENDBRANCH   2   3
ENDBRANCH   1   2
BRANCH   1  17
ATOM     17  C   UNL A   1      43.620  22.975  26.395  1.00  0.00     0.002 C 
BRANCH  17  18
ATOM     18  C   UNL A   1      42.370  22.459  25.681  1.00  0.00     0.021 C 
BRANCH  18  19
ATOM     19  C   UNL A   1      41.257  21.982  26.605  1.00  0.00     0.116 C 
BRANCH  19  20
ATOM     20  N   UNL A   1      39.946  22.052  25.985  1.00  0.00    -0.352 N 
ATOM     21  C   UNL A   1      39.009  23.054  26.062  1.00  0.00     0.251 C 
ATOM     22  H   UNL A   1      39.694  21.277  25.434  1.00  0.00     0.163 HD
ATOM     23  O   UNL A   1      37.889  22.889  25.599  1.00  0.00    -0.269 OA
BRANCH  21  24
ATOM     24  C   UNL A   1      39.360  24.324  26.738  1.00  0.00     0.039 A 
ATOM     25  C   UNL A   1      38.965  24.510  28.064  1.00  0.00     0.014 A 
ATOM     26  C   UNL A   1      40.089  25.313  26.072  1.00  0.00     0.014 A 
ATOM     27  C   UNL A   1      39.345  25.672  28.739  1.00  0.00     0.010 A 
ATOM     28  C   UNL A   1      40.535  26.432  26.771  1.00  0.00     0.010 A 
ATOM     29  C   UNL A   1      40.160  26.628  28.108  1.00  0.00    -0.014 A 
BRANCH  29  30
ATOM     30  C   UNL A   1      40.614  27.844  28.831  1.00  0.00     0.031 A 
ATOM     31  C   UNL A   1      41.993  27.893  29.433  1.00  0.00     0.074 A 
ATOM     32  C   UNL A   1      39.771  28.884  28.982  1.00  0.00     0.049 A 
ATOM     33  N   UNL A   1      42.557  28.850  30.124  1.00  0.00    -0.248 NA
ATOM     34  C   UNL A   1      42.841  26.703  29.256  1.00  0.00     0.031 C 
ATOM     35  C   UNL A   1      38.395  28.942  28.480  1.00  0.00     0.029 A 
ATOM     36  N   UNL A   1      39.946  30.096  29.604  1.00  0.00    -0.354 N 
ATOM     37  C   UNL A   1      43.817  28.376  30.470  1.00  0.00     0.074 A 
ATOM     38  C   UNL A   1      43.912  27.024  29.967  1.00  0.00     0.031 C 
ATOM     39  C   UNL A   1      37.865  30.137  28.785  1.00  0.00     0.029 A 
ATOM     40  C   UNL A   1      38.843  30.914  29.540  1.00  0.00     0.049 A 
ATOM     41  H   UNL A   1      40.783  30.353  30.054  1.00  0.00     0.167 HD
ATOM     42  C   UNL A   1      44.815  29.015  31.125  1.00  0.00     0.031 A 
ATOM     43  C   UNL A   1      38.639  32.150  30.037  1.00  0.00     0.031 A 
ATOM     44  C   UNL A   1      44.717  30.363  31.621  1.00  0.00     0.049 A 
ATOM     45  C   UNL A   1      39.755  32.831  30.782  1.00  0.00     0.074 A 
ATOM     46  C   UNL A   1      45.685  31.117  32.260  1.00  0.00     0.029 A 
ATOM     47  N   UNL A   1      43.584  31.158  31.535  1.00  0.00    -0.354 N 
ATOM     48  N   UNL A   1      40.963  32.390  31.043  1.00  0.00    -0.248 NA
ATOM     49  C   UNL A   1      39.486  34.186  31.284  1.00  0.00     0.031 C 
ATOM     50  C   UNL A   1      45.120  32.346  32.612  1.00  0.00     0.029 A 
ATOM     51  C   UNL A   1      43.821  32.386  32.130  1.00  0.00     0.049 A 
ATOM     52  H   UNL A   1      42.736  30.890  31.112  1.00  0.00     0.167 HD
ATOM     53  C   UNL A   1      41.608  33.424  31.712  1.00  0.00     0.074 A 
ATOM     54  C   UNL A   1      40.663  34.518  31.798  1.00  0.00     0.031 C 
ATOM     55  C   UNL A   1      42.869  33.466  32.207  1.00  0.00     0.031 A 
BRANCH  42  56
ATOM     56  C   UNL A   1      46.101  28.260  31.344  1.00  0.00    -0.014 A 
ATOM     57  C   UNL A   1      46.173  27.198  32.264  1.00  0.00     0.010 A 
ATOM     58  C   UNL A   1      47.245  28.591  30.595  1.00  0.00     0.010 A 
ATOM     59  C   UNL A   1      47.373  26.510  32.461  1.00  0.00     0.020 A 
ATOM     60  C   UNL A   1      48.438  27.884  30.766  1.00  0.00     0.020 A 
ATOM     61  C   UNL A   1      48.500  26.859  31.711  1.00  0.00     0.054 A 
BRANCH  61  62
ATOM     62  S   UNL A   1      50.037  25.933  31.974  1.00  0.00     0.124 S 
ATOM     63  O   UNL A   1      49.882  25.477  33.354  1.00  0.00    -0.237 OA
ATOM     64  O   UNL A   1      49.959  24.889  30.957  1.00  0.00    -0.237 OA
ATOM     65  O   UNL A   1      51.083  26.930  31.763  1.00  0.00    -0.744 OA
ENDBRANCH  61  62
ENDBRANCH  42  56
BRANCH  43  66
ATOM     66  C   UNL A   1      37.328  32.829  29.838  1.00  0.00    -0.014 A 
ATOM     67  C   UNL A   1      36.305  32.707  30.797  1.00  0.00     0.010 A 
ATOM     68  C   UNL A   1      37.094  33.601  28.686  1.00  0.00     0.010 A 
ATOM     69  C   UNL A   1      35.065  33.321  30.591  1.00  0.00     0.020 A 
ATOM     70  C   UNL A   1      35.868  34.243  28.493  1.00  0.00     0.020 A 
ATOM     71  C   UNL A   1      34.854  34.086  29.441  1.00  0.00     0.054 A 
BRANCH  71  72
ATOM     72  S   UNL A   1      33.251  34.902  29.214  1.00  0.00     0.124 S 
ATOM     73  O   UNL A   1      32.596  34.023  28.251  1.00  0.00    -0.237 OA
ATOM     74  O   UNL A   1      32.696  34.887  30.565  1.00  0.00    -0.237 OA
ATOM     75  O   UNL A   1      33.610  36.226  28.711  1.00  0.00    -0.744 OA
ENDBRANCH  71  72
ENDBRANCH  43  66
BRANCH  55  76
ATOM     76  C   UNL A   1      43.320  34.754  32.849  1.00  0.00    -0.014 A 
ATOM     77  C   UNL A   1      43.205  34.963  34.234  1.00  0.00     0.010 A 
ATOM     78  C   UNL A   1      43.912  35.752  32.051  1.00  0.00     0.010 A 
ATOM     79  C   UNL A   1      43.636  36.165  34.805  1.00  0.00     0.020 A 
ATOM     80  C   UNL A   1      44.373  36.939  32.623  1.00  0.00     0.020 A 
ATOM     81  C   UNL A   1      44.217  37.145  33.994  1.00  0.00     0.054 A 
BRANCH  81  82
ATOM     82  S   UNL A   1      44.799  38.680  34.764  1.00  0.00     0.124 S 
ATOM     83  O   UNL A   1      44.711  38.360  36.186  1.00  0.00    -0.237 OA
ATOM     84  O   UNL A   1      46.152  38.812  34.232  1.00  0.00    -0.237 OA
ATOM     85  O   UNL A   1      43.849  39.686  34.293  1.00  0.00    -0.744 OA
ENDBRANCH  81  82
ENDBRANCH  55  76
ENDBRANCH  29  30
ENDBRANCH  21  24
ENDBRANCH  19  20
ENDBRANCH  18  19
ENDBRANCH  17  18
ENDBRANCH   1  17
TORSDOF 20
ENDMDL
