MODEL 1
REMARK VINA RESULT:     -11.9      0.000      0.000
REMARK SMILES CN1C(=O)/C(=C\c2ccc(-c3ccccc3C(=O)NCCCCCCNC(=O)c3ccc(-c4c5nc(c(-c6ccc(S(=O)(=O)[O-])cc6)c6ccc([nH]6)c(-c6ccc(S(=O)(=O)[O-])cc6)c6nc(c(-c7ccc(S(=O)(=O)[O-])cc7)c7ccc4[nH]7)C=C6)C=C5)cc3)o2)C(=O)[NH+]=C1S
REMARK SMILES IDX 22 1 21 2 20 3 19 4 17 5 18 6 16 8 11 9 12 10 13 11 15 12
REMARK SMILES IDX 14 13 10 14 7 15 8 16 89 17 9 18 6 19 1 20 2 21 3 22 93 23
REMARK SMILES IDX 4 24 5 25 92 26 90 27 91 29 94 30 23 32 24 33 25 34 26 35
REMARK SMILES IDX 27 36 28 38 29 39 30 40 88 41 31 42 87 43 32 44 33 45 34 46
REMARK SMILES IDX 81 47 35 48 86 49 80 50 82 51 36 52 85 53 79 54 78 55 37 57
REMARK SMILES IDX 67 58 48 59 66 60 49 61 52 62 65 63 83 64 50 65 51 66 64 68
REMARK SMILES IDX 84 69 53 70 38 71 39 72 47 73 40 74 46 75 41 76 42 77 43 78
REMARK SMILES IDX 44 79 45 80 68 81 69 82 77 83 70 84 76 85 71 86 72 87 73 88
REMARK SMILES IDX 74 89 75 90 54 91 55 92 63 93 56 94 62 95 57 96 58 97 59 98
REMARK SMILES IDX 60 99 61 100
REMARK H PARENT 19 7 92 28 94 31 26 37 82 56 52 67
REMARK Flexibility Score: inf
ROOT
ATOM      1  C   UNL A   1      34.698  31.395  28.027  1.00  0.00     0.002 C 
ENDROOT
BRANCH   1   2
ATOM      2  C   UNL A   1      35.302  30.048  27.625  1.00  0.00     0.021 C 
BRANCH   2   3
ATOM      3  C   UNL A   1      34.385  28.985  27.031  1.00  0.00     0.116 C 
BRANCH   3   4
ATOM      4  N   UNL A   1      33.109  28.739  27.643  1.00  0.00    -0.352 N 
ATOM      5  C   UNL A   1      31.962  28.139  27.161  1.00  0.00     0.252 C 
ATOM      6  O   UNL A   1      31.089  27.974  28.027  1.00  0.00    -0.269 OA
ATOM      7  H   UNL A   1      33.039  29.057  28.573  1.00  0.00     0.163 HD
BRANCH   5   8
ATOM      8  C   UNL A   1      31.614  27.719  25.734  1.00  0.00     0.050 A 
ATOM      9  C   UNL A   1      31.709  26.482  25.060  1.00  0.00     0.030 A 
ATOM     10  C   UNL A   1      31.318  26.373  23.698  1.00  0.00     0.013 A 
ATOM     11  C   UNL A   1      30.779  27.443  22.999  1.00  0.00     0.001 A 
ATOM     12  C   UNL A   1      31.052  28.786  24.979  1.00  0.00     0.014 A 
ATOM     13  C   UNL A   1      30.630  28.654  23.648  1.00  0.00     0.001 A 
BRANCH   9  14
ATOM     14  C   UNL A   1      32.088  25.217  25.641  1.00  0.00     0.135 A 
ATOM     15  C   UNL A   1      33.456  23.470  25.796  1.00  0.00     0.128 A 
ATOM     16  C   UNL A   1      32.478  23.369  26.786  1.00  0.00     0.051 A 
ATOM     17  O   UNL A   1      33.171  24.609  25.075  1.00  0.00    -0.457 OA
ATOM     18  C   UNL A   1      31.575  24.443  26.647  1.00  0.00     0.051 A 
BRANCH  15  19
ATOM     19  C   UNL A   1      34.626  22.691  25.554  1.00  0.00     0.071 C 
ATOM     20  C   UNL A   1      32.325  18.534  25.451  1.00  0.00     0.301 C 
ATOM     21  N   UNL A   1      33.539  19.275  25.141  1.00  0.00    -0.189 N 
ATOM     22  C   UNL A   1      33.396  20.617  24.935  1.00  0.00     0.349 C 
ATOM     23  C   UNL A   1      34.718  18.741  24.712  1.00  0.00     0.318 C 
ATOM     24  O   UNL A   1      32.361  21.116  24.509  1.00  0.00    -0.240 OA
ATOM     25  C   UNL A   1      34.620  21.388  25.220  1.00  0.00     0.157 C 
ATOM     26  N   UNL A   1      35.840  19.377  24.701  1.00  0.00    -0.200 N 
ATOM     27  C   UNL A   1      35.894  20.632  25.238  1.00  0.00     0.347 C 
ATOM     28  H   UNL A   1      36.645  18.965  24.313  1.00  0.00     0.316 HD
ATOM     29  O   UNL A   1      36.910  21.101  25.748  1.00  0.00    -0.241 OA
BRANCH  23  30
ATOM     30  S   UNL A   1      34.667  17.148  24.029  1.00  0.00    -0.055 SA
ATOM     31  H   UNL A   1      35.636  17.030  23.082  1.00  0.00     0.116 HD
ENDBRANCH  23  30
ENDBRANCH  15  19
ENDBRANCH   9  14
ENDBRANCH   5   8
ENDBRANCH   3   4
ENDBRANCH   2   3
ENDBRANCH   1   2
BRANCH   1  32
ATOM     32  C   UNL A   1      35.584  32.644  27.933  1.00  0.00     0.002 C 
BRANCH  32  33
ATOM     33  C   UNL A   1      35.616  33.592  29.137  1.00  0.00     0.021 C 
BRANCH  33  34
ATOM     34  C   UNL A   1      36.714  33.364  30.175  1.00  0.00     0.116 C 
BRANCH  34  35
ATOM     35  N   UNL A   1      36.327  32.398  31.184  1.00  0.00    -0.352 N 
ATOM     36  C   UNL A   1      36.808  31.144  31.470  1.00  0.00     0.251 C 
ATOM     37  H   UNL A   1      35.591  32.692  31.767  1.00  0.00     0.163 HD
ATOM     38  O   UNL A   1      36.166  30.433  32.242  1.00  0.00    -0.269 OA
BRANCH  36  39
ATOM     39  C   UNL A   1      38.063  30.620  30.874  1.00  0.00     0.039 A 
ATOM     40  C   UNL A   1      39.116  30.278  31.733  1.00  0.00     0.014 A 
ATOM     41  C   UNL A   1      38.270  30.558  29.496  1.00  0.00     0.014 A 
ATOM     42  C   UNL A   1      40.352  29.868  31.217  1.00  0.00     0.010 A 
ATOM     43  C   UNL A   1      39.476  30.067  28.986  1.00  0.00     0.010 A 
ATOM     44  C   UNL A   1      40.547  29.740  29.833  1.00  0.00    -0.014 A 
BRANCH  44  45
ATOM     45  C   UNL A   1      41.866  29.312  29.271  1.00  0.00     0.031 A 
ATOM     46  C   UNL A   1      42.980  30.318  29.066  1.00  0.00     0.074 A 
ATOM     47  C   UNL A   1      42.059  28.033  28.883  1.00  0.00     0.049 A 
ATOM     48  N   UNL A   1      44.174  30.135  28.556  1.00  0.00    -0.248 NA
ATOM     49  C   UNL A   1      42.712  31.711  29.458  1.00  0.00     0.031 C 
ATOM     50  C   UNL A   1      41.062  26.960  28.955  1.00  0.00     0.029 A 
ATOM     51  N   UNL A   1      43.149  27.423  28.307  1.00  0.00    -0.354 N 
ATOM     52  C   UNL A   1      44.790  31.383  28.571  1.00  0.00     0.074 A 
ATOM     53  C   UNL A   1      43.810  32.330  29.051  1.00  0.00     0.031 C 
ATOM     54  C   UNL A   1      41.580  25.835  28.435  1.00  0.00     0.029 A 
ATOM     55  C   UNL A   1      42.941  26.101  27.982  1.00  0.00     0.049 A 
ATOM     56  H   UNL A   1      44.001  27.889  28.143  1.00  0.00     0.167 HD
ATOM     57  C   UNL A   1      46.069  31.714  28.260  1.00  0.00     0.031 A 
ATOM     58  C   UNL A   1      43.746  25.198  27.387  1.00  0.00     0.031 A 
ATOM     59  C   UNL A   1      47.058  30.775  27.803  1.00  0.00     0.049 A 
ATOM     60  C   UNL A   1      45.156  25.587  27.034  1.00  0.00     0.074 A 
ATOM     61  C   UNL A   1      48.402  30.995  27.550  1.00  0.00     0.029 A 
ATOM     62  N   UNL A   1      46.816  29.439  27.527  1.00  0.00    -0.354 N 
ATOM     63  N   UNL A   1      45.748  26.751  27.162  1.00  0.00    -0.248 NA
ATOM     64  C   UNL A   1      46.019  24.527  26.495  1.00  0.00     0.031 C 
ATOM     65  C   UNL A   1      48.956  29.807  27.063  1.00  0.00     0.029 A 
ATOM     66  C   UNL A   1      47.977  28.828  27.082  1.00  0.00     0.049 A 
ATOM     67  H   UNL A   1      45.946  28.990  27.633  1.00  0.00     0.167 HD
ATOM     68  C   UNL A   1      47.067  26.548  26.768  1.00  0.00     0.074 A 
ATOM     69  C   UNL A   1      47.185  25.151  26.407  1.00  0.00     0.031 C 
ATOM     70  C   UNL A   1      48.090  27.438  26.722  1.00  0.00     0.031 A 
BRANCH  57  71
ATOM     71  C   UNL A   1      46.483  33.156  28.434  1.00  0.00    -0.014 A 
ATOM     72  C   UNL A   1      46.263  34.102  27.414  1.00  0.00     0.010 A 
ATOM     73  C   UNL A   1      47.043  33.588  29.650  1.00  0.00     0.010 A 
ATOM     74  C   UNL A   1      46.635  35.437  27.589  1.00  0.00     0.020 A 
ATOM     75  C   UNL A   1      47.386  34.930  29.843  1.00  0.00     0.020 A 
ATOM     76  C   UNL A   1      47.194  35.843  28.803  1.00  0.00     0.054 A 
BRANCH  76  77
ATOM     77  S   UNL A   1      47.632  37.591  29.014  1.00  0.00     0.124 S 
ATOM     78  O   UNL A   1      47.313  38.143  27.699  1.00  0.00    -0.237 OA
ATOM     79  O   UNL A   1      46.752  38.011  30.101  1.00  0.00    -0.237 OA
ATOM     80  O   UNL A   1      49.054  37.556  29.345  1.00  0.00    -0.744 OA
ENDBRANCH  76  77
ENDBRANCH  57  71
BRANCH  58  81
ATOM     81  C   UNL A   1      43.256  23.815  27.129  1.00  0.00    -0.014 A 
ATOM     82  C   UNL A   1      42.727  23.467  25.873  1.00  0.00     0.010 A 
ATOM     83  C   UNL A   1      43.307  22.840  28.142  1.00  0.00     0.010 A 
ATOM     84  C   UNL A   1      42.231  22.180  25.643  1.00  0.00     0.020 A 
ATOM     85  C   UNL A   1      42.841  21.543  27.907  1.00  0.00     0.020 A 
ATOM     86  C   UNL A   1      42.293  21.225  26.662  1.00  0.00     0.054 A 
BRANCH  86  87
ATOM     87  S   UNL A   1      41.681  19.550  26.325  1.00  0.00     0.124 S 
ATOM     88  O   UNL A   1      42.001  18.854  27.567  1.00  0.00    -0.237 OA
ATOM     89  O   UNL A   1      40.260  19.782  26.076  1.00  0.00    -0.237 OA
ATOM     90  O   UNL A   1      42.451  19.133  25.156  1.00  0.00    -0.744 OA
ENDBRANCH  86  87
ENDBRANCH  58  81
BRANCH  70  91
ATOM     91  C   UNL A   1      49.445  26.916  26.318  1.00  0.00    -0.014 A 
ATOM     92  C   UNL A   1      49.896  26.985  24.987  1.00  0.00     0.010 A 
ATOM     93  C   UNL A   1      50.290  26.361  27.298  1.00  0.00     0.010 A 
ATOM     94  C   UNL A   1      51.143  26.458  24.636  1.00  0.00     0.020 A 
ATOM     95  C   UNL A   1      51.552  25.868  26.957  1.00  0.00     0.020 A 
ATOM     96  C   UNL A   1      51.960  25.899  25.622  1.00  0.00     0.054 A 
BRANCH  96  97
ATOM     97  S   UNL A   1      53.576  25.230  25.142  1.00  0.00     0.124 S 
ATOM     98  O   UNL A   1      54.463  25.844  26.126  1.00  0.00    -0.237 OA
ATOM     99  O   UNL A   1      53.380  23.789  25.284  1.00  0.00    -0.237 OA
ATOM    100  O   UNL A   1      53.751  25.696  23.769  1.00  0.00    -0.744 OA
ENDBRANCH  96  97
ENDBRANCH  70  91
ENDBRANCH  44  45
ENDBRANCH  36  39
ENDBRANCH  34  35
ENDBRANCH  33  34
ENDBRANCH  32  33
ENDBRANCH   1  32
TORSDOF 19
ENDMDL
MODEL 2
REMARK VINA RESULT:     -11.2      2.899      9.585
REMARK SMILES CN1C(=O)/C(=C\c2ccc(-c3ccccc3C(=O)NCCCCCCNC(=O)c3ccc(-c4c5nc(c(-c6ccc(S(=O)(=O)[O-])cc6)c6ccc([nH]6)c(-c6ccc(S(=O)(=O)[O-])cc6)c6nc(c(-c7ccc(S(=O)(=O)[O-])cc7)c7ccc4[nH]7)C=C6)C=C5)cc3)o2)C(=O)[NH+]=C1S
REMARK SMILES IDX 22 1 21 2 20 3 19 4 17 5 18 6 16 8 11 9 12 10 13 11 15 12
REMARK SMILES IDX 14 13 10 14 7 15 8 16 89 17 9 18 6 19 1 20 2 21 3 22 93 23
REMARK SMILES IDX 4 24 5 25 92 26 90 27 91 29 94 30 23 32 24 33 25 34 26 35
REMARK SMILES IDX 27 36 28 38 29 39 30 40 88 41 31 42 87 43 32 44 33 45 34 46
REMARK SMILES IDX 81 47 35 48 86 49 80 50 82 51 36 52 85 53 79 54 78 55 37 57
REMARK SMILES IDX 67 58 48 59 66 60 49 61 52 62 65 63 83 64 50 65 51 66 64 68
REMARK SMILES IDX 84 69 53 70 38 71 39 72 47 73 40 74 46 75 41 76 42 77 43 78
REMARK SMILES IDX 44 79 45 80 68 81 69 82 77 83 70 84 76 85 71 86 72 87 73 88
REMARK SMILES IDX 74 89 75 90 54 91 55 92 63 93 56 94 62 95 57 96 58 97 59 98
REMARK SMILES IDX 60 99 61 100
REMARK H PARENT 19 7 92 28 94 31 26 37 82 56 52 67
REMARK Flexibility Score: inf
ROOT
ATOM      1  C   UNL A   1      39.809  23.202  27.373  1.00  0.00     0.002 C 
ENDROOT
BRANCH   1   2
ATOM      2  C   UNL A   1      38.868  24.211  26.712  1.00  0.00     0.021 C 
BRANCH   2   3
ATOM      3  C   UNL A   1      37.562  23.706  26.111  1.00  0.00     0.116 C 
BRANCH   3   4
ATOM      4  N   UNL A   1      37.434  23.621  24.683  1.00  0.00    -0.352 N 
ATOM      5  C   UNL A   1      36.550  22.925  23.881  1.00  0.00     0.252 C 
ATOM      6  O   UNL A   1      36.650  23.204  22.677  1.00  0.00    -0.269 OA
ATOM      7  H   UNL A   1      38.097  24.155  24.185  1.00  0.00     0.163 HD
BRANCH   5   8
ATOM      8  C   UNL A   1      35.536  21.848  24.264  1.00  0.00     0.050 A 
ATOM      9  C   UNL A   1      34.125  21.851  24.319  1.00  0.00     0.030 A 
ATOM     10  C   UNL A   1      33.420  20.688  24.730  1.00  0.00     0.013 A 
ATOM     11  C   UNL A   1      34.071  19.500  25.033  1.00  0.00     0.001 A 
ATOM     12  C   UNL A   1      36.160  20.609  24.578  1.00  0.00     0.014 A 
ATOM     13  C   UNL A   1      35.448  19.456  24.942  1.00  0.00     0.001 A 
BRANCH   9  14
ATOM     14  C   UNL A   1      33.254  22.919  23.896  1.00  0.00     0.135 A 
ATOM     15  C   UNL A   1      32.877  25.056  23.409  1.00  0.00     0.128 A 
ATOM     16  C   UNL A   1      31.731  24.316  23.116  1.00  0.00     0.051 A 
ATOM     17  O   UNL A   1      33.796  24.170  23.925  1.00  0.00    -0.457 OA
ATOM     18  C   UNL A   1      31.949  22.972  23.484  1.00  0.00     0.051 A 
BRANCH  15  19
ATOM     19  C   UNL A   1      33.196  26.424  23.159  1.00  0.00     0.071 C 
ATOM     20  C   UNL A   1      31.451  28.003  27.288  1.00  0.00     0.301 C 
ATOM     21  N   UNL A   1      32.285  28.267  26.125  1.00  0.00    -0.189 N 
ATOM     22  C   UNL A   1      32.824  27.177  25.503  1.00  0.00     0.349 C 
ATOM     23  C   UNL A   1      32.850  29.464  25.797  1.00  0.00     0.318 C 
ATOM     24  O   UNL A   1      33.072  26.132  26.093  1.00  0.00    -0.240 OA
ATOM     25  C   UNL A   1      33.123  27.405  24.078  1.00  0.00     0.157 C 
ATOM     26  N   UNL A   1      33.354  29.735  24.641  1.00  0.00    -0.200 N 
ATOM     27  C   UNL A   1      33.241  28.815  23.638  1.00  0.00     0.347 C 
ATOM     28  H   UNL A   1      33.813  30.591  24.483  1.00  0.00     0.316 HD
ATOM     29  O   UNL A   1      33.189  29.121  22.448  1.00  0.00    -0.241 OA
BRANCH  23  30
ATOM     30  S   UNL A   1      33.000  30.645  27.059  1.00  0.00    -0.055 SA
ATOM     31  H   UNL A   1      33.380  30.030  28.211  1.00  0.00     0.116 HD
ENDBRANCH  23  30
ENDBRANCH  15  19
ENDBRANCH   9  14
ENDBRANCH   5   8
ENDBRANCH   3   4
ENDBRANCH   2   3
ENDBRANCH   1   2
BRANCH   1  32
ATOM     32  C   UNL A   1      40.813  22.456  26.486  1.00  0.00     0.002 C 
BRANCH  32  33
ATOM     33  C   UNL A   1      40.512  20.996  26.132  1.00  0.00     0.021 C 
BRANCH  33  34
ATOM     34  C   UNL A   1      41.387  19.926  26.783  1.00  0.00     0.116 C 
BRANCH  34  35
ATOM     35  N   UNL A   1      42.368  19.382  25.864  1.00  0.00    -0.352 N 
ATOM     36  C   UNL A   1      43.408  19.975  25.192  1.00  0.00     0.251 C 
ATOM     37  H   UNL A   1      42.273  18.417  25.694  1.00  0.00     0.163 HD
ATOM     38  O   UNL A   1      43.968  19.337  24.301  1.00  0.00    -0.269 OA
BRANCH  36  39
ATOM     39  C   UNL A   1      43.868  21.353  25.498  1.00  0.00     0.039 A 
ATOM     40  C   UNL A   1      44.327  21.630  26.792  1.00  0.00     0.014 A 
ATOM     41  C   UNL A   1      43.761  22.400  24.582  1.00  0.00     0.014 A 
ATOM     42  C   UNL A   1      44.683  22.935  27.158  1.00  0.00     0.010 A 
ATOM     43  C   UNL A   1      44.199  23.683  24.924  1.00  0.00     0.010 A 
ATOM     44  C   UNL A   1      44.641  23.982  26.223  1.00  0.00    -0.014 A 
BRANCH  44  45
ATOM     45  C   UNL A   1      45.011  25.379  26.605  1.00  0.00     0.031 A 
ATOM     46  C   UNL A   1      43.959  26.345  27.110  1.00  0.00     0.074 A 
ATOM     47  C   UNL A   1      46.280  25.816  26.448  1.00  0.00     0.049 A 
ATOM     48  N   UNL A   1      44.089  27.604  27.450  1.00  0.00    -0.248 NA
ATOM     49  C   UNL A   1      42.579  25.843  27.221  1.00  0.00     0.031 C 
ATOM     50  C   UNL A   1      47.394  25.026  25.913  1.00  0.00     0.029 A 
ATOM     51  N   UNL A   1      46.841  27.050  26.683  1.00  0.00    -0.354 N 
ATOM     52  C   UNL A   1      42.817  28.036  27.814  1.00  0.00     0.074 A 
ATOM     53  C   UNL A   1      41.914  26.935  27.565  1.00  0.00     0.031 C 
ATOM     54  C   UNL A   1      48.494  25.795  25.850  1.00  0.00     0.029 A 
ATOM     55  C   UNL A   1      48.169  27.134  26.328  1.00  0.00     0.049 A 
ATOM     56  H   UNL A   1      46.339  27.804  27.069  1.00  0.00     0.167 HD
ATOM     57  C   UNL A   1      42.431  29.220  28.352  1.00  0.00     0.031 A 
ATOM     58  C   UNL A   1      49.035  28.166  26.378  1.00  0.00     0.031 A 
ATOM     59  C   UNL A   1      43.327  30.313  28.625  1.00  0.00     0.049 A 
ATOM     60  C   UNL A   1      48.586  29.478  26.963  1.00  0.00     0.074 A 
ATOM     61  C   UNL A   1      43.049  31.517  29.250  1.00  0.00     0.029 A 
ATOM     62  N   UNL A   1      44.670  30.340  28.288  1.00  0.00    -0.354 N 
ATOM     63  N   UNL A   1      47.399  29.822  27.402  1.00  0.00    -0.248 NA
ATOM     64  C   UNL A   1      49.607  30.526  27.096  1.00  0.00     0.031 C 
ATOM     65  C   UNL A   1      44.211  32.296  29.236  1.00  0.00     0.029 A 
ATOM     66  C   UNL A   1      45.230  31.549  28.669  1.00  0.00     0.049 A 
ATOM     67  H   UNL A   1      45.156  29.608  27.844  1.00  0.00     0.167 HD
ATOM     68  C   UNL A   1      47.545  31.109  27.912  1.00  0.00     0.074 A 
ATOM     69  C   UNL A   1      48.935  31.474  27.732  1.00  0.00     0.031 C 
ATOM     70  C   UNL A   1      46.613  31.910  28.487  1.00  0.00     0.031 A 
BRANCH  57  71
ATOM     71  C   UNL A   1      40.974  29.387  28.711  1.00  0.00    -0.014 A 
ATOM     72  C   UNL A   1      40.571  29.550  30.051  1.00  0.00     0.010 A 
ATOM     73  C   UNL A   1      39.999  29.443  27.699  1.00  0.00     0.010 A 
ATOM     74  C   UNL A   1      39.223  29.720  30.374  1.00  0.00     0.020 A 
ATOM     75  C   UNL A   1      38.652  29.646  28.014  1.00  0.00     0.020 A 
ATOM     76  C   UNL A   1      38.271  29.768  29.352  1.00  0.00     0.054 A 
BRANCH  76  77
ATOM     77  S   UNL A   1      36.532  30.027  29.801  1.00  0.00     0.124 S 
ATOM     78  O   UNL A   1      35.834  29.416  28.672  1.00  0.00    -0.237 OA
ATOM     79  O   UNL A   1      36.421  29.312  31.069  1.00  0.00    -0.237 OA
ATOM     80  O   UNL A   1      36.410  31.480  29.895  1.00  0.00    -0.744 OA
ENDBRANCH  76  77
ENDBRANCH  57  71
BRANCH  58  81
ATOM     81  C   UNL A   1      50.436  27.989  25.904  1.00  0.00    -0.014 A 
ATOM     82  C   UNL A   1      50.761  28.174  24.547  1.00  0.00     0.010 A 
ATOM     83  C   UNL A   1      51.453  27.625  26.805  1.00  0.00     0.010 A 
ATOM     84  C   UNL A   1      52.068  27.970  24.095  1.00  0.00     0.020 A 
ATOM     85  C   UNL A   1      52.768  27.450  26.363  1.00  0.00     0.020 A 
ATOM     86  C   UNL A   1      53.064  27.612  25.007  1.00  0.00     0.054 A 
BRANCH  86  87
ATOM     87  S   UNL A   1      54.761  27.393  24.402  1.00  0.00     0.124 S 
ATOM     88  O   UNL A   1      55.074  28.721  23.884  1.00  0.00    -0.237 OA
ATOM     89  O   UNL A   1      55.476  27.000  25.614  1.00  0.00    -0.237 OA
ATOM     90  O   UNL A   1      54.632  26.341  23.396  1.00  0.00    -0.744 OA
ENDBRANCH  86  87
ENDBRANCH  58  81
BRANCH  70  91
ATOM     91  C   UNL A   1      47.076  33.242  29.017  1.00  0.00    -0.014 A 
ATOM     92  C   UNL A   1      47.605  33.377  30.314  1.00  0.00     0.010 A 
ATOM     93  C   UNL A   1      46.994  34.379  28.191  1.00  0.00     0.010 A 
ATOM     94  C   UNL A   1      47.990  34.633  30.792  1.00  0.00     0.020 A 
ATOM     95  C   UNL A   1      47.413  35.629  28.652  1.00  0.00     0.020 A 
ATOM     96  C   UNL A   1      47.888  35.752  29.960  1.00  0.00     0.054 A 
BRANCH  96  97
ATOM     97  S   UNL A   1      48.401  37.368  30.601  1.00  0.00     0.124 S 
ATOM     98  O   UNL A   1      47.704  38.286  29.704  1.00  0.00    -0.237 OA
ATOM     99  O   UNL A   1      47.910  37.338  31.976  1.00  0.00    -0.237 OA
ATOM    100  O   UNL A   1      49.856  37.350  30.465  1.00  0.00    -0.744 OA
ENDBRANCH  96  97
ENDBRANCH  70  91
ENDBRANCH  44  45
ENDBRANCH  36  39
ENDBRANCH  34  35
ENDBRANCH  33  34
ENDBRANCH  32  33
ENDBRANCH   1  32
TORSDOF 19
ENDMDL
MODEL 3
REMARK VINA RESULT:     -10.7      2.679      9.147
REMARK SMILES CN1C(=O)/C(=C\c2ccc(-c3ccccc3C(=O)NCCCCCCNC(=O)c3ccc(-c4c5nc(c(-c6ccc(S(=O)(=O)[O-])cc6)c6ccc([nH]6)c(-c6ccc(S(=O)(=O)[O-])cc6)c6nc(c(-c7ccc(S(=O)(=O)[O-])cc7)c7ccc4[nH]7)C=C6)C=C5)cc3)o2)C(=O)[NH+]=C1S
REMARK SMILES IDX 22 1 21 2 20 3 19 4 17 5 18 6 16 8 11 9 12 10 13 11 15 12
REMARK SMILES IDX 14 13 10 14 7 15 8 16 89 17 9 18 6 19 1 20 2 21 3 22 93 23
REMARK SMILES IDX 4 24 5 25 92 26 90 27 91 29 94 30 23 32 24 33 25 34 26 35
REMARK SMILES IDX 27 36 28 38 29 39 30 40 88 41 31 42 87 43 32 44 33 45 34 46
REMARK SMILES IDX 81 47 35 48 86 49 80 50 82 51 36 52 85 53 79 54 78 55 37 57
REMARK SMILES IDX 67 58 48 59 66 60 49 61 52 62 65 63 83 64 50 65 51 66 64 68
REMARK SMILES IDX 84 69 53 70 38 71 39 72 47 73 40 74 46 75 41 76 42 77 43 78
REMARK SMILES IDX 44 79 45 80 68 81 69 82 77 83 70 84 76 85 71 86 72 87 73 88
REMARK SMILES IDX 74 89 75 90 54 91 55 92 63 93 56 94 62 95 57 96 58 97 59 98
REMARK SMILES IDX 60 99 61 100
REMARK H PARENT 19 7 92 28 94 31 26 37 82 56 52 67
REMARK Flexibility Score: inf
ROOT
ATOM      1  C   UNL A   1      38.526  23.668  26.314  1.00  0.00     0.002 C 
ENDROOT
BRANCH   1   2
ATOM      2  C   UNL A   1      37.556  22.631  25.745  1.00  0.00     0.021 C 
BRANCH   2   3
ATOM      3  C   UNL A   1      36.096  23.024  25.554  1.00  0.00     0.116 C 
BRANCH   3   4
ATOM      4  N   UNL A   1      35.136  22.665  26.560  1.00  0.00    -0.352 N 
ATOM      5  C   UNL A   1      34.092  21.761  26.551  1.00  0.00     0.252 C 
ATOM      6  O   UNL A   1      33.556  21.613  27.659  1.00  0.00    -0.269 OA
ATOM      7  H   UNL A   1      35.241  23.153  27.411  1.00  0.00     0.163 HD
BRANCH   5   8
ATOM      8  C   UNL A   1      33.492  20.986  25.379  1.00  0.00     0.050 A 
ATOM      9  C   UNL A   1      32.604  21.365  24.348  1.00  0.00     0.030 A 
ATOM     10  C   UNL A   1      32.190  20.419  23.373  1.00  0.00     0.013 A 
ATOM     11  C   UNL A   1      32.678  19.120  23.352  1.00  0.00     0.001 A 
ATOM     12  C   UNL A   1      33.969  19.648  25.315  1.00  0.00     0.014 A 
ATOM     13  C   UNL A   1      33.585  18.736  24.321  1.00  0.00     0.001 A 
BRANCH   9  14
ATOM     14  C   UNL A   1      32.106  22.694  24.092  1.00  0.00     0.135 A 
ATOM     15  C   UNL A   1      32.428  24.868  23.747  1.00  0.00     0.128 A 
ATOM     16  C   UNL A   1      31.072  24.579  23.585  1.00  0.00     0.051 A 
ATOM     17  O   UNL A   1      33.043  23.686  24.097  1.00  0.00    -0.457 OA
ATOM     18  C   UNL A   1      30.859  23.213  23.866  1.00  0.00     0.051 A 
BRANCH  15  19
ATOM     19  C   UNL A   1      33.163  26.067  23.511  1.00  0.00     0.071 C 
ATOM     20  C   UNL A   1      31.589  28.278  27.412  1.00  0.00     0.301 C 
ATOM     21  N   UNL A   1      32.569  28.230  26.337  1.00  0.00    -0.189 N 
ATOM     22  C   UNL A   1      32.814  27.003  25.791  1.00  0.00     0.349 C 
ATOM     23  C   UNL A   1      33.494  29.190  26.051  1.00  0.00     0.318 C 
ATOM     24  O   UNL A   1      32.682  25.959  26.420  1.00  0.00    -0.240 OA
ATOM     25  C   UNL A   1      33.300  27.066  24.401  1.00  0.00     0.157 C 
ATOM     26  N   UNL A   1      34.163  29.247  24.949  1.00  0.00    -0.200 N 
ATOM     27  C   UNL A   1      33.874  28.357  23.954  1.00  0.00     0.347 C 
ATOM     28  H   UNL A   1      34.869  29.921  24.827  1.00  0.00     0.316 HD
ATOM     29  O   UNL A   1      34.029  28.610  22.761  1.00  0.00    -0.241 OA
BRANCH  23  30
ATOM     30  S   UNL A   1      33.871  30.330  27.303  1.00  0.00    -0.055 SA
ATOM     31  H   UNL A   1      35.104  30.858  27.079  1.00  0.00     0.116 HD
ENDBRANCH  23  30
ENDBRANCH  15  19
ENDBRANCH   9  14
ENDBRANCH   5   8
ENDBRANCH   3   4
ENDBRANCH   2   3
ENDBRANCH   1   2
BRANCH   1  32
ATOM     32  C   UNL A   1      39.869  23.177  26.869  1.00  0.00     0.002 C 
BRANCH  32  33
ATOM     33  C   UNL A   1      40.037  21.675  27.119  1.00  0.00     0.021 C 
BRANCH  33  34
ATOM     34  C   UNL A   1      40.110  20.767  25.893  1.00  0.00     0.116 C 
BRANCH  34  35
ATOM     35  N   UNL A   1      41.289  19.923  25.901  1.00  0.00    -0.352 N 
ATOM     36  C   UNL A   1      42.627  20.233  25.911  1.00  0.00     0.251 C 
ATOM     37  H   UNL A   1      41.097  18.958  25.899  1.00  0.00     0.163 HD
ATOM     38  O   UNL A   1      43.438  19.332  25.699  1.00  0.00    -0.269 OA
BRANCH  36  39
ATOM     39  C   UNL A   1      43.121  21.611  26.161  1.00  0.00     0.039 A 
ATOM     40  C   UNL A   1      43.530  21.947  27.458  1.00  0.00     0.014 A 
ATOM     41  C   UNL A   1      43.091  22.606  25.183  1.00  0.00     0.014 A 
ATOM     42  C   UNL A   1      43.915  23.258  27.765  1.00  0.00     0.010 A 
ATOM     43  C   UNL A   1      43.557  23.892  25.473  1.00  0.00     0.010 A 
ATOM     44  C   UNL A   1      43.951  24.250  26.772  1.00  0.00    -0.014 A 
BRANCH  44  45
ATOM     45  C   UNL A   1      44.352  25.655  27.092  1.00  0.00     0.031 A 
ATOM     46  C   UNL A   1      45.771  26.126  26.848  1.00  0.00     0.074 A 
ATOM     47  C   UNL A   1      43.469  26.505  27.659  1.00  0.00     0.049 A 
ATOM     48  N   UNL A   1      46.308  27.295  27.100  1.00  0.00    -0.248 NA
ATOM     49  C   UNL A   1      46.715  25.155  26.272  1.00  0.00     0.031 C 
ATOM     50  C   UNL A   1      42.083  26.182  28.017  1.00  0.00     0.029 A 
ATOM     51  N   UNL A   1      43.616  27.807  28.078  1.00  0.00    -0.354 N 
ATOM     52  C   UNL A   1      47.641  27.195  26.713  1.00  0.00     0.074 A 
ATOM     53  C   UNL A   1      47.856  25.828  26.297  1.00  0.00     0.031 C 
ATOM     54  C   UNL A   1      41.517  27.246  28.608  1.00  0.00     0.029 A 
ATOM     55  C   UNL A   1      42.494  28.327  28.684  1.00  0.00     0.049 A 
ATOM     56  H   UNL A   1      44.447  28.320  27.956  1.00  0.00     0.167 HD
ATOM     57  C   UNL A   1      48.596  28.157  26.659  1.00  0.00     0.031 A 
ATOM     58  C   UNL A   1      42.267  29.534  29.241  1.00  0.00     0.031 A 
ATOM     59  C   UNL A   1      48.385  29.527  27.049  1.00  0.00     0.049 A 
ATOM     60  C   UNL A   1      43.342  30.585  29.187  1.00  0.00     0.074 A 
ATOM     61  C   UNL A   1      49.261  30.595  26.946  1.00  0.00     0.029 A 
ATOM     62  N   UNL A   1      47.222  30.019  27.618  1.00  0.00    -0.354 N 
ATOM     63  N   UNL A   1      44.562  30.493  28.712  1.00  0.00    -0.248 NA
ATOM     64  C   UNL A   1      42.994  31.914  29.706  1.00  0.00     0.031 C 
ATOM     65  C   UNL A   1      48.648  31.719  27.510  1.00  0.00     0.029 A 
ATOM     66  C   UNL A   1      47.365  31.369  27.896  1.00  0.00     0.049 A 
ATOM     67  H   UNL A   1      46.413  29.488  27.797  1.00  0.00     0.167 HD
ATOM     68  C   UNL A   1      45.107  31.768  28.829  1.00  0.00     0.074 A 
ATOM     69  C   UNL A   1      44.083  32.610  29.410  1.00  0.00     0.031 C 
ATOM     70  C   UNL A   1      46.343  32.203  28.476  1.00  0.00     0.031 A 
BRANCH  57  71
ATOM     71  C   UNL A   1      49.955  27.770  26.129  1.00  0.00    -0.014 A 
ATOM     72  C   UNL A   1      50.975  27.332  26.996  1.00  0.00     0.010 A 
ATOM     73  C   UNL A   1      50.203  27.783  24.744  1.00  0.00     0.010 A 
ATOM     74  C   UNL A   1      52.225  26.960  26.496  1.00  0.00     0.020 A 
ATOM     75  C   UNL A   1      51.442  27.379  24.235  1.00  0.00     0.020 A 
ATOM     76  C   UNL A   1      52.450  26.985  25.118  1.00  0.00     0.054 A 
BRANCH  76  77
ATOM     77  S   UNL A   1      54.072  26.460  24.496  1.00  0.00     0.124 S 
ATOM     78  O   UNL A   1      53.760  26.081  23.121  1.00  0.00    -0.237 OA
ATOM     79  O   UNL A   1      54.877  27.669  24.647  1.00  0.00    -0.237 OA
ATOM     80  O   UNL A   1      54.442  25.355  25.378  1.00  0.00    -0.744 OA
ENDBRANCH  76  77
ENDBRANCH  57  71
BRANCH  58  81
ATOM     81  C   UNL A   1      40.944  29.835  29.857  1.00  0.00    -0.014 A 
ATOM     82  C   UNL A   1      40.774  29.769  31.252  1.00  0.00     0.010 A 
ATOM     83  C   UNL A   1      39.845  30.183  29.052  1.00  0.00     0.010 A 
ATOM     84  C   UNL A   1      39.523  30.014  31.828  1.00  0.00     0.020 A 
ATOM     85  C   UNL A   1      38.600  30.459  29.625  1.00  0.00     0.020 A 
ATOM     86  C   UNL A   1      38.445  30.360  31.010  1.00  0.00     0.054 A 
BRANCH  86  87
ATOM     87  S   UNL A   1      36.842  30.714  31.785  1.00  0.00     0.124 S 
ATOM     88  O   UNL A   1      36.088  29.499  31.493  1.00  0.00    -0.237 OA
ATOM     89  O   UNL A   1      37.209  30.913  33.184  1.00  0.00    -0.237 OA
ATOM     90  O   UNL A   1      36.386  31.917  31.092  1.00  0.00    -0.744 OA
ENDBRANCH  86  87
ENDBRANCH  58  81
BRANCH  70  91
ATOM     91  C   UNL A   1      46.639  33.670  28.654  1.00  0.00    -0.014 A 
ATOM     92  C   UNL A   1      46.353  34.609  27.647  1.00  0.00     0.010 A 
ATOM     93  C   UNL A   1      47.201  34.117  29.865  1.00  0.00     0.010 A 
ATOM     94  C   UNL A   1      46.674  35.958  27.826  1.00  0.00     0.020 A 
ATOM     95  C   UNL A   1      47.489  35.470  30.063  1.00  0.00     0.020 A 
ATOM     96  C   UNL A   1      47.245  36.378  29.031  1.00  0.00     0.054 A 
BRANCH  96  97
ATOM     97  S   UNL A   1      47.645  38.134  29.242  1.00  0.00     0.124 S 
ATOM     98  O   UNL A   1      49.100  38.102  29.358  1.00  0.00    -0.237 OA
ATOM     99  O   UNL A   1      47.125  38.731  28.015  1.00  0.00    -0.237 OA
ATOM    100  O   UNL A   1      46.932  38.509  30.461  1.00  0.00    -0.744 OA
ENDBRANCH  96  97
ENDBRANCH  70  91
ENDBRANCH  44  45
ENDBRANCH  36  39
ENDBRANCH  34  35
ENDBRANCH  33  34
ENDBRANCH  32  33
ENDBRANCH   1  32
TORSDOF 19
ENDMDL
