MODEL 1
REMARK VINA RESULT:      -8.5      0.000      0.000
REMARK SMILES CC[C@@H]1CCC[C@@](Cc2cccc(O)c2)(C(=O)NCCCCCCNC(=O)c2ccc(-c3c4nc(c(-c5ccc(S(=O)(=O)[O-])cc5)c5ccc([nH]5)c(-c5ccc(S(=O)(=O)[O-])cc5)c5nc(c(-c6ccc(S(=O)(=O)[O-])cc6)c6ccc3[nH]6)C=C5)C=C4)cc2)C1
REMARK SMILES IDX 21 1 20 2 19 3 18 4 16 5 17 6 7 8 3 9 4 10 88 11 5 12 6 13
REMARK SMILES IDX 2 14 1 15 8 16 9 17 10 18 15 19 11 20 13 21 12 22 14 23
REMARK SMILES IDX 22 25 23 26 24 27 25 28 26 29 27 31 28 32 29 33 87 34 30 35
REMARK SMILES IDX 86 36 31 37 32 38 33 39 80 40 34 41 85 42 79 43 81 44 35 45
REMARK SMILES IDX 84 46 78 47 77 48 36 50 66 51 47 52 65 53 48 54 51 55 64 56
REMARK SMILES IDX 82 57 49 58 50 59 63 61 83 62 52 63 37 64 38 65 46 66 39 67
REMARK SMILES IDX 45 68 40 69 41 70 42 71 43 72 44 73 67 74 68 75 76 76 69 77
REMARK SMILES IDX 75 78 70 79 71 80 72 81 73 82 74 83 53 84 54 85 62 86 55 87
REMARK SMILES IDX 61 88 56 89 57 90 58 91 59 92 60 93
REMARK H PARENT 18 7 14 24 25 30 81 49 51 60
REMARK Flexibility Score: inf
ROOT
ATOM      1  C   UNL A   1      36.924  32.120  31.460  1.00  0.00     0.002 C 
ENDROOT
BRANCH   1   2
ATOM      2  C   UNL A   1      36.849  31.423  32.822  1.00  0.00     0.021 C 
BRANCH   2   3
ATOM      3  C   UNL A   1      37.883  30.325  33.032  1.00  0.00     0.116 C 
BRANCH   3   4
ATOM      4  N   UNL A   1      38.069  29.963  34.422  1.00  0.00    -0.356 N 
ATOM      5  C   UNL A   1      39.133  30.090  35.259  1.00  0.00     0.226 C 
ATOM      6  O   UNL A   1      38.860  30.002  36.463  1.00  0.00    -0.274 OA
ATOM      7  H   UNL A   1      37.280  29.546  34.837  1.00  0.00     0.163 HD
BRANCH   5   8
ATOM      8  C   UNL A   1      40.592  30.362  34.796  1.00  0.00     0.053 C 
ATOM      9  C   UNL A   1      41.469  28.057  35.686  1.00  0.00    -0.010 C 
ATOM     10  C   UNL A   1      41.616  27.555  34.243  1.00  0.00     0.003 C 
ATOM     11  C   UNL A   1      41.554  29.595  35.779  1.00  0.00     0.020 C 
ATOM     12  C   UNL A   1      40.727  28.323  33.271  1.00  0.00     0.001 C 
ATOM     13  C   UNL A   1      40.964  29.827  33.394  1.00  0.00     0.017 C 
BRANCH   9  14
ATOM     14  C   UNL A   1      42.466  27.360  36.638  1.00  0.00     0.000 C 
ATOM     15  C   UNL A   1      43.819  27.000  36.035  1.00  0.00     0.004 C 
ENDBRANCH   9  14
BRANCH   8  16
ATOM     16  C   UNL A   1      40.943  31.871  34.981  1.00  0.00     0.052 C 
BRANCH  16  17
ATOM     17  C   UNL A   1      39.990  32.926  34.473  1.00  0.00    -0.043 A 
ATOM     18  C   UNL A   1      39.019  33.473  35.328  1.00  0.00     0.004 A 
ATOM     19  C   UNL A   1      40.064  33.390  33.154  1.00  0.00     0.049 A 
ATOM     20  C   UNL A   1      38.123  34.440  34.865  1.00  0.00     0.004 A 
ATOM     21  C   UNL A   1      39.168  34.356  32.702  1.00  0.00     0.115 A 
ATOM     22  C   UNL A   1      38.193  34.882  33.544  1.00  0.00     0.046 A 
BRANCH  21  23
ATOM     23  O   UNL A   1      39.274  34.758  31.404  1.00  0.00    -0.508 OA
ATOM     24  H   UNL A   1      38.573  35.232  31.001  1.00  0.00     0.293 HD
ENDBRANCH  21  23
ENDBRANCH  16  17
ENDBRANCH   8  16
ENDBRANCH   5   8
ENDBRANCH   3   4
ENDBRANCH   2   3
ENDBRANCH   1   2
BRANCH   1  25
ATOM     25  C   UNL A   1      35.855  33.188  31.190  1.00  0.00     0.002 C 
BRANCH  25  26
ATOM     26  C   UNL A   1      34.605  32.723  30.435  1.00  0.00     0.021 C 
BRANCH  26  27
ATOM     27  C   UNL A   1      34.723  32.685  28.916  1.00  0.00     0.116 C 
BRANCH  27  28
ATOM     28  N   UNL A   1      34.049  31.539  28.336  1.00  0.00    -0.352 N 
ATOM     29  C   UNL A   1      34.544  30.318  27.962  1.00  0.00     0.251 C 
ATOM     30  H   UNL A   1      33.083  31.658  28.188  1.00  0.00     0.163 HD
ATOM     31  O   UNL A   1      33.810  29.541  27.349  1.00  0.00    -0.269 OA
BRANCH  29  32
ATOM     32  C   UNL A   1      35.941  29.928  28.259  1.00  0.00     0.039 A 
ATOM     33  C   UNL A   1      36.903  30.109  27.260  1.00  0.00     0.014 A 
ATOM     34  C   UNL A   1      36.310  29.341  29.474  1.00  0.00     0.014 A 
ATOM     35  C   UNL A   1      38.230  29.741  27.491  1.00  0.00     0.010 A 
ATOM     36  C   UNL A   1      37.648  29.033  29.728  1.00  0.00     0.010 A 
ATOM     37  C   UNL A   1      38.620  29.220  28.735  1.00  0.00    -0.014 A 
BRANCH  37  38
ATOM     38  C   UNL A   1      40.043  28.879  28.991  1.00  0.00     0.031 A 
ATOM     39  C   UNL A   1      40.969  29.869  29.643  1.00  0.00     0.074 A 
ATOM     40  C   UNL A   1      40.505  27.668  28.621  1.00  0.00     0.049 A 
ATOM     41  N   UNL A   1      42.221  29.717  29.996  1.00  0.00    -0.248 NA
ATOM     42  C   UNL A   1      40.430  31.211  29.916  1.00  0.00     0.031 C 
ATOM     43  C   UNL A   1      39.722  26.638  27.933  1.00  0.00     0.029 A 
ATOM     44  N   UNL A   1      41.740  27.092  28.783  1.00  0.00    -0.354 N 
ATOM     45  C   UNL A   1      42.619  30.938  30.528  1.00  0.00     0.074 A 
ATOM     46  C   UNL A   1      41.492  31.837  30.405  1.00  0.00     0.031 C 
ATOM     47  C   UNL A   1      40.482  25.544  27.769  1.00  0.00     0.029 A 
ATOM     48  C   UNL A   1      41.811  25.801  28.317  1.00  0.00     0.049 A 
ATOM     49  H   UNL A   1      42.503  27.559  29.195  1.00  0.00     0.167 HD
ATOM     50  C   UNL A   1      43.806  31.276  31.086  1.00  0.00     0.031 A 
ATOM     51  C   UNL A   1      42.826  24.916  28.337  1.00  0.00     0.031 A 
ATOM     52  C   UNL A   1      44.925  30.377  31.215  1.00  0.00     0.049 A 
ATOM     53  C   UNL A   1      44.126  25.306  28.980  1.00  0.00     0.074 A 
ATOM     54  C   UNL A   1      46.150  30.607  31.817  1.00  0.00     0.029 A 
ATOM     55  N   UNL A   1      44.956  29.079  30.731  1.00  0.00    -0.354 N 
ATOM     56  N   UNL A   1      44.456  26.443  29.546  1.00  0.00    -0.248 NA
ATOM     57  C   UNL A   1      45.185  24.288  29.003  1.00  0.00     0.031 C 
ATOM     58  C   UNL A   1      46.938  29.461  31.658  1.00  0.00     0.029 A 
ATOM     59  C   UNL A   1      46.186  28.502  31.000  1.00  0.00     0.049 A 
ATOM     60  H   UNL A   1      44.213  28.632  30.263  1.00  0.00     0.167 HD
ATOM     61  C   UNL A   1      45.757  26.271  30.006  1.00  0.00     0.074 A 
ATOM     62  C   UNL A   1      46.142  24.913  29.674  1.00  0.00     0.031 C 
ATOM     63  C   UNL A   1      46.560  27.156  30.645  1.00  0.00     0.031 A 
BRANCH  50  64
ATOM     64  C   UNL A   1      43.956  32.683  31.602  1.00  0.00    -0.014 A 
ATOM     65  C   UNL A   1      43.650  33.002  32.938  1.00  0.00     0.010 A 
ATOM     66  C   UNL A   1      44.441  33.694  30.753  1.00  0.00     0.010 A 
ATOM     67  C   UNL A   1      43.784  34.313  33.403  1.00  0.00     0.020 A 
ATOM     68  C   UNL A   1      44.602  35.003  31.222  1.00  0.00     0.020 A 
ATOM     69  C   UNL A   1      44.255  35.307  32.540  1.00  0.00     0.054 A 
BRANCH  69  70
ATOM     70  S   UNL A   1      44.435  36.997  33.173  1.00  0.00     0.124 S 
ATOM     71  O   UNL A   1      45.887  37.136  33.248  1.00  0.00    -0.237 OA
ATOM     72  O   UNL A   1      43.780  37.798  32.143  1.00  0.00    -0.237 OA
ATOM     73  O   UNL A   1      43.746  36.960  34.460  1.00  0.00    -0.744 OA
ENDBRANCH  69  70
ENDBRANCH  50  64
BRANCH  51  74
ATOM     74  C   UNL A   1      42.635  23.559  27.758  1.00  0.00    -0.014 A 
ATOM     75  C   UNL A   1      42.911  23.317  26.402  1.00  0.00     0.010 A 
ATOM     76  C   UNL A   1      42.199  22.497  28.570  1.00  0.00     0.010 A 
ATOM     77  C   UNL A   1      42.740  22.038  25.862  1.00  0.00     0.020 A 
ATOM     78  C   UNL A   1      42.052  21.211  28.040  1.00  0.00     0.020 A 
ATOM     79  C   UNL A   1      42.314  20.993  26.687  1.00  0.00     0.054 A 
BRANCH  79  80
ATOM     80  S   UNL A   1      42.161  19.328  25.984  1.00  0.00     0.124 S 
ATOM     81  O   UNL A   1      42.632  18.489  27.081  1.00  0.00    -0.237 OA
ATOM     82  O   UNL A   1      40.735  19.239  25.684  1.00  0.00    -0.237 OA
ATOM     83  O   UNL A   1      43.033  19.374  24.811  1.00  0.00    -0.744 OA
ENDBRANCH  79  80
ENDBRANCH  51  74
BRANCH  63  84
ATOM     84  C   UNL A   1      47.933  26.677  31.031  1.00  0.00    -0.014 A 
ATOM     85  C   UNL A   1      49.007  26.748  30.126  1.00  0.00     0.010 A 
ATOM     86  C   UNL A   1      48.156  26.163  32.322  1.00  0.00     0.010 A 
ATOM     87  C   UNL A   1      50.270  26.272  30.489  1.00  0.00     0.020 A 
ATOM     88  C   UNL A   1      49.423  25.710  32.697  1.00  0.00     0.020 A 
ATOM     89  C   UNL A   1      50.468  25.748  31.770  1.00  0.00     0.054 A 
BRANCH  89  90
ATOM     90  S   UNL A   1      52.117  25.146  32.224  1.00  0.00     0.124 S 
ATOM     91  O   UNL A   1      51.909  23.702  32.279  1.00  0.00    -0.237 OA
ATOM     92  O   UNL A   1      52.950  25.620  31.121  1.00  0.00    -0.237 OA
ATOM     93  O   UNL A   1      52.377  25.789  33.511  1.00  0.00    -0.744 OA
ENDBRANCH  89  90
ENDBRANCH  63  84
ENDBRANCH  37  38
ENDBRANCH  29  32
ENDBRANCH  27  28
ENDBRANCH  26  27
ENDBRANCH  25  26
ENDBRANCH   1  25
TORSDOF 20
ENDMDL
MODEL 2
REMARK VINA RESULT:      -8.4      4.400     11.130
REMARK SMILES CC[C@@H]1CCC[C@@](Cc2cccc(O)c2)(C(=O)NCCCCCCNC(=O)c2ccc(-c3c4nc(c(-c5ccc(S(=O)(=O)[O-])cc5)c5ccc([nH]5)c(-c5ccc(S(=O)(=O)[O-])cc5)c5nc(c(-c6ccc(S(=O)(=O)[O-])cc6)c6ccc3[nH]6)C=C5)C=C4)cc2)C1
REMARK SMILES IDX 21 1 20 2 19 3 18 4 16 5 17 6 7 8 3 9 4 10 88 11 5 12 6 13
REMARK SMILES IDX 2 14 1 15 8 16 9 17 10 18 15 19 11 20 13 21 12 22 14 23
REMARK SMILES IDX 22 25 23 26 24 27 25 28 26 29 27 31 28 32 29 33 87 34 30 35
REMARK SMILES IDX 86 36 31 37 32 38 33 39 80 40 34 41 85 42 79 43 81 44 35 45
REMARK SMILES IDX 84 46 78 47 77 48 36 50 66 51 47 52 65 53 48 54 51 55 64 56
REMARK SMILES IDX 82 57 49 58 50 59 63 61 83 62 52 63 37 64 38 65 46 66 39 67
REMARK SMILES IDX 45 68 40 69 41 70 42 71 43 72 44 73 67 74 68 75 76 76 69 77
REMARK SMILES IDX 75 78 70 79 71 80 72 81 73 82 74 83 53 84 54 85 62 86 55 87
REMARK SMILES IDX 61 88 56 89 57 90 58 91 59 92 60 93
REMARK H PARENT 18 7 14 24 25 30 81 49 51 60
REMARK Flexibility Score: inf
ROOT
ATOM      1  C   UNL A   1      33.069  31.468  27.152  1.00  0.00     0.002 C 
ENDROOT
BRANCH   1   2
ATOM      2  C   UNL A   1      32.348  30.149  26.856  1.00  0.00     0.021 C 
BRANCH   2   3
ATOM      3  C   UNL A   1      31.941  29.959  25.400  1.00  0.00     0.116 C 
BRANCH   3   4
ATOM      4  N   UNL A   1      33.024  29.510  24.550  1.00  0.00    -0.356 N 
ATOM      5  C   UNL A   1      33.127  28.464  23.688  1.00  0.00     0.226 C 
ATOM      6  O   UNL A   1      34.049  28.557  22.867  1.00  0.00    -0.274 OA
ATOM      7  H   UNL A   1      33.835  30.064  24.608  1.00  0.00     0.163 HD
BRANCH   5   8
ATOM      8  C   UNL A   1      32.169  27.241  23.666  1.00  0.00     0.053 C 
ATOM      9  C   UNL A   1      34.042  25.563  24.405  1.00  0.00    -0.010 C 
ATOM     10  C   UNL A   1      33.388  25.441  25.788  1.00  0.00     0.003 C 
ATOM     11  C   UNL A   1      33.029  25.969  23.315  1.00  0.00     0.020 C 
ATOM     12  C   UNL A   1      32.512  26.643  26.121  1.00  0.00     0.001 C 
ATOM     13  C   UNL A   1      31.492  26.892  25.011  1.00  0.00     0.017 C 
BRANCH   9  14
ATOM     14  C   UNL A   1      34.822  24.285  24.027  1.00  0.00     0.000 C 
ATOM     15  C   UNL A   1      34.018  22.990  24.032  1.00  0.00     0.004 C 
ENDBRANCH   9  14
BRANCH   8  16
ATOM     16  C   UNL A   1      31.148  27.376  22.492  1.00  0.00     0.052 C 
BRANCH  16  17
ATOM     17  C   UNL A   1      30.033  28.389  22.589  1.00  0.00    -0.043 A 
ATOM     18  C   UNL A   1      28.766  28.004  23.058  1.00  0.00     0.004 A 
ATOM     19  C   UNL A   1      30.241  29.727  22.232  1.00  0.00     0.049 A 
ATOM     20  C   UNL A   1      27.723  28.931  23.138  1.00  0.00     0.004 A 
ATOM     21  C   UNL A   1      29.196  30.644  22.319  1.00  0.00     0.115 A 
ATOM     22  C   UNL A   1      27.936  30.257  22.764  1.00  0.00     0.046 A 
BRANCH  21  23
ATOM     23  O   UNL A   1      29.450  31.929  21.942  1.00  0.00    -0.508 OA
ATOM     24  H   UNL A   1      29.401  32.170  21.037  1.00  0.00     0.293 HD
ENDBRANCH  21  23
ENDBRANCH  16  17
ENDBRANCH   8  16
ENDBRANCH   5   8
ENDBRANCH   3   4
ENDBRANCH   2   3
ENDBRANCH   1   2
BRANCH   1  25
ATOM     25  C   UNL A   1      34.501  31.347  27.691  1.00  0.00     0.002 C 
BRANCH  25  26
ATOM     26  C   UNL A   1      35.221  32.662  28.009  1.00  0.00     0.021 C 
BRANCH  26  27
ATOM     27  C   UNL A   1      36.218  32.610  29.161  1.00  0.00     0.116 C 
BRANCH  27  28
ATOM     28  N   UNL A   1      35.857  31.628  30.165  1.00  0.00    -0.352 N 
ATOM     29  C   UNL A   1      36.513  30.497  30.571  1.00  0.00     0.251 C 
ATOM     30  H   UNL A   1      35.006  31.803  30.627  1.00  0.00     0.163 HD
ATOM     31  O   UNL A   1      35.943  29.724  31.344  1.00  0.00    -0.269 OA
BRANCH  29  32
ATOM     32  C   UNL A   1      37.874  30.177  30.084  1.00  0.00     0.039 A 
ATOM     33  C   UNL A   1      38.900  30.052  31.027  1.00  0.00     0.014 A 
ATOM     34  C   UNL A   1      38.168  30.049  28.722  1.00  0.00     0.014 A 
ATOM     35  C   UNL A   1      40.201  29.765  30.611  1.00  0.00     0.010 A 
ATOM     36  C   UNL A   1      39.456  29.699  28.312  1.00  0.00     0.010 A 
ATOM     37  C   UNL A   1      40.488  29.563  29.251  1.00  0.00    -0.014 A 
BRANCH  37  38
ATOM     38  C   UNL A   1      41.865  29.207  28.822  1.00  0.00     0.031 A 
ATOM     39  C   UNL A   1      42.193  27.816  28.353  1.00  0.00     0.074 A 
ATOM     40  C   UNL A   1      42.831  30.147  28.866  1.00  0.00     0.049 A 
ATOM     41  N   UNL A   1      43.323  27.350  27.885  1.00  0.00    -0.248 NA
ATOM     42  C   UNL A   1      41.120  26.812  28.438  1.00  0.00     0.031 C 
ATOM     43  C   UNL A   1      42.654  31.519  29.352  1.00  0.00     0.029 A 
ATOM     44  N   UNL A   1      44.148  30.098  28.487  1.00  0.00    -0.354 N 
ATOM     45  C   UNL A   1      43.101  26.003  27.624  1.00  0.00     0.074 A 
ATOM     46  C   UNL A   1      41.744  25.714  28.033  1.00  0.00     0.031 C 
ATOM     47  C   UNL A   1      43.807  32.189  29.201  1.00  0.00     0.029 A 
ATOM     48  C   UNL A   1      44.810  31.294  28.635  1.00  0.00     0.049 A 
ATOM     49  H   UNL A   1      44.579  29.282  28.141  1.00  0.00     0.167 HD
ATOM     50  C   UNL A   1      43.942  25.093  27.076  1.00  0.00     0.031 A 
ATOM     51  C   UNL A   1      46.077  31.636  28.337  1.00  0.00     0.031 A 
ATOM     52  C   UNL A   1      45.291  25.384  26.663  1.00  0.00     0.049 A 
ATOM     53  C   UNL A   1      46.985  30.616  27.710  1.00  0.00     0.074 A 
ATOM     54  C   UNL A   1      46.203  24.546  26.043  1.00  0.00     0.029 A 
ATOM     55  N   UNL A   1      45.923  26.607  26.828  1.00  0.00    -0.354 N 
ATOM     56  N   UNL A   1      46.731  29.367  27.401  1.00  0.00    -0.248 NA
ATOM     57  C   UNL A   1      48.346  31.058  27.376  1.00  0.00     0.031 C 
ATOM     58  C   UNL A   1      47.400  25.250  25.875  1.00  0.00     0.029 A 
ATOM     59  C   UNL A   1      47.219  26.540  26.345  1.00  0.00     0.049 A 
ATOM     60  H   UNL A   1      45.511  27.405  27.231  1.00  0.00     0.167 HD
ATOM     61  C   UNL A   1      47.896  28.878  26.822  1.00  0.00     0.074 A 
ATOM     62  C   UNL A   1      48.845  29.973  26.801  1.00  0.00     0.031 C 
ATOM     63  C   UNL A   1      48.157  27.634  26.350  1.00  0.00     0.031 A 
BRANCH  50  64
ATOM     64  C   UNL A   1      43.424  23.690  26.891  1.00  0.00    -0.014 A 
ATOM     65  C   UNL A   1      43.009  23.231  25.628  1.00  0.00     0.010 A 
ATOM     66  C   UNL A   1      43.383  22.808  27.986  1.00  0.00     0.010 A 
ATOM     67  C   UNL A   1      42.522  21.930  25.471  1.00  0.00     0.020 A 
ATOM     68  C   UNL A   1      42.921  21.497  27.827  1.00  0.00     0.020 A 
ATOM     69  C   UNL A   1      42.476  21.073  26.573  1.00  0.00     0.054 A 
BRANCH  69  70
ATOM     70  S   UNL A   1      41.854  19.385  26.339  1.00  0.00     0.124 S 
ATOM     71  O   UNL A   1      40.427  19.617  26.127  1.00  0.00    -0.237 OA
ATOM     72  O   UNL A   1      42.596  18.929  25.167  1.00  0.00    -0.237 OA
ATOM     73  O   UNL A   1      42.197  18.713  27.589  1.00  0.00    -0.744 OA
ENDBRANCH  69  70
ENDBRANCH  50  64
BRANCH  51  74
ATOM     74  C   UNL A   1      46.548  33.023  28.597  1.00  0.00    -0.014 A 
ATOM     75  C   UNL A   1      47.163  33.350  29.817  1.00  0.00     0.010 A 
ATOM     76  C   UNL A   1      46.404  34.018  27.613  1.00  0.00     0.010 A 
ATOM     77  C   UNL A   1      47.615  34.652  30.056  1.00  0.00     0.020 A 
ATOM     78  C   UNL A   1      46.877  35.314  27.838  1.00  0.00     0.020 A 
ATOM     79  C   UNL A   1      47.470  35.625  29.062  1.00  0.00     0.054 A 
BRANCH  79  80
ATOM     80  S   UNL A   1      48.120  37.292  29.365  1.00  0.00     0.124 S 
ATOM     81  O   UNL A   1      49.555  37.094  29.196  1.00  0.00    -0.237 OA
ATOM     82  O   UNL A   1      47.461  38.083  28.329  1.00  0.00    -0.237 OA
ATOM     83  O   UNL A   1      47.683  37.582  30.729  1.00  0.00    -0.744 OA
ENDBRANCH  79  80
ENDBRANCH  51  74
BRANCH  63  84
ATOM     84  C   UNL A   1      49.524  27.399  25.765  1.00  0.00    -0.014 A 
ATOM     85  C   UNL A   1      49.770  27.596  24.395  1.00  0.00     0.010 A 
ATOM     86  C   UNL A   1      50.579  26.991  26.601  1.00  0.00     0.010 A 
ATOM     87  C   UNL A   1      51.037  27.346  23.862  1.00  0.00     0.020 A 
ATOM     88  C   UNL A   1      51.854  26.766  26.076  1.00  0.00     0.020 A 
ATOM     89  C   UNL A   1      52.070  26.924  24.705  1.00  0.00     0.054 A 
BRANCH  89  90
ATOM     90  S   UNL A   1      53.710  26.617  23.994  1.00  0.00     0.124 S 
ATOM     91  O   UNL A   1      54.325  25.766  25.009  1.00  0.00    -0.237 OA
ATOM     92  O   UNL A   1      53.396  25.958  22.728  1.00  0.00    -0.237 OA
ATOM     93  O   UNL A   1      54.287  27.953  23.866  1.00  0.00    -0.744 OA
ENDBRANCH  89  90
ENDBRANCH  63  84
ENDBRANCH  37  38
ENDBRANCH  29  32
ENDBRANCH  27  28
ENDBRANCH  26  27
ENDBRANCH  25  26
ENDBRANCH   1  25
TORSDOF 20
ENDMDL
MODEL 3
REMARK VINA RESULT:      -8.3      4.738     11.345
REMARK SMILES CC[C@@H]1CCC[C@@](Cc2cccc(O)c2)(C(=O)NCCCCCCNC(=O)c2ccc(-c3c4nc(c(-c5ccc(S(=O)(=O)[O-])cc5)c5ccc([nH]5)c(-c5ccc(S(=O)(=O)[O-])cc5)c5nc(c(-c6ccc(S(=O)(=O)[O-])cc6)c6ccc3[nH]6)C=C5)C=C4)cc2)C1
REMARK SMILES IDX 21 1 20 2 19 3 18 4 16 5 17 6 7 8 3 9 4 10 88 11 5 12 6 13
REMARK SMILES IDX 2 14 1 15 8 16 9 17 10 18 15 19 11 20 13 21 12 22 14 23
REMARK SMILES IDX 22 25 23 26 24 27 25 28 26 29 27 31 28 32 29 33 87 34 30 35
REMARK SMILES IDX 86 36 31 37 32 38 33 39 80 40 34 41 85 42 79 43 81 44 35 45
REMARK SMILES IDX 84 46 78 47 77 48 36 50 66 51 47 52 65 53 48 54 51 55 64 56
REMARK SMILES IDX 82 57 49 58 50 59 63 61 83 62 52 63 37 64 38 65 46 66 39 67
REMARK SMILES IDX 45 68 40 69 41 70 42 71 43 72 44 73 67 74 68 75 76 76 69 77
REMARK SMILES IDX 75 78 70 79 71 80 72 81 73 82 74 83 53 84 54 85 62 86 55 87
REMARK SMILES IDX 61 88 56 89 57 90 58 91 59 92 60 93
REMARK H PARENT 18 7 14 24 25 30 81 49 51 60
REMARK Flexibility Score: inf
ROOT
ATOM      1  C   UNL A   1      39.330  22.038  25.974  1.00  0.00     0.002 C 
ENDROOT
BRANCH   1   2
ATOM      2  C   UNL A   1      38.853  23.329  26.646  1.00  0.00     0.021 C 
BRANCH   2   3
ATOM      3  C   UNL A   1      37.759  24.073  25.891  1.00  0.00     0.116 C 
BRANCH   3   4
ATOM      4  N   UNL A   1      37.369  23.429  24.655  1.00  0.00    -0.356 N 
ATOM      5  C   UNL A   1      36.175  23.350  24.010  1.00  0.00     0.226 C 
ATOM      6  O   UNL A   1      36.248  23.026  22.817  1.00  0.00    -0.274 OA
ATOM      7  H   UNL A   1      38.103  22.961  24.197  1.00  0.00     0.163 HD
BRANCH   5   8
ATOM      8  C   UNL A   1      34.798  23.666  24.659  1.00  0.00     0.053 C 
ATOM      9  C   UNL A   1      33.938  21.203  24.409  1.00  0.00    -0.010 C 
ATOM     10  C   UNL A   1      34.066  21.003  25.925  1.00  0.00     0.003 C 
ATOM     11  C   UNL A   1      33.738  22.686  24.031  1.00  0.00     0.020 C 
ATOM     12  C   UNL A   1      35.052  21.980  26.555  1.00  0.00     0.001 C 
ATOM     13  C   UNL A   1      34.700  23.419  26.182  1.00  0.00     0.017 C 
BRANCH   9  14
ATOM     14  C   UNL A   1      32.845  20.296  23.803  1.00  0.00     0.000 C 
ATOM     15  C   UNL A   1      32.378  19.141  24.681  1.00  0.00     0.004 C 
ENDBRANCH   9  14
BRANCH   8  16
ATOM     16  C   UNL A   1      34.323  25.095  24.246  1.00  0.00     0.052 C 
BRANCH  16  17
ATOM     17  C   UNL A   1      33.444  25.887  25.183  1.00  0.00    -0.043 A 
ATOM     18  C   UNL A   1      33.953  27.015  25.848  1.00  0.00     0.004 A 
ATOM     19  C   UNL A   1      32.107  25.527  25.394  1.00  0.00     0.049 A 
ATOM     20  C   UNL A   1      33.151  27.748  26.727  1.00  0.00     0.004 A 
ATOM     21  C   UNL A   1      31.315  26.266  26.271  1.00  0.00     0.115 A 
ATOM     22  C   UNL A   1      31.826  27.370  26.944  1.00  0.00     0.046 A 
BRANCH  21  23
ATOM     23  O   UNL A   1      30.026  25.859  26.452  1.00  0.00    -0.508 OA
ATOM     24  H   UNL A   1      29.542  26.155  27.198  1.00  0.00     0.293 HD
ENDBRANCH  21  23
ENDBRANCH  16  17
ENDBRANCH   8  16
ENDBRANCH   5   8
ENDBRANCH   3   4
ENDBRANCH   2   3
ENDBRANCH   1   2
BRANCH   1  25
ATOM     25  C   UNL A   1      40.663  21.468  26.478  1.00  0.00     0.002 C 
BRANCH  25  26
ATOM     26  C   UNL A   1      40.861  19.957  26.318  1.00  0.00     0.021 C 
BRANCH  26  27
ATOM     27  C   UNL A   1      42.268  19.439  26.593  1.00  0.00     0.116 C 
BRANCH  27  28
ATOM     28  N   UNL A   1      43.018  19.195  25.375  1.00  0.00    -0.352 N 
ATOM     29  C   UNL A   1      43.829  20.030  24.655  1.00  0.00     0.251 C 
ATOM     30  H   UNL A   1      42.930  18.285  25.011  1.00  0.00     0.163 HD
ATOM     31  O   UNL A   1      44.251  19.650  23.561  1.00  0.00    -0.269 OA
BRANCH  29  32
ATOM     32  C   UNL A   1      44.186  21.378  25.151  1.00  0.00     0.039 A 
ATOM     33  C   UNL A   1      43.752  22.487  24.416  1.00  0.00     0.014 A 
ATOM     34  C   UNL A   1      44.978  21.570  26.288  1.00  0.00     0.014 A 
ATOM     35  C   UNL A   1      44.078  23.778  24.840  1.00  0.00     0.010 A 
ATOM     36  C   UNL A   1      45.250  22.861  26.746  1.00  0.00     0.010 A 
ATOM     37  C   UNL A   1      44.811  23.978  26.021  1.00  0.00    -0.014 A 
BRANCH  37  38
ATOM     38  C   UNL A   1      45.109  25.355  26.491  1.00  0.00     0.031 A 
ATOM     39  C   UNL A   1      46.497  25.924  26.384  1.00  0.00     0.074 A 
ATOM     40  C   UNL A   1      44.118  26.094  27.029  1.00  0.00     0.049 A 
ATOM     41  N   UNL A   1      46.920  27.126  26.687  1.00  0.00    -0.248 NA
ATOM     42  C   UNL A   1      47.553  25.025  25.893  1.00  0.00     0.031 C 
ATOM     43  C   UNL A   1      42.741  25.639  27.238  1.00  0.00     0.029 A 
ATOM     44  N   UNL A   1      44.112  27.388  27.487  1.00  0.00    -0.354 N 
ATOM     45  C   UNL A   1      48.285  27.127  26.428  1.00  0.00     0.074 A 
ATOM     46  C   UNL A   1      48.631  25.791  25.992  1.00  0.00     0.031 C 
ATOM     47  C   UNL A   1      42.016  26.649  27.743  1.00  0.00     0.029 A 
ATOM     48  C   UNL A   1      42.878  27.813  27.918  1.00  0.00     0.049 A 
ATOM     49  H   UNL A   1      44.915  27.957  27.505  1.00  0.00     0.167 HD
ATOM     50  C   UNL A   1      49.169  28.149  26.525  1.00  0.00     0.031 A 
ATOM     51  C   UNL A   1      42.479  29.010  28.389  1.00  0.00     0.031 A 
ATOM     52  C   UNL A   1      48.822  29.480  26.953  1.00  0.00     0.049 A 
ATOM     53  C   UNL A   1      43.472  30.135  28.468  1.00  0.00     0.074 A 
ATOM     54  C   UNL A   1      49.633  30.600  27.029  1.00  0.00     0.029 A 
ATOM     55  N   UNL A   1      47.562  29.871  27.379  1.00  0.00    -0.354 N 
ATOM     56  N   UNL A   1      44.743  30.136  28.145  1.00  0.00    -0.248 NA
ATOM     57  C   UNL A   1      42.971  31.427  28.957  1.00  0.00     0.031 C 
ATOM     58  C   UNL A   1      48.873  31.657  27.543  1.00  0.00     0.029 A 
ATOM     59  C   UNL A   1      47.578  31.208  27.741  1.00  0.00     0.049 A 
ATOM     60  H   UNL A   1      46.772  29.284  27.419  1.00  0.00     0.167 HD
ATOM     61  C   UNL A   1      45.191  31.430  28.379  1.00  0.00     0.074 A 
ATOM     62  C   UNL A   1      44.048  32.191  28.845  1.00  0.00     0.031 C 
ATOM     63  C   UNL A   1      46.436  31.944  28.222  1.00  0.00     0.031 A 
BRANCH  50  64
ATOM     64  C   UNL A   1      50.603  27.866  26.160  1.00  0.00    -0.014 A 
ATOM     65  C   UNL A   1      51.534  27.469  27.137  1.00  0.00     0.010 A 
ATOM     66  C   UNL A   1      51.019  27.963  24.820  1.00  0.00     0.010 A 
ATOM     67  C   UNL A   1      52.864  27.217  26.789  1.00  0.00     0.020 A 
ATOM     68  C   UNL A   1      52.343  27.686  24.463  1.00  0.00     0.020 A 
ATOM     69  C   UNL A   1      53.261  27.333  25.454  1.00  0.00     0.054 A 
BRANCH  69  70
ATOM     70  S   UNL A   1      54.989  26.985  25.026  1.00  0.00     0.124 S 
ATOM     71  O   UNL A   1      54.884  26.642  23.609  1.00  0.00    -0.237 OA
ATOM     72  O   UNL A   1      55.654  28.251  25.317  1.00  0.00    -0.237 OA
ATOM     73  O   UNL A   1      55.349  25.878  25.908  1.00  0.00    -0.744 OA
ENDBRANCH  69  70
ENDBRANCH  50  64
BRANCH  51  74
ATOM     74  C   UNL A   1      41.061  29.212  28.789  1.00  0.00    -0.014 A 
ATOM     75  C   UNL A   1      40.695  29.207  30.145  1.00  0.00     0.010 A 
ATOM     76  C   UNL A   1      40.073  29.433  27.813  1.00  0.00     0.010 A 
ATOM     77  C   UNL A   1      39.362  29.407  30.520  1.00  0.00     0.020 A 
ATOM     78  C   UNL A   1      38.744  29.659  28.184  1.00  0.00     0.020 A 
ATOM     79  C   UNL A   1      38.396  29.634  29.535  1.00  0.00     0.054 A 
BRANCH  79  80
ATOM     80  S   UNL A   1      36.684  29.956  30.043  1.00  0.00     0.124 S 
ATOM     81  O   UNL A   1      35.928  29.444  28.905  1.00  0.00    -0.237 OA
ATOM     82  O   UNL A   1      36.570  29.186  31.279  1.00  0.00    -0.237 OA
ATOM     83  O   UNL A   1      36.650  31.406  30.219  1.00  0.00    -0.744 OA
ENDBRANCH  79  80
ENDBRANCH  51  74
BRANCH  63  84
ATOM     84  C   UNL A   1      46.620  33.401  28.553  1.00  0.00    -0.014 A 
ATOM     85  C   UNL A   1      46.997  33.809  29.845  1.00  0.00     0.010 A 
ATOM     86  C   UNL A   1      46.428  34.373  27.555  1.00  0.00     0.010 A 
ATOM     87  C   UNL A   1      47.135  35.166  30.145  1.00  0.00     0.020 A 
ATOM     88  C   UNL A   1      46.591  35.730  27.844  1.00  0.00     0.020 A 
ATOM     89  C   UNL A   1      46.923  36.119  29.144  1.00  0.00     0.054 A 
BRANCH  89  90
ATOM     90  S   UNL A   1      47.119  37.875  29.552  1.00  0.00     0.124 S 
ATOM     91  O   UNL A   1      48.519  38.112  29.210  1.00  0.00    -0.237 OA
ATOM     92  O   UNL A   1      46.141  38.521  28.679  1.00  0.00    -0.237 OA
ATOM     93  O   UNL A   1      46.806  37.936  30.978  1.00  0.00    -0.744 OA
ENDBRANCH  89  90
ENDBRANCH  63  84
ENDBRANCH  37  38
ENDBRANCH  29  32
ENDBRANCH  27  28
ENDBRANCH  26  27
ENDBRANCH  25  26
ENDBRANCH   1  25
TORSDOF 20
ENDMDL
