MODEL 1
REMARK VINA RESULT:      -8.8      0.000      0.000
REMARK SMILES CCOCCS(=O)(=O)NCC(=O)NCCCCCCNC(=O)c1ccc(-c2c3nc(c(-c4ccc(S(=O)(=O)[O-])cc4)c4ccc([nH]4)c(-c4ccc(S(=O)(=O)[O-])cc4)c4nc(c(-c5ccc(S(=O)(=O)[O-])cc5)c5ccc2[nH]5)C=C4)C=C3)cc1
REMARK SMILES IDX 15 1 14 2 13 3 11 4 12 5 10 7 9 8 6 10 7 11 8 12 5 13 4 14
REMARK SMILES IDX 3 15 2 16 1 17 16 18 17 19 18 20 19 21 20 22 21 23 22 25
REMARK SMILES IDX 23 26 24 27 82 28 25 29 81 30 26 31 27 32 28 33 75 34 29 35
REMARK SMILES IDX 80 36 74 37 76 38 30 39 79 40 73 41 72 42 31 44 61 45 42 46
REMARK SMILES IDX 60 47 43 48 46 49 59 50 77 51 44 52 45 53 58 55 78 56 47 57
REMARK SMILES IDX 32 58 33 59 41 60 34 61 40 62 35 63 36 64 37 65 38 66 39 67
REMARK SMILES IDX 62 68 63 69 71 70 64 71 70 72 65 73 66 74 67 75 68 76 69 77
REMARK SMILES IDX 48 78 49 79 57 80 50 81 56 82 51 83 52 84 53 85 54 86 55 87
REMARK H PARENT 13 6 9 9 20 24 76 43 46 54
REMARK Flexibility Score: inf
ROOT
ATOM      1  C   UNL A   1      32.133  26.321  26.698  1.00  0.00     0.021 C 
ENDROOT
BRANCH   1   2
ATOM      2  C   UNL A   1      31.093  25.491  25.950  1.00  0.00     0.116 C 
BRANCH   2   3
ATOM      3  N   UNL A   1      30.441  24.550  26.815  1.00  0.00    -0.355 N 
ATOM      4  C   UNL A   1      30.261  23.214  26.704  1.00  0.00     0.235 C 
ATOM      5  O   UNL A   1      29.555  22.717  27.597  1.00  0.00    -0.274 OA
ATOM      6  H   UNL A   1      30.058  24.946  27.632  1.00  0.00     0.163 HD
BRANCH   4   7
ATOM      7  C   UNL A   1      30.971  22.273  25.764  1.00  0.00     0.198 C 
BRANCH   7   8
ATOM      8  N   UNL A   1      32.189  21.465  25.673  1.00  0.00    -0.206 NA
ATOM      9  H   UNL A   1      32.924  22.067  26.043  1.00  0.00     0.141 HD
BRANCH   8  10
ATOM     10  S   UNL A   1      32.865  20.763  24.337  1.00  0.00     0.214 S 
ATOM     11  O   UNL A   1      32.273  19.467  24.106  1.00  0.00    -0.212 OA
ATOM     12  O   UNL A   1      34.287  20.878  24.558  1.00  0.00    -0.212 OA
BRANCH  10  13
ATOM     13  C   UNL A   1      32.449  21.904  23.010  1.00  0.00     0.182 C 
BRANCH  13  14
ATOM     14  C   UNL A   1      33.502  22.901  22.545  1.00  0.00     0.177 C 
BRANCH  14  15
ATOM     15  O   UNL A   1      33.126  23.671  21.402  1.00  0.00    -0.381 OA
BRANCH  15  16
ATOM     16  C   UNL A   1      32.982  25.078  21.558  1.00  0.00     0.156 C 
ATOM     17  C   UNL A   1      31.668  25.519  22.180  1.00  0.00     0.035 C 
ENDBRANCH  15  16
ENDBRANCH  14  15
ENDBRANCH  13  14
ENDBRANCH  10  13
ENDBRANCH   8  10
ENDBRANCH   7   8
ENDBRANCH   4   7
ENDBRANCH   2   3
ENDBRANCH   1   2
BRANCH   1  18
ATOM     18  C   UNL A   1      33.476  26.380  25.977  1.00  0.00     0.002 C 
BRANCH  18  19
ATOM     19  C   UNL A   1      33.798  25.131  25.147  1.00  0.00     0.002 C 
BRANCH  19  20
ATOM     20  C   UNL A   1      34.781  24.140  25.782  1.00  0.00     0.021 C 
BRANCH  20  21
ATOM     21  C   UNL A   1      36.261  24.477  25.607  1.00  0.00     0.116 C 
BRANCH  21  22
ATOM     22  N   UNL A   1      37.106  23.294  25.646  1.00  0.00    -0.352 N 
ATOM     23  C   UNL A   1      38.386  23.138  26.109  1.00  0.00     0.251 C 
ATOM     24  H   UNL A   1      36.692  22.476  25.285  1.00  0.00     0.163 HD
ATOM     25  O   UNL A   1      38.991  22.091  25.897  1.00  0.00    -0.269 OA
BRANCH  23  26
ATOM     26  C   UNL A   1      39.046  24.241  26.836  1.00  0.00     0.039 A 
ATOM     27  C   UNL A   1      39.900  25.091  26.130  1.00  0.00     0.014 A 
ATOM     28  C   UNL A   1      38.818  24.440  28.201  1.00  0.00     0.014 A 
ATOM     29  C   UNL A   1      40.466  26.190  26.777  1.00  0.00     0.010 A 
ATOM     30  C   UNL A   1      39.337  25.571  28.829  1.00  0.00     0.010 A 
ATOM     31  C   UNL A   1      40.153  26.464  28.118  1.00  0.00    -0.014 A 
BRANCH  31  32
ATOM     32  C   UNL A   1      40.619  27.714  28.770  1.00  0.00     0.031 A 
ATOM     33  C   UNL A   1      41.973  27.779  29.420  1.00  0.00     0.074 A 
ATOM     34  C   UNL A   1      39.780  28.768  28.839  1.00  0.00     0.049 A 
ATOM     35  N   UNL A   1      42.515  28.766  30.087  1.00  0.00    -0.248 NA
ATOM     36  C   UNL A   1      42.822  26.580  29.327  1.00  0.00     0.031 C 
ATOM     37  C   UNL A   1      38.421  28.806  28.287  1.00  0.00     0.029 A 
ATOM     38  N   UNL A   1      39.935  30.005  29.413  1.00  0.00    -0.354 N 
ATOM     39  C   UNL A   1      43.756  28.302  30.509  1.00  0.00     0.074 A 
ATOM     40  C   UNL A   1      43.877  26.937  30.048  1.00  0.00     0.031 C 
ATOM     41  C   UNL A   1      37.875  30.006  28.540  1.00  0.00     0.029 A 
ATOM     42  C   UNL A   1      38.821  30.807  29.308  1.00  0.00     0.049 A 
ATOM     43  H   UNL A   1      40.764  30.290  29.860  1.00  0.00     0.167 HD
ATOM     44  C   UNL A   1      44.709  28.962  31.208  1.00  0.00     0.031 A 
ATOM     45  C   UNL A   1      38.579  32.041  29.793  1.00  0.00     0.031 A 
ATOM     46  C   UNL A   1      44.589  30.328  31.647  1.00  0.00     0.049 A 
ATOM     47  C   UNL A   1      39.655  32.741  30.579  1.00  0.00     0.074 A 
ATOM     48  C   UNL A   1      45.539  31.111  32.282  1.00  0.00     0.029 A 
ATOM     49  N   UNL A   1      43.454  31.111  31.510  1.00  0.00    -0.354 N 
ATOM     50  N   UNL A   1      40.863  32.323  30.872  1.00  0.00    -0.248 NA
ATOM     51  C   UNL A   1      39.336  34.079  31.095  1.00  0.00     0.031 C 
ATOM     52  C   UNL A   1      44.955  32.342  32.588  1.00  0.00     0.029 A 
ATOM     53  C   UNL A   1      43.663  32.350  32.090  1.00  0.00     0.049 A 
ATOM     54  H   UNL A   1      42.622  30.827  31.066  1.00  0.00     0.167 HD
ATOM     55  C   UNL A   1      41.453  33.353  31.595  1.00  0.00     0.074 A 
ATOM     56  C   UNL A   1      40.481  34.425  31.668  1.00  0.00     0.031 C 
ATOM     57  C   UNL A   1      42.685  33.406  32.156  1.00  0.00     0.031 A 
BRANCH  44  58
ATOM     58  C   UNL A   1      45.975  28.228  31.559  1.00  0.00    -0.014 A 
ATOM     59  C   UNL A   1      46.056  27.428  32.713  1.00  0.00     0.010 A 
ATOM     60  C   UNL A   1      47.059  28.247  30.661  1.00  0.00     0.010 A 
ATOM     61  C   UNL A   1      47.202  26.669  32.967  1.00  0.00     0.020 A 
ATOM     62  C   UNL A   1      48.196  27.470  30.899  1.00  0.00     0.020 A 
ATOM     63  C   UNL A   1      48.262  26.689  32.054  1.00  0.00     0.054 A 
BRANCH  63  64
ATOM     64  S   UNL A   1      49.700  25.630  32.372  1.00  0.00     0.124 S 
ATOM     65  O   UNL A   1      49.919  25.018  31.064  1.00  0.00    -0.237 OA
ATOM     66  O   UNL A   1      50.716  26.590  32.794  1.00  0.00    -0.237 OA
ATOM     67  O   UNL A   1      49.237  24.717  33.415  1.00  0.00    -0.744 OA
ENDBRANCH  63  64
ENDBRANCH  44  58
BRANCH  45  68
ATOM     68  C   UNL A   1      37.252  32.685  29.584  1.00  0.00    -0.014 A 
ATOM     69  C   UNL A   1      36.985  33.423  28.418  1.00  0.00     0.010 A 
ATOM     70  C   UNL A   1      36.256  32.588  30.574  1.00  0.00     0.010 A 
ATOM     71  C   UNL A   1      35.763  34.085  28.264  1.00  0.00     0.020 A 
ATOM     72  C   UNL A   1      35.022  33.220  30.408  1.00  0.00     0.020 A 
ATOM     73  C   UNL A   1      34.791  33.983  29.263  1.00  0.00     0.054 A 
BRANCH  73  74
ATOM     74  S   UNL A   1      33.208  34.842  29.040  1.00  0.00     0.124 S 
ATOM     75  O   UNL A   1      33.643  36.171  28.623  1.00  0.00    -0.237 OA
ATOM     76  O   UNL A   1      32.554  34.037  28.011  1.00  0.00    -0.237 OA
ATOM     77  O   UNL A   1      32.593  34.769  30.363  1.00  0.00    -0.744 OA
ENDBRANCH  73  74
ENDBRANCH  45  68
BRANCH  57  78
ATOM     78  C   UNL A   1      43.060  34.665  32.890  1.00  0.00    -0.014 A 
ATOM     79  C   UNL A   1      42.852  34.783  34.275  1.00  0.00     0.010 A 
ATOM     80  C   UNL A   1      43.682  35.719  32.196  1.00  0.00     0.010 A 
ATOM     81  C   UNL A   1      43.237  35.944  34.950  1.00  0.00     0.020 A 
ATOM     82  C   UNL A   1      44.095  36.869  32.872  1.00  0.00     0.020 A 
ATOM     83  C   UNL A   1      43.858  36.979  34.245  1.00  0.00     0.054 A 
BRANCH  83  84
ATOM     84  S   UNL A   1      44.396  38.453  35.154  1.00  0.00     0.124 S 
ATOM     85  O   UNL A   1      45.844  38.416  34.966  1.00  0.00    -0.237 OA
ATOM     86  O   UNL A   1      43.699  39.531  34.456  1.00  0.00    -0.237 OA
ATOM     87  O   UNL A   1      43.939  38.205  36.519  1.00  0.00    -0.744 OA
ENDBRANCH  83  84
ENDBRANCH  57  78
ENDBRANCH  31  32
ENDBRANCH  23  26
ENDBRANCH  21  22
ENDBRANCH  20  21
ENDBRANCH  19  20
ENDBRANCH  18  19
ENDBRANCH   1  18
TORSDOF 22
ENDMDL
MODEL 2
REMARK VINA RESULT:      -8.6      1.453      8.609
REMARK SMILES CCOCCS(=O)(=O)NCC(=O)NCCCCCCNC(=O)c1ccc(-c2c3nc(c(-c4ccc(S(=O)(=O)[O-])cc4)c4ccc([nH]4)c(-c4ccc(S(=O)(=O)[O-])cc4)c4nc(c(-c5ccc(S(=O)(=O)[O-])cc5)c5ccc2[nH]5)C=C4)C=C3)cc1
REMARK SMILES IDX 15 1 14 2 13 3 11 4 12 5 10 7 9 8 6 10 7 11 8 12 5 13 4 14
REMARK SMILES IDX 3 15 2 16 1 17 16 18 17 19 18 20 19 21 20 22 21 23 22 25
REMARK SMILES IDX 23 26 24 27 82 28 25 29 81 30 26 31 27 32 28 33 75 34 29 35
REMARK SMILES IDX 80 36 74 37 76 38 30 39 79 40 73 41 72 42 31 44 61 45 42 46
REMARK SMILES IDX 60 47 43 48 46 49 59 50 77 51 44 52 45 53 58 55 78 56 47 57
REMARK SMILES IDX 32 58 33 59 41 60 34 61 40 62 35 63 36 64 37 65 38 66 39 67
REMARK SMILES IDX 62 68 63 69 71 70 64 71 70 72 65 73 66 74 67 75 68 76 69 77
REMARK SMILES IDX 48 78 49 79 57 80 50 81 56 82 51 83 52 84 53 85 54 86 55 87
REMARK H PARENT 13 6 9 9 20 24 76 43 46 54
REMARK Flexibility Score: inf
ROOT
ATOM      1  C   UNL A   1      32.099  26.555  26.375  1.00  0.00     0.021 C 
ENDROOT
BRANCH   1   2
ATOM      2  C   UNL A   1      31.155  25.586  25.669  1.00  0.00     0.116 C 
BRANCH   2   3
ATOM      3  N   UNL A   1      30.462  24.744  26.603  1.00  0.00    -0.355 N 
ATOM      4  C   UNL A   1      30.518  23.409  26.810  1.00  0.00     0.235 C 
ATOM      5  O   UNL A   1      29.699  22.986  27.643  1.00  0.00    -0.274 OA
ATOM      6  H   UNL A   1      29.837  25.222  27.196  1.00  0.00     0.163 HD
BRANCH   4   7
ATOM      7  C   UNL A   1      31.567  22.451  26.308  1.00  0.00     0.198 C 
BRANCH   7   8
ATOM      8  N   UNL A   1      31.693  21.147  25.652  1.00  0.00    -0.206 NA
ATOM      9  H   UNL A   1      31.626  20.471  26.412  1.00  0.00     0.141 HD
BRANCH   8  10
ATOM     10  S   UNL A   1      32.924  20.581  24.705  1.00  0.00     0.214 S 
ATOM     11  O   UNL A   1      34.145  20.506  25.473  1.00  0.00    -0.212 OA
ATOM     12  O   UNL A   1      32.867  21.405  23.521  1.00  0.00    -0.212 OA
BRANCH  10  13
ATOM     13  C   UNL A   1      32.365  18.940  24.227  1.00  0.00     0.182 C 
BRANCH  13  14
ATOM     14  C   UNL A   1      33.401  17.913  23.790  1.00  0.00     0.177 C 
BRANCH  14  15
ATOM     15  O   UNL A   1      34.244  17.436  24.841  1.00  0.00    -0.381 OA
BRANCH  15  16
ATOM     16  C   UNL A   1      34.287  16.035  25.083  1.00  0.00     0.156 C 
ATOM     17  C   UNL A   1      32.930  15.379  25.277  1.00  0.00     0.035 C 
ENDBRANCH  15  16
ENDBRANCH  14  15
ENDBRANCH  13  14
ENDBRANCH  10  13
ENDBRANCH   8  10
ENDBRANCH   7   8
ENDBRANCH   4   7
ENDBRANCH   2   3
ENDBRANCH   1   2
BRANCH   1  18
ATOM     18  C   UNL A   1      33.537  26.453  25.875  1.00  0.00     0.002 C 
BRANCH  18  19
ATOM     19  C   UNL A   1      33.818  25.209  25.022  1.00  0.00     0.002 C 
BRANCH  19  20
ATOM     20  C   UNL A   1      34.743  24.160  25.651  1.00  0.00     0.021 C 
BRANCH  20  21
ATOM     21  C   UNL A   1      36.233  24.500  25.631  1.00  0.00     0.116 C 
BRANCH  21  22
ATOM     22  N   UNL A   1      37.070  23.312  25.586  1.00  0.00    -0.352 N 
ATOM     23  C   UNL A   1      38.365  23.127  25.997  1.00  0.00     0.251 C 
ATOM     24  H   UNL A   1      36.639  22.514  25.201  1.00  0.00     0.163 HD
ATOM     25  O   UNL A   1      38.954  22.089  25.714  1.00  0.00    -0.269 OA
BRANCH  23  26
ATOM     26  C   UNL A   1      39.056  24.191  26.752  1.00  0.00     0.039 A 
ATOM     27  C   UNL A   1      39.867  25.088  26.053  1.00  0.00     0.014 A 
ATOM     28  C   UNL A   1      38.901  24.308  28.136  1.00  0.00     0.014 A 
ATOM     29  C   UNL A   1      40.461  26.153  26.732  1.00  0.00     0.010 A 
ATOM     30  C   UNL A   1      39.446  25.404  28.801  1.00  0.00     0.010 A 
ATOM     31  C   UNL A   1      40.219  26.344  28.102  1.00  0.00    -0.014 A 
BRANCH  31  32
ATOM     32  C   UNL A   1      40.712  27.558  28.801  1.00  0.00     0.031 A 
ATOM     33  C   UNL A   1      39.814  28.747  28.997  1.00  0.00     0.074 A 
ATOM     34  C   UNL A   1      42.003  27.608  29.192  1.00  0.00     0.049 A 
ATOM     35  N   UNL A   1      40.097  29.909  29.527  1.00  0.00    -0.248 NA
ATOM     36  C   UNL A   1      38.427  28.627  28.519  1.00  0.00     0.031 C 
ATOM     37  C   UNL A   1      42.985  26.533  29.012  1.00  0.00     0.029 A 
ATOM     38  N   UNL A   1      42.718  28.605  29.806  1.00  0.00    -0.354 N 
ATOM     39  C   UNL A   1      38.933  30.664  29.432  1.00  0.00     0.074 A 
ATOM     40  C   UNL A   1      37.948  29.840  28.766  1.00  0.00     0.031 C 
ATOM     41  C   UNL A   1      44.165  26.925  29.515  1.00  0.00     0.029 A 
ATOM     42  C   UNL A   1      44.042  28.290  30.011  1.00  0.00     0.049 A 
ATOM     43  H   UNL A   1      42.321  29.465  30.074  1.00  0.00     0.167 HD
ATOM     44  C   UNL A   1      38.708  31.925  29.869  1.00  0.00     0.031 A 
ATOM     45  C   UNL A   1      45.050  29.025  30.521  1.00  0.00     0.031 A 
ATOM     46  C   UNL A   1      39.688  32.732  30.548  1.00  0.00     0.049 A 
ATOM     47  C   UNL A   1      44.769  30.429  30.985  1.00  0.00     0.074 A 
ATOM     48  C   UNL A   1      39.525  33.987  31.109  1.00  0.00     0.029 A 
ATOM     49  N   UNL A   1      41.012  32.374  30.748  1.00  0.00    -0.354 N 
ATOM     50  N   UNL A   1      43.632  31.084  30.983  1.00  0.00    -0.248 NA
ATOM     51  C   UNL A   1      45.905  31.192  31.522  1.00  0.00     0.031 C 
ATOM     52  C   UNL A   1      40.765  34.416  31.588  1.00  0.00     0.029 A 
ATOM     53  C   UNL A   1      41.687  33.404  31.382  1.00  0.00     0.049 A 
ATOM     54  H   UNL A   1      41.412  31.515  30.480  1.00  0.00     0.167 HD
ATOM     55  C   UNL A   1      43.914  32.329  31.531  1.00  0.00     0.074 A 
ATOM     56  C   UNL A   1      45.320  32.326  31.881  1.00  0.00     0.031 C 
ATOM     57  C   UNL A   1      43.087  33.385  31.721  1.00  0.00     0.031 A 
BRANCH  44  58
ATOM     58  C   UNL A   1      37.352  32.532  29.630  1.00  0.00    -0.014 A 
ATOM     59  C   UNL A   1      36.296  32.333  30.537  1.00  0.00     0.010 A 
ATOM     60  C   UNL A   1      37.165  33.406  28.543  1.00  0.00     0.010 A 
ATOM     61  C   UNL A   1      35.076  32.990  30.356  1.00  0.00     0.020 A 
ATOM     62  C   UNL A   1      35.955  34.084  28.372  1.00  0.00     0.020 A 
ATOM     63  C   UNL A   1      34.915  33.868  29.278  1.00  0.00     0.054 A 
BRANCH  63  64
ATOM     64  S   UNL A   1      33.349  34.768  29.117  1.00  0.00     0.124 S 
ATOM     65  O   UNL A   1      32.620  33.937  28.162  1.00  0.00    -0.237 OA
ATOM     66  O   UNL A   1      32.832  34.754  30.483  1.00  0.00    -0.237 OA
ATOM     67  O   UNL A   1      33.752  36.081  28.619  1.00  0.00    -0.744 OA
ENDBRANCH  63  64
ENDBRANCH  44  58
BRANCH  45  68
ATOM     68  C   UNL A   1      46.429  28.466  30.589  1.00  0.00    -0.014 A 
ATOM     69  C   UNL A   1      46.882  27.804  31.744  1.00  0.00     0.010 A 
ATOM     70  C   UNL A   1      47.311  28.625  29.504  1.00  0.00     0.010 A 
ATOM     71  C   UNL A   1      48.201  27.348  31.827  1.00  0.00     0.020 A 
ATOM     72  C   UNL A   1      48.619  28.141  29.570  1.00  0.00     0.020 A 
ATOM     73  C   UNL A   1      49.063  27.524  30.741  1.00  0.00     0.054 A 
BRANCH  73  74
ATOM     74  S   UNL A   1      50.768  26.916  30.865  1.00  0.00     0.124 S 
ATOM     75  O   UNL A   1      51.469  27.796  29.936  1.00  0.00    -0.237 OA
ATOM     76  O   UNL A   1      51.073  27.115  32.279  1.00  0.00    -0.237 OA
ATOM     77  O   UNL A   1      50.662  25.520  30.447  1.00  0.00    -0.744 OA
ENDBRANCH  73  74
ENDBRANCH  45  68
BRANCH  57  78
ATOM     78  C   UNL A   1      43.674  34.623  32.344  1.00  0.00    -0.014 A 
ATOM     79  C   UNL A   1      44.189  35.659  31.546  1.00  0.00     0.010 A 
ATOM     80  C   UNL A   1      43.655  34.777  33.743  1.00  0.00     0.010 A 
ATOM     81  C   UNL A   1      44.699  36.818  32.137  1.00  0.00     0.020 A 
ATOM     82  C   UNL A   1      44.137  35.947  34.335  1.00  0.00     0.020 A 
ATOM     83  C   UNL A   1      44.667  36.956  33.528  1.00  0.00     0.054 A 
BRANCH  83  84
ATOM     84  S   UNL A   1      45.287  38.492  34.265  1.00  0.00     0.124 S 
ATOM     85  O   UNL A   1      46.701  38.458  33.897  1.00  0.00    -0.237 OA
ATOM     86  O   UNL A   1      44.488  39.514  33.593  1.00  0.00    -0.237 OA
ATOM     87  O   UNL A   1      45.011  38.330  35.690  1.00  0.00    -0.744 OA
ENDBRANCH  83  84
ENDBRANCH  57  78
ENDBRANCH  31  32
ENDBRANCH  23  26
ENDBRANCH  21  22
ENDBRANCH  20  21
ENDBRANCH  19  20
ENDBRANCH  18  19
ENDBRANCH   1  18
TORSDOF 22
ENDMDL
MODEL 3
REMARK VINA RESULT:      -8.6      1.365      2.187
REMARK SMILES CCOCCS(=O)(=O)NCC(=O)NCCCCCCNC(=O)c1ccc(-c2c3nc(c(-c4ccc(S(=O)(=O)[O-])cc4)c4ccc([nH]4)c(-c4ccc(S(=O)(=O)[O-])cc4)c4nc(c(-c5ccc(S(=O)(=O)[O-])cc5)c5ccc2[nH]5)C=C4)C=C3)cc1
REMARK SMILES IDX 15 1 14 2 13 3 11 4 12 5 10 7 9 8 6 10 7 11 8 12 5 13 4 14
REMARK SMILES IDX 3 15 2 16 1 17 16 18 17 19 18 20 19 21 20 22 21 23 22 25
REMARK SMILES IDX 23 26 24 27 82 28 25 29 81 30 26 31 27 32 28 33 75 34 29 35
REMARK SMILES IDX 80 36 74 37 76 38 30 39 79 40 73 41 72 42 31 44 61 45 42 46
REMARK SMILES IDX 60 47 43 48 46 49 59 50 77 51 44 52 45 53 58 55 78 56 47 57
REMARK SMILES IDX 32 58 33 59 41 60 34 61 40 62 35 63 36 64 37 65 38 66 39 67
REMARK SMILES IDX 62 68 63 69 71 70 64 71 70 72 65 73 66 74 67 75 68 76 69 77
REMARK SMILES IDX 48 78 49 79 57 80 50 81 56 82 51 83 52 84 53 85 54 86 55 87
REMARK H PARENT 13 6 9 9 20 24 76 43 46 54
REMARK Flexibility Score: inf
ROOT
ATOM      1  C   UNL A   1      32.210  26.532  26.243  1.00  0.00     0.021 C 
ENDROOT
BRANCH   1   2
ATOM      2  C   UNL A   1      31.259  25.565  25.543  1.00  0.00     0.116 C 
BRANCH   2   3
ATOM      3  N   UNL A   1      30.539  24.753  26.483  1.00  0.00    -0.355 N 
ATOM      4  C   UNL A   1      30.563  23.420  26.710  1.00  0.00     0.235 C 
ATOM      5  O   UNL A   1      29.729  23.028  27.542  1.00  0.00    -0.274 OA
ATOM      6  H   UNL A   1      29.921  25.254  27.065  1.00  0.00     0.163 HD
BRANCH   4   7
ATOM      7  C   UNL A   1      31.595  22.431  26.230  1.00  0.00     0.198 C 
BRANCH   7   8
ATOM      8  N   UNL A   1      31.695  21.119  25.587  1.00  0.00    -0.206 NA
ATOM      9  H   UNL A   1      31.569  20.451  26.347  1.00  0.00     0.141 HD
BRANCH   8  10
ATOM     10  S   UNL A   1      32.942  20.498  24.696  1.00  0.00     0.214 S 
ATOM     11  O   UNL A   1      34.114  20.343  25.526  1.00  0.00    -0.212 OA
ATOM     12  O   UNL A   1      32.994  21.339  23.525  1.00  0.00    -0.212 OA
BRANCH  10  13
ATOM     13  C   UNL A   1      32.319  18.898  24.163  1.00  0.00     0.182 C 
BRANCH  13  14
ATOM     14  C   UNL A   1      33.317  17.831  23.732  1.00  0.00     0.177 C 
BRANCH  14  15
ATOM     15  O   UNL A   1      34.219  17.413  24.759  1.00  0.00    -0.381 OA
BRANCH  15  16
ATOM     16  C   UNL A   1      34.287  16.026  25.068  1.00  0.00     0.156 C 
ATOM     17  C   UNL A   1      32.948  15.371  25.363  1.00  0.00     0.035 C 
ENDBRANCH  15  16
ENDBRANCH  14  15
ENDBRANCH  13  14
ENDBRANCH  10  13
ENDBRANCH   8  10
ENDBRANCH   7   8
ENDBRANCH   4   7
ENDBRANCH   2   3
ENDBRANCH   1   2
BRANCH   1  18
ATOM     18  C   UNL A   1      33.647  26.416  25.744  1.00  0.00     0.002 C 
BRANCH  18  19
ATOM     19  C   UNL A   1      33.904  25.199  24.846  1.00  0.00     0.002 C 
BRANCH  19  20
ATOM     20  C   UNL A   1      34.788  24.099  25.446  1.00  0.00     0.021 C 
BRANCH  20  21
ATOM     21  C   UNL A   1      36.290  24.382  25.432  1.00  0.00     0.116 C 
BRANCH  21  22
ATOM     22  N   UNL A   1      37.083  23.164  25.499  1.00  0.00    -0.352 N 
ATOM     23  C   UNL A   1      38.351  22.961  25.979  1.00  0.00     0.251 C 
ATOM     24  H   UNL A   1      36.638  22.360  25.146  1.00  0.00     0.163 HD
ATOM     25  O   UNL A   1      38.911  21.886  25.789  1.00  0.00    -0.269 OA
BRANCH  23  26
ATOM     26  C   UNL A   1      39.050  24.047  26.695  1.00  0.00     0.039 A 
ATOM     27  C   UNL A   1      39.924  24.866  25.978  1.00  0.00     0.014 A 
ATOM     28  C   UNL A   1      38.840  24.259  28.061  1.00  0.00     0.014 A 
ATOM     29  C   UNL A   1      40.529  25.951  26.615  1.00  0.00     0.010 A 
ATOM     30  C   UNL A   1      39.398  25.376  28.679  1.00  0.00     0.010 A 
ATOM     31  C   UNL A   1      40.236  26.240  27.957  1.00  0.00    -0.014 A 
BRANCH  31  32
ATOM     32  C   UNL A   1      40.745  27.478  28.600  1.00  0.00     0.031 A 
ATOM     33  C   UNL A   1      42.124  27.518  29.197  1.00  0.00     0.074 A 
ATOM     34  C   UNL A   1      39.926  28.544  28.707  1.00  0.00     0.049 A 
ATOM     35  N   UNL A   1      42.707  28.491  29.850  1.00  0.00    -0.248 NA
ATOM     36  C   UNL A   1      42.950  26.307  29.064  1.00  0.00     0.031 C 
ATOM     37  C   UNL A   1      38.548  28.606  28.208  1.00  0.00     0.029 A 
ATOM     38  N   UNL A   1      40.122  29.774  29.284  1.00  0.00    -0.354 N 
ATOM     39  C   UNL A   1      43.955  28.006  30.221  1.00  0.00     0.074 A 
ATOM     40  C   UNL A   1      44.038  26.642  29.747  1.00  0.00     0.031 C 
ATOM     41  C   UNL A   1      38.031  29.813  28.489  1.00  0.00     0.029 A 
ATOM     42  C   UNL A   1      39.018  30.594  29.226  1.00  0.00     0.049 A 
ATOM     43  H   UNL A   1      40.972  30.043  29.700  1.00  0.00     0.167 HD
ATOM     44  C   UNL A   1      44.944  28.646  30.888  1.00  0.00     0.031 A 
ATOM     45  C   UNL A   1      38.813  31.827  29.729  1.00  0.00     0.031 A 
ATOM     46  C   UNL A   1      44.863  30.010  31.340  1.00  0.00     0.049 A 
ATOM     47  C   UNL A   1      39.929  32.505  30.478  1.00  0.00     0.074 A 
ATOM     48  C   UNL A   1      45.848  30.773  31.943  1.00  0.00     0.029 A 
ATOM     49  N   UNL A   1      43.735  30.811  31.252  1.00  0.00    -0.354 N 
ATOM     50  N   UNL A   1      41.141  32.067  30.722  1.00  0.00    -0.248 NA
ATOM     51  C   UNL A   1      39.651  33.845  31.015  1.00  0.00     0.031 C 
ATOM     52  C   UNL A   1      45.295  32.012  32.280  1.00  0.00     0.029 A 
ATOM     53  C   UNL A   1      43.985  32.043  31.832  1.00  0.00     0.049 A 
ATOM     54  H   UNL A   1      42.882  30.543  30.838  1.00  0.00     0.167 HD
ATOM     55  C   UNL A   1      41.773  33.082  31.429  1.00  0.00     0.074 A 
ATOM     56  C   UNL A   1      40.822  34.169  31.546  1.00  0.00     0.031 C 
ATOM     57  C   UNL A   1      43.027  33.112  31.943  1.00  0.00     0.031 A 
BRANCH  44  58
ATOM     58  C   UNL A   1      46.211  27.890  31.184  1.00  0.00    -0.014 A 
ATOM     59  C   UNL A   1      47.301  27.920  30.296  1.00  0.00     0.010 A 
ATOM     60  C   UNL A   1      46.354  27.233  32.421  1.00  0.00     0.010 A 
ATOM     61  C   UNL A   1      48.507  27.301  30.637  1.00  0.00     0.020 A 
ATOM     62  C   UNL A   1      47.566  26.634  32.775  1.00  0.00     0.020 A 
ATOM     63  C   UNL A   1      48.635  26.668  31.878  1.00  0.00     0.054 A 
BRANCH  63  64
ATOM     64  S   UNL A   1      50.237  25.945  32.323  1.00  0.00     0.124 S 
ATOM     65  O   UNL A   1      50.191  24.659  31.631  1.00  0.00    -0.237 OA
ATOM     66  O   UNL A   1      51.186  26.915  31.782  1.00  0.00    -0.237 OA
ATOM     67  O   UNL A   1      50.191  25.868  33.782  1.00  0.00    -0.744 OA
ENDBRANCH  63  64
ENDBRANCH  44  58
BRANCH  45  68
ATOM     68  C   UNL A   1      37.489  32.493  29.575  1.00  0.00    -0.014 A 
ATOM     69  C   UNL A   1      37.260  33.410  28.534  1.00  0.00     0.010 A 
ATOM     70  C   UNL A   1      36.458  32.235  30.497  1.00  0.00     0.010 A 
ATOM     71  C   UNL A   1      36.039  34.085  28.442  1.00  0.00     0.020 A 
ATOM     72  C   UNL A   1      35.225  32.882  30.388  1.00  0.00     0.020 A 
ATOM     73  C   UNL A   1      35.031  33.820  29.372  1.00  0.00     0.054 A 
BRANCH  73  74
ATOM     74  S   UNL A   1      33.450  34.699  29.230  1.00  0.00     0.124 S 
ATOM     75  O   UNL A   1      32.986  34.711  30.613  1.00  0.00    -0.237 OA
ATOM     76  O   UNL A   1      33.855  35.993  28.686  1.00  0.00    -0.237 OA
ATOM     77  O   UNL A   1      32.677  33.861  28.315  1.00  0.00    -0.744 OA
ENDBRANCH  73  74
ENDBRANCH  45  68
BRANCH  57  78
ATOM     78  C   UNL A   1      43.449  34.360  32.670  1.00  0.00    -0.014 A 
ATOM     79  C   UNL A   1      43.251  34.491  34.056  1.00  0.00     0.010 A 
ATOM     80  C   UNL A   1      44.105  35.389  31.970  1.00  0.00     0.010 A 
ATOM     81  C   UNL A   1      43.679  35.640  34.725  1.00  0.00     0.020 A 
ATOM     82  C   UNL A   1      44.561  36.526  32.640  1.00  0.00     0.020 A 
ATOM     83  C   UNL A   1      44.334  36.650  34.013  1.00  0.00     0.054 A 
BRANCH  83  84
ATOM     84  S   UNL A   1      44.926  38.107  34.914  1.00  0.00     0.124 S 
ATOM     85  O   UNL A   1      43.679  38.694  35.398  1.00  0.00    -0.237 OA
ATOM     86  O   UNL A   1      45.784  37.521  35.942  1.00  0.00    -0.237 OA
ATOM     87  O   UNL A   1      45.627  38.885  33.896  1.00  0.00    -0.744 OA
ENDBRANCH  83  84
ENDBRANCH  57  78
ENDBRANCH  31  32
ENDBRANCH  23  26
ENDBRANCH  21  22
ENDBRANCH  20  21
ENDBRANCH  19  20
ENDBRANCH  18  19
ENDBRANCH   1  18
TORSDOF 22
ENDMDL
