MODEL 1
REMARK VINA RESULT:     -11.4      0.000      0.000
REMARK SMILES O=C(Cn1cc(C(=O)C(F)(F)F)c2ccccc21)NCCCCCCNC(=O)c1ccc(-c2c3nc(c(-c4ccc(S(=O)(=O)[O-])cc4)c4ccc([nH]4)c(-c4ccc(S(=O)(=O)[O-])cc4)c4nc(c(-c5ccc(S(=O)(=O)[O-])cc5)c5ccc2[nH]5)C=C4)C=C3)cc1
REMARK SMILES IDX 22 1 21 2 20 3 19 4 1 5 2 6 3 8 4 9 5 10 18 11 6 12 13 13
REMARK SMILES IDX 17 14 14 15 16 16 15 17 7 18 8 19 9 20 10 21 11 22 12 23
REMARK SMILES IDX 23 24 24 25 25 26 26 27 27 28 28 30 29 31 30 32 88 33 31 34
REMARK SMILES IDX 87 35 32 36 33 37 34 38 81 39 35 40 86 41 80 42 82 43 36 44
REMARK SMILES IDX 85 45 79 46 78 47 37 49 67 50 48 51 66 52 49 53 52 54 65 55
REMARK SMILES IDX 83 56 50 57 51 58 64 60 84 61 53 62 38 63 39 64 47 65 40 66
REMARK SMILES IDX 46 67 41 68 42 69 43 70 44 71 45 72 68 73 69 74 77 75 70 76
REMARK SMILES IDX 76 77 71 78 72 79 73 80 74 81 75 82 54 83 55 84 63 85 56 86
REMARK SMILES IDX 62 87 57 88 58 89 59 90 60 91 61 92
REMARK H PARENT 19 7 26 29 82 48 52 59
REMARK Flexibility Score: inf
ROOT
ATOM      1  C   UNL A   1      36.705  31.348  28.463  1.00  0.00     0.002 C 
ENDROOT
BRANCH   1   2
ATOM      2  C   UNL A   1      35.704  30.188  28.554  1.00  0.00     0.021 C 
BRANCH   2   3
ATOM      3  C   UNL A   1      35.365  29.520  27.221  1.00  0.00     0.116 C 
BRANCH   3   4
ATOM      4  N   UNL A   1      34.229  30.140  26.560  1.00  0.00    -0.355 N 
ATOM      5  O   UNL A   1      32.635  28.813  27.543  1.00  0.00    -0.273 OA
ATOM      6  C   UNL A   1      32.927  29.768  26.823  1.00  0.00     0.239 C 
ATOM      7  H   UNL A   1      34.394  30.851  25.900  1.00  0.00     0.163 HD
BRANCH   6   8
ATOM      8  C   UNL A   1      31.847  30.548  26.101  1.00  0.00     0.222 C 
BRANCH   8   9
ATOM      9  N   UNL A   1      31.201  29.859  24.986  1.00  0.00    -0.337 N 
ATOM     10  C   UNL A   1      31.524  28.576  24.605  1.00  0.00     0.099 A 
ATOM     11  C   UNL A   1      30.159  30.328  24.215  1.00  0.00     0.049 A 
ATOM     12  C   UNL A   1      30.708  28.202  23.551  1.00  0.00     0.053 A 
ATOM     13  C   UNL A   1      29.857  29.325  23.283  1.00  0.00     0.011 A 
ATOM     14  C   UNL A   1      29.459  31.547  24.240  1.00  0.00     0.027 A 
ATOM     15  C   UNL A   1      28.843  29.574  22.332  1.00  0.00     0.011 A 
ATOM     16  C   UNL A   1      28.471  31.767  23.278  1.00  0.00     0.002 A 
ATOM     17  C   UNL A   1      28.168  30.797  22.332  1.00  0.00     0.001 A 
BRANCH  12  18
ATOM     18  C   UNL A   1      30.712  26.901  22.862  1.00  0.00     0.268 C 
ATOM     19  O   UNL A   1      31.082  26.811  21.688  1.00  0.00    -0.284 OA
BRANCH  18  20
ATOM     20  C   UNL A   1      30.211  25.683  23.634  1.00  0.00     0.454 C 
ATOM     21  F   UNL A   1      28.907  25.801  24.023  1.00  0.00    -0.163 F 
ATOM     22  F   UNL A   1      30.276  24.534  22.898  1.00  0.00    -0.163 F 
ATOM     23  F   UNL A   1      30.919  25.433  24.774  1.00  0.00    -0.163 F 
ENDBRANCH  18  20
ENDBRANCH  12  18
ENDBRANCH   8   9
ENDBRANCH   6   8
ENDBRANCH   3   4
ENDBRANCH   2   3
ENDBRANCH   1   2
BRANCH   1  24
ATOM     24  C   UNL A   1      36.106  32.739  28.223  1.00  0.00     0.002 C 
BRANCH  24  25
ATOM     25  C   UNL A   1      35.656  33.520  29.468  1.00  0.00     0.021 C 
BRANCH  25  26
ATOM     26  C   UNL A   1      34.444  32.949  30.206  1.00  0.00     0.116 C 
BRANCH  26  27
ATOM     27  N   UNL A   1      34.598  32.900  31.647  1.00  0.00    -0.352 N 
ATOM     28  C   UNL A   1      35.561  32.477  32.522  1.00  0.00     0.251 C 
ATOM     29  H   UNL A   1      33.810  33.263  32.114  1.00  0.00     0.163 HD
ATOM     30  O   UNL A   1      35.386  32.820  33.696  1.00  0.00    -0.269 OA
BRANCH  28  31
ATOM     31  C   UNL A   1      36.739  31.613  32.204  1.00  0.00     0.039 A 
ATOM     32  C   UNL A   1      38.024  32.049  31.898  1.00  0.00     0.014 A 
ATOM     33  C   UNL A   1      36.481  30.224  32.149  1.00  0.00     0.014 A 
ATOM     34  C   UNL A   1      38.993  31.128  31.474  1.00  0.00     0.010 A 
ATOM     35  C   UNL A   1      37.443  29.305  31.724  1.00  0.00     0.010 A 
ATOM     36  C   UNL A   1      38.698  29.757  31.346  1.00  0.00    -0.014 A 
BRANCH  36  37
ATOM     37  C   UNL A   1      39.779  28.831  30.978  1.00  0.00     0.031 A 
ATOM     38  C   UNL A   1      40.706  28.534  32.100  1.00  0.00     0.074 A 
ATOM     39  C   UNL A   1      39.978  28.220  29.787  1.00  0.00     0.049 A 
ATOM     40  N   UNL A   1      41.887  29.030  32.262  1.00  0.00    -0.248 NA
ATOM     41  C   UNL A   1      40.227  27.739  33.236  1.00  0.00     0.031 C 
ATOM     42  C   UNL A   1      39.099  28.183  28.617  1.00  0.00     0.029 A 
ATOM     43  N   UNL A   1      41.036  27.443  29.387  1.00  0.00    -0.354 N 
ATOM     44  C   UNL A   1      42.396  28.447  33.414  1.00  0.00     0.074 A 
ATOM     45  C   UNL A   1      41.282  27.790  34.054  1.00  0.00     0.031 C 
ATOM     46  C   UNL A   1      39.557  27.266  27.728  1.00  0.00     0.029 A 
ATOM     47  C   UNL A   1      40.843  26.765  28.184  1.00  0.00     0.049 A 
ATOM     48  H   UNL A   1      41.867  27.368  29.910  1.00  0.00     0.167 HD
ATOM     49  C   UNL A   1      43.739  28.376  33.627  1.00  0.00     0.031 A 
ATOM     50  C   UNL A   1      41.690  25.888  27.578  1.00  0.00     0.031 A 
ATOM     51  C   UNL A   1      44.463  29.241  32.732  1.00  0.00     0.049 A 
ATOM     52  C   UNL A   1      43.054  26.197  28.058  1.00  0.00     0.074 A 
ATOM     53  C   UNL A   1      44.484  30.598  32.487  1.00  0.00     0.029 A 
ATOM     54  N   UNL A   1      45.051  28.642  31.644  1.00  0.00    -0.354 N 
ATOM     55  N   UNL A   1      43.698  27.284  27.749  1.00  0.00    -0.248 NA
ATOM     56  C   UNL A   1      43.557  25.469  29.209  1.00  0.00     0.031 C 
ATOM     57  C   UNL A   1      44.659  30.714  31.077  1.00  0.00     0.029 A 
ATOM     58  C   UNL A   1      44.821  29.431  30.549  1.00  0.00     0.049 A 
ATOM     59  H   UNL A   1      45.550  27.794  31.650  1.00  0.00     0.167 HD
ATOM     60  C   UNL A   1      44.375  27.622  28.908  1.00  0.00     0.074 A 
ATOM     61  C   UNL A   1      44.334  26.417  29.734  1.00  0.00     0.031 C 
ATOM     62  C   UNL A   1      44.666  28.922  29.200  1.00  0.00     0.031 A 
BRANCH  49  63
ATOM     63  C   UNL A   1      44.419  27.255  34.370  1.00  0.00    -0.014 A 
ATOM     64  C   UNL A   1      44.855  27.365  35.705  1.00  0.00     0.010 A 
ATOM     65  C   UNL A   1      44.397  25.959  33.810  1.00  0.00     0.010 A 
ATOM     66  C   UNL A   1      45.264  26.253  36.443  1.00  0.00     0.020 A 
ATOM     67  C   UNL A   1      44.763  24.831  34.555  1.00  0.00     0.020 A 
ATOM     68  C   UNL A   1      45.207  24.989  35.864  1.00  0.00     0.054 A 
BRANCH  68  69
ATOM     69  S   UNL A   1      45.692  23.569  36.873  1.00  0.00     0.124 S 
ATOM     70  O   UNL A   1      45.138  23.926  38.174  1.00  0.00    -0.237 OA
ATOM     71  O   UNL A   1      45.040  22.460  36.188  1.00  0.00    -0.237 OA
ATOM     72  O   UNL A   1      47.155  23.578  36.793  1.00  0.00    -0.744 OA
ENDBRANCH  68  69
ENDBRANCH  49  63
BRANCH  50  73
ATOM     73  C   UNL A   1      41.384  24.556  26.976  1.00  0.00    -0.014 A 
ATOM     74  C   UNL A   1      40.399  23.736  27.555  1.00  0.00     0.010 A 
ATOM     75  C   UNL A   1      42.295  23.950  26.079  1.00  0.00     0.010 A 
ATOM     76  C   UNL A   1      40.387  22.350  27.338  1.00  0.00     0.020 A 
ATOM     77  C   UNL A   1      42.290  22.560  25.859  1.00  0.00     0.020 A 
ATOM     78  C   UNL A   1      41.360  21.765  26.526  1.00  0.00     0.054 A 
BRANCH  78  79
ATOM     79  S   UNL A   1      41.442  19.949  26.453  1.00  0.00     0.124 S 
ATOM     80  O   UNL A   1      41.365  19.583  27.864  1.00  0.00    -0.237 OA
ATOM     81  O   UNL A   1      40.268  19.611  25.653  1.00  0.00    -0.237 OA
ATOM     82  O   UNL A   1      42.727  19.683  25.807  1.00  0.00    -0.744 OA
ENDBRANCH  78  79
ENDBRANCH  50  73
BRANCH  62  83
ATOM     83  C   UNL A   1      44.608  29.963  28.103  1.00  0.00    -0.014 A 
ATOM     84  C   UNL A   1      45.819  30.611  27.792  1.00  0.00     0.010 A 
ATOM     85  C   UNL A   1      43.424  30.442  27.506  1.00  0.00     0.010 A 
ATOM     86  C   UNL A   1      45.852  31.725  26.956  1.00  0.00     0.020 A 
ATOM     87  C   UNL A   1      43.454  31.544  26.635  1.00  0.00     0.020 A 
ATOM     88  C   UNL A   1      44.668  32.193  26.389  1.00  0.00     0.054 A 
BRANCH  88  89
ATOM     89  S   UNL A   1      44.758  33.677  25.351  1.00  0.00     0.124 S 
ATOM     90  O   UNL A   1      46.177  34.021  25.426  1.00  0.00    -0.237 OA
ATOM     91  O   UNL A   1      44.305  33.187  24.050  1.00  0.00    -0.237 OA
ATOM     92  O   UNL A   1      43.856  34.623  26.002  1.00  0.00    -0.744 OA
ENDBRANCH  88  89
ENDBRANCH  62  83
ENDBRANCH  36  37
ENDBRANCH  28  31
ENDBRANCH  26  27
ENDBRANCH  25  26
ENDBRANCH  24  25
ENDBRANCH   1  24
TORSDOF 19
ENDMDL
MODEL 2
REMARK VINA RESULT:     -11.4      2.428      3.692
REMARK SMILES O=C(Cn1cc(C(=O)C(F)(F)F)c2ccccc21)NCCCCCCNC(=O)c1ccc(-c2c3nc(c(-c4ccc(S(=O)(=O)[O-])cc4)c4ccc([nH]4)c(-c4ccc(S(=O)(=O)[O-])cc4)c4nc(c(-c5ccc(S(=O)(=O)[O-])cc5)c5ccc2[nH]5)C=C4)C=C3)cc1
REMARK SMILES IDX 22 1 21 2 20 3 19 4 1 5 2 6 3 8 4 9 5 10 18 11 6 12 13 13
REMARK SMILES IDX 17 14 14 15 16 16 15 17 7 18 8 19 9 20 10 21 11 22 12 23
REMARK SMILES IDX 23 24 24 25 25 26 26 27 27 28 28 30 29 31 30 32 88 33 31 34
REMARK SMILES IDX 87 35 32 36 33 37 34 38 81 39 35 40 86 41 80 42 82 43 36 44
REMARK SMILES IDX 85 45 79 46 78 47 37 49 67 50 48 51 66 52 49 53 52 54 65 55
REMARK SMILES IDX 83 56 50 57 51 58 64 60 84 61 53 62 38 63 39 64 47 65 40 66
REMARK SMILES IDX 46 67 41 68 42 69 43 70 44 71 45 72 68 73 69 74 77 75 70 76
REMARK SMILES IDX 76 77 71 78 72 79 73 80 74 81 75 82 54 83 55 84 63 85 56 86
REMARK SMILES IDX 62 87 57 88 58 89 59 90 60 91 61 92
REMARK H PARENT 19 7 26 29 82 48 52 59
REMARK Flexibility Score: inf
ROOT
ATOM      1  C   UNL A   1      35.030  30.128  28.131  1.00  0.00     0.002 C 
ENDROOT
BRANCH   1   2
ATOM      2  C   UNL A   1      34.554  29.391  26.873  1.00  0.00     0.021 C 
BRANCH   2   3
ATOM      3  C   UNL A   1      33.424  28.387  27.100  1.00  0.00     0.116 C 
BRANCH   3   4
ATOM      4  N   UNL A   1      33.238  27.492  25.970  1.00  0.00    -0.355 N 
ATOM      5  O   UNL A   1      31.471  26.339  26.873  1.00  0.00    -0.273 OA
ATOM      6  C   UNL A   1      32.222  26.561  25.922  1.00  0.00     0.239 C 
ATOM      7  H   UNL A   1      33.861  27.552  25.211  1.00  0.00     0.163 HD
BRANCH   6   8
ATOM      8  C   UNL A   1      32.120  25.742  24.652  1.00  0.00     0.222 C 
BRANCH   8   9
ATOM      9  N   UNL A   1      33.064  24.634  24.531  1.00  0.00    -0.337 N 
ATOM     10  C   UNL A   1      34.397  24.809  24.234  1.00  0.00     0.099 A 
ATOM     11  C   UNL A   1      32.806  23.299  24.758  1.00  0.00     0.049 A 
ATOM     12  C   UNL A   1      35.022  23.574  24.234  1.00  0.00     0.053 A 
ATOM     13  C   UNL A   1      34.007  22.608  24.541  1.00  0.00     0.011 A 
ATOM     14  C   UNL A   1      31.625  22.629  25.123  1.00  0.00     0.027 A 
ATOM     15  C   UNL A   1      34.005  21.201  24.664  1.00  0.00     0.011 A 
ATOM     16  C   UNL A   1      31.654  21.236  25.225  1.00  0.00     0.002 A 
ATOM     17  C   UNL A   1      32.825  20.528  24.994  1.00  0.00     0.001 A 
BRANCH  12  18
ATOM     18  C   UNL A   1      36.450  23.317  23.984  1.00  0.00     0.268 C 
ATOM     19  O   UNL A   1      36.881  23.221  22.831  1.00  0.00    -0.284 OA
BRANCH  18  20
ATOM     20  C   UNL A   1      37.365  23.140  25.193  1.00  0.00     0.454 C 
ATOM     21  F   UNL A   1      38.223  24.188  25.367  1.00  0.00    -0.163 F 
ATOM     22  F   UNL A   1      36.668  23.033  26.364  1.00  0.00    -0.163 F 
ATOM     23  F   UNL A   1      38.147  22.024  25.126  1.00  0.00    -0.163 F 
ENDBRANCH  18  20
ENDBRANCH  12  18
ENDBRANCH   8   9
ENDBRANCH   6   8
ENDBRANCH   3   4
ENDBRANCH   2   3
ENDBRANCH   1   2
BRANCH   1  24
ATOM     24  C   UNL A   1      35.994  31.299  27.904  1.00  0.00     0.002 C 
BRANCH  24  25
ATOM     25  C   UNL A   1      35.642  32.626  28.597  1.00  0.00     0.021 C 
BRANCH  25  26
ATOM     26  C   UNL A   1      34.290  32.661  29.312  1.00  0.00     0.116 C 
BRANCH  26  27
ATOM     27  N   UNL A   1      34.387  32.786  30.753  1.00  0.00    -0.352 N 
ATOM     28  C   UNL A   1      35.313  32.469  31.710  1.00  0.00     0.251 C 
ATOM     29  H   UNL A   1      33.584  33.203  31.142  1.00  0.00     0.163 HD
ATOM     30  O   UNL A   1      35.094  32.951  32.826  1.00  0.00    -0.269 OA
BRANCH  28  31
ATOM     31  C   UNL A   1      36.496  31.571  31.546  1.00  0.00     0.039 A 
ATOM     32  C   UNL A   1      37.820  31.970  31.390  1.00  0.00     0.014 A 
ATOM     33  C   UNL A   1      36.210  30.188  31.477  1.00  0.00     0.014 A 
ATOM     34  C   UNL A   1      38.807  31.019  31.096  1.00  0.00     0.010 A 
ATOM     35  C   UNL A   1      37.190  29.239  31.181  1.00  0.00     0.010 A 
ATOM     36  C   UNL A   1      38.493  29.655  30.950  1.00  0.00    -0.014 A 
BRANCH  36  37
ATOM     37  C   UNL A   1      39.585  28.696  30.725  1.00  0.00     0.031 A 
ATOM     38  C   UNL A   1      40.337  28.360  31.961  1.00  0.00     0.074 A 
ATOM     39  C   UNL A   1      39.930  28.088  29.566  1.00  0.00     0.049 A 
ATOM     40  N   UNL A   1      41.498  28.816  32.292  1.00  0.00    -0.248 NA
ATOM     41  C   UNL A   1      39.679  27.572  33.010  1.00  0.00     0.031 C 
ATOM     42  C   UNL A   1      39.222  28.089  28.285  1.00  0.00     0.029 A 
ATOM     43  N   UNL A   1      41.008  27.279  29.308  1.00  0.00    -0.354 N 
ATOM     44  C   UNL A   1      41.823  28.207  33.497  1.00  0.00     0.074 A 
ATOM     45  C   UNL A   1      40.611  27.582  33.968  1.00  0.00     0.031 C 
ATOM     46  C   UNL A   1      39.770  27.164  27.457  1.00  0.00     0.029 A 
ATOM     47  C   UNL A   1      40.964  26.617  28.082  1.00  0.00     0.049 A 
ATOM     48  H   UNL A   1      41.755  27.173  29.941  1.00  0.00     0.167 HD
ATOM     49  C   UNL A   1      43.120  28.090  33.895  1.00  0.00     0.031 A 
ATOM     50  C   UNL A   1      41.858  25.718  27.588  1.00  0.00     0.031 A 
ATOM     51  C   UNL A   1      43.989  28.937  33.119  1.00  0.00     0.049 A 
ATOM     52  C   UNL A   1      43.151  25.978  28.258  1.00  0.00     0.074 A 
ATOM     53  C   UNL A   1      44.087  30.295  32.896  1.00  0.00     0.029 A 
ATOM     54  N   UNL A   1      44.704  28.328  32.117  1.00  0.00    -0.354 N 
ATOM     55  N   UNL A   1      43.866  27.045  28.055  1.00  0.00    -0.248 NA
ATOM     56  C   UNL A   1      43.465  25.225  29.459  1.00  0.00     0.031 C 
ATOM     57  C   UNL A   1      44.461  30.416  31.527  1.00  0.00     0.029 A 
ATOM     58  C   UNL A   1      44.655  29.132  31.010  1.00  0.00     0.049 A 
ATOM     59  H   UNL A   1      45.171  27.463  32.182  1.00  0.00     0.167 HD
ATOM     60  C   UNL A   1      44.385  27.352  29.302  1.00  0.00     0.074 A 
ATOM     61  C   UNL A   1      44.191  26.142  30.099  1.00  0.00     0.031 C 
ATOM     62  C   UNL A   1      44.673  28.640  29.647  1.00  0.00     0.031 A 
BRANCH  49  63
ATOM     63  C   UNL A   1      43.654  26.942  34.712  1.00  0.00    -0.014 A 
ATOM     64  C   UNL A   1      43.152  25.630  34.623  1.00  0.00     0.010 A 
ATOM     65  C   UNL A   1      44.872  27.113  35.407  1.00  0.00     0.010 A 
ATOM     66  C   UNL A   1      43.809  24.545  35.205  1.00  0.00     0.020 A 
ATOM     67  C   UNL A   1      45.563  26.026  35.957  1.00  0.00     0.020 A 
ATOM     68  C   UNL A   1      45.017  24.750  35.864  1.00  0.00     0.054 A 
BRANCH  68  69
ATOM     69  S   UNL A   1      45.865  23.310  36.555  1.00  0.00     0.124 S 
ATOM     70  O   UNL A   1      45.225  22.215  35.834  1.00  0.00    -0.237 OA
ATOM     71  O   UNL A   1      47.256  23.570  36.210  1.00  0.00    -0.237 OA
ATOM     72  O   UNL A   1      45.551  23.385  37.984  1.00  0.00    -0.744 OA
ENDBRANCH  68  69
ENDBRANCH  49  63
BRANCH  50  73
ATOM     73  C   UNL A   1      41.598  24.401  26.934  1.00  0.00    -0.014 A 
ATOM     74  C   UNL A   1      40.627  23.535  27.467  1.00  0.00     0.010 A 
ATOM     75  C   UNL A   1      42.538  23.853  26.030  1.00  0.00     0.010 A 
ATOM     76  C   UNL A   1      40.656  22.158  27.199  1.00  0.00     0.020 A 
ATOM     77  C   UNL A   1      42.574  22.473  25.759  1.00  0.00     0.020 A 
ATOM     78  C   UNL A   1      41.656  21.629  26.382  1.00  0.00     0.054 A 
BRANCH  78  79
ATOM     79  S   UNL A   1      41.789  19.820  26.244  1.00  0.00     0.124 S 
ATOM     80  O   UNL A   1      42.868  19.666  25.274  1.00  0.00    -0.237 OA
ATOM     81  O   UNL A   1      42.114  19.421  27.611  1.00  0.00    -0.237 OA
ATOM     82  O   UNL A   1      40.465  19.407  25.778  1.00  0.00    -0.744 OA
ENDBRANCH  78  79
ENDBRANCH  50  73
BRANCH  62  83
ATOM     83  C   UNL A   1      44.802  29.690  28.565  1.00  0.00    -0.014 A 
ATOM     84  C   UNL A   1      46.094  30.206  28.346  1.00  0.00     0.010 A 
ATOM     85  C   UNL A   1      43.720  30.300  27.899  1.00  0.00     0.010 A 
ATOM     86  C   UNL A   1      46.303  31.317  27.531  1.00  0.00     0.020 A 
ATOM     87  C   UNL A   1      43.927  31.400  27.050  1.00  0.00     0.020 A 
ATOM     88  C   UNL A   1      45.217  31.916  26.894  1.00  0.00     0.054 A 
BRANCH  88  89
ATOM     89  S   UNL A   1      45.536  33.390  25.889  1.00  0.00     0.124 S 
ATOM     90  O   UNL A   1      44.824  33.079  24.649  1.00  0.00    -0.237 OA
ATOM     91  O   UNL A   1      44.947  34.460  26.691  1.00  0.00    -0.237 OA
ATOM     92  O   UNL A   1      46.991  33.435  25.773  1.00  0.00    -0.744 OA
ENDBRANCH  88  89
ENDBRANCH  62  83
ENDBRANCH  36  37
ENDBRANCH  28  31
ENDBRANCH  26  27
ENDBRANCH  25  26
ENDBRANCH  24  25
ENDBRANCH   1  24
TORSDOF 19
ENDMDL
MODEL 3
REMARK VINA RESULT:     -11.3      3.007      9.560
REMARK SMILES O=C(Cn1cc(C(=O)C(F)(F)F)c2ccccc21)NCCCCCCNC(=O)c1ccc(-c2c3nc(c(-c4ccc(S(=O)(=O)[O-])cc4)c4ccc([nH]4)c(-c4ccc(S(=O)(=O)[O-])cc4)c4nc(c(-c5ccc(S(=O)(=O)[O-])cc5)c5ccc2[nH]5)C=C4)C=C3)cc1
REMARK SMILES IDX 22 1 21 2 20 3 19 4 1 5 2 6 3 8 4 9 5 10 18 11 6 12 13 13
REMARK SMILES IDX 17 14 14 15 16 16 15 17 7 18 8 19 9 20 10 21 11 22 12 23
REMARK SMILES IDX 23 24 24 25 25 26 26 27 27 28 28 30 29 31 30 32 88 33 31 34
REMARK SMILES IDX 87 35 32 36 33 37 34 38 81 39 35 40 86 41 80 42 82 43 36 44
REMARK SMILES IDX 85 45 79 46 78 47 37 49 67 50 48 51 66 52 49 53 52 54 65 55
REMARK SMILES IDX 83 56 50 57 51 58 64 60 84 61 53 62 38 63 39 64 47 65 40 66
REMARK SMILES IDX 46 67 41 68 42 69 43 70 44 71 45 72 68 73 69 74 77 75 70 76
REMARK SMILES IDX 76 77 71 78 72 79 73 80 74 81 75 82 54 83 55 84 63 85 56 86
REMARK SMILES IDX 62 87 57 88 58 89 59 90 60 91 61 92
REMARK H PARENT 19 7 26 29 82 48 52 59
REMARK Flexibility Score: inf
ROOT
ATOM      1  C   UNL A   1      36.004  21.394  24.733  1.00  0.00     0.002 C 
ENDROOT
BRANCH   1   2
ATOM      2  C   UNL A   1      34.598  21.869  25.123  1.00  0.00     0.021 C 
BRANCH   2   3
ATOM      3  C   UNL A   1      33.767  22.444  23.975  1.00  0.00     0.116 C 
BRANCH   3   4
ATOM      4  N   UNL A   1      32.594  23.162  24.441  1.00  0.00    -0.355 N 
ATOM      5  O   UNL A   1      33.527  25.254  24.293  1.00  0.00    -0.273 OA
ATOM      6  C   UNL A   1      32.548  24.539  24.509  1.00  0.00     0.239 C 
ATOM      7  H   UNL A   1      31.803  22.648  24.719  1.00  0.00     0.163 HD
BRANCH   6   8
ATOM      8  C   UNL A   1      31.234  25.146  24.957  1.00  0.00     0.222 C 
BRANCH   8   9
ATOM      9  N   UNL A   1      31.056  26.566  24.665  1.00  0.00    -0.337 N 
ATOM     10  C   UNL A   1      30.371  27.029  23.564  1.00  0.00     0.099 A 
ATOM     11  C   UNL A   1      31.461  27.628  25.445  1.00  0.00     0.049 A 
ATOM     12  C   UNL A   1      30.347  28.413  23.599  1.00  0.00     0.053 A 
ATOM     13  C   UNL A   1      31.064  28.798  24.781  1.00  0.00     0.011 A 
ATOM     14  C   UNL A   1      32.152  27.673  26.669  1.00  0.00     0.027 A 
ATOM     15  C   UNL A   1      31.401  30.044  25.353  1.00  0.00     0.011 A 
ATOM     16  C   UNL A   1      32.482  28.921  27.202  1.00  0.00     0.002 A 
ATOM     17  C   UNL A   1      32.117  30.093  26.553  1.00  0.00     0.001 A 
BRANCH  12  18
ATOM     18  C   UNL A   1      29.698  29.301  22.621  1.00  0.00     0.268 C 
ATOM     19  O   UNL A   1      30.311  29.699  21.627  1.00  0.00    -0.284 OA
BRANCH  18  20
ATOM     20  C   UNL A   1      28.261  29.737  22.898  1.00  0.00     0.454 C 
ATOM     21  F   UNL A   1      28.179  30.736  23.826  1.00  0.00    -0.163 F 
ATOM     22  F   UNL A   1      27.637  30.216  21.781  1.00  0.00    -0.163 F 
ATOM     23  F   UNL A   1      27.467  28.730  23.362  1.00  0.00    -0.163 F 
ENDBRANCH  18  20
ENDBRANCH  12  18
ENDBRANCH   8   9
ENDBRANCH   6   8
ENDBRANCH   3   4
ENDBRANCH   2   3
ENDBRANCH   1   2
BRANCH   1  24
ATOM     24  C   UNL A   1      37.030  22.495  24.435  1.00  0.00     0.002 C 
BRANCH  24  25
ATOM     25  C   UNL A   1      37.919  22.942  25.607  1.00  0.00     0.021 C 
BRANCH  25  26
ATOM     26  C   UNL A   1      38.823  21.861  26.202  1.00  0.00     0.116 C 
BRANCH  26  27
ATOM     27  N   UNL A   1      40.201  21.930  25.754  1.00  0.00    -0.352 N 
ATOM     28  C   UNL A   1      41.294  22.701  26.042  1.00  0.00     0.251 C 
ATOM     29  H   UNL A   1      40.400  21.250  25.070  1.00  0.00     0.163 HD
ATOM     30  O   UNL A   1      42.362  22.283  25.584  1.00  0.00    -0.269 OA
BRANCH  28  31
ATOM     31  C   UNL A   1      41.301  23.996  26.788  1.00  0.00     0.039 A 
ATOM     32  C   UNL A   1      41.871  24.227  28.036  1.00  0.00     0.014 A 
ATOM     33  C   UNL A   1      40.596  25.058  26.176  1.00  0.00     0.014 A 
ATOM     34  C   UNL A   1      41.670  25.456  28.680  1.00  0.00     0.010 A 
ATOM     35  C   UNL A   1      40.391  26.282  26.816  1.00  0.00     0.010 A 
ATOM     36  C   UNL A   1      40.897  26.477  28.093  1.00  0.00    -0.014 A 
BRANCH  36  37
ATOM     37  C   UNL A   1      40.793  27.772  28.780  1.00  0.00     0.031 A 
ATOM     38  C   UNL A   1      41.775  28.776  28.294  1.00  0.00     0.074 A 
ATOM     39  C   UNL A   1      39.908  28.135  29.737  1.00  0.00     0.049 A 
ATOM     40  N   UNL A   1      42.862  29.129  28.894  1.00  0.00    -0.248 NA
ATOM     41  C   UNL A   1      41.627  29.327  26.942  1.00  0.00     0.031 C 
ATOM     42  C   UNL A   1      38.731  27.410  30.219  1.00  0.00     0.029 A 
ATOM     43  N   UNL A   1      39.862  29.295  30.469  1.00  0.00    -0.354 N 
ATOM     44  C   UNL A   1      43.439  30.110  28.100  1.00  0.00     0.074 A 
ATOM     45  C   UNL A   1      42.728  30.078  26.845  1.00  0.00     0.031 C 
ATOM     46  C   UNL A   1      37.980  28.225  31.003  1.00  0.00     0.029 A 
ATOM     47  C   UNL A   1      38.696  29.473  31.212  1.00  0.00     0.049 A 
ATOM     48  H   UNL A   1      40.595  29.952  30.468  1.00  0.00     0.167 HD
ATOM     49  C   UNL A   1      44.314  31.011  28.627  1.00  0.00     0.031 A 
ATOM     50  C   UNL A   1      38.353  30.544  31.980  1.00  0.00     0.031 A 
ATOM     51  C   UNL A   1      44.778  30.600  29.927  1.00  0.00     0.049 A 
ATOM     52  C   UNL A   1      39.610  31.214  32.378  1.00  0.00     0.074 A 
ATOM     53  C   UNL A   1      45.466  29.510  30.420  1.00  0.00     0.029 A 
ATOM     54  N   UNL A   1      44.187  31.206  31.010  1.00  0.00    -0.354 N 
ATOM     55  N   UNL A   1      40.475  30.695  33.200  1.00  0.00    -0.248 NA
ATOM     56  C   UNL A   1      40.097  32.304  31.552  1.00  0.00     0.031 C 
ATOM     57  C   UNL A   1      44.880  29.251  31.693  1.00  0.00     0.029 A 
ATOM     58  C   UNL A   1      43.930  30.243  31.947  1.00  0.00     0.049 A 
ATOM     59  H   UNL A   1      43.984  32.165  31.095  1.00  0.00     0.167 HD
ATOM     60  C   UNL A   1      41.704  31.063  32.681  1.00  0.00     0.074 A 
ATOM     61  C   UNL A   1      41.408  32.135  31.732  1.00  0.00     0.031 C 
ATOM     62  C   UNL A   1      42.808  30.283  32.866  1.00  0.00     0.031 A 
BRANCH  49  63
ATOM     63  C   UNL A   1      44.454  32.434  28.150  1.00  0.00    -0.014 A 
ATOM     64  C   UNL A   1      43.574  33.466  28.527  1.00  0.00     0.010 A 
ATOM     65  C   UNL A   1      45.651  32.818  27.507  1.00  0.00     0.010 A 
ATOM     66  C   UNL A   1      43.855  34.809  28.268  1.00  0.00     0.020 A 
ATOM     67  C   UNL A   1      45.964  34.165  27.281  1.00  0.00     0.020 A 
ATOM     68  C   UNL A   1      45.055  35.150  27.652  1.00  0.00     0.054 A 
BRANCH  68  69
ATOM     69  S   UNL A   1      45.406  36.904  27.386  1.00  0.00     0.124 S 
ATOM     70  O   UNL A   1      45.767  37.342  28.729  1.00  0.00    -0.237 OA
ATOM     71  O   UNL A   1      46.494  36.863  26.418  1.00  0.00    -0.237 OA
ATOM     72  O   UNL A   1      44.138  37.431  26.877  1.00  0.00    -0.744 OA
ENDBRANCH  68  69
ENDBRANCH  49  63
BRANCH  50  73
ATOM     73  C   UNL A   1      37.055  31.279  32.035  1.00  0.00    -0.014 A 
ATOM     74  C   UNL A   1      36.425  31.677  30.842  1.00  0.00     0.010 A 
ATOM     75  C   UNL A   1      36.632  31.898  33.235  1.00  0.00     0.010 A 
ATOM     76  C   UNL A   1      35.493  32.726  30.827  1.00  0.00     0.020 A 
ATOM     77  C   UNL A   1      35.700  32.951  33.227  1.00  0.00     0.020 A 
ATOM     78  C   UNL A   1      35.169  33.386  32.013  1.00  0.00     0.054 A 
BRANCH  78  79
ATOM     79  S   UNL A   1      34.132  34.877  31.914  1.00  0.00     0.124 S 
ATOM     80  O   UNL A   1      32.916  34.449  32.599  1.00  0.00    -0.237 OA
ATOM     81  O   UNL A   1      34.935  35.869  32.625  1.00  0.00    -0.237 OA
ATOM     82  O   UNL A   1      33.992  35.110  30.477  1.00  0.00    -0.744 OA
ENDBRANCH  78  79
ENDBRANCH  50  73
BRANCH  62  83
ATOM     83  C   UNL A   1      42.801  29.227  33.950  1.00  0.00    -0.014 A 
ATOM     84  C   UNL A   1      42.209  27.994  33.616  1.00  0.00     0.010 A 
ATOM     85  C   UNL A   1      43.180  29.444  35.290  1.00  0.00     0.010 A 
ATOM     86  C   UNL A   1      41.956  27.025  34.585  1.00  0.00     0.020 A 
ATOM     87  C   UNL A   1      42.959  28.458  36.266  1.00  0.00     0.020 A 
ATOM     88  C   UNL A   1      42.323  27.265  35.908  1.00  0.00     0.054 A 
BRANCH  88  89
ATOM     89  S   UNL A   1      41.924  25.995  37.139  1.00  0.00     0.124 S 
ATOM     90  O   UNL A   1      42.185  24.759  36.402  1.00  0.00    -0.237 OA
ATOM     91  O   UNL A   1      42.866  26.285  38.218  1.00  0.00    -0.237 OA
ATOM     92  O   UNL A   1      40.521  26.239  37.462  1.00  0.00    -0.744 OA
ENDBRANCH  88  89
ENDBRANCH  62  83
ENDBRANCH  36  37
ENDBRANCH  28  31
ENDBRANCH  26  27
ENDBRANCH  25  26
ENDBRANCH  24  25
ENDBRANCH   1  24
TORSDOF 19
ENDMDL
