MODEL 1
REMARK VINA RESULT:     -10.4      0.000      0.000
REMARK SMILES C[C@@H](C(=O)NCCCCCCNC(=O)c1ccc(-c2c3nc(c(-c4ccc(S(=O)(=O)[O-])cc4)c4ccc([nH]4)c(-c4ccc(S(=O)(=O)[O-])cc4)c4nc(c(-c5ccc(S(=O)(=O)[O-])cc5)c5ccc2[nH]5)C=C4)C=C3)cc1)c1ccc(C(=O)c2cccs2)cc1
REMARK SMILES IDX 8 1 7 2 6 3 5 4 3 5 4 6 2 8 1 9 75 10 76 11 87 12 77 13
REMARK SMILES IDX 86 14 78 15 79 16 80 17 81 18 82 19 85 20 83 21 84 22 9 23
REMARK SMILES IDX 10 24 11 25 12 26 13 27 14 29 15 30 16 31 74 32 17 33 73 34
REMARK SMILES IDX 18 35 19 36 20 37 67 38 21 39 72 40 66 41 68 42 22 43 71 44
REMARK SMILES IDX 65 45 64 46 23 48 53 49 34 50 52 51 35 52 38 53 51 54 69 55
REMARK SMILES IDX 36 56 37 57 50 59 70 60 39 61 24 62 25 63 33 64 26 65 32 66
REMARK SMILES IDX 27 67 28 68 29 69 30 70 31 71 54 72 55 73 63 74 56 75 62 76
REMARK SMILES IDX 57 77 58 78 59 79 60 80 61 81 40 82 41 83 49 84 42 85 48 86
REMARK SMILES IDX 43 87 44 88 45 89 46 90 47 91
REMARK H PARENT 5 7 12 28 68 47 38 58
REMARK Flexibility Score: inf
ROOT
ATOM      1  C   UNL A   1      32.653  24.824  26.510  1.00  0.00     0.002 C 
ENDROOT
BRANCH   1   2
ATOM      2  C   UNL A   1      31.244  24.218  26.564  1.00  0.00     0.021 C 
BRANCH   2   3
ATOM      3  C   UNL A   1      31.216  22.699  26.756  1.00  0.00     0.116 C 
BRANCH   3   4
ATOM      4  N   UNL A   1      32.488  22.224  27.254  1.00  0.00    -0.356 N 
ATOM      5  C   UNL A   1      33.410  21.395  26.690  1.00  0.00     0.227 C 
ATOM      6  O   UNL A   1      34.372  21.099  27.404  1.00  0.00    -0.274 OA
ATOM      7  H   UNL A   1      32.727  22.554  28.151  1.00  0.00     0.163 HD
BRANCH   5   8
ATOM      8  C   UNL A   1      33.252  20.924  25.229  1.00  0.00     0.105 C 
ATOM      9  C   UNL A   1      34.361  19.973  24.770  1.00  0.00     0.023 C 
BRANCH   8  10
ATOM     10  C   UNL A   1      33.198  22.079  24.229  1.00  0.00    -0.036 A 
ATOM     11  C   UNL A   1      34.313  22.903  24.028  1.00  0.00     0.005 A 
ATOM     12  C   UNL A   1      32.013  22.378  23.541  1.00  0.00     0.005 A 
ATOM     13  C   UNL A   1      34.238  23.998  23.158  1.00  0.00     0.012 A 
ATOM     14  C   UNL A   1      31.946  23.449  22.652  1.00  0.00     0.012 A 
ATOM     15  C   UNL A   1      33.053  24.283  22.464  1.00  0.00     0.023 A 
BRANCH  15  16
ATOM     16  C   UNL A   1      33.029  25.447  21.516  1.00  0.00     0.202 C 
ATOM     17  O   UNL A   1      33.145  25.224  20.312  1.00  0.00    -0.288 OA
BRANCH  16  18
ATOM     18  C   UNL A   1      32.842  26.786  22.051  1.00  0.00     0.075 A 
ATOM     19  C   UNL A   1      33.779  27.761  22.336  1.00  0.00     0.024 A 
ATOM     20  S   UNL A   1      31.254  27.311  22.414  1.00  0.00    -0.140 S 
ATOM     21  C   UNL A   1      33.191  28.913  22.936  1.00  0.00     0.012 A 
ATOM     22  C   UNL A   1      31.823  28.794  23.046  1.00  0.00     0.065 A 
ENDBRANCH  16  18
ENDBRANCH  15  16
ENDBRANCH   8  10
ENDBRANCH   5   8
ENDBRANCH   3   4
ENDBRANCH   2   3
ENDBRANCH   1   2
BRANCH   1  23
ATOM     23  C   UNL A   1      32.763  26.157  25.765  1.00  0.00     0.002 C 
BRANCH  23  24
ATOM     24  C   UNL A   1      32.703  27.402  26.654  1.00  0.00     0.021 C 
BRANCH  24  25
ATOM     25  C   UNL A   1      33.945  28.283  26.596  1.00  0.00     0.116 C 
BRANCH  25  26
ATOM     26  N   UNL A   1      33.665  29.648  27.006  1.00  0.00    -0.352 N 
ATOM     27  C   UNL A   1      34.422  30.487  27.781  1.00  0.00     0.251 C 
ATOM     28  H   UNL A   1      32.814  30.021  26.683  1.00  0.00     0.163 HD
ATOM     29  O   UNL A   1      33.937  31.542  28.190  1.00  0.00    -0.269 OA
BRANCH  27  30
ATOM     30  C   UNL A   1      35.811  30.124  28.137  1.00  0.00     0.039 A 
ATOM     31  C   UNL A   1      36.817  30.281  27.180  1.00  0.00     0.014 A 
ATOM     32  C   UNL A   1      36.118  29.598  29.396  1.00  0.00     0.014 A 
ATOM     33  C   UNL A   1      38.133  29.935  27.494  1.00  0.00     0.010 A 
ATOM     34  C   UNL A   1      37.441  29.324  29.732  1.00  0.00     0.010 A 
ATOM     35  C   UNL A   1      38.459  29.464  28.777  1.00  0.00    -0.014 A 
BRANCH  35  36
ATOM     36  C   UNL A   1      39.847  29.061  29.115  1.00  0.00     0.031 A 
ATOM     37  C   UNL A   1      40.759  30.032  29.820  1.00  0.00     0.074 A 
ATOM     38  C   UNL A   1      40.303  27.845  28.757  1.00  0.00     0.049 A 
ATOM     39  N   UNL A   1      42.007  29.879  30.183  1.00  0.00    -0.248 NA
ATOM     40  C   UNL A   1      40.204  31.359  30.135  1.00  0.00     0.031 C 
ATOM     41  C   UNL A   1      39.532  26.828  28.037  1.00  0.00     0.029 A 
ATOM     42  N   UNL A   1      41.526  27.255  28.953  1.00  0.00    -0.354 N 
ATOM     43  C   UNL A   1      42.390  31.093  30.743  1.00  0.00     0.074 A 
ATOM     44  C   UNL A   1      41.261  31.988  30.627  1.00  0.00     0.031 C 
ATOM     45  C   UNL A   1      40.289  25.729  27.885  1.00  0.00     0.029 A 
ATOM     46  C   UNL A   1      41.606  25.973  28.464  1.00  0.00     0.049 A 
ATOM     47  H   UNL A   1      42.276  27.708  29.403  1.00  0.00     0.167 HD
ATOM     48  C   UNL A   1      43.569  31.428  31.321  1.00  0.00     0.031 A 
ATOM     49  C   UNL A   1      42.624  25.090  28.488  1.00  0.00     0.031 A 
ATOM     50  C   UNL A   1      44.681  30.528  31.460  1.00  0.00     0.049 A 
ATOM     51  C   UNL A   1      43.916  25.478  29.154  1.00  0.00     0.074 A 
ATOM     52  C   UNL A   1      45.895  30.748  32.086  1.00  0.00     0.029 A 
ATOM     53  N   UNL A   1      44.715  29.232  30.968  1.00  0.00    -0.354 N 
ATOM     54  N   UNL A   1      44.237  26.609  29.735  1.00  0.00    -0.248 NA
ATOM     55  C   UNL A   1      44.976  24.460  29.185  1.00  0.00     0.031 C 
ATOM     56  C   UNL A   1      46.680  29.600  31.935  1.00  0.00     0.029 A 
ATOM     57  C   UNL A   1      45.933  28.645  31.264  1.00  0.00     0.049 A 
ATOM     58  H   UNL A   1      43.980  28.793  30.481  1.00  0.00     0.167 HD
ATOM     59  C   UNL A   1      45.523  26.426  30.235  1.00  0.00     0.074 A 
ATOM     60  C   UNL A   1      45.914  25.073  29.893  1.00  0.00     0.031 C 
ATOM     61  C   UNL A   1      46.305  27.295  30.922  1.00  0.00     0.031 A 
BRANCH  48  62
ATOM     62  C   UNL A   1      43.713  32.836  31.839  1.00  0.00    -0.014 A 
ATOM     63  C   UNL A   1      43.436  33.152  33.182  1.00  0.00     0.010 A 
ATOM     64  C   UNL A   1      44.157  33.854  30.976  1.00  0.00     0.010 A 
ATOM     65  C   UNL A   1      43.550  34.467  33.638  1.00  0.00     0.020 A 
ATOM     66  C   UNL A   1      44.301  35.166  31.435  1.00  0.00     0.020 A 
ATOM     67  C   UNL A   1      43.976  35.468  32.760  1.00  0.00     0.054 A 
BRANCH  67  68
ATOM     68  S   UNL A   1      44.125  37.167  33.380  1.00  0.00     0.124 S 
ATOM     69  O   UNL A   1      44.421  37.906  32.156  1.00  0.00    -0.237 OA
ATOM     70  O   UNL A   1      42.808  37.414  33.959  1.00  0.00    -0.237 OA
ATOM     71  O   UNL A   1      45.221  37.090  34.341  1.00  0.00    -0.744 OA
ENDBRANCH  67  68
ENDBRANCH  48  62
BRANCH  49  72
ATOM     72  C   UNL A   1      42.446  23.734  27.899  1.00  0.00    -0.014 A 
ATOM     73  C   UNL A   1      41.931  22.683  28.678  1.00  0.00     0.010 A 
ATOM     74  C   UNL A   1      42.783  23.489  26.555  1.00  0.00     0.010 A 
ATOM     75  C   UNL A   1      41.775  21.406  28.132  1.00  0.00     0.020 A 
ATOM     76  C   UNL A   1      42.602  22.220  25.998  1.00  0.00     0.020 A 
ATOM     77  C   UNL A   1      42.111  21.182  26.794  1.00  0.00     0.054 A 
BRANCH  77  78
ATOM     78  S   UNL A   1      41.855  19.530  26.092  1.00  0.00     0.124 S 
ATOM     79  O   UNL A   1      42.303  18.665  27.179  1.00  0.00    -0.237 OA
ATOM     80  O   UNL A   1      40.419  19.520  25.823  1.00  0.00    -0.237 OA
ATOM     81  O   UNL A   1      42.703  19.530  24.902  1.00  0.00    -0.744 OA
ENDBRANCH  77  78
ENDBRANCH  49  72
BRANCH  61  82
ATOM     82  C   UNL A   1      47.642  26.796  31.397  1.00  0.00    -0.014 A 
ATOM     83  C   UNL A   1      48.802  26.943  30.615  1.00  0.00     0.010 A 
ATOM     84  C   UNL A   1      47.743  26.205  32.670  1.00  0.00     0.010 A 
ATOM     85  C   UNL A   1      50.032  26.470  31.082  1.00  0.00     0.020 A 
ATOM     86  C   UNL A   1      48.975  25.757  33.151  1.00  0.00     0.020 A 
ATOM     87  C   UNL A   1      50.109  25.876  32.346  1.00  0.00     0.054 A 
BRANCH  87  88
ATOM     88  S   UNL A   1      51.720  25.296  32.943  1.00  0.00     0.124 S 
ATOM     89  O   UNL A   1      51.375  24.013  33.548  1.00  0.00    -0.237 OA
ATOM     90  O   UNL A   1      52.510  25.221  31.716  1.00  0.00    -0.237 OA
ATOM     91  O   UNL A   1      52.137  26.336  33.881  1.00  0.00    -0.744 OA
ENDBRANCH  87  88
ENDBRANCH  61  82
ENDBRANCH  35  36
ENDBRANCH  27  30
ENDBRANCH  25  26
ENDBRANCH  24  25
ENDBRANCH  23  24
ENDBRANCH   1  23
TORSDOF 19
ENDMDL
MODEL 2
REMARK VINA RESULT:     -10.3      4.291      5.584
REMARK SMILES C[C@@H](C(=O)NCCCCCCNC(=O)c1ccc(-c2c3nc(c(-c4ccc(S(=O)(=O)[O-])cc4)c4ccc([nH]4)c(-c4ccc(S(=O)(=O)[O-])cc4)c4nc(c(-c5ccc(S(=O)(=O)[O-])cc5)c5ccc2[nH]5)C=C4)C=C3)cc1)c1ccc(C(=O)c2cccs2)cc1
REMARK SMILES IDX 8 1 7 2 6 3 5 4 3 5 4 6 2 8 1 9 75 10 76 11 87 12 77 13
REMARK SMILES IDX 86 14 78 15 79 16 80 17 81 18 82 19 85 20 83 21 84 22 9 23
REMARK SMILES IDX 10 24 11 25 12 26 13 27 14 29 15 30 16 31 74 32 17 33 73 34
REMARK SMILES IDX 18 35 19 36 20 37 67 38 21 39 72 40 66 41 68 42 22 43 71 44
REMARK SMILES IDX 65 45 64 46 23 48 53 49 34 50 52 51 35 52 38 53 51 54 69 55
REMARK SMILES IDX 36 56 37 57 50 59 70 60 39 61 24 62 25 63 33 64 26 65 32 66
REMARK SMILES IDX 27 67 28 68 29 69 30 70 31 71 54 72 55 73 63 74 56 75 62 76
REMARK SMILES IDX 57 77 58 78 59 79 60 80 61 81 40 82 41 83 49 84 42 85 48 86
REMARK SMILES IDX 43 87 44 88 45 89 46 90 47 91
REMARK H PARENT 5 7 12 28 68 47 38 58
REMARK Flexibility Score: inf
ROOT
ATOM      1  C   UNL A   1      31.764  28.975  26.138  1.00  0.00     0.002 C 
ENDROOT
BRANCH   1   2
ATOM      2  C   UNL A   1      31.794  27.492  26.535  1.00  0.00     0.021 C 
BRANCH   2   3
ATOM      3  C   UNL A   1      33.004  26.720  26.002  1.00  0.00     0.116 C 
BRANCH   3   4
ATOM      4  N   UNL A   1      32.705  25.308  25.901  1.00  0.00    -0.356 N 
ATOM      5  C   UNL A   1      32.240  24.571  24.855  1.00  0.00     0.227 C 
ATOM      6  O   UNL A   1      31.997  23.386  25.101  1.00  0.00    -0.274 OA
ATOM      7  H   UNL A   1      32.864  24.796  26.726  1.00  0.00     0.163 HD
BRANCH   5   8
ATOM      8  C   UNL A   1      32.093  25.202  23.454  1.00  0.00     0.105 C 
ATOM      9  C   UNL A   1      33.372  25.877  22.951  1.00  0.00     0.023 C 
BRANCH   8  10
ATOM     10  C   UNL A   1      30.970  26.237  23.378  1.00  0.00    -0.036 A 
ATOM     11  C   UNL A   1      29.699  25.951  23.892  1.00  0.00     0.005 A 
ATOM     12  C   UNL A   1      31.170  27.466  22.733  1.00  0.00     0.005 A 
ATOM     13  C   UNL A   1      28.657  26.878  23.763  1.00  0.00     0.012 A 
ATOM     14  C   UNL A   1      30.142  28.401  22.631  1.00  0.00     0.012 A 
ATOM     15  C   UNL A   1      28.867  28.111  23.128  1.00  0.00     0.023 A 
BRANCH  15  16
ATOM     16  C   UNL A   1      27.731  29.087  23.042  1.00  0.00     0.202 C 
ATOM     17  O   UNL A   1      26.590  28.677  23.245  1.00  0.00    -0.288 OA
BRANCH  16  18
ATOM     18  C   UNL A   1      28.022  30.482  22.750  1.00  0.00     0.075 A 
ATOM     19  C   UNL A   1      28.279  31.530  23.614  1.00  0.00     0.024 A 
ATOM     20  S   UNL A   1      28.067  30.986  21.115  1.00  0.00    -0.140 S 
ATOM     21  C   UNL A   1      28.429  32.769  22.927  1.00  0.00     0.012 A 
ATOM     22  C   UNL A   1      28.326  32.617  21.562  1.00  0.00     0.065 A 
ENDBRANCH  16  18
ENDBRANCH  15  16
ENDBRANCH   8  10
ENDBRANCH   5   8
ENDBRANCH   3   4
ENDBRANCH   2   3
ENDBRANCH   1   2
BRANCH   1  23
ATOM     23  C   UNL A   1      32.146  29.957  27.248  1.00  0.00     0.002 C 
BRANCH  23  24
ATOM     24  C   UNL A   1      32.051  31.435  26.866  1.00  0.00     0.021 C 
BRANCH  24  25
ATOM     25  C   UNL A   1      33.284  32.261  27.210  1.00  0.00     0.116 C 
BRANCH  25  26
ATOM     26  N   UNL A   1      32.935  33.569  27.737  1.00  0.00    -0.352 N 
ATOM     27  C   UNL A   1      33.426  34.212  28.843  1.00  0.00     0.251 C 
ATOM     28  H   UNL A   1      32.251  34.062  27.229  1.00  0.00     0.163 HD
ATOM     29  O   UNL A   1      32.873  35.233  29.251  1.00  0.00    -0.269 OA
BRANCH  27  30
ATOM     30  C   UNL A   1      34.607  33.676  29.554  1.00  0.00     0.039 A 
ATOM     31  C   UNL A   1      35.878  34.132  29.194  1.00  0.00     0.014 A 
ATOM     32  C   UNL A   1      34.470  32.701  30.548  1.00  0.00     0.014 A 
ATOM     33  C   UNL A   1      37.006  33.631  29.847  1.00  0.00     0.010 A 
ATOM     34  C   UNL A   1      35.588  32.259  31.249  1.00  0.00     0.010 A 
ATOM     35  C   UNL A   1      36.870  32.698  30.888  1.00  0.00    -0.014 A 
BRANCH  35  36
ATOM     36  C   UNL A   1      38.062  32.132  31.569  1.00  0.00     0.031 A 
ATOM     37  C   UNL A   1      38.460  32.640  32.931  1.00  0.00     0.074 A 
ATOM     38  C   UNL A   1      38.808  31.194  30.955  1.00  0.00     0.049 A 
ATOM     39  N   UNL A   1      39.475  32.291  33.680  1.00  0.00    -0.248 NA
ATOM     40  C   UNL A   1      37.622  33.701  33.518  1.00  0.00     0.031 C 
ATOM     41  C   UNL A   1      38.552  30.646  29.620  1.00  0.00     0.029 A 
ATOM     42  N   UNL A   1      39.935  30.532  31.373  1.00  0.00    -0.354 N 
ATOM     43  C   UNL A   1      39.410  33.102  34.808  1.00  0.00     0.074 A 
ATOM     44  C   UNL A   1      38.289  33.996  34.623  1.00  0.00     0.031 C 
ATOM     45  C   UNL A   1      39.473  29.707  29.347  1.00  0.00     0.029 A 
ATOM     46  C   UNL A   1      40.403  29.610  30.468  1.00  0.00     0.049 A 
ATOM     47  H   UNL A   1      40.368  30.702  32.241  1.00  0.00     0.167 HD
ATOM     48  C   UNL A   1      40.201  33.093  35.908  1.00  0.00     0.031 A 
ATOM     49  C   UNL A   1      41.458  28.773  30.536  1.00  0.00     0.031 A 
ATOM     50  C   UNL A   1      41.299  32.185  36.101  1.00  0.00     0.049 A 
ATOM     51  C   UNL A   1      42.308  28.766  31.777  1.00  0.00     0.074 A 
ATOM     52  C   UNL A   1      42.120  32.049  37.206  1.00  0.00     0.029 A 
ATOM     53  N   UNL A   1      41.727  31.253  35.168  1.00  0.00    -0.354 N 
ATOM     54  N   UNL A   1      42.192  29.497  32.861  1.00  0.00    -0.248 NA
ATOM     55  C   UNL A   1      43.419  27.805  31.812  1.00  0.00     0.031 C 
ATOM     56  C   UNL A   1      43.074  31.065  36.923  1.00  0.00     0.029 A 
ATOM     57  C   UNL A   1      42.810  30.549  35.665  1.00  0.00     0.049 A 
ATOM     58  H   UNL A   1      41.321  31.112  34.282  1.00  0.00     0.167 HD
ATOM     59  C   UNL A   1      43.192  29.057  33.722  1.00  0.00     0.074 A 
ATOM     60  C   UNL A   1      43.896  27.992  33.035  1.00  0.00     0.031 C 
ATOM     61  C   UNL A   1      43.496  29.489  34.971  1.00  0.00     0.031 A 
BRANCH  48  62
ATOM     62  C   UNL A   1      39.906  34.105  36.985  1.00  0.00    -0.014 A 
ATOM     63  C   UNL A   1      39.253  33.735  38.175  1.00  0.00     0.010 A 
ATOM     64  C   UNL A   1      40.308  35.441  36.813  1.00  0.00     0.010 A 
ATOM     65  C   UNL A   1      38.964  34.693  39.151  1.00  0.00     0.020 A 
ATOM     66  C   UNL A   1      40.048  36.397  37.800  1.00  0.00     0.020 A 
ATOM     67  C   UNL A   1      39.358  36.020  38.955  1.00  0.00     0.054 A 
BRANCH  67  68
ATOM     68  S   UNL A   1      38.979  37.241  40.241  1.00  0.00     0.124 S 
ATOM     69  O   UNL A   1      38.026  36.512  41.074  1.00  0.00    -0.237 OA
ATOM     70  O   UNL A   1      40.285  37.484  40.848  1.00  0.00    -0.237 OA
ATOM     71  O   UNL A   1      38.422  38.367  39.497  1.00  0.00    -0.744 OA
ENDBRANCH  67  68
ENDBRANCH  48  62
BRANCH  49  72
ATOM     72  C   UNL A   1      41.742  27.841  29.411  1.00  0.00    -0.014 A 
ATOM     73  C   UNL A   1      40.963  26.683  29.234  1.00  0.00     0.010 A 
ATOM     74  C   UNL A   1      42.785  28.109  28.506  1.00  0.00     0.010 A 
ATOM     75  C   UNL A   1      41.236  25.799  28.186  1.00  0.00     0.020 A 
ATOM     76  C   UNL A   1      43.043  27.242  27.441  1.00  0.00     0.020 A 
ATOM     77  C   UNL A   1      42.274  26.084  27.296  1.00  0.00     0.054 A 
BRANCH  77  78
ATOM     78  S   UNL A   1      42.579  24.948  25.915  1.00  0.00     0.124 S 
ATOM     79  O   UNL A   1      41.647  23.863  26.203  1.00  0.00    -0.237 OA
ATOM     80  O   UNL A   1      42.255  25.771  24.752  1.00  0.00    -0.237 OA
ATOM     81  O   UNL A   1      43.994  24.613  26.055  1.00  0.00    -0.744 OA
ENDBRANCH  77  78
ENDBRANCH  49  72
BRANCH  61  82
ATOM     82  C   UNL A   1      44.603  28.776  35.699  1.00  0.00    -0.014 A 
ATOM     83  C   UNL A   1      44.350  27.645  36.495  1.00  0.00     0.010 A 
ATOM     84  C   UNL A   1      45.928  29.227  35.548  1.00  0.00     0.010 A 
ATOM     85  C   UNL A   1      45.399  27.002  37.161  1.00  0.00     0.020 A 
ATOM     86  C   UNL A   1      46.981  28.570  36.187  1.00  0.00     0.020 A 
ATOM     87  C   UNL A   1      46.707  27.472  37.005  1.00  0.00     0.054 A 
BRANCH  87  88
ATOM     88  S   UNL A   1      48.055  26.605  37.854  1.00  0.00     0.124 S 
ATOM     89  O   UNL A   1      47.350  25.954  38.955  1.00  0.00    -0.237 OA
ATOM     90  O   UNL A   1      48.567  25.711  36.818  1.00  0.00    -0.237 OA
ATOM     91  O   UNL A   1      48.965  27.680  38.245  1.00  0.00    -0.744 OA
ENDBRANCH  87  88
ENDBRANCH  61  82
ENDBRANCH  35  36
ENDBRANCH  27  30
ENDBRANCH  25  26
ENDBRANCH  24  25
ENDBRANCH  23  24
ENDBRANCH   1  23
TORSDOF 19
ENDMDL
MODEL 3
REMARK VINA RESULT:     -10.1      1.931      2.985
REMARK SMILES C[C@@H](C(=O)NCCCCCCNC(=O)c1ccc(-c2c3nc(c(-c4ccc(S(=O)(=O)[O-])cc4)c4ccc([nH]4)c(-c4ccc(S(=O)(=O)[O-])cc4)c4nc(c(-c5ccc(S(=O)(=O)[O-])cc5)c5ccc2[nH]5)C=C4)C=C3)cc1)c1ccc(C(=O)c2cccs2)cc1
REMARK SMILES IDX 8 1 7 2 6 3 5 4 3 5 4 6 2 8 1 9 75 10 76 11 87 12 77 13
REMARK SMILES IDX 86 14 78 15 79 16 80 17 81 18 82 19 85 20 83 21 84 22 9 23
REMARK SMILES IDX 10 24 11 25 12 26 13 27 14 29 15 30 16 31 74 32 17 33 73 34
REMARK SMILES IDX 18 35 19 36 20 37 67 38 21 39 72 40 66 41 68 42 22 43 71 44
REMARK SMILES IDX 65 45 64 46 23 48 53 49 34 50 52 51 35 52 38 53 51 54 69 55
REMARK SMILES IDX 36 56 37 57 50 59 70 60 39 61 24 62 25 63 33 64 26 65 32 66
REMARK SMILES IDX 27 67 28 68 29 69 30 70 31 71 54 72 55 73 63 74 56 75 62 76
REMARK SMILES IDX 57 77 58 78 59 79 60 80 61 81 40 82 41 83 49 84 42 85 48 86
REMARK SMILES IDX 43 87 44 88 45 89 46 90 47 91
REMARK H PARENT 5 7 12 28 68 47 38 58
REMARK Flexibility Score: inf
ROOT
ATOM      1  C   UNL A   1      34.069  26.232  23.870  1.00  0.00     0.002 C 
ENDROOT
BRANCH   1   2
ATOM      2  C   UNL A   1      34.558  24.827  23.492  1.00  0.00     0.021 C 
BRANCH   2   3
ATOM      3  C   UNL A   1      33.821  23.688  24.202  1.00  0.00     0.116 C 
BRANCH   3   4
ATOM      4  N   UNL A   1      32.574  23.390  23.531  1.00  0.00    -0.356 N 
ATOM      5  C   UNL A   1      31.302  23.795  23.797  1.00  0.00     0.227 C 
ATOM      6  O   UNL A   1      30.422  23.297  23.090  1.00  0.00    -0.274 OA
ATOM      7  H   UNL A   1      32.661  22.794  22.752  1.00  0.00     0.163 HD
BRANCH   5   8
ATOM      8  C   UNL A   1      31.027  24.853  24.887  1.00  0.00     0.105 C 
ATOM      9  C   UNL A   1      30.430  24.267  26.170  1.00  0.00     0.023 C 
BRANCH   8  10
ATOM     10  C   UNL A   1      30.095  25.970  24.418  1.00  0.00    -0.036 A 
ATOM     11  C   UNL A   1      28.711  25.875  24.612  1.00  0.00     0.005 A 
ATOM     12  C   UNL A   1      30.599  27.080  23.725  1.00  0.00     0.005 A 
ATOM     13  C   UNL A   1      27.857  26.871  24.124  1.00  0.00     0.012 A 
ATOM     14  C   UNL A   1      29.752  28.087  23.266  1.00  0.00     0.012 A 
ATOM     15  C   UNL A   1      28.368  27.985  23.443  1.00  0.00     0.023 A 
BRANCH  15  16
ATOM     16  C   UNL A   1      27.418  29.045  22.967  1.00  0.00     0.202 C 
ATOM     17  O   UNL A   1      26.242  28.738  22.785  1.00  0.00    -0.288 OA
BRANCH  16  18
ATOM     18  C   UNL A   1      27.916  30.396  22.765  1.00  0.00     0.075 A 
ATOM     19  C   UNL A   1      28.231  31.369  23.695  1.00  0.00     0.024 A 
ATOM     20  S   UNL A   1      28.171  30.946  21.165  1.00  0.00    -0.140 S 
ATOM     21  C   UNL A   1      28.604  32.600  23.081  1.00  0.00     0.012 A 
ATOM     22  C   UNL A   1      28.603  32.510  21.707  1.00  0.00     0.065 A 
ENDBRANCH  16  18
ENDBRANCH  15  16
ENDBRANCH   8  10
ENDBRANCH   5   8
ENDBRANCH   3   4
ENDBRANCH   2   3
ENDBRANCH   1   2
BRANCH   1  23
ATOM     23  C   UNL A   1      34.046  26.533  25.371  1.00  0.00     0.002 C 
BRANCH  23  24
ATOM     24  C   UNL A   1      33.789  27.998  25.733  1.00  0.00     0.021 C 
BRANCH  24  25
ATOM     25  C   UNL A   1      33.752  28.285  27.229  1.00  0.00     0.116 C 
BRANCH  25  26
ATOM     26  N   UNL A   1      33.602  29.702  27.509  1.00  0.00    -0.352 N 
ATOM     27  C   UNL A   1      34.490  30.561  28.102  1.00  0.00     0.251 C 
ATOM     28  H   UNL A   1      32.745  30.100  27.236  1.00  0.00     0.163 HD
ATOM     29  O   UNL A   1      34.118  31.686  28.438  1.00  0.00    -0.269 OA
BRANCH  27  30
ATOM     30  C   UNL A   1      35.885  30.138  28.352  1.00  0.00     0.039 A 
ATOM     31  C   UNL A   1      36.234  29.675  29.623  1.00  0.00     0.014 A 
ATOM     32  C   UNL A   1      36.856  30.229  27.349  1.00  0.00     0.014 A 
ATOM     33  C   UNL A   1      37.548  29.280  29.881  1.00  0.00     0.010 A 
ATOM     34  C   UNL A   1      38.147  29.765  27.587  1.00  0.00     0.010 A 
ATOM     35  C   UNL A   1      38.514  29.311  28.862  1.00  0.00    -0.014 A 
BRANCH  35  36
ATOM     36  C   UNL A   1      39.923  28.925  29.130  1.00  0.00     0.031 A 
ATOM     37  C   UNL A   1      40.859  29.910  29.782  1.00  0.00     0.074 A 
ATOM     38  C   UNL A   1      40.373  27.712  28.756  1.00  0.00     0.049 A 
ATOM     39  N   UNL A   1      42.125  29.773  30.080  1.00  0.00    -0.248 NA
ATOM     40  C   UNL A   1      40.306  31.234  30.118  1.00  0.00     0.031 C 
ATOM     41  C   UNL A   1      39.577  26.683  28.082  1.00  0.00     0.029 A 
ATOM     42  N   UNL A   1      41.611  27.137  28.892  1.00  0.00    -0.354 N 
ATOM     43  C   UNL A   1      42.523  30.995  30.614  1.00  0.00     0.074 A 
ATOM     44  C   UNL A   1      41.379  31.877  30.551  1.00  0.00     0.031 C 
ATOM     45  C   UNL A   1      40.338  25.591  27.897  1.00  0.00     0.029 A 
ATOM     46  C   UNL A   1      41.680  25.853  28.406  1.00  0.00     0.049 A 
ATOM     47  H   UNL A   1      42.378  27.601  29.300  1.00  0.00     0.167 HD
ATOM     48  C   UNL A   1      43.726  31.346  31.128  1.00  0.00     0.031 A 
ATOM     49  C   UNL A   1      42.708  24.981  28.382  1.00  0.00     0.031 A 
ATOM     50  C   UNL A   1      44.854  30.459  31.214  1.00  0.00     0.049 A 
ATOM     51  C   UNL A   1      44.028  25.387  28.978  1.00  0.00     0.074 A 
ATOM     52  C   UNL A   1      46.096  30.696  31.776  1.00  0.00     0.029 A 
ATOM     53  N   UNL A   1      44.877  29.160  30.729  1.00  0.00    -0.354 N 
ATOM     54  N   UNL A   1      44.366  26.526  29.536  1.00  0.00    -0.248 NA
ATOM     55  C   UNL A   1      45.100  24.381  28.960  1.00  0.00     0.031 C 
ATOM     56  C   UNL A   1      46.885  29.556  31.590  1.00  0.00     0.029 A 
ATOM     57  C   UNL A   1      46.115  28.589  30.964  1.00  0.00     0.049 A 
ATOM     58  H   UNL A   1      44.123  28.711  30.282  1.00  0.00     0.167 HD
ATOM     59  C   UNL A   1      45.677  26.359  29.970  1.00  0.00     0.074 A 
ATOM     60  C   UNL A   1      46.066  25.009  29.616  1.00  0.00     0.031 C 
ATOM     61  C   UNL A   1      46.484  27.241  30.611  1.00  0.00     0.031 A 
BRANCH  48  62
ATOM     62  C   UNL A   1      43.881  32.759  31.631  1.00  0.00    -0.014 A 
ATOM     63  C   UNL A   1      44.371  33.781  30.797  1.00  0.00     0.010 A 
ATOM     64  C   UNL A   1      43.508  33.073  32.949  1.00  0.00     0.010 A 
ATOM     65  C   UNL A   1      44.534  35.079  31.288  1.00  0.00     0.020 A 
ATOM     66  C   UNL A   1      43.640  34.377  33.437  1.00  0.00     0.020 A 
ATOM     67  C   UNL A   1      44.173  35.368  32.608  1.00  0.00     0.054 A 
BRANCH  67  68
ATOM     68  S   UNL A   1      44.385  37.063  33.218  1.00  0.00     0.124 S 
ATOM     69  O   UNL A   1      43.714  37.840  32.179  1.00  0.00    -0.237 OA
ATOM     70  O   UNL A   1      43.706  37.026  34.511  1.00  0.00    -0.237 OA
ATOM     71  O   UNL A   1      45.834  37.229  33.283  1.00  0.00    -0.744 OA
ENDBRANCH  67  68
ENDBRANCH  48  62
BRANCH  49  72
ATOM     72  C   UNL A   1      42.515  23.620  27.810  1.00  0.00    -0.014 A 
ATOM     73  C   UNL A   1      42.817  23.367  26.461  1.00  0.00     0.010 A 
ATOM     74  C   UNL A   1      42.037  22.569  28.614  1.00  0.00     0.010 A 
ATOM     75  C   UNL A   1      42.625  22.093  25.918  1.00  0.00     0.020 A 
ATOM     76  C   UNL A   1      41.870  21.287  28.082  1.00  0.00     0.020 A 
ATOM     77  C   UNL A   1      42.153  21.060  26.733  1.00  0.00     0.054 A 
BRANCH  77  78
ATOM     78  S   UNL A   1      41.957  19.404  26.021  1.00  0.00     0.124 S 
ATOM     79  O   UNL A   1      42.817  19.476  24.843  1.00  0.00    -0.237 OA
ATOM     80  O   UNL A   1      42.429  18.538  27.099  1.00  0.00    -0.237 OA
ATOM     81  O   UNL A   1      40.524  19.318  25.746  1.00  0.00    -0.744 OA
ENDBRANCH  77  78
ENDBRANCH  49  72
BRANCH  61  82
ATOM     82  C   UNL A   1      47.850  26.759  31.019  1.00  0.00    -0.014 A 
ATOM     83  C   UNL A   1      48.955  26.868  30.157  1.00  0.00     0.010 A 
ATOM     84  C   UNL A   1      48.034  26.226  32.308  1.00  0.00     0.010 A 
ATOM     85  C   UNL A   1      50.213  26.412  30.562  1.00  0.00     0.020 A 
ATOM     86  C   UNL A   1      49.295  25.797  32.727  1.00  0.00     0.020 A 
ATOM     87  C   UNL A   1      50.374  25.876  31.845  1.00  0.00     0.054 A 
BRANCH  87  88
ATOM     88  S   UNL A   1      52.020  25.318  32.360  1.00  0.00     0.124 S 
ATOM     89  O   UNL A   1      52.137  25.905  33.691  1.00  0.00    -0.237 OA
ATOM     90  O   UNL A   1      51.893  23.862  32.323  1.00  0.00    -0.237 OA
ATOM     91  O   UNL A   1      52.910  25.884  31.348  1.00  0.00    -0.744 OA
ENDBRANCH  87  88
ENDBRANCH  61  82
ENDBRANCH  35  36
ENDBRANCH  27  30
ENDBRANCH  25  26
ENDBRANCH  24  25
ENDBRANCH  23  24
ENDBRANCH   1  23
TORSDOF 19
ENDMDL
