MODEL 1
REMARK VINA RESULT:     -10.1      0.000      0.000
REMARK SMILES CC1(C)C[C@@]([NH2+]CCN=[N+]=[N-])(C(=O)NCCCCCCNC(=O)c2ccc(-c3c4nc(c(-c5ccc(S(=O)(=O)[O-])cc5)c5ccc([nH]5)c(-c5ccc(S(=O)(=O)[O-])cc5)c5nc(c(-c6ccc(S(=O)(=O)[O-])cc6)c6ccc3[nH]6)C=C5)C=C4)cc2)C(C)(C)O1
REMARK SMILES IDX 17 1 16 2 15 3 14 4 12 5 13 6 5 8 1 9 2 10 3 11 4 12 87 13
REMARK SMILES IDX 84 14 85 15 86 16 6 17 7 20 8 21 9 22 10 23 11 24 18 25
REMARK SMILES IDX 19 26 20 27 21 28 22 29 23 31 24 32 25 33 83 34 26 35 82 36
REMARK SMILES IDX 27 37 28 38 29 39 76 40 30 41 81 42 75 43 77 44 31 45 80 46
REMARK SMILES IDX 74 47 73 48 32 50 62 51 43 52 61 53 44 54 47 55 60 56 78 57
REMARK SMILES IDX 45 58 46 59 59 61 79 62 48 63 33 64 34 65 42 66 35 67 41 68
REMARK SMILES IDX 36 69 37 70 38 71 39 72 40 73 63 74 64 75 72 76 65 77 71 78
REMARK SMILES IDX 66 79 67 80 68 81 69 82 70 83 49 84 50 85 58 86 51 87 57 88
REMARK SMILES IDX 52 89 53 90 54 91 55 92 56 93
REMARK H PARENT 14 7 6 18 6 19 21 30 77 49 47 60
REMARK Flexibility Score: inf
ROOT
ATOM      1  C   UNL A   1      30.826  26.492  25.243  1.00  0.00     0.002 C 
ENDROOT
BRANCH   1   2
ATOM      2  C   UNL A   1      30.828  26.160  23.745  1.00  0.00     0.021 C 
BRANCH   2   3
ATOM      3  C   UNL A   1      30.500  24.689  23.477  1.00  0.00     0.116 C 
BRANCH   3   4
ATOM      4  N   UNL A   1      31.458  24.136  22.541  1.00  0.00    -0.351 N 
ATOM      5  C   UNL A   1      32.662  23.524  22.677  1.00  0.00     0.284 C 
ATOM      6  O   UNL A   1      33.327  23.473  21.631  1.00  0.00    -0.268 OA
ATOM      7  H   UNL A   1      31.173  24.223  21.602  1.00  0.00     0.163 HD
BRANCH   5   8
ATOM      8  C   UNL A   1      33.173  22.805  23.975  1.00  0.00     0.206 C 
ATOM      9  C   UNL A   1      32.612  23.437  27.623  1.00  0.00     0.042 C 
ATOM     10  C   UNL A   1      33.237  22.713  26.424  1.00  0.00     0.070 C 
ATOM     11  C   UNL A   1      33.627  21.300  26.864  1.00  0.00     0.042 C 
ATOM     12  C   UNL A   1      32.300  22.792  25.224  1.00  0.00     0.117 C 
ATOM     13  O   UNL A   1      34.428  23.394  26.010  1.00  0.00    -0.362 OA
ATOM     14  C   UNL A   1      34.417  23.591  24.561  1.00  0.00     0.127 C 
ATOM     15  C   UNL A   1      34.324  25.118  24.375  1.00  0.00     0.049 C 
ATOM     16  C   UNL A   1      35.778  23.116  24.042  1.00  0.00     0.049 C 
BRANCH   8  17
ATOM     17  N   UNL A   1      33.537  21.404  23.587  1.00  0.00    -0.331 N 
ATOM     18  H   UNL A   1      34.255  21.078  24.233  1.00  0.00     0.347 HD
ATOM     19  H   UNL A   1      33.843  21.459  22.615  1.00  0.00     0.347 HD
BRANCH  17  20
ATOM     20  C   UNL A   1      32.445  20.426  23.600  1.00  0.00     0.267 C 
BRANCH  20  21
ATOM     21  C   UNL A   1      32.968  19.033  23.992  1.00  0.00     0.152 C 
BRANCH  21  22
ATOM     22  N   UNL A   1      32.149  18.462  25.074  1.00  0.00    -0.088 NA
ATOM     23  N   UNL A   1      32.474  17.323  25.462  1.00  0.00     0.001 N 
ATOM     24  N   UNL A   1      32.778  16.293  25.832  1.00  0.00    -0.003 NA
ENDBRANCH  21  22
ENDBRANCH  20  21
ENDBRANCH  17  20
ENDBRANCH   8  17
ENDBRANCH   5   8
ENDBRANCH   3   4
ENDBRANCH   2   3
ENDBRANCH   1   2
BRANCH   1  25
ATOM     25  C   UNL A   1      31.677  27.714  25.614  1.00  0.00     0.002 C 
BRANCH  25  26
ATOM     26  C   UNL A   1      32.447  27.566  26.928  1.00  0.00     0.021 C 
BRANCH  26  27
ATOM     27  C   UNL A   1      33.792  28.278  26.918  1.00  0.00     0.116 C 
BRANCH  27  28
ATOM     28  N   UNL A   1      33.634  29.691  27.231  1.00  0.00    -0.352 N 
ATOM     29  C   UNL A   1      34.457  30.494  27.978  1.00  0.00     0.251 C 
ATOM     30  H   UNL A   1      32.834  30.126  26.857  1.00  0.00     0.163 HD
ATOM     31  O   UNL A   1      34.058  31.569  28.411  1.00  0.00    -0.269 OA
BRANCH  29  32
ATOM     32  C   UNL A   1      35.830  30.031  28.250  1.00  0.00     0.039 A 
ATOM     33  C   UNL A   1      36.799  30.115  27.250  1.00  0.00     0.014 A 
ATOM     34  C   UNL A   1      36.150  29.537  29.518  1.00  0.00     0.014 A 
ATOM     35  C   UNL A   1      38.112  29.743  27.540  1.00  0.00     0.010 A 
ATOM     36  C   UNL A   1      37.470  29.249  29.827  1.00  0.00     0.010 A 
ATOM     37  C   UNL A   1      38.461  29.333  28.837  1.00  0.00    -0.014 A 
BRANCH  37  38
ATOM     38  C   UNL A   1      39.848  28.942  29.189  1.00  0.00     0.031 A 
ATOM     39  C   UNL A   1      40.760  29.960  29.820  1.00  0.00     0.074 A 
ATOM     40  C   UNL A   1      40.306  27.719  28.864  1.00  0.00     0.049 A 
ATOM     41  N   UNL A   1      42.037  29.872  30.082  1.00  0.00    -0.248 NA
ATOM     42  C   UNL A   1      40.163  31.261  30.170  1.00  0.00     0.031 C 
ATOM     43  C   UNL A   1      39.523  26.657  28.230  1.00  0.00     0.029 A 
ATOM     44  N   UNL A   1      41.555  27.166  29.011  1.00  0.00    -0.354 N 
ATOM     45  C   UNL A   1      42.399  31.107  30.604  1.00  0.00     0.074 A 
ATOM     46  C   UNL A   1      41.223  31.946  30.570  1.00  0.00     0.031 C 
ATOM     47  C   UNL A   1      40.302  25.576  28.060  1.00  0.00     0.029 A 
ATOM     48  C   UNL A   1      41.652  25.885  28.524  1.00  0.00     0.049 A 
ATOM     49  H   UNL A   1      42.309  27.643  29.427  1.00  0.00     0.167 HD
ATOM     50  C   UNL A   1      43.601  31.502  31.086  1.00  0.00     0.031 A 
ATOM     51  C   UNL A   1      42.712  25.057  28.442  1.00  0.00     0.031 A 
ATOM     52  C   UNL A   1      44.761  30.656  31.127  1.00  0.00     0.049 A 
ATOM     53  C   UNL A   1      44.046  25.529  28.956  1.00  0.00     0.074 A 
ATOM     54  C   UNL A   1      46.013  30.941  31.640  1.00  0.00     0.029 A 
ATOM     55  N   UNL A   1      44.814  29.360  30.636  1.00  0.00    -0.354 N 
ATOM     56  N   UNL A   1      44.360  26.684  29.495  1.00  0.00    -0.248 NA
ATOM     57  C   UNL A   1      45.168  24.583  28.864  1.00  0.00     0.031 C 
ATOM     58  C   UNL A   1      46.841  29.840  31.402  1.00  0.00     0.029 A 
ATOM     59  C   UNL A   1      46.084  28.840  30.812  1.00  0.00     0.049 A 
ATOM     60  H   UNL A   1      44.059  28.881  30.222  1.00  0.00     0.167 HD
ATOM     61  C   UNL A   1      45.702  26.588  29.844  1.00  0.00     0.074 A 
ATOM     62  C   UNL A   1      46.141  25.262  29.457  1.00  0.00     0.031 C 
ATOM     63  C   UNL A   1      46.497  27.511  30.438  1.00  0.00     0.031 A 
BRANCH  50  64
ATOM     64  C   UNL A   1      43.721  32.914  31.597  1.00  0.00    -0.014 A 
ATOM     65  C   UNL A   1      43.995  33.985  30.727  1.00  0.00     0.010 A 
ATOM     66  C   UNL A   1      43.515  33.180  32.963  1.00  0.00     0.010 A 
ATOM     67  C   UNL A   1      44.103  35.288  31.220  1.00  0.00     0.020 A 
ATOM     68  C   UNL A   1      43.589  34.486  33.456  1.00  0.00     0.020 A 
ATOM     69  C   UNL A   1      43.899  35.530  32.582  1.00  0.00     0.054 A 
BRANCH  69  70
ATOM     70  S   UNL A   1      44.018  37.236  33.186  1.00  0.00     0.124 S 
ATOM     71  O   UNL A   1      45.320  37.230  33.847  1.00  0.00    -0.237 OA
ATOM     72  O   UNL A   1      43.942  38.015  31.954  1.00  0.00    -0.237 OA
ATOM     73  O   UNL A   1      42.869  37.369  34.079  1.00  0.00    -0.744 OA
ENDBRANCH  69  70
ENDBRANCH  50  64
BRANCH  51  74
ATOM     74  C   UNL A   1      42.555  23.698  27.853  1.00  0.00    -0.014 A 
ATOM     75  C   UNL A   1      42.097  22.627  28.641  1.00  0.00     0.010 A 
ATOM     76  C   UNL A   1      42.855  23.468  26.498  1.00  0.00     0.010 A 
ATOM     77  C   UNL A   1      41.963  21.348  28.091  1.00  0.00     0.020 A 
ATOM     78  C   UNL A   1      42.692  22.198  25.936  1.00  0.00     0.020 A 
ATOM     79  C   UNL A   1      42.260  21.143  26.741  1.00  0.00     0.054 A 
BRANCH  79  80
ATOM     80  S   UNL A   1      42.037  19.484  26.040  1.00  0.00     0.124 S 
ATOM     81  O   UNL A   1      42.846  19.557  24.827  1.00  0.00    -0.237 OA
ATOM     82  O   UNL A   1      42.556  18.624  27.099  1.00  0.00    -0.237 OA
ATOM     83  O   UNL A   1      40.594  19.395  25.825  1.00  0.00    -0.744 OA
ENDBRANCH  79  80
ENDBRANCH  51  74
BRANCH  63  84
ATOM     84  C   UNL A   1      47.910  27.113  30.775  1.00  0.00    -0.014 A 
ATOM     85  C   UNL A   1      48.971  27.331  29.880  1.00  0.00     0.010 A 
ATOM     86  C   UNL A   1      48.188  26.606  32.059  1.00  0.00     0.010 A 
ATOM     87  C   UNL A   1      50.283  27.038  30.260  1.00  0.00     0.020 A 
ATOM     88  C   UNL A   1      49.500  26.341  32.454  1.00  0.00     0.020 A 
ATOM     89  C   UNL A   1      50.541  26.554  31.548  1.00  0.00     0.054 A 
BRANCH  89  90
ATOM     90  S   UNL A   1      52.261  26.262  32.043  1.00  0.00     0.124 S 
ATOM     91  O   UNL A   1      52.381  24.815  31.893  1.00  0.00    -0.237 OA
ATOM     92  O   UNL A   1      53.010  27.059  31.074  1.00  0.00    -0.237 OA
ATOM     93  O   UNL A   1      52.315  26.752  33.418  1.00  0.00    -0.744 OA
ENDBRANCH  89  90
ENDBRANCH  63  84
ENDBRANCH  37  38
ENDBRANCH  29  32
ENDBRANCH  27  28
ENDBRANCH  26  27
ENDBRANCH  25  26
ENDBRANCH   1  25
TORSDOF 20
ENDMDL
MODEL 2
REMARK VINA RESULT:     -10.0      4.493     10.171
REMARK SMILES CC1(C)C[C@@]([NH2+]CCN=[N+]=[N-])(C(=O)NCCCCCCNC(=O)c2ccc(-c3c4nc(c(-c5ccc(S(=O)(=O)[O-])cc5)c5ccc([nH]5)c(-c5ccc(S(=O)(=O)[O-])cc5)c5nc(c(-c6ccc(S(=O)(=O)[O-])cc6)c6ccc3[nH]6)C=C5)C=C4)cc2)C(C)(C)O1
REMARK SMILES IDX 17 1 16 2 15 3 14 4 12 5 13 6 5 8 1 9 2 10 3 11 4 12 87 13
REMARK SMILES IDX 84 14 85 15 86 16 6 17 7 20 8 21 9 22 10 23 11 24 18 25
REMARK SMILES IDX 19 26 20 27 21 28 22 29 23 31 24 32 25 33 83 34 26 35 82 36
REMARK SMILES IDX 27 37 28 38 29 39 76 40 30 41 81 42 75 43 77 44 31 45 80 46
REMARK SMILES IDX 74 47 73 48 32 50 62 51 43 52 61 53 44 54 47 55 60 56 78 57
REMARK SMILES IDX 45 58 46 59 59 61 79 62 48 63 33 64 34 65 42 66 35 67 41 68
REMARK SMILES IDX 36 69 37 70 38 71 39 72 40 73 63 74 64 75 72 76 65 77 71 78
REMARK SMILES IDX 66 79 67 80 68 81 69 82 70 83 49 84 50 85 58 86 51 87 57 88
REMARK SMILES IDX 52 89 53 90 54 91 55 92 56 93
REMARK H PARENT 14 7 6 18 6 19 21 30 77 49 47 60
REMARK Flexibility Score: inf
ROOT
ATOM      1  C   UNL A   1      38.836  22.714  26.336  1.00  0.00     0.002 C 
ENDROOT
BRANCH   1   2
ATOM      2  C   UNL A   1      37.808  21.802  25.654  1.00  0.00     0.021 C 
BRANCH   2   3
ATOM      3  C   UNL A   1      36.414  22.433  25.605  1.00  0.00     0.116 C 
BRANCH   3   4
ATOM      4  N   UNL A   1      35.539  21.762  26.544  1.00  0.00    -0.351 N 
ATOM      5  C   UNL A   1      34.203  21.526  26.583  1.00  0.00     0.284 C 
ATOM      6  O   UNL A   1      33.776  21.195  27.700  1.00  0.00    -0.268 OA
ATOM      7  H   UNL A   1      36.017  21.399  27.324  1.00  0.00     0.163 HD
BRANCH   5   8
ATOM      8  C   UNL A   1      33.246  21.521  25.338  1.00  0.00     0.206 C 
ATOM      9  C   UNL A   1      33.390  23.230  22.010  1.00  0.00     0.042 C 
ATOM     10  C   UNL A   1      32.743  22.348  23.087  1.00  0.00     0.070 C 
ATOM     11  C   UNL A   1      31.773  21.384  22.401  1.00  0.00     0.042 C 
ATOM     12  C   UNL A   1      33.825  21.695  23.941  1.00  0.00     0.117 C 
ATOM     13  O   UNL A   1      31.993  23.163  23.997  1.00  0.00    -0.362 OA
ATOM     14  C   UNL A   1      32.321  22.806  25.377  1.00  0.00     0.127 C 
ATOM     15  C   UNL A   1      33.024  24.053  25.946  1.00  0.00     0.049 C 
ATOM     16  C   UNL A   1      30.989  22.616  26.110  1.00  0.00     0.049 C 
BRANCH   8  17
ATOM     17  N   UNL A   1      32.441  20.258  25.409  1.00  0.00    -0.331 N 
ATOM     18  H   UNL A   1      31.517  20.456  25.026  1.00  0.00     0.347 HD
ATOM     19  H   UNL A   1      32.437  19.990  26.393  1.00  0.00     0.347 HD
BRANCH  17  20
ATOM     20  C   UNL A   1      32.987  19.104  24.689  1.00  0.00     0.267 C 
BRANCH  20  21
ATOM     21  C   UNL A   1      32.880  17.830  25.546  1.00  0.00     0.152 C 
BRANCH  21  22
ATOM     22  N   UNL A   1      32.657  16.652  24.690  1.00  0.00    -0.088 NA
ATOM     23  N   UNL A   1      33.152  15.582  25.094  1.00  0.00     0.001 N 
ATOM     24  N   UNL A   1      33.586  14.601  25.467  1.00  0.00    -0.003 NA
ENDBRANCH  21  22
ENDBRANCH  20  21
ENDBRANCH  17  20
ENDBRANCH   8  17
ENDBRANCH   5   8
ENDBRANCH   3   4
ENDBRANCH   2   3
ENDBRANCH   1   2
BRANCH   1  25
ATOM     25  C   UNL A   1      40.209  22.063  26.544  1.00  0.00     0.002 C 
BRANCH  25  26
ATOM     26  C   UNL A   1      40.880  22.423  27.871  1.00  0.00     0.021 C 
BRANCH  26  27
ATOM     27  C   UNL A   1      42.021  23.419  27.716  1.00  0.00     0.116 C 
BRANCH  27  28
ATOM     28  N   UNL A   1      41.912  24.141  26.456  1.00  0.00    -0.352 N 
ATOM     29  C   UNL A   1      41.459  25.418  26.246  1.00  0.00     0.251 C 
ATOM     30  H   UNL A   1      42.200  23.650  25.653  1.00  0.00     0.163 HD
ATOM     31  O   UNL A   1      41.136  25.790  25.123  1.00  0.00    -0.269 OA
BRANCH  29  32
ATOM     32  C   UNL A   1      41.368  26.329  27.401  1.00  0.00     0.039 A 
ATOM     33  C   UNL A   1      42.317  27.339  27.562  1.00  0.00     0.014 A 
ATOM     34  C   UNL A   1      40.314  26.186  28.308  1.00  0.00     0.014 A 
ATOM     35  C   UNL A   1      42.181  28.241  28.618  1.00  0.00     0.010 A 
ATOM     36  C   UNL A   1      40.133  27.133  29.304  1.00  0.00     0.010 A 
ATOM     37  C   UNL A   1      41.073  28.160  29.479  1.00  0.00    -0.014 A 
BRANCH  37  38
ATOM     38  C   UNL A   1      40.884  29.108  30.604  1.00  0.00     0.031 A 
ATOM     39  C   UNL A   1      41.722  28.951  31.845  1.00  0.00     0.074 A 
ATOM     40  C   UNL A   1      39.913  30.038  30.545  1.00  0.00     0.049 A 
ATOM     41  N   UNL A   1      41.628  29.580  32.986  1.00  0.00    -0.248 NA
ATOM     42  C   UNL A   1      42.782  27.929  31.807  1.00  0.00     0.031 C 
ATOM     43  C   UNL A   1      39.023  30.269  29.405  1.00  0.00     0.029 A 
ATOM     44  N   UNL A   1      39.500  30.957  31.478  1.00  0.00    -0.354 N 
ATOM     45  C   UNL A   1      42.597  29.015  33.806  1.00  0.00     0.074 A 
ATOM     46  C   UNL A   1      43.229  27.956  33.053  1.00  0.00     0.031 C 
ATOM     47  C   UNL A   1      38.184  31.276  29.698  1.00  0.00     0.029 A 
ATOM     48  C   UNL A   1      38.440  31.727  31.063  1.00  0.00     0.049 A 
ATOM     49  H   UNL A   1      39.925  31.056  32.361  1.00  0.00     0.167 HD
ATOM     50  C   UNL A   1      42.942  29.360  35.069  1.00  0.00     0.031 A 
ATOM     51  C   UNL A   1      37.740  32.677  31.715  1.00  0.00     0.031 A 
ATOM     52  C   UNL A   1      42.315  30.422  35.806  1.00  0.00     0.049 A 
ATOM     53  C   UNL A   1      38.122  33.022  33.129  1.00  0.00     0.074 A 
ATOM     54  C   UNL A   1      42.622  30.886  37.072  1.00  0.00     0.029 A 
ATOM     55  N   UNL A   1      41.254  31.186  35.344  1.00  0.00    -0.354 N 
ATOM     56  N   UNL A   1      39.076  32.513  33.873  1.00  0.00    -0.248 NA
ATOM     57  C   UNL A   1      37.342  34.078  33.791  1.00  0.00     0.031 C 
ATOM     58  C   UNL A   1      41.706  31.888  37.401  1.00  0.00     0.029 A 
ATOM     59  C   UNL A   1      40.878  32.103  36.310  1.00  0.00     0.049 A 
ATOM     60  H   UNL A   1      40.831  31.090  34.460  1.00  0.00     0.167 HD
ATOM     61  C   UNL A   1      39.038  33.215  35.072  1.00  0.00     0.074 A 
ATOM     62  C   UNL A   1      37.968  34.186  34.955  1.00  0.00     0.031 C 
ATOM     63  C   UNL A   1      39.823  33.075  36.168  1.00  0.00     0.031 A 
BRANCH  50  64
ATOM     64  C   UNL A   1      44.040  28.572  35.735  1.00  0.00    -0.014 A 
ATOM     65  C   UNL A   1      43.757  27.422  36.494  1.00  0.00     0.010 A 
ATOM     66  C   UNL A   1      45.381  28.964  35.565  1.00  0.00     0.010 A 
ATOM     67  C   UNL A   1      44.789  26.705  37.105  1.00  0.00     0.020 A 
ATOM     68  C   UNL A   1      46.419  28.231  36.145  1.00  0.00     0.020 A 
ATOM     69  C   UNL A   1      46.114  27.114  36.926  1.00  0.00     0.054 A 
BRANCH  69  70
ATOM     70  S   UNL A   1      47.433  26.146  37.708  1.00  0.00     0.124 S 
ATOM     71  O   UNL A   1      46.779  24.855  37.909  1.00  0.00    -0.237 OA
ATOM     72  O   UNL A   1      48.485  26.166  36.696  1.00  0.00    -0.237 OA
ATOM     73  O   UNL A   1      47.730  26.888  38.931  1.00  0.00    -0.744 OA
ENDBRANCH  69  70
ENDBRANCH  50  64
BRANCH  51  74
ATOM     74  C   UNL A   1      36.610  33.370  31.035  1.00  0.00    -0.014 A 
ATOM     75  C   UNL A   1      36.808  34.022  29.805  1.00  0.00     0.010 A 
ATOM     76  C   UNL A   1      35.326  33.373  31.609  1.00  0.00     0.010 A 
ATOM     77  C   UNL A   1      35.751  34.685  29.175  1.00  0.00     0.020 A 
ATOM     78  C   UNL A   1      34.258  34.006  30.966  1.00  0.00     0.020 A 
ATOM     79  C   UNL A   1      34.481  34.670  29.759  1.00  0.00     0.054 A 
BRANCH  79  80
ATOM     80  S   UNL A   1      33.115  35.500  28.901  1.00  0.00     0.124 S 
ATOM     81  O   UNL A   1      33.819  36.507  28.113  1.00  0.00    -0.237 OA
ATOM     82  O   UNL A   1      32.512  34.409  28.142  1.00  0.00    -0.237 OA
ATOM     83  O   UNL A   1      32.292  36.021  29.991  1.00  0.00    -0.744 OA
ENDBRANCH  79  80
ENDBRANCH  51  74
BRANCH  63  84
ATOM     84  C   UNL A   1      39.613  34.029  37.314  1.00  0.00    -0.014 A 
ATOM     85  C   UNL A   1      38.886  33.658  38.458  1.00  0.00     0.010 A 
ATOM     86  C   UNL A   1      40.247  35.285  37.281  1.00  0.00     0.010 A 
ATOM     87  C   UNL A   1      38.789  34.533  39.543  1.00  0.00     0.020 A 
ATOM     88  C   UNL A   1      40.179  36.149  38.375  1.00  0.00     0.020 A 
ATOM     89  C   UNL A   1      39.444  35.770  39.499  1.00  0.00     0.054 A 
BRANCH  89  90
ATOM     90  S   UNL A   1      39.372  36.848  40.955  1.00  0.00     0.124 S 
ATOM     91  O   UNL A   1      38.676  38.020  40.432  1.00  0.00    -0.237 OA
ATOM     92  O   UNL A   1      38.614  36.043  41.911  1.00  0.00    -0.237 OA
ATOM     93  O   UNL A   1      40.775  37.060  41.301  1.00  0.00    -0.744 OA
ENDBRANCH  89  90
ENDBRANCH  63  84
ENDBRANCH  37  38
ENDBRANCH  29  32
ENDBRANCH  27  28
ENDBRANCH  26  27
ENDBRANCH  25  26
ENDBRANCH   1  25
TORSDOF 20
ENDMDL
MODEL 3
REMARK VINA RESULT:      -9.8      2.320      2.904
REMARK SMILES CC1(C)C[C@@]([NH2+]CCN=[N+]=[N-])(C(=O)NCCCCCCNC(=O)c2ccc(-c3c4nc(c(-c5ccc(S(=O)(=O)[O-])cc5)c5ccc([nH]5)c(-c5ccc(S(=O)(=O)[O-])cc5)c5nc(c(-c6ccc(S(=O)(=O)[O-])cc6)c6ccc3[nH]6)C=C5)C=C4)cc2)C(C)(C)O1
REMARK SMILES IDX 17 1 16 2 15 3 14 4 12 5 13 6 5 8 1 9 2 10 3 11 4 12 87 13
REMARK SMILES IDX 84 14 85 15 86 16 6 17 7 20 8 21 9 22 10 23 11 24 18 25
REMARK SMILES IDX 19 26 20 27 21 28 22 29 23 31 24 32 25 33 83 34 26 35 82 36
REMARK SMILES IDX 27 37 28 38 29 39 76 40 30 41 81 42 75 43 77 44 31 45 80 46
REMARK SMILES IDX 74 47 73 48 32 50 62 51 43 52 61 53 44 54 47 55 60 56 78 57
REMARK SMILES IDX 45 58 46 59 59 61 79 62 48 63 33 64 34 65 42 66 35 67 41 68
REMARK SMILES IDX 36 69 37 70 38 71 39 72 40 73 63 74 64 75 72 76 65 77 71 78
REMARK SMILES IDX 66 79 67 80 68 81 69 82 70 83 49 84 50 85 58 86 51 87 57 88
REMARK SMILES IDX 52 89 53 90 54 91 55 92 56 93
REMARK H PARENT 14 7 6 18 6 19 21 30 77 49 47 60
REMARK Flexibility Score: inf
ROOT
ATOM      1  C   UNL A   1      31.031  26.449  25.523  1.00  0.00     0.002 C 
ENDROOT
BRANCH   1   2
ATOM      2  C   UNL A   1      30.908  26.223  24.010  1.00  0.00     0.021 C 
BRANCH   2   3
ATOM      3  C   UNL A   1      30.501  24.787  23.670  1.00  0.00     0.116 C 
BRANCH   3   4
ATOM      4  N   UNL A   1      31.399  24.247  22.669  1.00  0.00    -0.351 N 
ATOM      5  C   UNL A   1      32.587  23.594  22.724  1.00  0.00     0.284 C 
ATOM      6  O   UNL A   1      33.205  23.569  21.648  1.00  0.00    -0.268 OA
ATOM      7  H   UNL A   1      31.076  24.384  21.749  1.00  0.00     0.163 HD
BRANCH   5   8
ATOM      8  C   UNL A   1      33.132  22.803  23.966  1.00  0.00     0.206 C 
ATOM      9  C   UNL A   1      32.772  23.304  27.659  1.00  0.00     0.042 C 
ATOM     10  C   UNL A   1      33.310  22.607  26.403  1.00  0.00     0.070 C 
ATOM     11  C   UNL A   1      33.665  21.164  26.767  1.00  0.00     0.042 C 
ATOM     12  C   UNL A   1      32.320  22.771  25.254  1.00  0.00     0.117 C 
ATOM     13  O   UNL A   1      34.506  23.261  25.957  1.00  0.00    -0.362 OA
ATOM     14  C   UNL A   1      34.432  23.517  24.520  1.00  0.00     0.127 C 
ATOM     15  C   UNL A   1      34.390  25.053  24.399  1.00  0.00     0.049 C 
ATOM     16  C   UNL A   1      35.747  23.014  23.915  1.00  0.00     0.049 C 
BRANCH   8  17
ATOM     17  N   UNL A   1      33.422  21.407  23.504  1.00  0.00    -0.331 N 
ATOM     18  H   UNL A   1      34.046  20.977  24.186  1.00  0.00     0.347 HD
ATOM     19  H   UNL A   1      33.824  21.504  22.572  1.00  0.00     0.347 HD
BRANCH  17  20
ATOM     20  C   UNL A   1      32.261  20.527  23.341  1.00  0.00     0.267 C 
BRANCH  20  21
ATOM     21  C   UNL A   1      32.644  19.064  23.630  1.00  0.00     0.152 C 
BRANCH  21  22
ATOM     22  N   UNL A   1      32.153  18.656  24.957  1.00  0.00    -0.088 NA
ATOM     23  N   UNL A   1      32.540  17.544  25.364  1.00  0.00     0.001 N 
ATOM     24  N   UNL A   1      32.907  16.540  25.748  1.00  0.00    -0.003 NA
ENDBRANCH  21  22
ENDBRANCH  20  21
ENDBRANCH  17  20
ENDBRANCH   8  17
ENDBRANCH   5   8
ENDBRANCH   3   4
ENDBRANCH   2   3
ENDBRANCH   1   2
BRANCH   1  25
ATOM     25  C   UNL A   1      31.606  27.820  25.904  1.00  0.00     0.002 C 
BRANCH  25  26
ATOM     26  C   UNL A   1      32.882  27.751  26.747  1.00  0.00     0.021 C 
BRANCH  26  27
ATOM     27  C   UNL A   1      34.025  28.577  26.173  1.00  0.00     0.116 C 
BRANCH  27  28
ATOM     28  N   UNL A   1      33.824  29.995  26.438  1.00  0.00    -0.352 N 
ATOM     29  C   UNL A   1      34.439  30.779  27.381  1.00  0.00     0.251 C 
ATOM     30  H   UNL A   1      33.163  30.449  25.868  1.00  0.00     0.163 HD
ATOM     31  O   UNL A   1      33.967  31.864  27.696  1.00  0.00    -0.269 OA
BRANCH  29  32
ATOM     32  C   UNL A   1      35.679  30.281  28.005  1.00  0.00     0.039 A 
ATOM     33  C   UNL A   1      36.899  30.447  27.347  1.00  0.00     0.014 A 
ATOM     34  C   UNL A   1      35.620  29.674  29.262  1.00  0.00     0.014 A 
ATOM     35  C   UNL A   1      38.074  30.040  27.979  1.00  0.00     0.010 A 
ATOM     36  C   UNL A   1      36.795  29.349  29.922  1.00  0.00     0.010 A 
ATOM     37  C   UNL A   1      38.032  29.512  29.281  1.00  0.00    -0.014 A 
BRANCH  37  38
ATOM     38  C   UNL A   1      39.260  29.081  29.991  1.00  0.00     0.031 A 
ATOM     39  C   UNL A   1      39.705  29.837  31.214  1.00  0.00     0.074 A 
ATOM     40  C   UNL A   1      40.010  28.080  29.493  1.00  0.00     0.049 A 
ATOM     41  N   UNL A   1      40.809  29.715  31.902  1.00  0.00    -0.248 NA
ATOM     42  C   UNL A   1      38.805  30.895  31.706  1.00  0.00     0.031 C 
ATOM     43  C   UNL A   1      39.692  27.290  28.302  1.00  0.00     0.029 A 
ATOM     44  N   UNL A   1      41.210  27.567  29.921  1.00  0.00    -0.354 N 
ATOM     45  C   UNL A   1      40.746  30.690  32.889  1.00  0.00     0.074 A 
ATOM     46  C   UNL A   1      39.525  31.433  32.678  1.00  0.00     0.031 C 
ATOM     47  C   UNL A   1      40.661  26.379  28.107  1.00  0.00     0.029 A 
ATOM     48  C   UNL A   1      41.692  26.556  29.125  1.00  0.00     0.049 A 
ATOM     49  H   UNL A   1      41.679  27.891  30.723  1.00  0.00     0.167 HD
ATOM     50  C   UNL A   1      41.621  30.934  33.893  1.00  0.00     0.031 A 
ATOM     51  C   UNL A   1      42.846  25.861  29.194  1.00  0.00     0.031 A 
ATOM     52  C   UNL A   1      42.827  30.181  34.102  1.00  0.00     0.049 A 
ATOM     53  C   UNL A   1      43.817  26.170  30.302  1.00  0.00     0.074 A 
ATOM     54  C   UNL A   1      43.756  30.314  35.118  1.00  0.00     0.029 A 
ATOM     55  N   UNL A   1      43.272  29.157  33.281  1.00  0.00    -0.354 N 
ATOM     56  N   UNL A   1      43.717  27.063  31.260  1.00  0.00    -0.248 NA
ATOM     57  C   UNL A   1      45.051  25.373  30.349  1.00  0.00     0.031 C 
ATOM     58  C   UNL A   1      44.795  29.412  34.876  1.00  0.00     0.029 A 
ATOM     59  C   UNL A   1      44.476  28.664  33.753  1.00  0.00     0.049 A 
ATOM     60  H   UNL A   1      42.802  28.830  32.479  1.00  0.00     0.167 HD
ATOM     61  C   UNL A   1      44.853  26.904  32.045  1.00  0.00     0.074 A 
ATOM     62  C   UNL A   1      45.625  25.830  31.453  1.00  0.00     0.031 C 
ATOM     63  C   UNL A   1      45.220  27.581  33.161  1.00  0.00     0.031 A 
BRANCH  50  64
ATOM     64  C   UNL A   1      41.306  32.067  34.836  1.00  0.00    -0.014 A 
ATOM     65  C   UNL A   1      40.462  31.880  35.946  1.00  0.00     0.010 A 
ATOM     66  C   UNL A   1      41.896  33.328  34.632  1.00  0.00     0.010 A 
ATOM     67  C   UNL A   1      40.182  32.942  36.809  1.00  0.00     0.020 A 
ATOM     68  C   UNL A   1      41.646  34.384  35.511  1.00  0.00     0.020 A 
ATOM     69  C   UNL A   1      40.776  34.188  36.586  1.00  0.00     0.054 A 
BRANCH  69  70
ATOM     70  S   UNL A   1      40.414  35.540  37.740  1.00  0.00     0.124 S 
ATOM     71  O   UNL A   1      39.650  36.457  36.898  1.00  0.00    -0.237 OA
ATOM     72  O   UNL A   1      39.653  34.867  38.789  1.00  0.00    -0.237 OA
ATOM     73  O   UNL A   1      41.736  36.018  38.139  1.00  0.00    -0.744 OA
ENDBRANCH  69  70
ENDBRANCH  50  64
BRANCH  51  74
ATOM     74  C   UNL A   1      43.143  24.804  28.188  1.00  0.00    -0.014 A 
ATOM     75  C   UNL A   1      43.843  25.115  27.009  1.00  0.00     0.010 A 
ATOM     76  C   UNL A   1      42.735  23.475  28.408  1.00  0.00     0.010 A 
ATOM     77  C   UNL A   1      44.109  24.125  26.059  1.00  0.00     0.020 A 
ATOM     78  C   UNL A   1      43.027  22.476  27.475  1.00  0.00     0.020 A 
ATOM     79  C   UNL A   1      43.701  22.811  26.300  1.00  0.00     0.054 A 
BRANCH  79  80
ATOM     80  S   UNL A   1      44.095  21.534  25.071  1.00  0.00     0.124 S 
ATOM     81  O   UNL A   1      43.925  22.259  23.816  1.00  0.00    -0.237 OA
ATOM     82  O   UNL A   1      45.468  21.179  25.418  1.00  0.00    -0.237 OA
ATOM     83  O   UNL A   1      43.105  20.492  25.332  1.00  0.00    -0.744 OA
ENDBRANCH  79  80
ENDBRANCH  51  74
BRANCH  63  84
ATOM     84  C   UNL A   1      46.478  27.149  33.867  1.00  0.00    -0.014 A 
ATOM     85  C   UNL A   1      46.462  26.152  34.858  1.00  0.00     0.010 A 
ATOM     86  C   UNL A   1      47.712  27.683  33.450  1.00  0.00     0.010 A 
ATOM     87  C   UNL A   1      47.659  25.708  35.427  1.00  0.00     0.020 A 
ATOM     88  C   UNL A   1      48.911  27.219  33.993  1.00  0.00     0.020 A 
ATOM     89  C   UNL A   1      48.877  26.237  34.984  1.00  0.00     0.054 A 
BRANCH  89  90
ATOM     90  S   UNL A   1      50.417  25.581  35.679  1.00  0.00     0.124 S 
ATOM     91  O   UNL A   1      50.681  24.436  34.812  1.00  0.00    -0.237 OA
ATOM     92  O   UNL A   1      51.338  26.706  35.532  1.00  0.00    -0.237 OA
ATOM     93  O   UNL A   1      50.064  25.248  37.057  1.00  0.00    -0.744 OA
ENDBRANCH  89  90
ENDBRANCH  63  84
ENDBRANCH  37  38
ENDBRANCH  29  32
ENDBRANCH  27  28
ENDBRANCH  26  27
ENDBRANCH  25  26
ENDBRANCH   1  25
TORSDOF 20
ENDMDL
