MODEL 1
REMARK VINA RESULT:      -8.7      0.000      0.000
REMARK SMILES O=C(NCCCCCCNC(=O)[C@@H]1CCc2[nH]ncc2C1)c1ccc(-c2c3nc(c(-c4ccc(S(=O)(=O)[O-])cc4)c4ccc([nH]4)c(-c4ccc(S(=O)(=O)[O-])cc4)c4nc(c(-c5ccc(S(=O)(=O)[O-])cc5)c5ccc2[nH]5)C=C4)C=C3)cc1
REMARK SMILES IDX 5 1 4 2 3 3 1 4 2 5 22 7 23 8 81 9 24 10 80 11 25 12 26 13
REMARK SMILES IDX 27 14 74 15 28 16 79 17 73 18 75 19 29 20 78 21 72 22 71 23
REMARK SMILES IDX 30 25 60 26 41 27 59 28 42 29 45 30 58 31 76 32 43 33 44 34
REMARK SMILES IDX 57 36 77 37 46 38 31 39 32 40 40 41 33 42 39 43 34 44 35 45
REMARK SMILES IDX 36 46 37 47 38 48 61 49 62 50 70 51 63 52 69 53 64 54 65 55
REMARK SMILES IDX 66 56 67 57 68 58 47 59 48 60 56 61 49 62 55 63 50 64 51 65
REMARK SMILES IDX 52 66 53 67 54 68 6 69 7 70 8 71 9 72 10 73 11 74 12 76
REMARK SMILES IDX 13 77 14 78 21 79 15 80 20 81 16 82 19 83 17 84 18 85
REMARK H PARENT 3 6 75 24 45 35 10 75 17 86
REMARK Flexibility Score: inf
ROOT
ATOM      1  C   UNL A   1      41.551  21.636  26.180  1.00  0.00     0.021 C 
ENDROOT
BRANCH   1   2
ATOM      2  C   UNL A   1      40.204  21.708  26.887  1.00  0.00     0.116 C 
BRANCH   2   3
ATOM      3  N   UNL A   1      39.122  22.112  26.009  1.00  0.00    -0.352 N 
ATOM      4  O   UNL A   1      37.499  23.448  25.203  1.00  0.00    -0.269 OA
ATOM      5  C   UNL A   1      38.490  23.330  25.909  1.00  0.00     0.251 C 
ATOM      6  H   UNL A   1      38.794  21.414  25.397  1.00  0.00     0.163 HD
BRANCH   5   7
ATOM      7  C   UNL A   1      38.999  24.488  26.680  1.00  0.00     0.039 A 
ATOM      8  C   UNL A   1      39.848  25.428  26.088  1.00  0.00     0.014 A 
ATOM      9  C   UNL A   1      38.606  24.643  28.013  1.00  0.00     0.014 A 
ATOM     10  C   UNL A   1      40.401  26.444  26.859  1.00  0.00     0.010 A 
ATOM     11  C   UNL A   1      39.099  25.714  28.764  1.00  0.00     0.010 A 
ATOM     12  C   UNL A   1      40.018  26.612  28.200  1.00  0.00    -0.014 A 
BRANCH  12  13
ATOM     13  C   UNL A   1      40.524  27.782  28.963  1.00  0.00     0.031 A 
ATOM     14  C   UNL A   1      41.906  27.794  29.555  1.00  0.00     0.074 A 
ATOM     15  C   UNL A   1      39.716  28.852  29.107  1.00  0.00     0.049 A 
ATOM     16  N   UNL A   1      42.497  28.740  30.239  1.00  0.00    -0.248 NA
ATOM     17  C   UNL A   1      42.733  26.592  29.360  1.00  0.00     0.031 C 
ATOM     18  C   UNL A   1      38.349  28.950  28.585  1.00  0.00     0.029 A 
ATOM     19  N   UNL A   1      39.923  30.062  29.717  1.00  0.00    -0.354 N 
ATOM     20  C   UNL A   1      43.753  28.247  30.574  1.00  0.00     0.074 A 
ATOM     21  C   UNL A   1      43.833  26.906  30.034  1.00  0.00     0.031 C 
ATOM     22  C   UNL A   1      37.859  30.169  28.859  1.00  0.00     0.029 A 
ATOM     23  C   UNL A   1      38.847  30.913  29.631  1.00  0.00     0.049 A 
ATOM     24  H   UNL A   1      40.763  30.298  30.174  1.00  0.00     0.167 HD
ATOM     25  C   UNL A   1      44.746  28.856  31.266  1.00  0.00     0.031 A 
ATOM     26  C   UNL A   1      38.660  32.147  30.133  1.00  0.00     0.031 A 
ATOM     27  C   UNL A   1      44.656  30.191  31.801  1.00  0.00     0.049 A 
ATOM     28  C   UNL A   1      39.767  32.786  30.920  1.00  0.00     0.074 A 
ATOM     29  C   UNL A   1      45.621  30.908  32.490  1.00  0.00     0.029 A 
ATOM     30  N   UNL A   1      43.539  31.009  31.715  1.00  0.00    -0.354 N 
ATOM     31  N   UNL A   1      40.960  32.314  31.193  1.00  0.00    -0.248 NA
ATOM     32  C   UNL A   1      39.505  34.125  31.464  1.00  0.00     0.031 C 
ATOM     33  C   UNL A   1      45.069  32.137  32.865  1.00  0.00     0.029 A 
ATOM     34  C   UNL A   1      43.782  32.212  32.359  1.00  0.00     0.049 A 
ATOM     35  H   UNL A   1      42.698  30.771  31.264  1.00  0.00     0.167 HD
ATOM     36  C   UNL A   1      41.598  33.306  31.926  1.00  0.00     0.074 A 
ATOM     37  C   UNL A   1      40.667  34.410  32.035  1.00  0.00     0.031 C 
ATOM     38  C   UNL A   1      42.843  33.300  32.462  1.00  0.00     0.031 A 
BRANCH  25  39
ATOM     39  C   UNL A   1      46.015  28.082  31.509  1.00  0.00    -0.014 A 
ATOM     40  C   UNL A   1      46.113  27.153  32.560  1.00  0.00     0.010 A 
ATOM     41  C   UNL A   1      47.103  28.235  30.628  1.00  0.00     0.010 A 
ATOM     42  C   UNL A   1      47.285  26.412  32.742  1.00  0.00     0.020 A 
ATOM     43  C   UNL A   1      48.268  27.479  30.793  1.00  0.00     0.020 A 
ATOM     44  C   UNL A   1      48.356  26.581  31.859  1.00  0.00     0.054 A 
BRANCH  44  45
ATOM     45  S   UNL A   1      49.852  25.581  32.101  1.00  0.00     0.124 S 
ATOM     46  O   UNL A   1      49.437  24.675  33.169  1.00  0.00    -0.237 OA
ATOM     47  O   UNL A   1      50.039  24.963  30.791  1.00  0.00    -0.237 OA
ATOM     48  O   UNL A   1      50.868  26.562  32.476  1.00  0.00    -0.744 OA
ENDBRANCH  44  45
ENDBRANCH  25  39
BRANCH  26  49
ATOM     49  C   UNL A   1      37.363  32.844  29.920  1.00  0.00    -0.014 A 
ATOM     50  C   UNL A   1      37.082  33.482  28.701  1.00  0.00     0.010 A 
ATOM     51  C   UNL A   1      36.391  32.854  30.938  1.00  0.00     0.010 A 
ATOM     52  C   UNL A   1      35.861  34.135  28.510  1.00  0.00     0.020 A 
ATOM     53  C   UNL A   1      35.158  33.478  30.740  1.00  0.00     0.020 A 
ATOM     54  C   UNL A   1      34.906  34.128  29.531  1.00  0.00     0.054 A 
BRANCH  54  55
ATOM     55  S   UNL A   1      33.311  34.943  29.247  1.00  0.00     0.124 S 
ATOM     56  O   UNL A   1      33.725  36.269  28.799  1.00  0.00    -0.237 OA
ATOM     57  O   UNL A   1      32.697  34.093  28.230  1.00  0.00    -0.237 OA
ATOM     58  O   UNL A   1      32.666  34.896  30.558  1.00  0.00    -0.744 OA
ENDBRANCH  54  55
ENDBRANCH  26  49
BRANCH  38  59
ATOM     59  C   UNL A   1      43.282  34.543  33.189  1.00  0.00    -0.014 A 
ATOM     60  C   UNL A   1      43.176  34.645  34.588  1.00  0.00     0.010 A 
ATOM     61  C   UNL A   1      43.847  35.607  32.462  1.00  0.00     0.010 A 
ATOM     62  C   UNL A   1      43.597  35.805  35.242  1.00  0.00     0.020 A 
ATOM     63  C   UNL A   1      44.294  36.756  33.117  1.00  0.00     0.020 A 
ATOM     64  C   UNL A   1      44.153  36.854  34.503  1.00  0.00     0.054 A 
BRANCH  64  65
ATOM     65  S   UNL A   1      44.728  38.333  35.381  1.00  0.00     0.124 S 
ATOM     66  O   UNL A   1      46.178  38.207  35.272  1.00  0.00    -0.237 OA
ATOM     67  O   UNL A   1      44.130  39.419  34.607  1.00  0.00    -0.237 OA
ATOM     68  O   UNL A   1      44.187  38.168  36.728  1.00  0.00    -0.744 OA
ENDBRANCH  64  65
ENDBRANCH  38  59
ENDBRANCH  12  13
ENDBRANCH   5   7
ENDBRANCH   2   3
ENDBRANCH   1   2
BRANCH   1  69
ATOM     69  C   UNL A   1      42.555  22.731  26.544  1.00  0.00     0.002 C 
BRANCH  69  70
ATOM     70  C   UNL A   1      42.425  23.345  27.939  1.00  0.00     0.002 C 
BRANCH  70  71
ATOM     71  C   UNL A   1      43.300  22.755  29.048  1.00  0.00     0.021 C 
BRANCH  71  72
ATOM     72  C   UNL A   1      44.674  23.380  29.257  1.00  0.00     0.116 C 
BRANCH  72  73
ATOM     73  N   UNL A   1      45.586  23.192  28.149  1.00  0.00    -0.356 N 
ATOM     74  C   UNL A   1      45.979  24.074  27.187  1.00  0.00     0.223 C 
ATOM     75  H   UNL A   1      45.982  22.293  28.081  1.00  0.00     0.163 HD
ATOM     76  O   UNL A   1      46.877  23.708  26.424  1.00  0.00    -0.275 OA
BRANCH  74  77
ATOM     77  C   UNL A   1      45.266  25.415  27.013  1.00  0.00     0.083 C 
ATOM     78  C   UNL A   1      44.579  25.470  25.609  1.00  0.00     0.020 C 
ATOM     79  C   UNL A   1      46.197  26.645  27.162  1.00  0.00     0.052 C 
ATOM     80  C   UNL A   1      43.707  26.724  25.387  1.00  0.00     0.057 C 
ATOM     81  C   UNL A   1      45.416  27.881  26.889  1.00  0.00    -0.006 A 
ATOM     82  C   UNL A   1      44.312  27.890  26.069  1.00  0.00     0.038 A 
ATOM     83  C   UNL A   1      45.508  29.199  27.369  1.00  0.00     0.138 A 
ATOM     84  N   UNL A   1      43.840  29.166  26.069  1.00  0.00    -0.282 N 
ATOM     85  N   UNL A   1      44.548  29.984  26.868  1.00  0.00    -0.184 NA
ATOM     86  H   UNL A   1      43.062  29.460  25.541  1.00  0.00     0.190 HD
ENDBRANCH  74  77
ENDBRANCH  72  73
ENDBRANCH  71  72
ENDBRANCH  70  71
ENDBRANCH  69  70
ENDBRANCH   1  69
TORSDOF 16
ENDMDL
MODEL 2
REMARK VINA RESULT:      -8.7      3.157     10.231
REMARK SMILES O=C(NCCCCCCNC(=O)[C@@H]1CCc2[nH]ncc2C1)c1ccc(-c2c3nc(c(-c4ccc(S(=O)(=O)[O-])cc4)c4ccc([nH]4)c(-c4ccc(S(=O)(=O)[O-])cc4)c4nc(c(-c5ccc(S(=O)(=O)[O-])cc5)c5ccc2[nH]5)C=C4)C=C3)cc1
REMARK SMILES IDX 5 1 4 2 3 3 1 4 2 5 22 7 23 8 81 9 24 10 80 11 25 12 26 13
REMARK SMILES IDX 27 14 74 15 28 16 79 17 73 18 75 19 29 20 78 21 72 22 71 23
REMARK SMILES IDX 30 25 60 26 41 27 59 28 42 29 45 30 58 31 76 32 43 33 44 34
REMARK SMILES IDX 57 36 77 37 46 38 31 39 32 40 40 41 33 42 39 43 34 44 35 45
REMARK SMILES IDX 36 46 37 47 38 48 61 49 62 50 70 51 63 52 69 53 64 54 65 55
REMARK SMILES IDX 66 56 67 57 68 58 47 59 48 60 56 61 49 62 55 63 50 64 51 65
REMARK SMILES IDX 52 66 53 67 54 68 6 69 7 70 8 71 9 72 10 73 11 74 12 76
REMARK SMILES IDX 13 77 14 78 21 79 15 80 20 81 16 82 19 83 17 84 18 85
REMARK H PARENT 3 6 75 24 45 35 10 75 17 86
REMARK Flexibility Score: inf
ROOT
ATOM      1  C   UNL A   1      35.786  33.047  28.354  1.00  0.00     0.021 C 
ENDROOT
BRANCH   1   2
ATOM      2  C   UNL A   1      34.774  32.251  29.167  1.00  0.00     0.116 C 
BRANCH   2   3
ATOM      3  N   UNL A   1      34.148  31.184  28.409  1.00  0.00    -0.352 N 
ATOM      4  O   UNL A   1      34.052  29.317  27.152  1.00  0.00    -0.269 OA
ATOM      5  C   UNL A   1      34.710  30.041  27.887  1.00  0.00     0.251 C 
ATOM      6  H   UNL A   1      33.184  31.293  28.244  1.00  0.00     0.163 HD
BRANCH   5   7
ATOM      7  C   UNL A   1      36.119  29.705  28.199  1.00  0.00     0.039 A 
ATOM      8  C   UNL A   1      36.476  29.198  29.451  1.00  0.00     0.014 A 
ATOM      9  C   UNL A   1      37.094  29.886  27.213  1.00  0.00     0.014 A 
ATOM     10  C   UNL A   1      37.818  28.995  29.758  1.00  0.00     0.010 A 
ATOM     11  C   UNL A   1      38.433  29.602  27.497  1.00  0.00     0.010 A 
ATOM     12  C   UNL A   1      38.809  29.174  28.780  1.00  0.00    -0.014 A 
BRANCH  12  13
ATOM     13  C   UNL A   1      40.218  28.825  29.096  1.00  0.00     0.031 A 
ATOM     14  C   UNL A   1      40.804  27.496  28.706  1.00  0.00     0.074 A 
ATOM     15  C   UNL A   1      40.976  29.738  29.736  1.00  0.00     0.049 A 
ATOM     16  N   UNL A   1      42.016  27.045  28.902  1.00  0.00    -0.248 NA
ATOM     17  C   UNL A   1      39.918  26.548  28.010  1.00  0.00     0.031 C 
ATOM     18  C   UNL A   1      40.513  31.059  30.175  1.00  0.00     0.029 A 
ATOM     19  N   UNL A   1      42.293  29.707  30.118  1.00  0.00    -0.354 N 
ATOM     20  C   UNL A   1      42.038  25.759  28.375  1.00  0.00     0.074 A 
ATOM     21  C   UNL A   1      40.709  25.492  27.867  1.00  0.00     0.031 C 
ATOM     22  C   UNL A   1      41.539  31.725  30.724  1.00  0.00     0.029 A 
ATOM     23  C   UNL A   1      42.712  30.860  30.738  1.00  0.00     0.049 A 
ATOM     24  H   UNL A   1      42.881  28.933  29.963  1.00  0.00     0.167 HD
ATOM     25  C   UNL A   1      43.072  24.884  28.320  1.00  0.00     0.031 A 
ATOM     26  C   UNL A   1      43.900  31.184  31.280  1.00  0.00     0.031 A 
ATOM     27  C   UNL A   1      44.391  25.158  28.830  1.00  0.00     0.049 A 
ATOM     28  C   UNL A   1      45.019  30.184  31.229  1.00  0.00     0.074 A 
ATOM     29  C   UNL A   1      45.513  24.346  28.791  1.00  0.00     0.029 A 
ATOM     30  N   UNL A   1      44.768  26.327  29.474  1.00  0.00    -0.354 N 
ATOM     31  N   UNL A   1      45.027  28.987  30.693  1.00  0.00    -0.248 NA
ATOM     32  C   UNL A   1      46.288  30.578  31.853  1.00  0.00     0.031 C 
ATOM     33  C   UNL A   1      46.552  25.003  29.459  1.00  0.00     0.029 A 
ATOM     34  C   UNL A   1      46.096  26.248  29.860  1.00  0.00     0.049 A 
ATOM     35  H   UNL A   1      44.178  27.098  29.634  1.00  0.00     0.167 HD
ATOM     36  C   UNL A   1      46.308  28.491  30.900  1.00  0.00     0.074 A 
ATOM     37  C   UNL A   1      47.051  29.526  31.590  1.00  0.00     0.031 C 
ATOM     38  C   UNL A   1      46.820  27.286  30.550  1.00  0.00     0.031 A 
BRANCH  25  39
ATOM     39  C   UNL A   1      42.820  23.531  27.705  1.00  0.00    -0.014 A 
ATOM     40  C   UNL A   1      43.258  23.229  26.403  1.00  0.00     0.010 A 
ATOM     41  C   UNL A   1      42.197  22.525  28.467  1.00  0.00     0.010 A 
ATOM     42  C   UNL A   1      43.054  21.953  25.866  1.00  0.00     0.020 A 
ATOM     43  C   UNL A   1      42.012  21.241  27.943  1.00  0.00     0.020 A 
ATOM     44  C   UNL A   1      42.430  20.968  26.639  1.00  0.00     0.054 A 
BRANCH  44  45
ATOM     45  S   UNL A   1      42.208  19.314  25.927  1.00  0.00     0.124 S 
ATOM     46  O   UNL A   1      42.739  18.458  26.985  1.00  0.00    -0.237 OA
ATOM     47  O   UNL A   1      40.762  19.242  25.728  1.00  0.00    -0.237 OA
ATOM     48  O   UNL A   1      43.002  19.354  24.701  1.00  0.00    -0.744 OA
ENDBRANCH  44  45
ENDBRANCH  25  39
BRANCH  26  49
ATOM     49  C   UNL A   1      44.079  32.509  31.933  1.00  0.00    -0.014 A 
ATOM     50  C   UNL A   1      44.495  33.626  31.190  1.00  0.00     0.010 A 
ATOM     51  C   UNL A   1      43.814  32.661  33.306  1.00  0.00     0.010 A 
ATOM     52  C   UNL A   1      44.661  34.866  31.812  1.00  0.00     0.020 A 
ATOM     53  C   UNL A   1      43.948  33.905  33.926  1.00  0.00     0.020 A 
ATOM     54  C   UNL A   1      44.386  34.998  33.177  1.00  0.00     0.054 A 
BRANCH  54  55
ATOM     55  S   UNL A   1      44.565  36.626  33.955  1.00  0.00     0.124 S 
ATOM     56  O   UNL A   1      44.557  37.516  32.799  1.00  0.00    -0.237 OA
ATOM     57  O   UNL A   1      43.388  36.697  34.818  1.00  0.00    -0.237 OA
ATOM     58  O   UNL A   1      45.840  36.527  34.663  1.00  0.00    -0.744 OA
ENDBRANCH  54  55
ENDBRANCH  26  49
BRANCH  38  59
ATOM     59  C   UNL A   1      48.267  27.035  30.881  1.00  0.00    -0.014 A 
ATOM     60  C   UNL A   1      48.643  26.030  31.791  1.00  0.00     0.010 A 
ATOM     61  C   UNL A   1      49.265  27.790  30.239  1.00  0.00     0.010 A 
ATOM     62  C   UNL A   1      49.992  25.809  32.078  1.00  0.00     0.020 A 
ATOM     63  C   UNL A   1      50.616  27.551  30.502  1.00  0.00     0.020 A 
ATOM     64  C   UNL A   1      50.970  26.572  31.431  1.00  0.00     0.054 A 
BRANCH  64  65
ATOM     65  S   UNL A   1      52.716  26.238  31.791  1.00  0.00     0.124 S 
ATOM     66  O   UNL A   1      53.320  26.311  30.464  1.00  0.00    -0.237 OA
ATOM     67  O   UNL A   1      53.069  27.323  32.704  1.00  0.00    -0.237 OA
ATOM     68  O   UNL A   1      52.697  24.908  32.395  1.00  0.00    -0.744 OA
ENDBRANCH  64  65
ENDBRANCH  38  59
ENDBRANCH  12  13
ENDBRANCH   5   7
ENDBRANCH   2   3
ENDBRANCH   1   2
BRANCH   1  69
ATOM     69  C   UNL A   1      36.930  33.680  29.146  1.00  0.00     0.002 C 
BRANCH  69  70
ATOM     70  C   UNL A   1      37.841  32.724  29.919  1.00  0.00     0.002 C 
BRANCH  70  71
ATOM     71  C   UNL A   1      37.454  32.404  31.364  1.00  0.00     0.021 C 
BRANCH  71  72
ATOM     72  C   UNL A   1      37.849  33.417  32.432  1.00  0.00     0.116 C 
BRANCH  72  73
ATOM     73  N   UNL A   1      37.014  33.390  33.613  1.00  0.00    -0.356 N 
ATOM     74  C   UNL A   1      35.801  33.973  33.834  1.00  0.00     0.223 C 
ATOM     75  H   UNL A   1      37.374  32.873  34.368  1.00  0.00     0.163 HD
ATOM     76  O   UNL A   1      35.225  33.686  34.886  1.00  0.00    -0.275 OA
BRANCH  74  77
ATOM     77  C   UNL A   1      35.235  35.004  32.858  1.00  0.00     0.083 C 
ATOM     78  C   UNL A   1      34.426  36.087  33.643  1.00  0.00     0.020 C 
ATOM     79  C   UNL A   1      34.325  34.397  31.760  1.00  0.00     0.052 C 
ATOM     80  C   UNL A   1      33.934  37.259  32.768  1.00  0.00     0.057 C 
ATOM     81  C   UNL A   1      33.768  35.498  30.928  1.00  0.00    -0.006 A 
ATOM     82  C   UNL A   1      33.584  36.770  31.415  1.00  0.00     0.038 A 
ATOM     83  C   UNL A   1      33.389  35.580  29.577  1.00  0.00     0.138 A 
ATOM     84  N   UNL A   1      33.089  37.511  30.387  1.00  0.00    -0.282 N 
ATOM     85  N   UNL A   1      32.973  36.807  29.247  1.00  0.00    -0.184 NA
ATOM     86  H   UNL A   1      32.843  38.461  30.468  1.00  0.00     0.190 HD
ENDBRANCH  74  77
ENDBRANCH  72  73
ENDBRANCH  71  72
ENDBRANCH  70  71
ENDBRANCH  69  70
ENDBRANCH   1  69
TORSDOF 16
ENDMDL
MODEL 3
REMARK VINA RESULT:      -8.6      0.394      8.421
REMARK SMILES O=C(NCCCCCCNC(=O)[C@@H]1CCc2[nH]ncc2C1)c1ccc(-c2c3nc(c(-c4ccc(S(=O)(=O)[O-])cc4)c4ccc([nH]4)c(-c4ccc(S(=O)(=O)[O-])cc4)c4nc(c(-c5ccc(S(=O)(=O)[O-])cc5)c5ccc2[nH]5)C=C4)C=C3)cc1
REMARK SMILES IDX 5 1 4 2 3 3 1 4 2 5 22 7 23 8 81 9 24 10 80 11 25 12 26 13
REMARK SMILES IDX 27 14 74 15 28 16 79 17 73 18 75 19 29 20 78 21 72 22 71 23
REMARK SMILES IDX 30 25 60 26 41 27 59 28 42 29 45 30 58 31 76 32 43 33 44 34
REMARK SMILES IDX 57 36 77 37 46 38 31 39 32 40 40 41 33 42 39 43 34 44 35 45
REMARK SMILES IDX 36 46 37 47 38 48 61 49 62 50 70 51 63 52 69 53 64 54 65 55
REMARK SMILES IDX 66 56 67 57 68 58 47 59 48 60 56 61 49 62 55 63 50 64 51 65
REMARK SMILES IDX 52 66 53 67 54 68 6 69 7 70 8 71 9 72 10 73 11 74 12 76
REMARK SMILES IDX 13 77 14 78 21 79 15 80 20 81 16 82 19 83 17 84 18 85
REMARK H PARENT 3 6 75 24 45 35 10 75 17 86
REMARK Flexibility Score: inf
ROOT
ATOM      1  C   UNL A   1      41.585  21.450  26.121  1.00  0.00     0.021 C 
ENDROOT
BRANCH   1   2
ATOM      2  C   UNL A   1      40.251  21.563  26.847  1.00  0.00     0.116 C 
BRANCH   2   3
ATOM      3  N   UNL A   1      39.161  21.956  25.974  1.00  0.00    -0.352 N 
ATOM      4  O   UNL A   1      37.521  23.277  25.174  1.00  0.00    -0.269 OA
ATOM      5  C   UNL A   1      38.517  23.169  25.875  1.00  0.00     0.251 C 
ATOM      6  H   UNL A   1      38.835  21.255  25.365  1.00  0.00     0.163 HD
BRANCH   5   7
ATOM      7  C   UNL A   1      39.022  24.333  26.641  1.00  0.00     0.039 A 
ATOM      8  C   UNL A   1      39.858  25.279  26.041  1.00  0.00     0.014 A 
ATOM      9  C   UNL A   1      38.635  24.487  27.976  1.00  0.00     0.014 A 
ATOM     10  C   UNL A   1      40.408  26.301  26.808  1.00  0.00     0.010 A 
ATOM     11  C   UNL A   1      39.124  25.563  28.722  1.00  0.00     0.010 A 
ATOM     12  C   UNL A   1      40.031  26.468  28.150  1.00  0.00    -0.014 A 
BRANCH  12  13
ATOM     13  C   UNL A   1      40.532  27.644  28.908  1.00  0.00     0.031 A 
ATOM     14  C   UNL A   1      39.671  28.856  29.136  1.00  0.00     0.074 A 
ATOM     15  C   UNL A   1      41.785  27.600  29.405  1.00  0.00     0.049 A 
ATOM     16  N   UNL A   1      39.958  29.956  29.783  1.00  0.00    -0.248 NA
ATOM     17  C   UNL A   1      38.314  28.835  28.564  1.00  0.00     0.031 C 
ATOM     18  C   UNL A   1      42.718  26.481  29.238  1.00  0.00     0.029 A 
ATOM     19  N   UNL A   1      42.486  28.504  30.160  1.00  0.00    -0.354 N 
ATOM     20  C   UNL A   1      38.833  30.767  29.682  1.00  0.00     0.074 A 
ATOM     21  C   UNL A   1      37.862  30.039  28.893  1.00  0.00     0.031 C 
ATOM     22  C   UNL A   1      43.849  26.747  29.907  1.00  0.00     0.029 A 
ATOM     23  C   UNL A   1      43.750  28.078  30.494  1.00  0.00     0.049 A 
ATOM     24  H   UNL A   1      42.121  29.375  30.436  1.00  0.00     0.167 HD
ATOM     25  C   UNL A   1      38.630  32.002  30.201  1.00  0.00     0.031 A 
ATOM     26  C   UNL A   1      44.733  28.693  31.176  1.00  0.00     0.031 A 
ATOM     27  C   UNL A   1      39.604  32.720  30.983  1.00  0.00     0.049 A 
ATOM     28  C   UNL A   1      44.490  30.073  31.715  1.00  0.00     0.074 A 
ATOM     29  C   UNL A   1      39.480  33.964  31.580  1.00  0.00     0.029 A 
ATOM     30  N   UNL A   1      40.882  32.265  31.276  1.00  0.00    -0.354 N 
ATOM     31  N   UNL A   1      43.405  30.805  31.638  1.00  0.00    -0.248 NA
ATOM     32  C   UNL A   1      45.602  30.708  32.434  1.00  0.00     0.031 C 
ATOM     33  C   UNL A   1      40.699  34.283  32.187  1.00  0.00     0.029 A 
ATOM     34  C   UNL A   1      41.563  33.213  32.022  1.00  0.00     0.049 A 
ATOM     35  H   UNL A   1      41.249  31.397  30.996  1.00  0.00     0.167 HD
ATOM     36  C   UNL A   1      43.697  31.983  32.315  1.00  0.00     0.074 A 
ATOM     37  C   UNL A   1      45.052  31.854  32.812  1.00  0.00     0.031 C 
ATOM     38  C   UNL A   1      42.913  33.072  32.506  1.00  0.00     0.031 A 
BRANCH  25  39
ATOM     39  C   UNL A   1      37.312  32.676  29.924  1.00  0.00    -0.014 A 
ATOM     40  C   UNL A   1      36.263  32.641  30.861  1.00  0.00     0.010 A 
ATOM     41  C   UNL A   1      37.144  33.417  28.739  1.00  0.00     0.010 A 
ATOM     42  C   UNL A   1      35.062  33.310  30.605  1.00  0.00     0.020 A 
ATOM     43  C   UNL A   1      35.953  34.107  28.489  1.00  0.00     0.020 A 
ATOM     44  C   UNL A   1      34.914  34.037  29.419  1.00  0.00     0.054 A 
BRANCH  44  45
ATOM     45  S   UNL A   1      33.356  34.922  29.129  1.00  0.00     0.124 S 
ATOM     46  O   UNL A   1      32.764  34.933  30.465  1.00  0.00    -0.237 OA
ATOM     47  O   UNL A   1      33.812  36.219  28.635  1.00  0.00    -0.237 OA
ATOM     48  O   UNL A   1      32.662  34.092  28.147  1.00  0.00    -0.744 OA
ENDBRANCH  44  45
ENDBRANCH  25  39
BRANCH  26  49
ATOM     49  C   UNL A   1      46.041  28.010  31.368  1.00  0.00    -0.014 A 
ATOM     50  C   UNL A   1      47.085  28.186  30.445  1.00  0.00     0.010 A 
ATOM     51  C   UNL A   1      46.251  27.190  32.492  1.00  0.00     0.010 A 
ATOM     52  C   UNL A   1      48.310  27.539  30.633  1.00  0.00     0.020 A 
ATOM     53  C   UNL A   1      47.483  26.567  32.700  1.00  0.00     0.020 A 
ATOM     54  C   UNL A   1      48.501  26.734  31.760  1.00  0.00     0.054 A 
BRANCH  54  55
ATOM     55  S   UNL A   1      50.113  25.939  32.008  1.00  0.00     0.124 S 
ATOM     56  O   UNL A   1      50.637  25.889  30.647  1.00  0.00    -0.237 OA
ATOM     57  O   UNL A   1      50.787  26.866  32.914  1.00  0.00    -0.237 OA
ATOM     58  O   UNL A   1      49.768  24.647  32.596  1.00  0.00    -0.744 OA
ENDBRANCH  54  55
ENDBRANCH  26  49
BRANCH  38  59
ATOM     59  C   UNL A   1      43.493  34.200  33.315  1.00  0.00    -0.014 A 
ATOM     60  C   UNL A   1      43.385  34.223  34.718  1.00  0.00     0.010 A 
ATOM     61  C   UNL A   1      44.192  35.231  32.663  1.00  0.00     0.010 A 
ATOM     62  C   UNL A   1      43.937  35.276  35.450  1.00  0.00     0.020 A 
ATOM     63  C   UNL A   1      44.771  36.271  33.395  1.00  0.00     0.020 A 
ATOM     64  C   UNL A   1      44.627  36.294  34.783  1.00  0.00     0.054 A 
BRANCH  64  65
ATOM     65  S   UNL A   1      45.369  37.630  35.760  1.00  0.00     0.124 S 
ATOM     66  O   UNL A   1      46.049  36.891  36.819  1.00  0.00    -0.237 OA
ATOM     67  O   UNL A   1      46.243  38.289  34.791  1.00  0.00    -0.237 OA
ATOM     68  O   UNL A   1      44.220  38.423  36.192  1.00  0.00    -0.744 OA
ENDBRANCH  64  65
ENDBRANCH  38  59
ENDBRANCH  12  13
ENDBRANCH   5   7
ENDBRANCH   2   3
ENDBRANCH   1   2
BRANCH   1  69
ATOM     69  C   UNL A   1      42.509  22.663  26.228  1.00  0.00     0.002 C 
BRANCH  69  70
ATOM     70  C   UNL A   1      42.553  23.374  27.582  1.00  0.00     0.002 C 
BRANCH  70  71
ATOM     71  C   UNL A   1      43.337  22.693  28.705  1.00  0.00     0.021 C 
BRANCH  71  72
ATOM     72  C   UNL A   1      44.700  23.277  29.057  1.00  0.00     0.116 C 
BRANCH  72  73
ATOM     73  N   UNL A   1      45.679  23.177  27.997  1.00  0.00    -0.356 N 
ATOM     74  C   UNL A   1      46.085  24.116  27.095  1.00  0.00     0.223 C 
ATOM     75  H   UNL A   1      46.119  22.300  27.915  1.00  0.00     0.163 HD
ATOM     76  O   UNL A   1      47.039  23.822  26.371  1.00  0.00    -0.275 OA
BRANCH  74  77
ATOM     77  C   UNL A   1      45.323  25.431  26.935  1.00  0.00     0.083 C 
ATOM     78  C   UNL A   1      44.621  25.469  25.538  1.00  0.00     0.020 C 
ATOM     79  C   UNL A   1      46.210  26.694  27.083  1.00  0.00     0.052 C 
ATOM     80  C   UNL A   1      43.702  26.692  25.331  1.00  0.00     0.057 C 
ATOM     81  C   UNL A   1      45.383  27.902  26.824  1.00  0.00    -0.006 A 
ATOM     82  C   UNL A   1      44.272  27.876  26.014  1.00  0.00     0.038 A 
ATOM     83  C   UNL A   1      45.432  29.220  27.310  1.00  0.00     0.138 A 
ATOM     84  N   UNL A   1      43.754  29.134  26.025  1.00  0.00    -0.282 N 
ATOM     85  N   UNL A   1      44.440  29.972  26.823  1.00  0.00    -0.184 NA
ATOM     86  H   UNL A   1      42.961  29.402  25.506  1.00  0.00     0.190 HD
ENDBRANCH  74  77
ENDBRANCH  72  73
ENDBRANCH  71  72
ENDBRANCH  70  71
ENDBRANCH  69  70
ENDBRANCH   1  69
TORSDOF 16
ENDMDL
