MODEL 1
REMARK VINA RESULT:     -10.2      0.000      0.000
REMARK SMILES CCOc1ccc(OCC(=O)N2CCC[C@H](C(=O)NCCCCCCNC(=O)c3ccc(-c4c5nc(c(-c6ccc(S(=O)(=O)[O-])cc6)c6ccc([nH]6)c(-c6ccc(S(=O)(=O)[O-])cc6)c6nc(c(-c7ccc(S(=O)(=O)[O-])cc7)c7ccc4[nH]7)C=C6)C=C5)cc3)C2)cc1
REMARK SMILES IDX 21 1 20 2 19 3 17 4 18 5 16 7 12 8 13 9 89 10 14 11 15 12
REMARK SMILES IDX 10 13 11 14 9 15 8 16 7 17 4 18 5 19 91 20 6 21 90 22 3 23
REMARK SMILES IDX 2 24 1 25 22 26 23 27 24 28 25 29 26 30 27 31 28 33 29 34
REMARK SMILES IDX 30 35 88 36 31 37 87 38 32 39 33 40 34 41 81 42 35 43 86 44
REMARK SMILES IDX 80 45 82 46 36 47 85 48 79 49 78 50 37 52 67 53 48 54 66 55
REMARK SMILES IDX 49 56 52 57 65 58 83 59 50 60 51 61 64 63 84 64 53 65 38 66
REMARK SMILES IDX 39 67 47 68 40 69 46 70 41 71 42 72 43 73 44 74 45 75 68 76
REMARK SMILES IDX 69 77 77 78 70 79 76 80 71 81 72 82 73 83 74 84 75 85 54 86
REMARK SMILES IDX 55 87 63 88 56 89 62 90 57 91 58 92 59 93 60 94 61 95
REMARK H PARENT 19 6 26 32 82 51 52 62
REMARK Flexibility Score: inf
ROOT
ATOM      1  C   UNL A   1      39.655  21.734  26.450  1.00  0.00     0.021 C 
ENDROOT
BRANCH   1   2
ATOM      2  C   UNL A   1      38.500  21.231  25.587  1.00  0.00     0.116 C 
BRANCH   2   3
ATOM      3  N   UNL A   1      37.618  22.284  25.138  1.00  0.00    -0.356 N 
ATOM      4  C   UNL A   1      36.282  22.470  25.275  1.00  0.00     0.224 C 
ATOM      5  O   UNL A   1      35.852  23.572  24.902  1.00  0.00    -0.275 OA
ATOM      6  H   UNL A   1      38.073  23.001  24.639  1.00  0.00     0.163 HD
BRANCH   4   7
ATOM      7  C   UNL A   1      35.287  21.433  25.817  1.00  0.00     0.098 C 
ATOM      8  N   UNL A   1      33.102  21.581  24.642  1.00  0.00    -0.339 N 
ATOM      9  C   UNL A   1      32.360  21.804  25.886  1.00  0.00     0.119 C 
ATOM     10  C   UNL A   1      34.334  20.822  24.788  1.00  0.00     0.133 C 
ATOM     11  C   UNL A   1      33.204  22.379  27.025  1.00  0.00     0.022 C 
ATOM     12  C   UNL A   1      34.605  21.784  27.140  1.00  0.00     0.017 C 
BRANCH   8  13
ATOM     13  C   UNL A   1      32.622  22.114  23.450  1.00  0.00     0.260 C 
ATOM     14  O   UNL A   1      32.293  21.373  22.515  1.00  0.00    -0.271 OA
BRANCH  13  15
ATOM     15  C   UNL A   1      32.625  23.648  23.213  1.00  0.00     0.329 C 
BRANCH  15  16
ATOM     16  O   UNL A   1      32.261  24.599  24.186  1.00  0.00    -0.484 OA
BRANCH  16  17
ATOM     17  C   UNL A   1      31.633  25.745  23.793  1.00  0.00     0.120 A 
ATOM     18  C   UNL A   1      30.479  28.039  22.696  1.00  0.00     0.119 A 
ATOM     19  C   UNL A   1      31.042  27.087  21.855  1.00  0.00     0.050 A 
ATOM     20  C   UNL A   1      30.449  27.831  24.074  1.00  0.00     0.050 A 
ATOM     21  C   UNL A   1      31.617  25.943  22.406  1.00  0.00     0.050 A 
ATOM     22  C   UNL A   1      31.038  26.688  24.626  1.00  0.00     0.050 A 
BRANCH  18  23
ATOM     23  O   UNL A   1      29.854  29.118  22.138  1.00  0.00    -0.494 OA
BRANCH  23  24
ATOM     24  C   UNL A   1      29.238  29.960  23.120  1.00  0.00     0.226 C 
ATOM     25  C   UNL A   1      27.907  30.492  22.614  1.00  0.00     0.049 C 
ENDBRANCH  23  24
ENDBRANCH  18  23
ENDBRANCH  16  17
ENDBRANCH  15  16
ENDBRANCH  13  15
ENDBRANCH   8  13
ENDBRANCH   4   7
ENDBRANCH   2   3
ENDBRANCH   1   2
BRANCH   1  26
ATOM     26  C   UNL A   1      40.756  20.698  26.689  1.00  0.00     0.002 C 
BRANCH  26  27
ATOM     27  C   UNL A   1      42.138  21.265  27.045  1.00  0.00     0.002 C 
BRANCH  27  28
ATOM     28  C   UNL A   1      42.143  22.543  27.892  1.00  0.00     0.021 C 
BRANCH  28  29
ATOM     29  C   UNL A   1      42.822  23.752  27.249  1.00  0.00     0.116 C 
BRANCH  29  30
ATOM     30  N   UNL A   1      42.042  24.303  26.153  1.00  0.00    -0.352 N 
ATOM     31  C   UNL A   1      41.168  25.360  26.134  1.00  0.00     0.251 C 
ATOM     32  H   UNL A   1      42.159  23.846  25.289  1.00  0.00     0.163 HD
ATOM     33  O   UNL A   1      40.455  25.539  25.151  1.00  0.00    -0.269 OA
BRANCH  31  34
ATOM     34  C   UNL A   1      41.073  26.277  27.291  1.00  0.00     0.039 A 
ATOM     35  C   UNL A   1      41.944  27.368  27.359  1.00  0.00     0.014 A 
ATOM     36  C   UNL A   1      40.163  26.042  28.326  1.00  0.00     0.014 A 
ATOM     37  C   UNL A   1      41.868  28.253  28.438  1.00  0.00     0.010 A 
ATOM     38  C   UNL A   1      40.047  26.959  29.370  1.00  0.00     0.010 A 
ATOM     39  C   UNL A   1      40.901  28.070  29.439  1.00  0.00    -0.014 A 
BRANCH  39  40
ATOM     40  C   UNL A   1      40.771  29.028  30.567  1.00  0.00     0.031 A 
ATOM     41  C   UNL A   1      41.646  28.887  31.783  1.00  0.00     0.074 A 
ATOM     42  C   UNL A   1      39.826  29.987  30.520  1.00  0.00     0.049 A 
ATOM     43  N   UNL A   1      41.631  29.578  32.894  1.00  0.00    -0.248 NA
ATOM     44  C   UNL A   1      42.655  27.814  31.757  1.00  0.00     0.031 C 
ATOM     45  C   UNL A   1      38.891  30.201  29.413  1.00  0.00     0.029 A 
ATOM     46  N   UNL A   1      39.490  30.956  31.431  1.00  0.00    -0.354 N 
ATOM     47  C   UNL A   1      42.618  29.023  33.700  1.00  0.00     0.074 A 
ATOM     48  C   UNL A   1      43.176  27.905  32.973  1.00  0.00     0.031 C 
ATOM     49  C   UNL A   1      38.096  31.243  29.705  1.00  0.00     0.029 A 
ATOM     50  C   UNL A   1      38.438  31.747  31.032  1.00  0.00     0.049 A 
ATOM     51  H   UNL A   1      39.956  31.074  32.291  1.00  0.00     0.167 HD
ATOM     52  C   UNL A   1      43.036  29.420  34.926  1.00  0.00     0.031 A 
ATOM     53  C   UNL A   1      37.810  32.756  31.665  1.00  0.00     0.031 A 
ATOM     54  C   UNL A   1      42.481  30.535  35.646  1.00  0.00     0.049 A 
ATOM     55  C   UNL A   1      38.286  33.175  33.029  1.00  0.00     0.074 A 
ATOM     56  C   UNL A   1      42.857  31.037  36.881  1.00  0.00     0.029 A 
ATOM     57  N   UNL A   1      41.434  31.326  35.195  1.00  0.00    -0.354 N 
ATOM     58  N   UNL A   1      39.254  32.666  33.755  1.00  0.00    -0.248 NA
ATOM     59  C   UNL A   1      37.599  34.312  33.654  1.00  0.00     0.031 C 
ATOM     60  C   UNL A   1      42.009  32.105  37.194  1.00  0.00     0.029 A 
ATOM     61  C   UNL A   1      41.143  32.303  36.131  1.00  0.00     0.049 A 
ATOM     62  H   UNL A   1      40.968  31.209  34.337  1.00  0.00     0.167 HD
ATOM     63  C   UNL A   1      39.305  33.437  34.911  1.00  0.00     0.074 A 
ATOM     64  C   UNL A   1      38.284  34.456  34.779  1.00  0.00     0.031 C 
ATOM     65  C   UNL A   1      40.124  33.312  35.984  1.00  0.00     0.031 A 
BRANCH  52  66
ATOM     66  C   UNL A   1      44.158  28.641  35.564  1.00  0.00    -0.014 A 
ATOM     67  C   UNL A   1      45.502  28.977  35.313  1.00  0.00     0.010 A 
ATOM     68  C   UNL A   1      43.870  27.589  36.451  1.00  0.00     0.010 A 
ATOM     69  C   UNL A   1      46.536  28.248  35.906  1.00  0.00     0.020 A 
ATOM     70  C   UNL A   1      44.902  26.875  37.067  1.00  0.00     0.020 A 
ATOM     71  C   UNL A   1      46.230  27.199  36.776  1.00  0.00     0.054 A 
BRANCH  71  72
ATOM     72  S   UNL A   1      47.593  26.284  37.547  1.00  0.00     0.124 S 
ATOM     73  O   UNL A   1      47.834  25.224  36.570  1.00  0.00    -0.237 OA
ATOM     74  O   UNL A   1      48.643  27.295  37.647  1.00  0.00    -0.237 OA
ATOM     75  O   UNL A   1      47.037  25.840  38.822  1.00  0.00    -0.744 OA
ENDBRANCH  71  72
ENDBRANCH  52  66
BRANCH  53  76
ATOM     76  C   UNL A   1      36.660  33.443  31.013  1.00  0.00    -0.014 A 
ATOM     77  C   UNL A   1      35.410  33.512  31.651  1.00  0.00     0.010 A 
ATOM     78  C   UNL A   1      36.817  34.039  29.748  1.00  0.00     0.010 A 
ATOM     79  C   UNL A   1      34.331  34.144  31.026  1.00  0.00     0.020 A 
ATOM     80  C   UNL A   1      35.748  34.695  29.133  1.00  0.00     0.020 A 
ATOM     81  C   UNL A   1      34.506  34.732  29.770  1.00  0.00     0.054 A 
BRANCH  81  82
ATOM     82  S   UNL A   1      33.103  35.582  28.994  1.00  0.00     0.124 S 
ATOM     83  O   UNL A   1      32.313  35.982  30.154  1.00  0.00    -0.237 OA
ATOM     84  O   UNL A   1      33.755  36.667  28.266  1.00  0.00    -0.237 OA
ATOM     85  O   UNL A   1      32.503  34.549  28.152  1.00  0.00    -0.744 OA
ENDBRANCH  81  82
ENDBRANCH  53  76
BRANCH  65  86
ATOM     86  C   UNL A   1      39.974  34.322  37.090  1.00  0.00    -0.014 A 
ATOM     87  C   UNL A   1      40.682  35.536  37.070  1.00  0.00     0.010 A 
ATOM     88  C   UNL A   1      39.067  34.073  38.137  1.00  0.00     0.010 A 
ATOM     89  C   UNL A   1      40.509  36.470  38.094  1.00  0.00     0.020 A 
ATOM     90  C   UNL A   1      38.873  35.016  39.149  1.00  0.00     0.020 A 
ATOM     91  C   UNL A   1      39.607  36.204  39.128  1.00  0.00     0.054 A 
BRANCH  91  92
ATOM     92  S   UNL A   1      39.368  37.453  40.421  1.00  0.00     0.124 S 
ATOM     93  O   UNL A   1      39.230  36.628  41.618  1.00  0.00    -0.237 OA
ATOM     94  O   UNL A   1      40.595  38.241  40.339  1.00  0.00    -0.237 OA
ATOM     95  O   UNL A   1      38.155  38.155  40.005  1.00  0.00    -0.744 OA
ENDBRANCH  91  92
ENDBRANCH  65  86
ENDBRANCH  39  40
ENDBRANCH  31  34
ENDBRANCH  29  30
ENDBRANCH  28  29
ENDBRANCH  27  28
ENDBRANCH  26  27
ENDBRANCH   1  26
TORSDOF 22
ENDMDL
MODEL 2
REMARK VINA RESULT:      -9.6      6.111      8.698
REMARK SMILES CCOc1ccc(OCC(=O)N2CCC[C@H](C(=O)NCCCCCCNC(=O)c3ccc(-c4c5nc(c(-c6ccc(S(=O)(=O)[O-])cc6)c6ccc([nH]6)c(-c6ccc(S(=O)(=O)[O-])cc6)c6nc(c(-c7ccc(S(=O)(=O)[O-])cc7)c7ccc4[nH]7)C=C6)C=C5)cc3)C2)cc1
REMARK SMILES IDX 21 1 20 2 19 3 17 4 18 5 16 7 12 8 13 9 89 10 14 11 15 12
REMARK SMILES IDX 10 13 11 14 9 15 8 16 7 17 4 18 5 19 91 20 6 21 90 22 3 23
REMARK SMILES IDX 2 24 1 25 22 26 23 27 24 28 25 29 26 30 27 31 28 33 29 34
REMARK SMILES IDX 30 35 88 36 31 37 87 38 32 39 33 40 34 41 81 42 35 43 86 44
REMARK SMILES IDX 80 45 82 46 36 47 85 48 79 49 78 50 37 52 67 53 48 54 66 55
REMARK SMILES IDX 49 56 52 57 65 58 83 59 50 60 51 61 64 63 84 64 53 65 38 66
REMARK SMILES IDX 39 67 47 68 40 69 46 70 41 71 42 72 43 73 44 74 45 75 68 76
REMARK SMILES IDX 69 77 77 78 70 79 76 80 71 81 72 82 73 83 74 84 75 85 54 86
REMARK SMILES IDX 55 87 63 88 56 89 62 90 57 91 58 92 59 93 60 94 61 95
REMARK H PARENT 19 6 26 32 82 51 52 62
REMARK Flexibility Score: inf
ROOT
ATOM      1  C   UNL A   1      47.757  24.778  27.317  1.00  0.00     0.021 C 
ENDROOT
BRANCH   1   2
ATOM      2  C   UNL A   1      46.333  25.057  27.790  1.00  0.00     0.116 C 
BRANCH   2   3
ATOM      3  N   UNL A   1      45.500  25.667  26.778  1.00  0.00    -0.356 N 
ATOM      4  C   UNL A   1      44.563  26.644  26.840  1.00  0.00     0.224 C 
ATOM      5  O   UNL A   1      44.137  27.051  25.749  1.00  0.00    -0.275 OA
ATOM      6  H   UNL A   1      45.641  25.305  25.873  1.00  0.00     0.163 HD
BRANCH   4   7
ATOM      7  C   UNL A   1      43.985  27.246  28.130  1.00  0.00     0.098 C 
ATOM      8  N   UNL A   1      41.690  26.400  28.570  1.00  0.00    -0.339 N 
ATOM      9  C   UNL A   1      41.115  27.749  28.599  1.00  0.00     0.119 C 
ATOM     10  C   UNL A   1      43.090  26.321  28.955  1.00  0.00     0.133 C 
ATOM     11  C   UNL A   1      41.933  28.796  27.841  1.00  0.00     0.022 C 
ATOM     12  C   UNL A   1      43.444  28.673  28.022  1.00  0.00     0.017 C 
BRANCH   8  13
ATOM     13  C   UNL A   1      40.906  25.327  28.162  1.00  0.00     0.260 C 
ATOM     14  O   UNL A   1      39.720  25.245  28.506  1.00  0.00    -0.271 OA
BRANCH  13  15
ATOM     15  C   UNL A   1      41.536  24.137  27.390  1.00  0.00     0.329 C 
BRANCH  15  16
ATOM     16  O   UNL A   1      41.969  24.203  26.051  1.00  0.00    -0.484 OA
BRANCH  16  17
ATOM     17  C   UNL A   1      43.080  23.505  25.675  1.00  0.00     0.120 A 
ATOM     18  C   UNL A   1      45.393  22.009  25.223  1.00  0.00     0.119 A 
ATOM     19  C   UNL A   1      44.761  21.934  26.458  1.00  0.00     0.050 A 
ATOM     20  C   UNL A   1      44.854  22.790  24.203  1.00  0.00     0.050 A 
ATOM     21  C   UNL A   1      43.605  22.682  26.680  1.00  0.00     0.050 A 
ATOM     22  C   UNL A   1      43.702  23.550  24.432  1.00  0.00     0.050 A 
BRANCH  18  23
ATOM     23  O   UNL A   1      46.481  21.215  24.996  1.00  0.00    -0.494 OA
BRANCH  23  24
ATOM     24  C   UNL A   1      46.183  19.822  25.150  1.00  0.00     0.226 C 
ATOM     25  C   UNL A   1      45.329  19.323  23.996  1.00  0.00     0.049 C 
ENDBRANCH  23  24
ENDBRANCH  18  23
ENDBRANCH  16  17
ENDBRANCH  15  16
ENDBRANCH  13  15
ENDBRANCH   8  13
ENDBRANCH   4   7
ENDBRANCH   2   3
ENDBRANCH   1   2
BRANCH   1  26
ATOM     26  C   UNL A   1      48.838  25.501  28.124  1.00  0.00     0.002 C 
BRANCH  26  27
ATOM     27  C   UNL A   1      50.241  24.881  28.063  1.00  0.00     0.002 C 
BRANCH  27  28
ATOM     28  C   UNL A   1      51.217  25.520  27.068  1.00  0.00     0.021 C 
BRANCH  28  29
ATOM     29  C   UNL A   1      50.620  25.888  25.710  1.00  0.00     0.116 C 
BRANCH  29  30
ATOM     30  N   UNL A   1      51.133  27.153  25.209  1.00  0.00    -0.352 N 
ATOM     31  C   UNL A   1      50.685  28.433  25.417  1.00  0.00     0.251 C 
ATOM     32  H   UNL A   1      51.925  27.079  24.629  1.00  0.00     0.163 HD
ATOM     33  O   UNL A   1      51.137  29.350  24.738  1.00  0.00    -0.269 OA
BRANCH  31  34
ATOM     34  C   UNL A   1      49.659  28.712  26.445  1.00  0.00     0.039 A 
ATOM     35  C   UNL A   1      50.071  29.145  27.709  1.00  0.00     0.014 A 
ATOM     36  C   UNL A   1      48.300  28.507  26.184  1.00  0.00     0.014 A 
ATOM     37  C   UNL A   1      49.120  29.422  28.693  1.00  0.00     0.010 A 
ATOM     38  C   UNL A   1      47.350  28.842  27.146  1.00  0.00     0.010 A 
ATOM     39  C   UNL A   1      47.749  29.298  28.412  1.00  0.00    -0.014 A 
BRANCH  39  40
ATOM     40  C   UNL A   1      46.722  29.637  29.430  1.00  0.00     0.031 A 
ATOM     41  C   UNL A   1      46.336  28.630  30.480  1.00  0.00     0.074 A 
ATOM     42  C   UNL A   1      46.094  30.828  29.371  1.00  0.00     0.049 A 
ATOM     43  N   UNL A   1      45.414  28.715  31.404  1.00  0.00    -0.248 NA
ATOM     44  C   UNL A   1      47.069  27.353  30.478  1.00  0.00     0.031 C 
ATOM     45  C   UNL A   1      46.351  31.872  28.376  1.00  0.00     0.029 A 
ATOM     46  N   UNL A   1      45.105  31.357  30.160  1.00  0.00    -0.354 N 
ATOM     47  C   UNL A   1      45.448  27.504  32.086  1.00  0.00     0.074 A 
ATOM     48  C   UNL A   1      46.446  26.683  31.437  1.00  0.00     0.031 C 
ATOM     49  C   UNL A   1      45.549  32.920  28.623  1.00  0.00     0.029 A 
ATOM     50  C   UNL A   1      44.697  32.610  29.767  1.00  0.00     0.049 A 
ATOM     51  H   UNL A   1      44.721  30.885  30.934  1.00  0.00     0.167 HD
ATOM     52  C   UNL A   1      44.730  27.119  33.168  1.00  0.00     0.031 A 
ATOM     53  C   UNL A   1      43.736  33.415  30.261  1.00  0.00     0.031 A 
ATOM     54  C   UNL A   1      43.740  27.940  33.814  1.00  0.00     0.049 A 
ATOM     55  C   UNL A   1      42.945  32.963  31.458  1.00  0.00     0.074 A 
ATOM     56  C   UNL A   1      42.980  27.652  34.935  1.00  0.00     0.029 A 
ATOM     57  N   UNL A   1      43.375  29.213  33.400  1.00  0.00    -0.354 N 
ATOM     58  N   UNL A   1      43.027  31.832  32.119  1.00  0.00    -0.248 NA
ATOM     59  C   UNL A   1      41.945  33.899  31.987  1.00  0.00     0.031 C 
ATOM     60  C   UNL A   1      42.126  28.735  35.173  1.00  0.00     0.029 A 
ATOM     61  C   UNL A   1      42.393  29.718  34.235  1.00  0.00     0.049 A 
ATOM     62  H   UNL A   1      43.758  29.686  32.627  1.00  0.00     0.167 HD
ATOM     63  C   UNL A   1      42.104  31.932  33.154  1.00  0.00     0.074 A 
ATOM     64  C   UNL A   1      41.491  33.240  33.043  1.00  0.00     0.031 C 
ATOM     65  C   UNL A   1      41.793  31.023  34.111  1.00  0.00     0.031 A 
BRANCH  52  66
ATOM     66  C   UNL A   1      44.996  25.744  33.725  1.00  0.00    -0.014 A 
ATOM     67  C   UNL A   1      44.288  24.625  33.250  1.00  0.00     0.010 A 
ATOM     68  C   UNL A   1      45.988  25.561  34.706  1.00  0.00     0.010 A 
ATOM     69  C   UNL A   1      44.538  23.354  33.775  1.00  0.00     0.020 A 
ATOM     70  C   UNL A   1      46.260  24.287  35.213  1.00  0.00     0.020 A 
ATOM     71  C   UNL A   1      45.520  23.194  34.756  1.00  0.00     0.054 A 
BRANCH  71  72
ATOM     72  S   UNL A   1      45.837  21.529  35.403  1.00  0.00     0.124 S 
ATOM     73  O   UNL A   1      45.712  21.737  36.843  1.00  0.00    -0.237 OA
ATOM     74  O   UNL A   1      44.775  20.737  34.789  1.00  0.00    -0.237 OA
ATOM     75  O   UNL A   1      47.187  21.225  34.933  1.00  0.00    -0.744 OA
ENDBRANCH  71  72
ENDBRANCH  52  66
BRANCH  53  76
ATOM     76  C   UNL A   1      43.471  34.735  29.623  1.00  0.00    -0.014 A 
ATOM     77  C   UNL A   1      42.509  34.859  28.606  1.00  0.00     0.010 A 
ATOM     78  C   UNL A   1      44.178  35.877  30.040  1.00  0.00     0.010 A 
ATOM     79  C   UNL A   1      42.276  36.098  28.001  1.00  0.00     0.020 A 
ATOM     80  C   UNL A   1      43.928  37.122  29.457  1.00  0.00     0.020 A 
ATOM     81  C   UNL A   1      42.988  37.222  28.429  1.00  0.00     0.054 A 
BRANCH  81  82
ATOM     82  S   UNL A   1      42.642  38.828  27.658  1.00  0.00     0.124 S 
ATOM     83  O   UNL A   1      41.664  38.468  26.637  1.00  0.00    -0.237 OA
ATOM     84  O   UNL A   1      42.128  39.612  28.779  1.00  0.00    -0.237 OA
ATOM     85  O   UNL A   1      43.947  39.253  27.156  1.00  0.00    -0.744 OA
ENDBRANCH  81  82
ENDBRANCH  53  76
BRANCH  65  86
ATOM     86  C   UNL A   1      40.766  31.422  35.136  1.00  0.00    -0.014 A 
ATOM     87  C   UNL A   1      41.134  32.098  36.312  1.00  0.00     0.010 A 
ATOM     88  C   UNL A   1      39.405  31.161  34.890  1.00  0.00     0.010 A 
ATOM     89  C   UNL A   1      40.162  32.480  37.240  1.00  0.00     0.020 A 
ATOM     90  C   UNL A   1      38.428  31.566  35.803  1.00  0.00     0.020 A 
ATOM     91  C   UNL A   1      38.815  32.211  36.980  1.00  0.00     0.054 A 
BRANCH  91  92
ATOM     92  S   UNL A   1      37.568  32.758  38.178  1.00  0.00     0.124 S 
ATOM     93  O   UNL A   1      38.222  33.909  38.793  1.00  0.00    -0.237 OA
ATOM     94  O   UNL A   1      36.420  33.066  37.330  1.00  0.00    -0.237 OA
ATOM     95  O   UNL A   1      37.396  31.599  39.052  1.00  0.00    -0.744 OA
ENDBRANCH  91  92
ENDBRANCH  65  86
ENDBRANCH  39  40
ENDBRANCH  31  34
ENDBRANCH  29  30
ENDBRANCH  28  29
ENDBRANCH  27  28
ENDBRANCH  26  27
ENDBRANCH   1  26
TORSDOF 22
ENDMDL
MODEL 3
REMARK VINA RESULT:      -9.6      6.353      8.449
REMARK SMILES CCOc1ccc(OCC(=O)N2CCC[C@H](C(=O)NCCCCCCNC(=O)c3ccc(-c4c5nc(c(-c6ccc(S(=O)(=O)[O-])cc6)c6ccc([nH]6)c(-c6ccc(S(=O)(=O)[O-])cc6)c6nc(c(-c7ccc(S(=O)(=O)[O-])cc7)c7ccc4[nH]7)C=C6)C=C5)cc3)C2)cc1
REMARK SMILES IDX 21 1 20 2 19 3 17 4 18 5 16 7 12 8 13 9 89 10 14 11 15 12
REMARK SMILES IDX 10 13 11 14 9 15 8 16 7 17 4 18 5 19 91 20 6 21 90 22 3 23
REMARK SMILES IDX 2 24 1 25 22 26 23 27 24 28 25 29 26 30 27 31 28 33 29 34
REMARK SMILES IDX 30 35 88 36 31 37 87 38 32 39 33 40 34 41 81 42 35 43 86 44
REMARK SMILES IDX 80 45 82 46 36 47 85 48 79 49 78 50 37 52 67 53 48 54 66 55
REMARK SMILES IDX 49 56 52 57 65 58 83 59 50 60 51 61 64 63 84 64 53 65 38 66
REMARK SMILES IDX 39 67 47 68 40 69 46 70 41 71 42 72 43 73 44 74 45 75 68 76
REMARK SMILES IDX 69 77 77 78 70 79 76 80 71 81 72 82 73 83 74 84 75 85 54 86
REMARK SMILES IDX 55 87 63 88 56 89 62 90 57 91 58 92 59 93 60 94 61 95
REMARK H PARENT 19 6 26 32 82 51 52 62
REMARK Flexibility Score: inf
ROOT
ATOM      1  C   UNL A   1      38.145  22.876  25.650  1.00  0.00     0.021 C 
ENDROOT
BRANCH   1   2
ATOM      2  C   UNL A   1      36.716  23.161  26.104  1.00  0.00     0.116 C 
BRANCH   2   3
ATOM      3  N   UNL A   1      36.067  24.203  25.341  1.00  0.00    -0.356 N 
ATOM      4  C   UNL A   1      34.963  24.199  24.553  1.00  0.00     0.224 C 
ATOM      5  O   UNL A   1      34.579  25.311  24.163  1.00  0.00    -0.275 OA
ATOM      6  H   UNL A   1      36.509  25.080  25.407  1.00  0.00     0.163 HD
BRANCH   4   7
ATOM      7  C   UNL A   1      34.194  22.949  24.099  1.00  0.00     0.098 C 
ATOM      8  N   UNL A   1      32.449  22.317  25.752  1.00  0.00    -0.339 N 
ATOM      9  C   UNL A   1      32.998  20.968  25.931  1.00  0.00     0.119 C 
ATOM     10  C   UNL A   1      32.707  22.917  24.453  1.00  0.00     0.133 C 
ATOM     11  C   UNL A   1      34.480  20.842  25.573  1.00  0.00     0.022 C 
ATOM     12  C   UNL A   1      34.898  21.610  24.322  1.00  0.00     0.017 C 
BRANCH   8  13
ATOM     13  C   UNL A   1      31.772  22.928  26.801  1.00  0.00     0.260 C 
ATOM     14  O   UNL A   1      32.108  22.723  27.974  1.00  0.00    -0.271 OA
BRANCH  13  15
ATOM     15  C   UNL A   1      30.491  23.763  26.533  1.00  0.00     0.329 C 
BRANCH  15  16
ATOM     16  O   UNL A   1      30.397  25.154  26.735  1.00  0.00    -0.484 OA
BRANCH  16  17
ATOM     17  C   UNL A   1      30.323  25.980  25.651  1.00  0.00     0.120 A 
ATOM     18  C   UNL A   1      30.406  27.844  23.574  1.00  0.00     0.119 A 
ATOM     19  C   UNL A   1      31.426  27.826  24.518  1.00  0.00     0.050 A 
ATOM     20  C   UNL A   1      29.372  26.912  23.637  1.00  0.00     0.050 A 
ATOM     21  C   UNL A   1      31.381  26.892  25.553  1.00  0.00     0.050 A 
ATOM     22  C   UNL A   1      29.323  25.985  24.683  1.00  0.00     0.050 A 
BRANCH  18  23
ATOM     23  O   UNL A   1      30.501  28.714  22.525  1.00  0.00    -0.494 OA
BRANCH  23  24
ATOM     24  C   UNL A   1      29.321  29.511  22.367  1.00  0.00     0.226 C 
ATOM     25  C   UNL A   1      29.215  30.542  23.478  1.00  0.00     0.049 C 
ENDBRANCH  23  24
ENDBRANCH  18  23
ENDBRANCH  16  17
ENDBRANCH  15  16
ENDBRANCH  13  15
ENDBRANCH   8  13
ENDBRANCH   4   7
ENDBRANCH   2   3
ENDBRANCH   1   2
BRANCH   1  26
ATOM     26  C   UNL A   1      38.605  21.437  25.893  1.00  0.00     0.002 C 
BRANCH  26  27
ATOM     27  C   UNL A   1      40.057  21.273  26.367  1.00  0.00     0.002 C 
BRANCH  27  28
ATOM     28  C   UNL A   1      40.728  19.937  26.030  1.00  0.00     0.021 C 
BRANCH  28  29
ATOM     29  C   UNL A   1      42.185  19.807  26.472  1.00  0.00     0.116 C 
BRANCH  29  30
ATOM     30  N   UNL A   1      43.064  19.446  25.371  1.00  0.00    -0.352 N 
ATOM     31  C   UNL A   1      43.968  20.208  24.676  1.00  0.00     0.251 C 
ATOM     32  H   UNL A   1      43.000  18.508  25.079  1.00  0.00     0.163 HD
ATOM     33  O   UNL A   1      44.468  19.766  23.646  1.00  0.00    -0.269 OA
BRANCH  31  34
ATOM     34  C   UNL A   1      44.338  21.559  25.154  1.00  0.00     0.039 A 
ATOM     35  C   UNL A   1      43.903  22.672  24.429  1.00  0.00     0.014 A 
ATOM     36  C   UNL A   1      45.144  21.730  26.284  1.00  0.00     0.014 A 
ATOM     37  C   UNL A   1      44.233  23.958  24.866  1.00  0.00     0.010 A 
ATOM     38  C   UNL A   1      45.420  23.013  26.752  1.00  0.00     0.010 A 
ATOM     39  C   UNL A   1      44.972  24.140  26.046  1.00  0.00    -0.014 A 
BRANCH  39  40
ATOM     40  C   UNL A   1      45.289  25.499  26.553  1.00  0.00     0.031 A 
ATOM     41  C   UNL A   1      46.651  26.094  26.322  1.00  0.00     0.074 A 
ATOM     42  C   UNL A   1      44.369  26.172  27.272  1.00  0.00     0.049 A 
ATOM     43  N   UNL A   1      47.136  27.232  26.749  1.00  0.00    -0.248 NA
ATOM     44  C   UNL A   1      47.600  25.297  25.527  1.00  0.00     0.031 C 
ATOM     45  C   UNL A   1      43.026  25.685  27.598  1.00  0.00     0.029 A 
ATOM     46  N   UNL A   1      44.427  27.407  27.868  1.00  0.00    -0.354 N 
ATOM     47  C   UNL A   1      48.445  27.285  26.283  1.00  0.00     0.074 A 
ATOM     48  C   UNL A   1      48.694  26.043  25.586  1.00  0.00     0.031 C 
ATOM     49  C   UNL A   1      42.385  26.616  28.323  1.00  0.00     0.029 A 
ATOM     50  C   UNL A   1      43.280  27.747  28.545  1.00  0.00     0.049 A 
ATOM     51  H   UNL A   1      45.216  27.994  27.816  1.00  0.00     0.167 HD
ATOM     52  C   UNL A   1      49.351  28.285  26.404  1.00  0.00     0.031 A 
ATOM     53  C   UNL A   1      42.984  28.840  29.274  1.00  0.00     0.031 A 
ATOM     54  C   UNL A   1      49.098  29.522  27.095  1.00  0.00     0.049 A 
ATOM     55  C   UNL A   1      44.007  29.935  29.403  1.00  0.00     0.074 A 
ATOM     56  C   UNL A   1      49.940  30.611  27.248  1.00  0.00     0.029 A 
ATOM     57  N   UNL A   1      47.914  29.838  27.746  1.00  0.00    -0.354 N 
ATOM     58  N   UNL A   1      45.224  29.986  28.913  1.00  0.00    -0.248 NA
ATOM     59  C   UNL A   1      43.616  31.126  30.168  1.00  0.00     0.031 C 
ATOM     60  C   UNL A   1      49.279  31.568  28.027  1.00  0.00     0.029 A 
ATOM     61  C   UNL A   1      48.008  31.098  28.311  1.00  0.00     0.049 A 
ATOM     62  H   UNL A   1      47.125  29.253  27.797  1.00  0.00     0.167 HD
ATOM     63  C   UNL A   1      45.733  31.223  29.292  1.00  0.00     0.074 A 
ATOM     64  C   UNL A   1      44.687  31.896  30.035  1.00  0.00     0.031 C 
ATOM     65  C   UNL A   1      46.956  31.754  29.047  1.00  0.00     0.031 A 
BRANCH  52  66
ATOM     66  C   UNL A   1      50.701  28.082  25.768  1.00  0.00    -0.014 A 
ATOM     67  C   UNL A   1      50.870  28.213  24.377  1.00  0.00     0.010 A 
ATOM     68  C   UNL A   1      51.821  27.794  26.568  1.00  0.00     0.010 A 
ATOM     69  C   UNL A   1      52.124  28.020  23.794  1.00  0.00     0.020 A 
ATOM     70  C   UNL A   1      53.084  27.627  25.991  1.00  0.00     0.020 A 
ATOM     71  C   UNL A   1      53.224  27.724  24.605  1.00  0.00     0.054 A 
BRANCH  71  72
ATOM     72  S   UNL A   1      54.844  27.499  23.821  1.00  0.00     0.124 S 
ATOM     73  O   UNL A   1      55.146  26.108  24.150  1.00  0.00    -0.237 OA
ATOM     74  O   UNL A   1      54.561  27.764  22.414  1.00  0.00    -0.237 OA
ATOM     75  O   UNL A   1      55.690  28.492  24.481  1.00  0.00    -0.744 OA
ENDBRANCH  71  72
ENDBRANCH  52  66
BRANCH  53  76
ATOM     76  C   UNL A   1      41.656  28.953  29.940  1.00  0.00    -0.014 A 
ATOM     77  C   UNL A   1      41.486  28.551  31.276  1.00  0.00     0.010 A 
ATOM     78  C   UNL A   1      40.555  29.474  29.236  1.00  0.00     0.010 A 
ATOM     79  C   UNL A   1      40.233  28.645  31.889  1.00  0.00     0.020 A 
ATOM     80  C   UNL A   1      39.307  29.595  29.855  1.00  0.00     0.020 A 
ATOM     81  C   UNL A   1      39.151  29.167  31.174  1.00  0.00     0.054 A 
BRANCH  81  82
ATOM     82  S   UNL A   1      37.543  29.317  32.001  1.00  0.00     0.124 S 
ATOM     83  O   UNL A   1      37.619  28.262  33.006  1.00  0.00    -0.237 OA
ATOM     84  O   UNL A   1      37.578  30.685  32.514  1.00  0.00    -0.237 OA
ATOM     85  O   UNL A   1      36.582  29.089  30.923  1.00  0.00    -0.744 OA
ENDBRANCH  81  82
ENDBRANCH  53  76
BRANCH  65  86
ATOM     86  C   UNL A   1      47.221  33.145  29.557  1.00  0.00    -0.014 A 
ATOM     87  C   UNL A   1      47.873  33.360  30.783  1.00  0.00     0.010 A 
ATOM     88  C   UNL A   1      46.857  34.253  28.769  1.00  0.00     0.010 A 
ATOM     89  C   UNL A   1      48.131  34.660  31.227  1.00  0.00     0.020 A 
ATOM     90  C   UNL A   1      47.137  35.553  29.197  1.00  0.00     0.020 A 
ATOM     91  C   UNL A   1      47.760  35.748  30.432  1.00  0.00     0.054 A 
BRANCH  91  92
ATOM     92  S   UNL A   1      48.147  37.423  31.009  1.00  0.00     0.124 S 
ATOM     93  O   UNL A   1      49.547  37.563  30.621  1.00  0.00    -0.237 OA
ATOM     94  O   UNL A   1      47.201  38.248  30.261  1.00  0.00    -0.237 OA
ATOM     95  O   UNL A   1      47.903  37.358  32.449  1.00  0.00    -0.744 OA
ENDBRANCH  91  92
ENDBRANCH  65  86
ENDBRANCH  39  40
ENDBRANCH  31  34
ENDBRANCH  29  30
ENDBRANCH  28  29
ENDBRANCH  27  28
ENDBRANCH  26  27
ENDBRANCH   1  26
TORSDOF 22
ENDMDL
