MODEL 1
REMARK VINA RESULT:     -10.5      0.000      0.000
REMARK SMILES COc1ccc(NC(C)(C)C2=N[C@@H](C(=O)NCCCCCCNC(=O)c3ccc(-c4c5nc(c(-c6ccc(S(=O)(=O)[O-])cc6)c6ccc([nH]6)c(-c6ccc(S(=O)(=O)[O-])cc6)c6nc(c(-c7ccc(S(=O)(=O)[O-])cc7)c7ccc4[nH]7)C=C6)C=C5)cc3)CS2)cc1
REMARK SMILES IDX 19 1 18 2 17 3 16 4 14 5 15 6 13 8 11 9 12 10 87 11 86 12
REMARK SMILES IDX 8 13 9 14 10 15 7 16 6 18 3 19 4 20 89 21 5 22 88 23 2 24
REMARK SMILES IDX 1 25 20 26 21 27 22 28 23 29 24 30 25 32 26 33 27 34 85 35
REMARK SMILES IDX 28 36 84 37 29 38 30 39 31 40 78 41 32 42 83 43 77 44 79 45
REMARK SMILES IDX 33 46 82 47 76 48 75 49 34 51 64 52 45 53 63 54 46 55 49 56
REMARK SMILES IDX 62 57 80 58 47 59 48 60 61 62 81 63 50 64 35 65 36 66 44 67
REMARK SMILES IDX 37 68 43 69 38 70 39 71 40 72 41 73 42 74 65 75 66 76 74 77
REMARK SMILES IDX 67 78 73 79 68 80 69 81 70 82 71 83 72 84 51 85 52 86 60 87
REMARK SMILES IDX 53 88 59 89 54 90 55 91 56 92 57 93 58 94
REMARK H PARENT 16 7 7 17 23 31 79 50 49 61
REMARK Flexibility Score: inf
ROOT
ATOM      1  C   UNL A   1      39.536  22.993  26.249  1.00  0.00     0.002 C 
ENDROOT
BRANCH   1   2
ATOM      2  C   UNL A   1      38.345  23.879  26.618  1.00  0.00     0.021 C 
BRANCH   2   3
ATOM      3  C   UNL A   1      37.108  23.581  25.779  1.00  0.00     0.116 C 
BRANCH   3   4
ATOM      4  N   UNL A   1      36.202  22.724  26.508  1.00  0.00    -0.354 N 
ATOM      5  C   UNL A   1      35.003  22.211  26.116  1.00  0.00     0.245 C 
ATOM      6  O   UNL A   1      34.320  21.625  26.959  1.00  0.00    -0.273 OA
ATOM      7  H   UNL A   1      36.491  22.476  27.416  1.00  0.00     0.163 HD
BRANCH   5   8
ATOM      8  C   UNL A   1      34.514  22.377  24.679  1.00  0.00     0.205 C 
ATOM      9  C   UNL A   1      33.113  23.951  23.742  1.00  0.00     0.094 C 
ATOM     10  N   UNL A   1      34.209  23.805  24.419  1.00  0.00    -0.266 NA
ATOM     11  S   UNL A   1      32.125  22.513  23.506  1.00  0.00    -0.106 SA
ATOM     12  C   UNL A   1      33.360  21.461  24.305  1.00  0.00     0.113 C 
BRANCH   9  13
ATOM     13  C   UNL A   1      32.722  25.297  23.103  1.00  0.00     0.080 C 
ATOM     14  C   UNL A   1      31.275  25.620  23.542  1.00  0.00     0.042 C 
ATOM     15  C   UNL A   1      32.720  25.246  21.563  1.00  0.00     0.042 C 
BRANCH  13  16
ATOM     16  N   UNL A   1      33.577  26.446  23.519  1.00  0.00    -0.374 N 
ATOM     17  H   UNL A   1      34.419  26.512  23.013  1.00  0.00     0.161 HD
BRANCH  16  18
ATOM     18  C   UNL A   1      33.430  27.436  24.468  1.00  0.00     0.035 A 
ATOM     19  C   UNL A   1      33.192  29.393  26.536  1.00  0.00     0.119 A 
ATOM     20  C   UNL A   1      32.904  29.715  25.227  1.00  0.00     0.048 A 
ATOM     21  C   UNL A   1      33.578  28.093  26.841  1.00  0.00     0.048 A 
ATOM     22  C   UNL A   1      33.016  28.745  24.228  1.00  0.00     0.029 A 
ATOM     23  C   UNL A   1      33.699  27.135  25.813  1.00  0.00     0.029 A 
BRANCH  19  24
ATOM     24  O   UNL A   1      32.981  30.383  27.450  1.00  0.00    -0.497 OA
ATOM     25  C   UNL A   1      34.152  31.121  27.768  1.00  0.00     0.278 C 
ENDBRANCH  19  24
ENDBRANCH  16  18
ENDBRANCH  13  16
ENDBRANCH   9  13
ENDBRANCH   5   8
ENDBRANCH   3   4
ENDBRANCH   2   3
ENDBRANCH   1   2
BRANCH   1  26
ATOM     26  C   UNL A   1      40.322  22.472  27.455  1.00  0.00     0.002 C 
BRANCH  26  27
ATOM     27  C   UNL A   1      41.830  22.342  27.218  1.00  0.00     0.021 C 
BRANCH  27  28
ATOM     28  C   UNL A   1      42.593  23.649  27.386  1.00  0.00     0.116 C 
BRANCH  28  29
ATOM     29  N   UNL A   1      42.561  24.441  26.168  1.00  0.00    -0.352 N 
ATOM     30  C   UNL A   1      42.103  25.717  25.990  1.00  0.00     0.251 C 
ATOM     31  H   UNL A   1      42.916  23.999  25.363  1.00  0.00     0.163 HD
ATOM     32  O   UNL A   1      41.911  26.150  24.853  1.00  0.00    -0.269 OA
BRANCH  30  33
ATOM     33  C   UNL A   1      41.838  26.563  27.167  1.00  0.00     0.039 A 
ATOM     34  C   UNL A   1      42.573  27.737  27.338  1.00  0.00     0.014 A 
ATOM     35  C   UNL A   1      40.871  26.190  28.105  1.00  0.00     0.014 A 
ATOM     36  C   UNL A   1      42.317  28.553  28.441  1.00  0.00     0.010 A 
ATOM     37  C   UNL A   1      40.560  27.043  29.156  1.00  0.00     0.010 A 
ATOM     38  C   UNL A   1      41.297  28.221  29.349  1.00  0.00    -0.014 A 
BRANCH  38  39
ATOM     39  C   UNL A   1      41.017  29.071  30.531  1.00  0.00     0.031 A 
ATOM     40  C   UNL A   1      41.834  28.905  31.783  1.00  0.00     0.074 A 
ATOM     41  C   UNL A   1      40.003  29.959  30.491  1.00  0.00     0.049 A 
ATOM     42  N   UNL A   1      41.720  29.525  32.931  1.00  0.00    -0.248 NA
ATOM     43  C   UNL A   1      42.902  27.892  31.755  1.00  0.00     0.031 C 
ATOM     44  C   UNL A   1      39.116  30.184  29.346  1.00  0.00     0.029 A 
ATOM     45  N   UNL A   1      39.548  30.837  31.441  1.00  0.00    -0.354 N 
ATOM     46  C   UNL A   1      42.685  28.965  33.760  1.00  0.00     0.074 A 
ATOM     47  C   UNL A   1      43.337  27.918  33.005  1.00  0.00     0.031 C 
ATOM     48  C   UNL A   1      38.245  31.158  29.651  1.00  0.00     0.029 A 
ATOM     49  C   UNL A   1      38.482  31.598  31.022  1.00  0.00     0.049 A 
ATOM     50  H   UNL A   1      39.945  30.914  32.338  1.00  0.00     0.167 HD
ATOM     51  C   UNL A   1      43.016  29.307  35.028  1.00  0.00     0.031 A 
ATOM     52  C   UNL A   1      37.773  32.543  31.670  1.00  0.00     0.031 A 
ATOM     53  C   UNL A   1      42.372  30.359  35.768  1.00  0.00     0.049 A 
ATOM     54  C   UNL A   1      38.158  32.905  33.079  1.00  0.00     0.074 A 
ATOM     55  C   UNL A   1      42.664  30.820  37.039  1.00  0.00     0.029 A 
ATOM     56  N   UNL A   1      41.307  31.116  35.303  1.00  0.00    -0.354 N 
ATOM     57  N   UNL A   1      39.114  32.404  33.828  1.00  0.00    -0.248 NA
ATOM     58  C   UNL A   1      37.383  33.972  33.724  1.00  0.00     0.031 C 
ATOM     59  C   UNL A   1      41.741  31.816  37.366  1.00  0.00     0.029 A 
ATOM     60  C   UNL A   1      40.918  32.027  36.271  1.00  0.00     0.049 A 
ATOM     61  H   UNL A   1      40.889  31.019  34.417  1.00  0.00     0.167 HD
ATOM     62  C   UNL A   1      39.077  33.123  35.018  1.00  0.00     0.074 A 
ATOM     63  C   UNL A   1      38.014  34.099  34.883  1.00  0.00     0.031 C 
ATOM     64  C   UNL A   1      39.858  32.994  36.119  1.00  0.00     0.031 A 
BRANCH  51  65
ATOM     65  C   UNL A   1      44.120  28.528  35.696  1.00  0.00    -0.014 A 
ATOM     66  C   UNL A   1      43.862  27.306  36.344  1.00  0.00     0.010 A 
ATOM     67  C   UNL A   1      45.441  29.006  35.646  1.00  0.00     0.010 A 
ATOM     68  C   UNL A   1      44.895  26.600  36.967  1.00  0.00     0.020 A 
ATOM     69  C   UNL A   1      46.484  28.288  36.238  1.00  0.00     0.020 A 
ATOM     70  C   UNL A   1      46.200  27.097  36.911  1.00  0.00     0.054 A 
BRANCH  70  71
ATOM     71  S   UNL A   1      47.525  26.149  37.707  1.00  0.00     0.124 S 
ATOM     72  O   UNL A   1      47.373  24.837  37.084  1.00  0.00    -0.237 OA
ATOM     73  O   UNL A   1      48.723  26.891  37.326  1.00  0.00    -0.237 OA
ATOM     74  O   UNL A   1      47.186  26.205  39.128  1.00  0.00    -0.744 OA
ENDBRANCH  70  71
ENDBRANCH  51  65
BRANCH  52  75
ATOM     75  C   UNL A   1      36.644  33.227  30.984  1.00  0.00    -0.014 A 
ATOM     76  C   UNL A   1      35.374  33.295  31.584  1.00  0.00     0.010 A 
ATOM     77  C   UNL A   1      36.836  33.827  29.726  1.00  0.00     0.010 A 
ATOM     78  C   UNL A   1      34.313  33.928  30.930  1.00  0.00     0.020 A 
ATOM     79  C   UNL A   1      35.787  34.489  29.083  1.00  0.00     0.020 A 
ATOM     80  C   UNL A   1      34.527  34.523  29.685  1.00  0.00     0.054 A 
BRANCH  80  81
ATOM     81  S   UNL A   1      33.147  35.380  28.875  1.00  0.00     0.124 S 
ATOM     82  O   UNL A   1      33.833  36.448  28.156  1.00  0.00    -0.237 OA
ATOM     83  O   UNL A   1      32.568  34.327  28.045  1.00  0.00    -0.237 OA
ATOM     84  O   UNL A   1      32.311  35.812  29.993  1.00  0.00    -0.744 OA
ENDBRANCH  80  81
ENDBRANCH  52  75
BRANCH  64  85
ATOM     85  C   UNL A   1      39.633  33.966  37.247  1.00  0.00    -0.014 A 
ATOM     86  C   UNL A   1      38.853  33.628  38.368  1.00  0.00     0.010 A 
ATOM     87  C   UNL A   1      40.256  35.228  37.202  1.00  0.00     0.010 A 
ATOM     88  C   UNL A   1      38.665  34.553  39.400  1.00  0.00     0.020 A 
ATOM     89  C   UNL A   1      40.098  36.141  38.245  1.00  0.00     0.020 A 
ATOM     90  C   UNL A   1      39.287  35.804  39.331  1.00  0.00     0.054 A 
BRANCH  90  91
ATOM     91  S   UNL A   1      39.050  36.974  40.695  1.00  0.00     0.124 S 
ATOM     92  O   UNL A   1      38.225  36.200  41.619  1.00  0.00    -0.237 OA
ATOM     93  O   UNL A   1      40.418  37.231  41.138  1.00  0.00    -0.237 OA
ATOM     94  O   UNL A   1      38.381  38.110  40.065  1.00  0.00    -0.744 OA
ENDBRANCH  90  91
ENDBRANCH  64  85
ENDBRANCH  38  39
ENDBRANCH  30  33
ENDBRANCH  28  29
ENDBRANCH  27  28
ENDBRANCH  26  27
ENDBRANCH   1  26
TORSDOF 20
ENDMDL
MODEL 2
REMARK VINA RESULT:      -9.7      6.197      8.594
REMARK SMILES COc1ccc(NC(C)(C)C2=N[C@@H](C(=O)NCCCCCCNC(=O)c3ccc(-c4c5nc(c(-c6ccc(S(=O)(=O)[O-])cc6)c6ccc([nH]6)c(-c6ccc(S(=O)(=O)[O-])cc6)c6nc(c(-c7ccc(S(=O)(=O)[O-])cc7)c7ccc4[nH]7)C=C6)C=C5)cc3)CS2)cc1
REMARK SMILES IDX 19 1 18 2 17 3 16 4 14 5 15 6 13 8 11 9 12 10 87 11 86 12
REMARK SMILES IDX 8 13 9 14 10 15 7 16 6 18 3 19 4 20 89 21 5 22 88 23 2 24
REMARK SMILES IDX 1 25 20 26 21 27 22 28 23 29 24 30 25 32 26 33 27 34 85 35
REMARK SMILES IDX 28 36 84 37 29 38 30 39 31 40 78 41 32 42 83 43 77 44 79 45
REMARK SMILES IDX 33 46 82 47 76 48 75 49 34 51 64 52 45 53 63 54 46 55 49 56
REMARK SMILES IDX 62 57 80 58 47 59 48 60 61 62 81 63 50 64 35 65 36 66 44 67
REMARK SMILES IDX 37 68 43 69 38 70 39 71 40 72 41 73 42 74 65 75 66 76 74 77
REMARK SMILES IDX 67 78 73 79 68 80 69 81 70 82 71 83 72 84 51 85 52 86 60 87
REMARK SMILES IDX 53 88 59 89 54 90 55 91 56 92 57 93 58 94
REMARK H PARENT 16 7 7 17 23 31 79 50 49 61
REMARK Flexibility Score: inf
ROOT
ATOM      1  C   UNL A   1      40.067  22.191  26.057  1.00  0.00     0.002 C 
ENDROOT
BRANCH   1   2
ATOM      2  C   UNL A   1      39.343  23.345  26.754  1.00  0.00     0.021 C 
BRANCH   2   3
ATOM      3  C   UNL A   1      37.989  23.654  26.125  1.00  0.00     0.116 C 
BRANCH   3   4
ATOM      4  N   UNL A   1      37.054  22.587  26.399  1.00  0.00    -0.354 N 
ATOM      5  C   UNL A   1      35.778  22.429  25.952  1.00  0.00     0.245 C 
ATOM      6  O   UNL A   1      35.103  21.517  26.437  1.00  0.00    -0.273 OA
ATOM      7  H   UNL A   1      37.386  21.874  26.992  1.00  0.00     0.163 HD
BRANCH   5   8
ATOM      8  C   UNL A   1      35.195  23.368  24.899  1.00  0.00     0.205 C 
ATOM      9  C   UNL A   1      33.385  24.792  24.993  1.00  0.00     0.094 C 
ATOM     10  N   UNL A   1      34.510  24.501  25.566  1.00  0.00    -0.266 NA
ATOM     11  S   UNL A   1      32.805  23.674  23.763  1.00  0.00    -0.106 SA
ATOM     12  C   UNL A   1      34.311  22.680  23.872  1.00  0.00     0.113 C 
BRANCH   9  13
ATOM     13  C   UNL A   1      32.621  26.093  25.309  1.00  0.00     0.080 C 
ATOM     14  C   UNL A   1      33.385  26.821  26.440  1.00  0.00     0.042 C 
ATOM     15  C   UNL A   1      31.194  25.834  25.828  1.00  0.00     0.042 C 
BRANCH  13  16
ATOM     16  N   UNL A   1      32.523  27.041  24.161  1.00  0.00    -0.374 N 
ATOM     17  H   UNL A   1      33.251  26.940  23.507  1.00  0.00     0.161 HD
BRANCH  16  18
ATOM     18  C   UNL A   1      31.620  28.030  23.829  1.00  0.00     0.035 A 
ATOM     19  C   UNL A   1      29.694  29.985  23.035  1.00  0.00     0.119 A 
ATOM     20  C   UNL A   1      30.452  30.166  24.172  1.00  0.00     0.048 A 
ATOM     21  C   UNL A   1      29.897  28.846  22.265  1.00  0.00     0.048 A 
ATOM     22  C   UNL A   1      31.396  29.206  24.543  1.00  0.00     0.029 A 
ATOM     23  C   UNL A   1      30.845  27.882  22.667  1.00  0.00     0.029 A 
BRANCH  19  24
ATOM     24  O   UNL A   1      28.854  31.009  22.712  1.00  0.00    -0.497 OA
ATOM     25  C   UNL A   1      27.566  30.578  22.295  1.00  0.00     0.278 C 
ENDBRANCH  19  24
ENDBRANCH  16  18
ENDBRANCH  13  16
ENDBRANCH   9  13
ENDBRANCH   5   8
ENDBRANCH   3   4
ENDBRANCH   2   3
ENDBRANCH   1   2
BRANCH   1  26
ATOM     26  C   UNL A   1      40.913  21.329  26.999  1.00  0.00     0.002 C 
BRANCH  26  27
ATOM     27  C   UNL A   1      41.227  19.929  26.462  1.00  0.00     0.021 C 
BRANCH  27  28
ATOM     28  C   UNL A   1      42.645  19.461  26.758  1.00  0.00     0.116 C 
BRANCH  28  29
ATOM     29  N   UNL A   1      43.361  19.137  25.535  1.00  0.00    -0.352 N 
ATOM     30  C   UNL A   1      44.013  19.979  24.677  1.00  0.00     0.251 C 
ATOM     31  H   UNL A   1      43.379  18.183  25.292  1.00  0.00     0.163 HD
ATOM     32  O   UNL A   1      44.349  19.582  23.561  1.00  0.00    -0.269 OA
BRANCH  30  33
ATOM     33  C   UNL A   1      44.304  21.361  25.099  1.00  0.00     0.039 A 
ATOM     34  C   UNL A   1      43.794  22.421  24.348  1.00  0.00     0.014 A 
ATOM     35  C   UNL A   1      45.088  21.606  26.230  1.00  0.00     0.014 A 
ATOM     36  C   UNL A   1      44.051  23.732  24.750  1.00  0.00     0.010 A 
ATOM     37  C   UNL A   1      45.273  22.909  26.675  1.00  0.00     0.010 A 
ATOM     38  C   UNL A   1      44.777  23.986  25.925  1.00  0.00    -0.014 A 
BRANCH  38  39
ATOM     39  C   UNL A   1      45.066  25.373  26.363  1.00  0.00     0.031 A 
ATOM     40  C   UNL A   1      46.464  25.918  26.251  1.00  0.00     0.074 A 
ATOM     41  C   UNL A   1      44.083  26.124  26.899  1.00  0.00     0.049 A 
ATOM     42  N   UNL A   1      46.924  27.089  26.612  1.00  0.00    -0.248 NA
ATOM     43  C   UNL A   1      47.487  25.023  25.684  1.00  0.00     0.031 C 
ATOM     44  C   UNL A   1      42.696  25.693  27.094  1.00  0.00     0.029 A 
ATOM     45  N   UNL A   1      44.101  27.409  27.378  1.00  0.00    -0.354 N 
ATOM     46  C   UNL A   1      48.286  27.062  26.334  1.00  0.00     0.074 A 
ATOM     47  C   UNL A   1      48.589  25.741  25.828  1.00  0.00     0.031 C 
ATOM     48  C   UNL A   1      41.993  26.705  27.624  1.00  0.00     0.029 A 
ATOM     49  C   UNL A   1      42.882  27.841  27.843  1.00  0.00     0.049 A 
ATOM     50  H   UNL A   1      44.911  27.968  27.389  1.00  0.00     0.167 HD
ATOM     51  C   UNL A   1      49.199  28.053  26.465  1.00  0.00     0.031 A 
ATOM     52  C   UNL A   1      42.521  29.019  28.388  1.00  0.00     0.031 A 
ATOM     53  C   UNL A   1      48.888  29.369  26.957  1.00  0.00     0.049 A 
ATOM     54  C   UNL A   1      43.553  30.106  28.525  1.00  0.00     0.074 A 
ATOM     55  C   UNL A   1      49.727  30.461  27.082  1.00  0.00     0.029 A 
ATOM     56  N   UNL A   1      47.638  29.771  27.404  1.00  0.00    -0.354 N 
ATOM     57  N   UNL A   1      44.825  30.081  28.201  1.00  0.00    -0.248 NA
ATOM     58  C   UNL A   1      43.097  31.385  29.084  1.00  0.00     0.031 C 
ATOM     59  C   UNL A   1      49.000  31.507  27.656  1.00  0.00     0.029 A 
ATOM     60  C   UNL A   1      47.689  31.090  27.823  1.00  0.00     0.049 A 
ATOM     61  H   UNL A   1      46.835  29.203  27.421  1.00  0.00     0.167 HD
ATOM     62  C   UNL A   1      45.311  31.354  28.482  1.00  0.00     0.074 A 
ATOM     63  C   UNL A   1      44.194  32.124  28.989  1.00  0.00     0.031 C 
ATOM     64  C   UNL A   1      46.566  31.843  28.325  1.00  0.00     0.031 A 
BRANCH  51  65
ATOM     65  C   UNL A   1      50.623  27.747  26.077  1.00  0.00    -0.014 A 
ATOM     66  C   UNL A   1      51.215  28.340  24.946  1.00  0.00     0.010 A 
ATOM     67  C   UNL A   1      51.393  26.881  26.874  1.00  0.00     0.010 A 
ATOM     68  C   UNL A   1      52.534  28.039  24.595  1.00  0.00     0.020 A 
ATOM     69  C   UNL A   1      52.723  26.602  26.546  1.00  0.00     0.020 A 
ATOM     70  C   UNL A   1      53.279  27.170  25.397  1.00  0.00     0.054 A 
BRANCH  70  71
ATOM     71  S   UNL A   1      54.995  26.815  24.931  1.00  0.00     0.124 S 
ATOM     72  O   UNL A   1      55.333  25.721  25.836  1.00  0.00    -0.237 OA
ATOM     73  O   UNL A   1      54.875  26.451  23.522  1.00  0.00    -0.237 OA
ATOM     74  O   UNL A   1      55.693  28.074  25.189  1.00  0.00    -0.744 OA
ENDBRANCH  70  71
ENDBRANCH  51  65
BRANCH  52  75
ATOM     75  C   UNL A   1      41.114  29.238  28.822  1.00  0.00    -0.014 A 
ATOM     76  C   UNL A   1      40.134  29.646  27.900  1.00  0.00     0.010 A 
ATOM     77  C   UNL A   1      40.743  29.028  30.163  1.00  0.00     0.010 A 
ATOM     78  C   UNL A   1      38.817  29.863  28.314  1.00  0.00     0.020 A 
ATOM     79  C   UNL A   1      39.421  29.213  30.574  1.00  0.00     0.020 A 
ATOM     80  C   UNL A   1      38.468  29.642  29.648  1.00  0.00     0.054 A 
BRANCH  80  81
ATOM     81  S   UNL A   1      36.742  29.884  30.154  1.00  0.00     0.124 S 
ATOM     82  O   UNL A   1      36.691  29.159  31.419  1.00  0.00    -0.237 OA
ATOM     83  O   UNL A   1      36.645  31.338  30.252  1.00  0.00    -0.237 OA
ATOM     84  O   UNL A   1      35.979  29.290  29.059  1.00  0.00    -0.744 OA
ENDBRANCH  80  81
ENDBRANCH  52  75
BRANCH  64  85
ATOM     85  C   UNL A   1      46.790  33.296  28.652  1.00  0.00    -0.014 A 
ATOM     86  C   UNL A   1      47.122  33.718  29.952  1.00  0.00     0.010 A 
ATOM     87  C   UNL A   1      46.710  34.253  27.622  1.00  0.00     0.010 A 
ATOM     88  C   UNL A   1      47.326  35.074  30.222  1.00  0.00     0.020 A 
ATOM     89  C   UNL A   1      46.945  35.603  27.881  1.00  0.00     0.020 A 
ATOM     90  C   UNL A   1      47.234  36.008  29.186  1.00  0.00     0.054 A 
BRANCH  90  91
ATOM     91  S   UNL A   1      47.530  37.758  29.558  1.00  0.00     0.124 S 
ATOM     92  O   UNL A   1      46.237  38.358  29.239  1.00  0.00    -0.237 OA
ATOM     93  O   UNL A   1      47.877  37.729  30.976  1.00  0.00    -0.237 OA
ATOM     94  O   UNL A   1      48.624  38.123  28.661  1.00  0.00    -0.744 OA
ENDBRANCH  90  91
ENDBRANCH  64  85
ENDBRANCH  38  39
ENDBRANCH  30  33
ENDBRANCH  28  29
ENDBRANCH  27  28
ENDBRANCH  26  27
ENDBRANCH   1  26
TORSDOF 20
ENDMDL
MODEL 3
REMARK VINA RESULT:      -9.7      3.916     10.481
REMARK SMILES COc1ccc(NC(C)(C)C2=N[C@@H](C(=O)NCCCCCCNC(=O)c3ccc(-c4c5nc(c(-c6ccc(S(=O)(=O)[O-])cc6)c6ccc([nH]6)c(-c6ccc(S(=O)(=O)[O-])cc6)c6nc(c(-c7ccc(S(=O)(=O)[O-])cc7)c7ccc4[nH]7)C=C6)C=C5)cc3)CS2)cc1
REMARK SMILES IDX 19 1 18 2 17 3 16 4 14 5 15 6 13 8 11 9 12 10 87 11 86 12
REMARK SMILES IDX 8 13 9 14 10 15 7 16 6 18 3 19 4 20 89 21 5 22 88 23 2 24
REMARK SMILES IDX 1 25 20 26 21 27 22 28 23 29 24 30 25 32 26 33 27 34 85 35
REMARK SMILES IDX 28 36 84 37 29 38 30 39 31 40 78 41 32 42 83 43 77 44 79 45
REMARK SMILES IDX 33 46 82 47 76 48 75 49 34 51 64 52 45 53 63 54 46 55 49 56
REMARK SMILES IDX 62 57 80 58 47 59 48 60 61 62 81 63 50 64 35 65 36 66 44 67
REMARK SMILES IDX 37 68 43 69 38 70 39 71 40 72 41 73 42 74 65 75 66 76 74 77
REMARK SMILES IDX 67 78 73 79 68 80 69 81 70 82 71 83 72 84 51 85 52 86 60 87
REMARK SMILES IDX 53 88 59 89 54 90 55 91 56 92 57 93 58 94
REMARK H PARENT 16 7 7 17 23 31 79 50 49 61
REMARK Flexibility Score: inf
ROOT
ATOM      1  C   UNL A   1      42.760  20.027  25.935  1.00  0.00     0.002 C 
ENDROOT
BRANCH   1   2
ATOM      2  C   UNL A   1      44.130  19.345  25.947  1.00  0.00     0.021 C 
BRANCH   2   3
ATOM      3  C   UNL A   1      44.844  19.439  24.604  1.00  0.00     0.116 C 
BRANCH   3   4
ATOM      4  N   UNL A   1      44.333  20.554  23.841  1.00  0.00    -0.354 N 
ATOM      5  C   UNL A   1      44.682  21.869  23.904  1.00  0.00     0.245 C 
ATOM      6  O   UNL A   1      44.005  22.679  23.267  1.00  0.00    -0.273 OA
ATOM      7  H   UNL A   1      43.635  20.333  23.184  1.00  0.00     0.163 HD
BRANCH   5   8
ATOM      8  C   UNL A   1      45.863  22.324  24.758  1.00  0.00     0.205 C 
ATOM      9  C   UNL A   1      46.026  24.016  26.316  1.00  0.00     0.094 C 
ATOM     10  N   UNL A   1      45.364  22.946  26.008  1.00  0.00    -0.266 NA
ATOM     11  S   UNL A   1      47.155  24.628  25.111  1.00  0.00    -0.106 SA
ATOM     12  C   UNL A   1      46.854  23.214  24.025  1.00  0.00     0.113 C 
BRANCH   9  13
ATOM     13  C   UNL A   1      45.899  24.686  27.697  1.00  0.00     0.080 C 
ATOM     14  C   UNL A   1      47.325  24.836  28.277  1.00  0.00     0.042 C 
ATOM     15  C   UNL A   1      45.097  23.835  28.700  1.00  0.00     0.042 C 
BRANCH  13  16
ATOM     16  N   UNL A   1      45.289  26.048  27.666  1.00  0.00    -0.374 N 
ATOM     17  H   UNL A   1      44.339  26.057  27.922  1.00  0.00     0.161 HD
BRANCH  16  18
ATOM     18  C   UNL A   1      45.785  27.296  27.352  1.00  0.00     0.035 A 
ATOM     19  C   UNL A   1      46.871  29.889  26.843  1.00  0.00     0.119 A 
ATOM     20  C   UNL A   1      46.326  29.142  25.821  1.00  0.00     0.048 A 
ATOM     21  C   UNL A   1      46.863  29.372  28.133  1.00  0.00     0.048 A 
ATOM     22  C   UNL A   1      45.791  27.879  26.086  1.00  0.00     0.029 A 
ATOM     23  C   UNL A   1      46.331  28.089  28.375  1.00  0.00     0.029 A 
BRANCH  19  24
ATOM     24  O   UNL A   1      47.299  31.138  26.502  1.00  0.00    -0.497 OA
ATOM     25  C   UNL A   1      46.257  32.101  26.447  1.00  0.00     0.278 C 
ENDBRANCH  19  24
ENDBRANCH  16  18
ENDBRANCH  13  16
ENDBRANCH   9  13
ENDBRANCH   5   8
ENDBRANCH   3   4
ENDBRANCH   2   3
ENDBRANCH   1   2
BRANCH   1  26
ATOM     26  C   UNL A   1      42.042  20.006  27.288  1.00  0.00     0.002 C 
BRANCH  26  27
ATOM     27  C   UNL A   1      40.877  20.994  27.400  1.00  0.00     0.021 C 
BRANCH  27  28
ATOM     28  C   UNL A   1      41.093  22.288  26.627  1.00  0.00     0.116 C 
BRANCH  28  29
ATOM     29  N   UNL A   1      39.906  22.660  25.876  1.00  0.00    -0.352 N 
ATOM     30  C   UNL A   1      39.064  23.720  26.075  1.00  0.00     0.251 C 
ATOM     31  H   UNL A   1      39.677  22.069  25.122  1.00  0.00     0.163 HD
ATOM     32  O   UNL A   1      37.969  23.750  25.515  1.00  0.00    -0.269 OA
BRANCH  30  33
ATOM     33  C   UNL A   1      39.479  24.817  26.967  1.00  0.00     0.039 A 
ATOM     34  C   UNL A   1      40.278  25.841  26.457  1.00  0.00     0.014 A 
ATOM     35  C   UNL A   1      39.086  24.826  28.309  1.00  0.00     0.014 A 
ATOM     36  C   UNL A   1      40.661  26.892  27.290  1.00  0.00     0.010 A 
ATOM     37  C   UNL A   1      39.399  25.914  29.114  1.00  0.00     0.010 A 
ATOM     38  C   UNL A   1      40.211  26.946  28.620  1.00  0.00    -0.014 A 
BRANCH  38  39
ATOM     39  C   UNL A   1      40.615  28.052  29.522  1.00  0.00     0.031 A 
ATOM     40  C   UNL A   1      39.710  29.240  29.702  1.00  0.00     0.074 A 
ATOM     41  C   UNL A   1      41.811  28.005  30.142  1.00  0.00     0.049 A 
ATOM     42  N   UNL A   1      39.900  30.321  30.414  1.00  0.00    -0.248 NA
ATOM     43  C   UNL A   1      38.435  29.228  28.964  1.00  0.00     0.031 C 
ATOM     44  C   UNL A   1      42.791  26.923  30.016  1.00  0.00     0.029 A 
ATOM     45  N   UNL A   1      42.405  28.893  31.002  1.00  0.00    -0.354 N 
ATOM     46  C   UNL A   1      38.784  31.120  30.196  1.00  0.00     0.074 A 
ATOM     47  C   UNL A   1      37.947  30.427  29.241  1.00  0.00     0.031 C 
ATOM     48  C   UNL A   1      43.849  27.197  30.795  1.00  0.00     0.029 A 
ATOM     49  C   UNL A   1      43.644  28.489  31.442  1.00  0.00     0.049 A 
ATOM     50  H   UNL A   1      41.985  29.740  31.278  1.00  0.00     0.167 HD
ATOM     51  C   UNL A   1      38.469  32.311  30.757  1.00  0.00     0.031 A 
ATOM     52  C   UNL A   1      44.517  29.092  32.272  1.00  0.00     0.031 A 
ATOM     53  C   UNL A   1      39.300  32.989  31.717  1.00  0.00     0.049 A 
ATOM     54  C   UNL A   1      44.147  30.417  32.882  1.00  0.00     0.074 A 
ATOM     55  C   UNL A   1      39.052  34.175  32.384  1.00  0.00     0.029 A 
ATOM     56  N   UNL A   1      40.540  32.540  32.147  1.00  0.00    -0.354 N 
ATOM     57  N   UNL A   1      43.058  31.129  32.709  1.00  0.00    -0.248 NA
ATOM     58  C   UNL A   1      45.114  31.010  33.814  1.00  0.00     0.031 C 
ATOM     59  C   UNL A   1      40.165  34.472  33.175  1.00  0.00     0.029 A 
ATOM     60  C   UNL A   1      41.077  33.435  33.056  1.00  0.00     0.049 A 
ATOM     61  H   UNL A   1      40.974  31.708  31.849  1.00  0.00     0.167 HD
ATOM     62  C   UNL A   1      43.194  32.236  33.540  1.00  0.00     0.074 A 
ATOM     63  C   UNL A   1      44.464  32.090  34.223  1.00  0.00     0.031 C 
ATOM     64  C   UNL A   1      42.342  33.274  33.729  1.00  0.00     0.031 A 
BRANCH  51  65
ATOM     65  C   UNL A   1      37.175  32.961  30.339  1.00  0.00    -0.014 A 
ATOM     66  C   UNL A   1      36.044  32.941  31.176  1.00  0.00     0.010 A 
ATOM     67  C   UNL A   1      37.098  33.632  29.105  1.00  0.00     0.010 A 
ATOM     68  C   UNL A   1      34.849  33.539  30.769  1.00  0.00     0.020 A 
ATOM     69  C   UNL A   1      35.915  34.262  28.708  1.00  0.00     0.020 A 
ATOM     70  C   UNL A   1      34.792  34.196  29.536  1.00  0.00     0.054 A 
BRANCH  70  71
ATOM     71  S   UNL A   1      33.235  34.985  29.044  1.00  0.00     0.124 S 
ATOM     72  O   UNL A   1      32.497  35.006  30.304  1.00  0.00    -0.237 OA
ATOM     73  O   UNL A   1      33.677  36.286  28.553  1.00  0.00    -0.237 OA
ATOM     74  O   UNL A   1      32.697  34.086  28.025  1.00  0.00    -0.744 OA
ENDBRANCH  70  71
ENDBRANCH  51  65
BRANCH  52  75
ATOM     75  C   UNL A   1      45.814  28.436  32.591  1.00  0.00    -0.014 A 
ATOM     76  C   UNL A   1      45.917  27.533  33.663  1.00  0.00     0.010 A 
ATOM     77  C   UNL A   1      46.956  28.704  31.813  1.00  0.00     0.010 A 
ATOM     78  C   UNL A   1      47.140  26.928  33.967  1.00  0.00     0.020 A 
ATOM     79  C   UNL A   1      48.173  28.078  32.094  1.00  0.00     0.020 A 
ATOM     80  C   UNL A   1      48.261  27.203  33.178  1.00  0.00     0.054 A 
BRANCH  80  81
ATOM     81  S   UNL A   1      49.827  26.372  33.562  1.00  0.00     0.124 S 
ATOM     82  O   UNL A   1      49.392  25.299  34.450  1.00  0.00    -0.237 OA
ATOM     83  O   UNL A   1      50.291  25.953  32.242  1.00  0.00    -0.237 OA
ATOM     84  O   UNL A   1      50.626  27.421  34.191  1.00  0.00    -0.744 OA
ENDBRANCH  80  81
ENDBRANCH  52  75
BRANCH  64  85
ATOM     85  C   UNL A   1      42.725  34.309  34.754  1.00  0.00    -0.014 A 
ATOM     86  C   UNL A   1      43.361  35.509  34.390  1.00  0.00     0.010 A 
ATOM     87  C   UNL A   1      42.398  34.090  36.106  1.00  0.00     0.010 A 
ATOM     88  C   UNL A   1      43.701  36.450  35.366  1.00  0.00     0.020 A 
ATOM     89  C   UNL A   1      42.706  35.042  37.079  1.00  0.00     0.020 A 
ATOM     90  C   UNL A   1      43.374  36.210  36.704  1.00  0.00     0.054 A 
BRANCH  90  91
ATOM     91  S   UNL A   1      43.802  37.459  37.947  1.00  0.00     0.124 S 
ATOM     92  O   UNL A   1      44.864  36.791  38.694  1.00  0.00    -0.237 OA
ATOM     93  O   UNL A   1      44.226  38.592  37.128  1.00  0.00    -0.237 OA
ATOM     94  O   UNL A   1      42.555  37.660  38.681  1.00  0.00    -0.744 OA
ENDBRANCH  90  91
ENDBRANCH  64  85
ENDBRANCH  38  39
ENDBRANCH  30  33
ENDBRANCH  28  29
ENDBRANCH  27  28
ENDBRANCH  26  27
ENDBRANCH   1  26
TORSDOF 20
ENDMDL
