MODEL 1
REMARK VINA RESULT:     -12.2      0.000      0.000
REMARK SMILES Cc1cc(=O)n2nc(C)c(C(=O)NCCCCCCNC(=O)c3ccc(-c4c5nc(c(-c6ccc(S(=O)(=O)[O-])cc6)c6ccc([nH]6)c(-c6ccc(S(=O)(=O)[O-])cc6)c6nc(c(-c7ccc(S(=O)(=O)[O-])cc7)c7ccc4[nH]7)C=C6)C=C5)cc3)c2[nH]1
REMARK SMILES IDX 18 1 17 2 16 3 15 4 14 5 13 6 11 7 12 8 10 10 1 11 2 12 3 13
REMARK SMILES IDX 84 14 4 15 83 16 5 18 6 19 7 20 8 21 9 22 19 23 20 24 21 25
REMARK SMILES IDX 22 27 23 28 24 29 82 30 25 31 81 32 26 33 27 34 28 35 75 36
REMARK SMILES IDX 29 37 80 38 74 39 76 40 30 41 79 42 73 43 72 44 31 46 61 47
REMARK SMILES IDX 42 48 60 49 43 50 46 51 59 52 77 53 44 54 45 55 58 57 78 58
REMARK SMILES IDX 47 59 32 60 33 61 41 62 34 63 40 64 35 65 36 66 37 67 38 68
REMARK SMILES IDX 39 69 62 70 63 71 71 72 64 73 70 74 65 75 66 76 67 77 68 78
REMARK SMILES IDX 69 79 48 80 49 81 57 82 50 83 56 84 51 85 52 86 53 87 54 88
REMARK SMILES IDX 55 89
REMARK H PARENT 13 9 84 17 20 26 76 45 46 56
REMARK Flexibility Score: inf
ROOT
ATOM      1  C   UNL A   1      38.295  21.471  25.411  1.00  0.00     0.021 C 
ENDROOT
BRANCH   1   2
ATOM      2  C   UNL A   1      37.839  22.870  24.968  1.00  0.00     0.002 C 
BRANCH   2   3
ATOM      3  C   UNL A   1      36.347  23.008  24.623  1.00  0.00     0.002 C 
BRANCH   3   4
ATOM      4  C   UNL A   1      35.624  24.177  25.301  1.00  0.00     0.021 C 
BRANCH   4   5
ATOM      5  C   UNL A   1      34.153  23.889  25.591  1.00  0.00     0.116 C 
BRANCH   5   6
ATOM      6  N   UNL A   1      33.990  22.709  26.390  1.00  0.00    -0.352 N 
ATOM      7  C   UNL A   1      33.551  21.443  26.135  1.00  0.00     0.256 C 
ATOM      8  O   UNL A   1      33.663  20.682  27.107  1.00  0.00    -0.269 OA
ATOM      9  H   UNL A   1      34.252  22.843  27.330  1.00  0.00     0.163 HD
BRANCH   7  10
ATOM     10  C   UNL A   1      33.018  20.940  24.864  1.00  0.00     0.105 A 
ATOM     11  C   UNL A   1      34.527  16.223  25.460  1.00  0.00     0.064 C 
ATOM     12  C   UNL A   1      33.837  17.290  24.660  1.00  0.00     0.019 A 
ATOM     13  C   UNL A   1      33.292  17.017  23.461  1.00  0.00     0.095 A 
ATOM     14  N   UNL A   1      33.799  18.565  25.193  1.00  0.00    -0.343 N 
ATOM     15  C   UNL A   1      32.623  18.098  22.683  1.00  0.00     0.274 A 
ATOM     16  C   UNL A   1      33.202  19.599  24.545  1.00  0.00     0.150 A 
ATOM     17  H   UNL A   1      34.216  18.729  26.069  1.00  0.00     0.168 HD
ATOM     18  O   UNL A   1      32.124  17.923  21.584  1.00  0.00    -0.267 OA
ATOM     19  N   UNL A   1      32.634  19.349  23.325  1.00  0.00    -0.179 N 
ATOM     20  N   UNL A   1      32.093  20.456  22.792  1.00  0.00    -0.168 NA
ATOM     21  C   UNL A   1      32.271  21.410  23.721  1.00  0.00     0.075 A 
ATOM     22  C   UNL A   1      31.658  22.717  23.360  1.00  0.00     0.070 C 
ENDBRANCH   7  10
ENDBRANCH   5   6
ENDBRANCH   4   5
ENDBRANCH   3   4
ENDBRANCH   2   3
ENDBRANCH   1   2
BRANCH   1  23
ATOM     23  C   UNL A   1      39.345  21.516  26.509  1.00  0.00     0.116 C 
BRANCH  23  24
ATOM     24  N   UNL A   1      40.689  21.376  25.958  1.00  0.00    -0.352 N 
ATOM     25  C   UNL A   1      41.680  22.325  25.861  1.00  0.00     0.251 C 
ATOM     26  H   UNL A   1      40.918  20.484  25.609  1.00  0.00     0.163 HD
ATOM     27  O   UNL A   1      42.627  22.159  25.103  1.00  0.00    -0.269 OA
BRANCH  25  28
ATOM     28  C   UNL A   1      41.575  23.541  26.680  1.00  0.00     0.039 A 
ATOM     29  C   UNL A   1      42.193  23.605  27.932  1.00  0.00     0.014 A 
ATOM     30  C   UNL A   1      40.859  24.625  26.175  1.00  0.00     0.014 A 
ATOM     31  C   UNL A   1      42.140  24.797  28.645  1.00  0.00     0.010 A 
ATOM     32  C   UNL A   1      40.905  25.834  26.824  1.00  0.00     0.010 A 
ATOM     33  C   UNL A   1      41.507  25.911  28.077  1.00  0.00    -0.014 A 
BRANCH  33  34
ATOM     34  C   UNL A   1      41.547  27.202  28.748  1.00  0.00     0.031 A 
ATOM     35  C   UNL A   1      42.741  28.040  28.446  1.00  0.00     0.074 A 
ATOM     36  C   UNL A   1      40.480  27.705  29.401  1.00  0.00     0.049 A 
ATOM     37  N   UNL A   1      43.664  28.429  29.260  1.00  0.00    -0.248 NA
ATOM     38  C   UNL A   1      43.000  28.398  27.041  1.00  0.00     0.031 C 
ATOM     39  C   UNL A   1      39.128  27.142  29.503  1.00  0.00     0.029 A 
ATOM     40  N   UNL A   1      40.349  28.915  30.003  1.00  0.00    -0.354 N 
ATOM     41  C   UNL A   1      44.524  29.237  28.521  1.00  0.00     0.074 A 
ATOM     42  C   UNL A   1      44.159  29.052  27.138  1.00  0.00     0.031 C 
ATOM     43  C   UNL A   1      38.271  28.107  29.900  1.00  0.00     0.029 A 
ATOM     44  C   UNL A   1      39.035  29.294  30.240  1.00  0.00     0.049 A 
ATOM     45  H   UNL A   1      41.119  29.475  30.250  1.00  0.00     0.167 HD
ATOM     46  C   UNL A   1      45.336  30.159  29.113  1.00  0.00     0.031 A 
ATOM     47  C   UNL A   1      38.601  30.516  30.639  1.00  0.00     0.031 A 
ATOM     48  C   UNL A   1      45.410  29.964  30.538  1.00  0.00     0.049 A 
ATOM     49  C   UNL A   1      39.762  31.195  31.269  1.00  0.00     0.074 A 
ATOM     50  C   UNL A   1      45.846  28.941  31.353  1.00  0.00     0.029 A 
ATOM     51  N   UNL A   1      44.606  30.759  31.323  1.00  0.00    -0.354 N 
ATOM     52  N   UNL A   1      40.341  30.757  32.355  1.00  0.00    -0.248 NA
ATOM     53  C   UNL A   1      40.580  32.070  30.442  1.00  0.00     0.031 C 
ATOM     54  C   UNL A   1      44.900  28.898  32.418  1.00  0.00     0.029 A 
ATOM     55  C   UNL A   1      43.987  29.939  32.231  1.00  0.00     0.049 A 
ATOM     56  H   UNL A   1      44.495  31.735  31.246  1.00  0.00     0.167 HD
ATOM     57  C   UNL A   1      41.701  30.940  32.137  1.00  0.00     0.074 A 
ATOM     58  C   UNL A   1      41.778  31.841  30.988  1.00  0.00     0.031 C 
ATOM     59  C   UNL A   1      42.635  30.129  32.722  1.00  0.00     0.031 A 
BRANCH  46  60
ATOM     60  C   UNL A   1      45.772  31.451  28.468  1.00  0.00    -0.014 A 
ATOM     61  C   UNL A   1      44.794  32.415  28.141  1.00  0.00     0.010 A 
ATOM     62  C   UNL A   1      47.058  31.640  27.926  1.00  0.00     0.010 A 
ATOM     63  C   UNL A   1      45.072  33.467  27.258  1.00  0.00     0.020 A 
ATOM     64  C   UNL A   1      47.360  32.710  27.080  1.00  0.00     0.020 A 
ATOM     65  C   UNL A   1      46.353  33.597  26.721  1.00  0.00     0.054 A 
BRANCH  65  66
ATOM     66  S   UNL A   1      46.671  34.883  25.488  1.00  0.00     0.124 S 
ATOM     67  O   UNL A   1      48.042  34.581  25.086  1.00  0.00    -0.237 OA
ATOM     68  O   UNL A   1      45.642  34.612  24.488  1.00  0.00    -0.237 OA
ATOM     69  O   UNL A   1      46.496  36.125  26.237  1.00  0.00    -0.744 OA
ENDBRANCH  65  66
ENDBRANCH  46  60
BRANCH  47  70
ATOM     70  C   UNL A   1      37.362  31.206  30.196  1.00  0.00    -0.014 A 
ATOM     71  C   UNL A   1      36.337  31.543  31.098  1.00  0.00     0.010 A 
ATOM     72  C   UNL A   1      37.292  31.758  28.898  1.00  0.00     0.010 A 
ATOM     73  C   UNL A   1      35.304  32.427  30.725  1.00  0.00     0.020 A 
ATOM     74  C   UNL A   1      36.267  32.631  28.516  1.00  0.00     0.020 A 
ATOM     75  C   UNL A   1      35.286  32.978  29.440  1.00  0.00     0.054 A 
BRANCH  75  76
ATOM     76  S   UNL A   1      34.031  34.221  29.008  1.00  0.00     0.124 S 
ATOM     77  O   UNL A   1      33.405  34.494  30.298  1.00  0.00    -0.237 OA
ATOM     78  O   UNL A   1      34.838  35.304  28.454  1.00  0.00    -0.237 OA
ATOM     79  O   UNL A   1      33.179  33.530  28.041  1.00  0.00    -0.744 OA
ENDBRANCH  75  76
ENDBRANCH  47  70
BRANCH  59  80
ATOM     80  C   UNL A   1      42.189  29.152  33.791  1.00  0.00    -0.014 A 
ATOM     81  C   UNL A   1      41.782  27.832  33.510  1.00  0.00     0.010 A 
ATOM     82  C   UNL A   1      42.412  29.509  35.133  1.00  0.00     0.010 A 
ATOM     83  C   UNL A   1      41.612  26.896  34.543  1.00  0.00     0.020 A 
ATOM     84  C   UNL A   1      42.261  28.578  36.165  1.00  0.00     0.020 A 
ATOM     85  C   UNL A   1      41.864  27.273  35.865  1.00  0.00     0.054 A 
BRANCH  85  86
ATOM     86  S   UNL A   1      41.745  26.033  37.187  1.00  0.00     0.124 S 
ATOM     87  O   UNL A   1      41.972  24.781  36.471  1.00  0.00    -0.237 OA
ATOM     88  O   UNL A   1      42.808  26.433  38.105  1.00  0.00    -0.237 OA
ATOM     89  O   UNL A   1      40.390  26.209  37.708  1.00  0.00    -0.744 OA
ENDBRANCH  85  86
ENDBRANCH  59  80
ENDBRANCH  33  34
ENDBRANCH  25  28
ENDBRANCH  23  24
ENDBRANCH   1  23
TORSDOF 16
ENDMDL
MODEL 2
REMARK VINA RESULT:     -11.9      1.869      3.146
REMARK SMILES Cc1cc(=O)n2nc(C)c(C(=O)NCCCCCCNC(=O)c3ccc(-c4c5nc(c(-c6ccc(S(=O)(=O)[O-])cc6)c6ccc([nH]6)c(-c6ccc(S(=O)(=O)[O-])cc6)c6nc(c(-c7ccc(S(=O)(=O)[O-])cc7)c7ccc4[nH]7)C=C6)C=C5)cc3)c2[nH]1
REMARK SMILES IDX 18 1 17 2 16 3 15 4 14 5 13 6 11 7 12 8 10 10 1 11 2 12 3 13
REMARK SMILES IDX 84 14 4 15 83 16 5 18 6 19 7 20 8 21 9 22 19 23 20 24 21 25
REMARK SMILES IDX 22 27 23 28 24 29 82 30 25 31 81 32 26 33 27 34 28 35 75 36
REMARK SMILES IDX 29 37 80 38 74 39 76 40 30 41 79 42 73 43 72 44 31 46 61 47
REMARK SMILES IDX 42 48 60 49 43 50 46 51 59 52 77 53 44 54 45 55 58 57 78 58
REMARK SMILES IDX 47 59 32 60 33 61 41 62 34 63 40 64 35 65 36 66 37 67 38 68
REMARK SMILES IDX 39 69 62 70 63 71 71 72 64 73 70 74 65 75 66 76 67 77 68 78
REMARK SMILES IDX 69 79 48 80 49 81 57 82 50 83 56 84 51 85 52 86 53 87 54 88
REMARK SMILES IDX 55 89
REMARK H PARENT 13 9 84 17 20 26 76 45 46 56
REMARK Flexibility Score: inf
ROOT
ATOM      1  C   UNL A   1      37.779  22.463  25.281  1.00  0.00     0.021 C 
ENDROOT
BRANCH   1   2
ATOM      2  C   UNL A   1      37.336  21.007  25.072  1.00  0.00     0.002 C 
BRANCH   2   3
ATOM      3  C   UNL A   1      35.842  20.723  25.307  1.00  0.00     0.002 C 
BRANCH   3   4
ATOM      4  C   UNL A   1      35.156  21.638  26.328  1.00  0.00     0.021 C 
BRANCH   4   5
ATOM      5  C   UNL A   1      33.824  21.087  26.830  1.00  0.00     0.116 C 
BRANCH   5   6
ATOM      6  N   UNL A   1      32.927  22.135  27.220  1.00  0.00    -0.352 N 
ATOM      7  C   UNL A   1      32.356  23.187  26.567  1.00  0.00     0.256 C 
ATOM      8  O   UNL A   1      31.544  23.813  27.265  1.00  0.00    -0.269 OA
ATOM      9  H   UNL A   1      32.667  22.085  28.168  1.00  0.00     0.163 HD
BRANCH   7  10
ATOM     10  C   UNL A   1      32.595  23.589  25.176  1.00  0.00     0.105 A 
ATOM     11  C   UNL A   1      33.914  28.294  26.179  1.00  0.00     0.064 C 
ATOM     12  C   UNL A   1      33.667  27.179  25.205  1.00  0.00     0.019 A 
ATOM     13  C   UNL A   1      33.827  27.363  23.882  1.00  0.00     0.095 A 
ATOM     14  N   UNL A   1      33.252  25.963  25.715  1.00  0.00    -0.343 N 
ATOM     15  C   UNL A   1      33.563  26.242  22.936  1.00  0.00     0.274 A 
ATOM     16  C   UNL A   1      32.999  24.894  24.917  1.00  0.00     0.150 A 
ATOM     17  H   UNL A   1      33.138  25.869  26.688  1.00  0.00     0.168 HD
ATOM     18  O   UNL A   1      33.671  26.345  21.726  1.00  0.00    -0.267 OA
ATOM     19  N   UNL A   1      33.159  25.052  23.566  1.00  0.00    -0.179 N 
ATOM     20  N   UNL A   1      32.863  23.926  22.896  1.00  0.00    -0.168 NA
ATOM     21  C   UNL A   1      32.570  23.023  23.847  1.00  0.00     0.075 A 
ATOM     22  C   UNL A   1      32.293  21.663  23.314  1.00  0.00     0.070 C 
ENDBRANCH   7  10
ENDBRANCH   5   6
ENDBRANCH   4   5
ENDBRANCH   3   4
ENDBRANCH   2   3
ENDBRANCH   1   2
BRANCH   1  23
ATOM     23  C   UNL A   1      38.755  22.620  26.435  1.00  0.00     0.116 C 
BRANCH  23  24
ATOM     24  N   UNL A   1      40.062  22.062  26.099  1.00  0.00    -0.352 N 
ATOM     25  C   UNL A   1      41.269  22.711  25.990  1.00  0.00     0.251 C 
ATOM     26  H   UNL A   1      40.082  21.093  25.927  1.00  0.00     0.163 HD
ATOM     27  O   UNL A   1      42.206  22.186  25.402  1.00  0.00    -0.269 OA
BRANCH  25  28
ATOM     28  C   UNL A   1      41.409  24.047  26.590  1.00  0.00     0.039 A 
ATOM     29  C   UNL A   1      40.911  25.173  25.930  1.00  0.00     0.014 A 
ATOM     30  C   UNL A   1      42.036  24.157  27.830  1.00  0.00     0.014 A 
ATOM     31  C   UNL A   1      40.991  26.409  26.561  1.00  0.00     0.010 A 
ATOM     32  C   UNL A   1      42.009  25.355  28.501  1.00  0.00     0.010 A 
ATOM     33  C   UNL A   1      41.528  26.489  27.853  1.00  0.00    -0.014 A 
BRANCH  33  34
ATOM     34  C   UNL A   1      41.506  27.747  28.583  1.00  0.00     0.031 A 
ATOM     35  C   UNL A   1      42.657  28.656  28.321  1.00  0.00     0.074 A 
ATOM     36  C   UNL A   1      40.416  28.167  29.257  1.00  0.00     0.049 A 
ATOM     37  N   UNL A   1      43.561  29.052  29.154  1.00  0.00    -0.248 NA
ATOM     38  C   UNL A   1      42.897  29.090  26.935  1.00  0.00     0.031 C 
ATOM     39  C   UNL A   1      39.094  27.534  29.332  1.00  0.00     0.029 A 
ATOM     40  N   UNL A   1      40.226  29.340  29.914  1.00  0.00    -0.354 N 
ATOM     41  C   UNL A   1      44.379  29.934  28.454  1.00  0.00     0.074 A 
ATOM     42  C   UNL A   1      44.023  29.795  27.064  1.00  0.00     0.031 C 
ATOM     43  C   UNL A   1      38.190  28.437  29.771  1.00  0.00     0.029 A 
ATOM     44  C   UNL A   1      38.895  29.643  30.166  1.00  0.00     0.049 A 
ATOM     45  H   UNL A   1      40.968  29.925  30.188  1.00  0.00     0.167 HD
ATOM     46  C   UNL A   1      45.145  30.866  29.089  1.00  0.00     0.031 A 
ATOM     47  C   UNL A   1      38.403  30.822  30.621  1.00  0.00     0.031 A 
ATOM     48  C   UNL A   1      45.230  30.610  30.504  1.00  0.00     0.049 A 
ATOM     49  C   UNL A   1      39.530  31.528  31.283  1.00  0.00     0.074 A 
ATOM     50  C   UNL A   1      45.716  29.573  31.272  1.00  0.00     0.029 A 
ATOM     51  N   UNL A   1      44.389  31.328  31.323  1.00  0.00    -0.354 N 
ATOM     52  N   UNL A   1      40.130  31.069  32.348  1.00  0.00    -0.248 NA
ATOM     53  C   UNL A   1      40.302  32.479  30.498  1.00  0.00     0.031 C 
ATOM     54  C   UNL A   1      44.774  29.434  32.332  1.00  0.00     0.029 A 
ATOM     55  C   UNL A   1      43.811  30.437  32.192  1.00  0.00     0.049 A 
ATOM     56  H   UNL A   1      44.230  32.299  31.292  1.00  0.00     0.167 HD
ATOM     57  C   UNL A   1      41.480  31.328  32.141  1.00  0.00     0.074 A 
ATOM     58  C   UNL A   1      41.511  32.284  31.034  1.00  0.00     0.031 C 
ATOM     59  C   UNL A   1      42.452  30.537  32.689  1.00  0.00     0.031 A 
BRANCH  46  60
ATOM     60  C   UNL A   1      45.517  32.207  28.505  1.00  0.00    -0.014 A 
ATOM     61  C   UNL A   1      46.869  32.611  28.531  1.00  0.00     0.010 A 
ATOM     62  C   UNL A   1      44.563  33.191  28.181  1.00  0.00     0.010 A 
ATOM     63  C   UNL A   1      47.235  33.947  28.319  1.00  0.00     0.020 A 
ATOM     64  C   UNL A   1      44.921  34.517  27.924  1.00  0.00     0.020 A 
ATOM     65  C   UNL A   1      46.253  34.895  28.032  1.00  0.00     0.054 A 
BRANCH  65  66
ATOM     66  S   UNL A   1      46.719  36.637  27.881  1.00  0.00     0.124 S 
ATOM     67  O   UNL A   1      45.691  37.146  26.978  1.00  0.00    -0.237 OA
ATOM     68  O   UNL A   1      46.634  37.099  29.264  1.00  0.00    -0.237 OA
ATOM     69  O   UNL A   1      48.069  36.583  27.327  1.00  0.00    -0.744 OA
ENDBRANCH  65  66
ENDBRANCH  46  60
BRANCH  47  70
ATOM     70  C   UNL A   1      37.131  31.471  30.208  1.00  0.00    -0.014 A 
ATOM     71  C   UNL A   1      36.259  32.057  31.143  1.00  0.00     0.010 A 
ATOM     72  C   UNL A   1      36.885  31.728  28.841  1.00  0.00     0.010 A 
ATOM     73  C   UNL A   1      35.207  32.897  30.726  1.00  0.00     0.020 A 
ATOM     74  C   UNL A   1      35.839  32.555  28.418  1.00  0.00     0.020 A 
ATOM     75  C   UNL A   1      35.014  33.153  29.365  1.00  0.00     0.054 A 
BRANCH  75  76
ATOM     76  S   UNL A   1      33.744  34.343  28.841  1.00  0.00     0.124 S 
ATOM     77  O   UNL A   1      34.544  35.428  28.282  1.00  0.00    -0.237 OA
ATOM     78  O   UNL A   1      32.965  33.570  27.879  1.00  0.00    -0.237 OA
ATOM     79  O   UNL A   1      33.043  34.669  30.082  1.00  0.00    -0.744 OA
ENDBRANCH  75  76
ENDBRANCH  47  70
BRANCH  59  80
ATOM     80  C   UNL A   1      42.056  29.492  33.712  1.00  0.00    -0.014 A 
ATOM     81  C   UNL A   1      41.689  28.175  33.367  1.00  0.00     0.010 A 
ATOM     82  C   UNL A   1      42.287  29.786  35.067  1.00  0.00     0.010 A 
ATOM     83  C   UNL A   1      41.566  27.181  34.352  1.00  0.00     0.020 A 
ATOM     84  C   UNL A   1      42.183  28.798  36.051  1.00  0.00     0.020 A 
ATOM     85  C   UNL A   1      41.826  27.498  35.688  1.00  0.00     0.054 A 
BRANCH  85  86
ATOM     86  S   UNL A   1      41.768  26.188  36.945  1.00  0.00     0.124 S 
ATOM     87  O   UNL A   1      42.037  24.984  36.163  1.00  0.00    -0.237 OA
ATOM     88  O   UNL A   1      42.823  26.582  37.875  1.00  0.00    -0.237 OA
ATOM     89  O   UNL A   1      40.412  26.282  37.485  1.00  0.00    -0.744 OA
ENDBRANCH  85  86
ENDBRANCH  59  80
ENDBRANCH  33  34
ENDBRANCH  25  28
ENDBRANCH  23  24
ENDBRANCH   1  23
TORSDOF 16
ENDMDL
MODEL 3
REMARK VINA RESULT:     -11.9      1.761      3.420
REMARK SMILES Cc1cc(=O)n2nc(C)c(C(=O)NCCCCCCNC(=O)c3ccc(-c4c5nc(c(-c6ccc(S(=O)(=O)[O-])cc6)c6ccc([nH]6)c(-c6ccc(S(=O)(=O)[O-])cc6)c6nc(c(-c7ccc(S(=O)(=O)[O-])cc7)c7ccc4[nH]7)C=C6)C=C5)cc3)c2[nH]1
REMARK SMILES IDX 18 1 17 2 16 3 15 4 14 5 13 6 11 7 12 8 10 10 1 11 2 12 3 13
REMARK SMILES IDX 84 14 4 15 83 16 5 18 6 19 7 20 8 21 9 22 19 23 20 24 21 25
REMARK SMILES IDX 22 27 23 28 24 29 82 30 25 31 81 32 26 33 27 34 28 35 75 36
REMARK SMILES IDX 29 37 80 38 74 39 76 40 30 41 79 42 73 43 72 44 31 46 61 47
REMARK SMILES IDX 42 48 60 49 43 50 46 51 59 52 77 53 44 54 45 55 58 57 78 58
REMARK SMILES IDX 47 59 32 60 33 61 41 62 34 63 40 64 35 65 36 66 37 67 38 68
REMARK SMILES IDX 39 69 62 70 63 71 71 72 64 73 70 74 65 75 66 76 67 77 68 78
REMARK SMILES IDX 69 79 48 80 49 81 57 82 50 83 56 84 51 85 52 86 53 87 54 88
REMARK SMILES IDX 55 89
REMARK H PARENT 13 9 84 17 20 26 76 45 46 56
REMARK Flexibility Score: inf
ROOT
ATOM      1  C   UNL A   1      38.910  21.521  25.760  1.00  0.00     0.021 C 
ENDROOT
BRANCH   1   2
ATOM      2  C   UNL A   1      38.126  22.829  25.952  1.00  0.00     0.002 C 
BRANCH   2   3
ATOM      3  C   UNL A   1      36.783  22.918  25.208  1.00  0.00     0.002 C 
BRANCH   3   4
ATOM      4  C   UNL A   1      35.559  22.469  26.014  1.00  0.00     0.021 C 
BRANCH   4   5
ATOM      5  C   UNL A   1      34.512  21.748  25.167  1.00  0.00     0.116 C 
BRANCH   5   6
ATOM      6  N   UNL A   1      34.055  22.563  24.079  1.00  0.00    -0.352 N 
ATOM      7  C   UNL A   1      33.272  23.675  23.990  1.00  0.00     0.256 C 
ATOM      8  O   UNL A   1      33.202  24.133  22.840  1.00  0.00    -0.269 OA
ATOM      9  H   UNL A   1      34.378  22.249  23.203  1.00  0.00     0.163 HD
BRANCH   7  10
ATOM     10  C   UNL A   1      32.574  24.346  25.093  1.00  0.00     0.105 A 
ATOM     11  C   UNL A   1      33.560  29.008  23.615  1.00  0.00     0.064 C 
ATOM     12  C   UNL A   1      32.934  28.040  24.577  1.00  0.00     0.019 A 
ATOM     13  C   UNL A   1      32.258  28.472  25.657  1.00  0.00     0.095 A 
ATOM     14  N   UNL A   1      33.094  26.691  24.322  1.00  0.00    -0.343 N 
ATOM     15  C   UNL A   1      31.657  27.489  26.603  1.00  0.00     0.274 A 
ATOM     16  C   UNL A   1      32.570  25.736  25.134  1.00  0.00     0.150 A 
ATOM     17  H   UNL A   1      33.602  26.412  23.527  1.00  0.00     0.168 HD
ATOM     18  O   UNL A   1      31.048  27.811  27.608  1.00  0.00    -0.267 OA
ATOM     19  N   UNL A   1      31.871  26.147  26.238  1.00  0.00    -0.179 N 
ATOM     20  N   UNL A   1      31.422  25.107  26.957  1.00  0.00    -0.168 NA
ATOM     21  C   UNL A   1      31.791  24.019  26.261  1.00  0.00     0.075 A 
ATOM     22  C   UNL A   1      31.308  22.741  26.850  1.00  0.00     0.070 C 
ENDBRANCH   7  10
ENDBRANCH   5   6
ENDBRANCH   4   5
ENDBRANCH   3   4
ENDBRANCH   2   3
ENDBRANCH   1   2
BRANCH   1  23
ATOM     23  C   UNL A   1      40.118  21.422  26.677  1.00  0.00     0.116 C 
BRANCH  23  24
ATOM     24  N   UNL A   1      41.363  21.514  25.921  1.00  0.00    -0.352 N 
ATOM     25  C   UNL A   1      42.149  22.619  25.694  1.00  0.00     0.251 C 
ATOM     26  H   UNL A   1      41.682  20.674  25.519  1.00  0.00     0.163 HD
ATOM     27  O   UNL A   1      42.979  22.617  24.794  1.00  0.00    -0.269 OA
BRANCH  25  28
ATOM     28  C   UNL A   1      41.968  23.801  26.550  1.00  0.00     0.039 A 
ATOM     29  C   UNL A   1      42.537  23.843  27.826  1.00  0.00     0.014 A 
ATOM     30  C   UNL A   1      41.231  24.875  26.055  1.00  0.00     0.014 A 
ATOM     31  C   UNL A   1      42.414  25.006  28.577  1.00  0.00     0.010 A 
ATOM     32  C   UNL A   1      41.208  26.061  26.747  1.00  0.00     0.010 A 
ATOM     33  C   UNL A   1      41.760  26.116  28.023  1.00  0.00    -0.014 A 
BRANCH  33  34
ATOM     34  C   UNL A   1      41.728  27.383  28.738  1.00  0.00     0.031 A 
ATOM     35  C   UNL A   1      42.901  28.273  28.512  1.00  0.00     0.074 A 
ATOM     36  C   UNL A   1      40.619  27.825  29.366  1.00  0.00     0.049 A 
ATOM     37  N   UNL A   1      43.778  28.665  29.375  1.00  0.00    -0.248 NA
ATOM     38  C   UNL A   1      43.200  28.689  27.132  1.00  0.00     0.031 C 
ATOM     39  C   UNL A   1      39.286  27.211  29.396  1.00  0.00     0.029 A 
ATOM     40  N   UNL A   1      40.421  29.007  30.003  1.00  0.00    -0.354 N 
ATOM     41  C   UNL A   1      44.635  29.529  28.698  1.00  0.00     0.074 A 
ATOM     42  C   UNL A   1      44.330  29.380  27.297  1.00  0.00     0.031 C 
ATOM     43  C   UNL A   1      38.379  28.130  29.791  1.00  0.00     0.029 A 
ATOM     44  C   UNL A   1      39.085  29.331  30.201  1.00  0.00     0.049 A 
ATOM     45  H   UNL A   1      41.160  29.585  30.300  1.00  0.00     0.167 HD
ATOM     46  C   UNL A   1      45.389  30.457  29.353  1.00  0.00     0.031 A 
ATOM     47  C   UNL A   1      38.592  30.521  30.625  1.00  0.00     0.031 A 
ATOM     48  C   UNL A   1      45.416  30.215  30.772  1.00  0.00     0.049 A 
ATOM     49  C   UNL A   1      39.703  31.218  31.322  1.00  0.00     0.074 A 
ATOM     50  C   UNL A   1      45.858  29.179  31.569  1.00  0.00     0.029 A 
ATOM     51  N   UNL A   1      44.554  30.953  31.552  1.00  0.00    -0.354 N 
ATOM     52  N   UNL A   1      40.256  30.763  32.414  1.00  0.00    -0.248 NA
ATOM     53  C   UNL A   1      40.518  32.151  30.558  1.00  0.00     0.031 C 
ATOM     54  C   UNL A   1      44.874  29.065  32.593  1.00  0.00     0.029 A 
ATOM     55  C   UNL A   1      43.931  30.079  32.406  1.00  0.00     0.049 A 
ATOM     56  H   UNL A   1      44.410  31.926  31.504  1.00  0.00     0.167 HD
ATOM     57  C   UNL A   1      41.616  31.001  32.256  1.00  0.00     0.074 A 
ATOM     58  C   UNL A   1      41.703  31.945  31.143  1.00  0.00     0.031 C 
ATOM     59  C   UNL A   1      42.555  30.203  32.850  1.00  0.00     0.031 A 
BRANCH  46  60
ATOM     60  C   UNL A   1      45.802  31.786  28.770  1.00  0.00    -0.014 A 
ATOM     61  C   UNL A   1      44.804  32.737  28.466  1.00  0.00     0.010 A 
ATOM     62  C   UNL A   1      47.091  32.030  28.259  1.00  0.00     0.010 A 
ATOM     63  C   UNL A   1      45.069  33.833  27.633  1.00  0.00     0.020 A 
ATOM     64  C   UNL A   1      47.378  33.142  27.464  1.00  0.00     0.020 A 
ATOM     65  C   UNL A   1      46.355  34.017  27.124  1.00  0.00     0.054 A 
BRANCH  65  66
ATOM     66  S   UNL A   1      46.659  35.361  25.952  1.00  0.00     0.124 S 
ATOM     67  O   UNL A   1      48.104  35.537  26.064  1.00  0.00    -0.237 OA
ATOM     68  O   UNL A   1      46.186  34.788  24.695  1.00  0.00    -0.237 OA
ATOM     69  O   UNL A   1      45.851  36.461  26.474  1.00  0.00    -0.744 OA
ENDBRANCH  65  66
ENDBRANCH  46  60
BRANCH  47  70
ATOM     70  C   UNL A   1      37.346  31.183  30.157  1.00  0.00    -0.014 A 
ATOM     71  C   UNL A   1      36.311  31.527  31.043  1.00  0.00     0.010 A 
ATOM     72  C   UNL A   1      37.277  31.702  28.845  1.00  0.00     0.010 A 
ATOM     73  C   UNL A   1      35.268  32.386  30.642  1.00  0.00     0.020 A 
ATOM     74  C   UNL A   1      36.242  32.550  28.436  1.00  0.00     0.020 A 
ATOM     75  C   UNL A   1      35.250  32.905  29.344  1.00  0.00     0.054 A 
BRANCH  75  76
ATOM     76  S   UNL A   1      33.981  34.119  28.874  1.00  0.00     0.124 S 
ATOM     77  O   UNL A   1      33.156  33.362  27.939  1.00  0.00    -0.237 OA
ATOM     78  O   UNL A   1      33.358  34.436  30.156  1.00  0.00    -0.237 OA
ATOM     79  O   UNL A   1      34.751  35.209  28.277  1.00  0.00    -0.744 OA
ENDBRANCH  75  76
ENDBRANCH  47  70
BRANCH  59  80
ATOM     80  C   UNL A   1      42.106  29.175  33.867  1.00  0.00    -0.014 A 
ATOM     81  C   UNL A   1      41.787  27.843  33.529  1.00  0.00     0.010 A 
ATOM     82  C   UNL A   1      42.235  29.504  35.228  1.00  0.00     0.010 A 
ATOM     83  C   UNL A   1      41.612  26.870  34.527  1.00  0.00     0.020 A 
ATOM     84  C   UNL A   1      42.078  28.537  36.225  1.00  0.00     0.020 A 
ATOM     85  C   UNL A   1      41.770  27.222  35.870  1.00  0.00     0.054 A 
BRANCH  85  86
ATOM     86  S   UNL A   1      41.646  25.940  37.151  1.00  0.00     0.124 S 
ATOM     87  O   UNL A   1      41.861  24.711  36.393  1.00  0.00    -0.237 OA
ATOM     88  O   UNL A   1      42.715  26.302  38.078  1.00  0.00    -0.237 OA
ATOM     89  O   UNL A   1      40.294  26.109  37.683  1.00  0.00    -0.744 OA
ENDBRANCH  85  86
ENDBRANCH  59  80
ENDBRANCH  33  34
ENDBRANCH  25  28
ENDBRANCH  23  24
ENDBRANCH   1  23
TORSDOF 16
ENDMDL
