MODEL 1
REMARK VINA RESULT:     -11.7      0.000      0.000
REMARK SMILES Nc1nccc(N2CCC[C@@](Cc3ccc(F)cc3F)(C(=O)NCCCCCCNC(=O)c3ccc(-c4c5nc(c(-c6ccc(S(=O)(=O)[O-])cc6)c6ccc([nH]6)c(-c6ccc(S(=O)(=O)[O-])cc6)c6nc(c(-c7ccc(S(=O)(=O)[O-])cc7)c7ccc4[nH]7)C=C6)C=C5)cc3)C2)n1
REMARK SMILES IDX 27 1 26 2 25 3 24 4 23 5 21 6 22 7 11 9 7 10 8 11 93 12 9 13
REMARK SMILES IDX 10 14 6 15 2 16 3 17 94 18 4 19 5 20 1 21 12 24 13 25 14 26
REMARK SMILES IDX 19 27 15 28 18 29 20 30 16 31 17 32 28 33 29 34 30 35 31 36
REMARK SMILES IDX 32 38 33 39 34 40 92 41 35 42 91 43 36 44 37 45 38 46 85 47
REMARK SMILES IDX 39 48 90 49 84 50 86 51 40 52 89 53 83 54 82 55 41 57 71 58
REMARK SMILES IDX 52 59 70 60 53 61 56 62 69 63 87 64 54 65 55 66 68 68 88 69
REMARK SMILES IDX 57 70 42 71 43 72 51 73 44 74 50 75 45 76 46 77 47 78 48 79
REMARK SMILES IDX 49 80 72 81 73 82 81 83 74 84 80 85 75 86 76 87 77 88 78 89
REMARK SMILES IDX 79 90 58 91 59 92 67 93 60 94 66 95 61 96 62 97 63 98 64 99
REMARK SMILES IDX 65 100
REMARK H PARENT 23 8 1 22 1 23 30 37 86 56 56 67
REMARK Flexibility Score: inf
ROOT
ATOM      1  C   UNL A   1      37.694  23.798  26.466  1.00  0.00     0.002 C 
ENDROOT
BRANCH   1   2
ATOM      2  C   UNL A   1      36.683  23.659  25.319  1.00  0.00     0.002 C 
BRANCH   2   3
ATOM      3  C   UNL A   1      35.242  23.341  25.732  1.00  0.00     0.021 C 
BRANCH   3   4
ATOM      4  C   UNL A   1      34.378  24.571  25.964  1.00  0.00     0.116 C 
BRANCH   4   5
ATOM      5  N   UNL A   1      34.533  25.596  24.956  1.00  0.00    -0.356 N 
ATOM      6  C   UNL A   1      33.645  26.476  24.417  1.00  0.00     0.228 C 
ATOM      7  O   UNL A   1      34.156  27.414  23.794  1.00  0.00    -0.274 OA
ATOM      8  H   UNL A   1      35.444  25.670  24.594  1.00  0.00     0.163 HD
BRANCH   6   9
ATOM      9  C   UNL A   1      32.110  26.352  24.560  1.00  0.00     0.071 C 
ATOM     10  N   UNL A   1      30.080  26.894  23.280  1.00  0.00    -0.355 N 
ATOM     11  C   UNL A   1      29.607  25.543  23.062  1.00  0.00     0.118 C 
ATOM     12  C   UNL A   1      31.526  27.091  23.298  1.00  0.00     0.135 C 
ATOM     13  C   UNL A   1      30.129  24.684  24.203  1.00  0.00     0.023 C 
ATOM     14  C   UNL A   1      31.631  24.874  24.451  1.00  0.00     0.021 C 
BRANCH  10  15
ATOM     15  C   UNL A   1      29.262  27.950  22.937  1.00  0.00     0.134 A 
ATOM     16  C   UNL A   1      28.929  29.981  21.945  1.00  0.00     0.221 A 
ATOM     17  N   UNL A   1      27.665  30.081  22.369  1.00  0.00    -0.222 NA
ATOM     18  N   UNL A   1      29.755  28.966  22.215  1.00  0.00    -0.196 NA
ATOM     19  C   UNL A   1      27.209  29.058  23.107  1.00  0.00     0.119 A 
ATOM     20  C   UNL A   1      27.963  27.953  23.404  1.00  0.00     0.067 A 
BRANCH  16  21
ATOM     21  N   UNL A   1      29.406  30.993  21.165  1.00  0.00    -0.368 N 
ATOM     22  H   UNL A   1      28.782  31.631  20.750  1.00  0.00     0.159 HD
ATOM     23  H   UNL A   1      30.374  31.085  21.017  1.00  0.00     0.159 HD
ENDBRANCH  16  21
ENDBRANCH  10  15
BRANCH   9  24
ATOM     24  C   UNL A   1      31.575  27.157  25.791  1.00  0.00     0.057 C 
BRANCH  24  25
ATOM     25  C   UNL A   1      32.301  28.381  26.290  1.00  0.00    -0.011 A 
ATOM     26  C   UNL A   1      33.418  28.253  27.132  1.00  0.00     0.010 A 
ATOM     27  C   UNL A   1      31.899  29.667  25.904  1.00  0.00     0.129 A 
ATOM     28  C   UNL A   1      34.062  29.392  27.623  1.00  0.00     0.040 A 
ATOM     29  C   UNL A   1      32.537  30.804  26.385  1.00  0.00     0.078 A 
ATOM     30  F   UNL A   1      30.867  29.819  25.065  1.00  0.00    -0.207 F 
ATOM     31  C   UNL A   1      33.605  30.654  27.257  1.00  0.00     0.126 A 
ATOM     32  F   UNL A   1      34.192  31.740  27.773  1.00  0.00    -0.207 F 
ENDBRANCH  24  25
ENDBRANCH   9  24
ENDBRANCH   6   9
ENDBRANCH   4   5
ENDBRANCH   3   4
ENDBRANCH   2   3
ENDBRANCH   1   2
BRANCH   1  33
ATOM     33  C   UNL A   1      38.929  22.897  26.382  1.00  0.00     0.021 C 
BRANCH  33  34
ATOM     34  C   UNL A   1      40.189  23.468  27.020  1.00  0.00     0.116 C 
BRANCH  34  35
ATOM     35  N   UNL A   1      41.067  24.088  26.042  1.00  0.00    -0.352 N 
ATOM     36  C   UNL A   1      41.518  25.380  25.977  1.00  0.00     0.251 C 
ATOM     37  H   UNL A   1      41.382  23.494  25.323  1.00  0.00     0.163 HD
ATOM     38  O   UNL A   1      42.109  25.766  24.966  1.00  0.00    -0.269 OA
BRANCH  36  39
ATOM     39  C   UNL A   1      41.286  26.310  27.101  1.00  0.00     0.039 A 
ATOM     40  C   UNL A   1      40.300  25.998  28.042  1.00  0.00     0.014 A 
ATOM     41  C   UNL A   1      42.017  27.496  27.220  1.00  0.00     0.014 A 
ATOM     42  C   UNL A   1      40.081  26.852  29.124  1.00  0.00     0.010 A 
ATOM     43  C   UNL A   1      41.850  28.305  28.340  1.00  0.00     0.010 A 
ATOM     44  C   UNL A   1      40.872  28.000  29.296  1.00  0.00    -0.014 A 
BRANCH  44  45
ATOM     45  C   UNL A   1      40.679  28.898  30.464  1.00  0.00     0.031 A 
ATOM     46  C   UNL A   1      41.539  28.741  31.689  1.00  0.00     0.074 A 
ATOM     47  C   UNL A   1      39.696  29.819  30.440  1.00  0.00     0.049 A 
ATOM     48  N   UNL A   1      41.501  29.407  32.814  1.00  0.00    -0.248 NA
ATOM     49  C   UNL A   1      42.560  27.680  31.656  1.00  0.00     0.031 C 
ATOM     50  C   UNL A   1      38.773  30.046  29.325  1.00  0.00     0.029 A 
ATOM     51  N   UNL A   1      39.308  30.738  31.383  1.00  0.00    -0.354 N 
ATOM     52  C   UNL A   1      42.471  28.832  33.629  1.00  0.00     0.074 A 
ATOM     53  C   UNL A   1      43.048  27.735  32.886  1.00  0.00     0.031 C 
ATOM     54  C   UNL A   1      37.954  31.066  29.632  1.00  0.00     0.029 A 
ATOM     55  C   UNL A   1      38.261  31.534  30.979  1.00  0.00     0.049 A 
ATOM     56  H   UNL A   1      39.737  30.820  32.264  1.00  0.00     0.167 HD
ATOM     57  C   UNL A   1      42.858  29.196  34.875  1.00  0.00     0.031 A 
ATOM     58  C   UNL A   1      37.619  32.530  31.622  1.00  0.00     0.031 A 
ATOM     59  C   UNL A   1      42.288  30.299  35.603  1.00  0.00     0.049 A 
ATOM     60  C   UNL A   1      38.058  32.906  33.011  1.00  0.00     0.074 A 
ATOM     61  C   UNL A   1      42.657  30.793  36.842  1.00  0.00     0.029 A 
ATOM     62  N   UNL A   1      41.226  31.074  35.163  1.00  0.00    -0.354 N 
ATOM     63  N   UNL A   1      39.027  32.399  33.734  1.00  0.00    -0.248 NA
ATOM     64  C   UNL A   1      37.321  33.995  33.665  1.00  0.00     0.031 C 
ATOM     65  C   UNL A   1      41.776  31.827  37.178  1.00  0.00     0.029 A 
ATOM     66  C   UNL A   1      40.903  32.021  36.120  1.00  0.00     0.049 A 
ATOM     67  H   UNL A   1      40.769  30.967  34.297  1.00  0.00     0.167 HD
ATOM     68  C   UNL A   1      39.039  33.132  34.917  1.00  0.00     0.074 A 
ATOM     69  C   UNL A   1      37.987  34.122  34.805  1.00  0.00     0.031 C 
ATOM     70  C   UNL A   1      39.852  33.000  35.995  1.00  0.00     0.031 A 
BRANCH  57  71
ATOM     71  C   UNL A   1      43.935  28.377  35.539  1.00  0.00    -0.014 A 
ATOM     72  C   UNL A   1      45.298  28.693  35.386  1.00  0.00     0.010 A 
ATOM     73  C   UNL A   1      43.576  27.289  36.356  1.00  0.00     0.010 A 
ATOM     74  C   UNL A   1      46.280  27.907  35.995  1.00  0.00     0.020 A 
ATOM     75  C   UNL A   1      44.554  26.520  36.993  1.00  0.00     0.020 A 
ATOM     76  C   UNL A   1      45.902  26.822  36.791  1.00  0.00     0.054 A 
BRANCH  76  77
ATOM     77  S   UNL A   1      47.198  25.825  37.577  1.00  0.00     0.124 S 
ATOM     78  O   UNL A   1      48.304  26.777  37.651  1.00  0.00    -0.237 OA
ATOM     79  O   UNL A   1      46.594  25.465  38.856  1.00  0.00    -0.237 OA
ATOM     80  O   UNL A   1      47.393  24.716  36.648  1.00  0.00    -0.744 OA
ENDBRANCH  76  77
ENDBRANCH  57  71
BRANCH  58  81
ATOM     81  C   UNL A   1      36.511  33.260  30.946  1.00  0.00    -0.014 A 
ATOM     82  C   UNL A   1      35.232  33.303  31.528  1.00  0.00     0.010 A 
ATOM     83  C   UNL A   1      36.731  33.928  29.728  1.00  0.00     0.010 A 
ATOM     84  C   UNL A   1      34.188  33.984  30.895  1.00  0.00     0.020 A 
ATOM     85  C   UNL A   1      35.697  34.636  29.108  1.00  0.00     0.020 A 
ATOM     86  C   UNL A   1      34.428  34.650  29.691  1.00  0.00     0.054 A 
BRANCH  86  87
ATOM     87  S   UNL A   1      33.070  35.570  28.915  1.00  0.00     0.124 S 
ATOM     88  O   UNL A   1      33.784  36.644  28.231  1.00  0.00    -0.237 OA
ATOM     89  O   UNL A   1      32.460  34.563  28.051  1.00  0.00    -0.237 OA
ATOM     90  O   UNL A   1      32.249  35.988  30.049  1.00  0.00    -0.744 OA
ENDBRANCH  86  87
ENDBRANCH  58  81
BRANCH  70  91
ATOM     91  C   UNL A   1      39.663  33.974  37.129  1.00  0.00    -0.014 A 
ATOM     92  C   UNL A   1      38.993  33.605  38.309  1.00  0.00     0.010 A 
ATOM     93  C   UNL A   1      40.215  35.265  37.029  1.00  0.00     0.010 A 
ATOM     94  C   UNL A   1      38.850  34.521  39.354  1.00  0.00     0.020 A 
ATOM     95  C   UNL A   1      40.101  36.172  38.084  1.00  0.00     0.020 A 
ATOM     96  C   UNL A   1      39.406  35.799  39.235  1.00  0.00     0.054 A 
BRANCH  96  97
ATOM     97  S   UNL A   1      39.244  36.955  40.624  1.00  0.00     0.124 S 
ATOM     98  O   UNL A   1      38.850  38.188  39.948  1.00  0.00    -0.237 OA
ATOM     99  O   UNL A   1      38.208  36.327  41.442  1.00  0.00    -0.237 OA
ATOM    100  O   UNL A   1      40.576  36.969  41.221  1.00  0.00    -0.744 OA
ENDBRANCH  96  97
ENDBRANCH  70  91
ENDBRANCH  44  45
ENDBRANCH  36  39
ENDBRANCH  34  35
ENDBRANCH  33  34
ENDBRANCH   1  33
TORSDOF 20
ENDMDL
MODEL 2
REMARK VINA RESULT:     -11.5      6.316      8.923
REMARK SMILES Nc1nccc(N2CCC[C@@](Cc3ccc(F)cc3F)(C(=O)NCCCCCCNC(=O)c3ccc(-c4c5nc(c(-c6ccc(S(=O)(=O)[O-])cc6)c6ccc([nH]6)c(-c6ccc(S(=O)(=O)[O-])cc6)c6nc(c(-c7ccc(S(=O)(=O)[O-])cc7)c7ccc4[nH]7)C=C6)C=C5)cc3)C2)n1
REMARK SMILES IDX 27 1 26 2 25 3 24 4 23 5 21 6 22 7 11 9 7 10 8 11 93 12 9 13
REMARK SMILES IDX 10 14 6 15 2 16 3 17 94 18 4 19 5 20 1 21 12 24 13 25 14 26
REMARK SMILES IDX 19 27 15 28 18 29 20 30 16 31 17 32 28 33 29 34 30 35 31 36
REMARK SMILES IDX 32 38 33 39 34 40 92 41 35 42 91 43 36 44 37 45 38 46 85 47
REMARK SMILES IDX 39 48 90 49 84 50 86 51 40 52 89 53 83 54 82 55 41 57 71 58
REMARK SMILES IDX 52 59 70 60 53 61 56 62 69 63 87 64 54 65 55 66 68 68 88 69
REMARK SMILES IDX 57 70 42 71 43 72 51 73 44 74 50 75 45 76 46 77 47 78 48 79
REMARK SMILES IDX 49 80 72 81 73 82 81 83 74 84 80 85 75 86 76 87 77 88 78 89
REMARK SMILES IDX 79 90 58 91 59 92 67 93 60 94 66 95 61 96 62 97 63 98 64 99
REMARK SMILES IDX 65 100
REMARK H PARENT 23 8 1 22 1 23 30 37 86 56 56 67
REMARK Flexibility Score: inf
ROOT
ATOM      1  C   UNL A   1      38.586  21.319  25.381  1.00  0.00     0.002 C 
ENDROOT
BRANCH   1   2
ATOM      2  C   UNL A   1      38.977  22.296  26.498  1.00  0.00     0.002 C 
BRANCH   2   3
ATOM      3  C   UNL A   1      38.454  23.728  26.348  1.00  0.00     0.021 C 
BRANCH   3   4
ATOM      4  C   UNL A   1      37.036  23.816  25.806  1.00  0.00     0.116 C 
BRANCH   4   5
ATOM      5  N   UNL A   1      36.029  23.302  26.707  1.00  0.00    -0.356 N 
ATOM      6  C   UNL A   1      34.782  22.804  26.482  1.00  0.00     0.228 C 
ATOM      7  O   UNL A   1      34.294  22.178  27.430  1.00  0.00    -0.274 OA
ATOM      8  H   UNL A   1      36.293  23.314  27.655  1.00  0.00     0.163 HD
BRANCH   6   9
ATOM      9  C   UNL A   1      34.009  22.976  25.154  1.00  0.00     0.071 C 
ATOM     10  N   UNL A   1      32.907  24.763  23.870  1.00  0.00    -0.355 N 
ATOM     11  C   UNL A   1      33.778  24.752  22.713  1.00  0.00     0.118 C 
ATOM     12  C   UNL A   1      33.524  24.474  25.161  1.00  0.00     0.135 C 
ATOM     13  C   UNL A   1      34.362  23.353  22.592  1.00  0.00     0.023 C 
ATOM     14  C   UNL A   1      34.941  22.833  23.914  1.00  0.00     0.021 C 
BRANCH  10  15
ATOM     15  C   UNL A   1      31.754  25.518  23.830  1.00  0.00     0.134 A 
ATOM     16  C   UNL A   1      30.552  27.289  23.034  1.00  0.00     0.221 A 
ATOM     17  N   UNL A   1      29.516  27.068  23.849  1.00  0.00    -0.222 NA
ATOM     18  N   UNL A   1      31.677  26.570  23.002  1.00  0.00    -0.196 NA
ATOM     19  C   UNL A   1      29.634  26.021  24.679  1.00  0.00     0.119 A 
ATOM     20  C   UNL A   1      30.728  25.197  24.695  1.00  0.00     0.067 A 
BRANCH  16  21
ATOM     21  N   UNL A   1      30.443  28.328  22.156  1.00  0.00    -0.368 N 
ATOM     22  H   UNL A   1      29.622  28.439  21.625  1.00  0.00     0.159 HD
ATOM     23  H   UNL A   1      31.185  28.965  22.054  1.00  0.00     0.159 HD
ENDBRANCH  16  21
ENDBRANCH  10  15
BRANCH   9  24
ATOM     24  C   UNL A   1      32.699  22.121  25.130  1.00  0.00     0.057 C 
BRANCH  24  25
ATOM     25  C   UNL A   1      32.710  20.705  24.612  1.00  0.00    -0.011 A 
ATOM     26  C   UNL A   1      33.151  19.650  25.430  1.00  0.00     0.010 A 
ATOM     27  C   UNL A   1      32.255  20.404  23.321  1.00  0.00     0.129 A 
ATOM     28  C   UNL A   1      33.197  18.346  24.930  1.00  0.00     0.040 A 
ATOM     29  C   UNL A   1      32.295  19.108  22.820  1.00  0.00     0.078 A 
ATOM     30  F   UNL A   1      31.786  21.380  22.535  1.00  0.00    -0.207 F 
ATOM     31  C   UNL A   1      32.783  18.092  23.627  1.00  0.00     0.126 A 
ATOM     32  F   UNL A   1      32.880  16.850  23.138  1.00  0.00    -0.207 F 
ENDBRANCH  24  25
ENDBRANCH   9  24
ENDBRANCH   6   9
ENDBRANCH   4   5
ENDBRANCH   3   4
ENDBRANCH   2   3
ENDBRANCH   1   2
BRANCH   1  33
ATOM     33  C   UNL A   1      39.110  19.887  25.530  1.00  0.00     0.021 C 
BRANCH  33  34
ATOM     34  C   UNL A   1      40.185  19.701  26.592  1.00  0.00     0.116 C 
BRANCH  34  35
ATOM     35  N   UNL A   1      41.297  18.897  26.113  1.00  0.00    -0.352 N 
ATOM     36  C   UNL A   1      42.562  19.287  25.763  1.00  0.00     0.251 C 
ATOM     37  H   UNL A   1      41.113  17.934  26.028  1.00  0.00     0.163 HD
ATOM     38  O   UNL A   1      43.311  18.485  25.202  1.00  0.00    -0.269 OA
BRANCH  36  39
ATOM     39  C   UNL A   1      43.023  20.663  26.040  1.00  0.00     0.039 A 
ATOM     40  C   UNL A   1      43.479  21.448  24.977  1.00  0.00     0.014 A 
ATOM     41  C   UNL A   1      43.030  21.174  27.341  1.00  0.00     0.014 A 
ATOM     42  C   UNL A   1      43.897  22.759  25.214  1.00  0.00     0.010 A 
ATOM     43  C   UNL A   1      43.373  22.506  27.562  1.00  0.00     0.010 A 
ATOM     44  C   UNL A   1      43.824  23.307  26.504  1.00  0.00    -0.014 A 
BRANCH  44  45
ATOM     45  C   UNL A   1      44.226  24.713  26.767  1.00  0.00     0.031 A 
ATOM     46  C   UNL A   1      45.661  25.134  26.594  1.00  0.00     0.074 A 
ATOM     47  C   UNL A   1      43.311  25.596  27.210  1.00  0.00     0.049 A 
ATOM     48  N   UNL A   1      46.209  26.303  26.804  1.00  0.00    -0.248 NA
ATOM     49  C   UNL A   1      46.611  24.099  26.152  1.00  0.00     0.031 C 
ATOM     50  C   UNL A   1      41.895  25.302  27.450  1.00  0.00     0.029 A 
ATOM     51  N   UNL A   1      43.433  26.923  27.539  1.00  0.00    -0.354 N 
ATOM     52  C   UNL A   1      47.566  26.139  26.544  1.00  0.00     0.074 A 
ATOM     53  C   UNL A   1      47.765  24.747  26.207  1.00  0.00     0.031 C 
ATOM     54  C   UNL A   1      41.274  26.424  27.848  1.00  0.00     0.029 A 
ATOM     55  C   UNL A   1      42.251  27.504  27.936  1.00  0.00     0.049 A 
ATOM     56  H   UNL A   1      44.285  27.413  27.495  1.00  0.00     0.167 HD
ATOM     57  C   UNL A   1      48.553  27.066  26.568  1.00  0.00     0.031 A 
ATOM     58  C   UNL A   1      41.984  28.766  28.328  1.00  0.00     0.031 A 
ATOM     59  C   UNL A   1      48.345  28.453  26.890  1.00  0.00     0.049 A 
ATOM     60  C   UNL A   1      43.100  29.774  28.359  1.00  0.00     0.074 A 
ATOM     61  C   UNL A   1      49.264  29.487  26.874  1.00  0.00     0.029 A 
ATOM     62  N   UNL A   1      47.135  28.999  27.294  1.00  0.00    -0.354 N 
ATOM     63  N   UNL A   1      44.361  29.617  28.037  1.00  0.00    -0.248 NA
ATOM     64  C   UNL A   1      42.752  31.132  28.796  1.00  0.00     0.031 C 
ATOM     65  C   UNL A   1      48.626  30.645  27.330  1.00  0.00     0.029 A 
ATOM     66  C   UNL A   1      47.292  30.349  27.563  1.00  0.00     0.049 A 
ATOM     67  H   UNL A   1      46.290  28.501  27.377  1.00  0.00     0.167 HD
ATOM     68  C   UNL A   1      44.952  30.866  28.201  1.00  0.00     0.074 A 
ATOM     69  C   UNL A   1      43.906  31.768  28.640  1.00  0.00     0.031 C 
ATOM     70  C   UNL A   1      46.242  31.234  28.001  1.00  0.00     0.031 A 
BRANCH  57  71
ATOM     71  C   UNL A   1      49.953  26.604  26.257  1.00  0.00    -0.014 A 
ATOM     72  C   UNL A   1      50.797  26.091  27.260  1.00  0.00     0.010 A 
ATOM     73  C   UNL A   1      50.424  26.654  24.932  1.00  0.00     0.010 A 
ATOM     74  C   UNL A   1      52.099  25.686  26.952  1.00  0.00     0.020 A 
ATOM     75  C   UNL A   1      51.714  26.221  24.615  1.00  0.00     0.020 A 
ATOM     76  C   UNL A   1      52.551  25.759  25.632  1.00  0.00     0.054 A 
BRANCH  76  77
ATOM     77  S   UNL A   1      54.243  25.219  25.260  1.00  0.00     0.124 S 
ATOM     78  O   UNL A   1      54.946  25.567  26.491  1.00  0.00    -0.237 OA
ATOM     79  O   UNL A   1      54.076  23.789  25.016  1.00  0.00    -0.237 OA
ATOM     80  O   UNL A   1      54.610  26.009  24.088  1.00  0.00    -0.744 OA
ENDBRANCH  76  77
ENDBRANCH  57  71
BRANCH  58  81
ATOM     81  C   UNL A   1      40.593  29.152  28.694  1.00  0.00    -0.014 A 
ATOM     82  C   UNL A   1      40.252  29.376  30.040  1.00  0.00     0.010 A 
ATOM     83  C   UNL A   1      39.609  29.314  27.703  1.00  0.00     0.010 A 
ATOM     84  C   UNL A   1      38.947  29.736  30.390  1.00  0.00     0.020 A 
ATOM     85  C   UNL A   1      38.310  29.704  28.047  1.00  0.00     0.020 A 
ATOM     86  C   UNL A   1      37.985  29.901  29.390  1.00  0.00     0.054 A 
BRANCH  86  87
ATOM     87  S   UNL A   1      36.312  30.419  29.864  1.00  0.00     0.124 S 
ATOM     88  O   UNL A   1      36.037  29.552  31.005  1.00  0.00    -0.237 OA
ATOM     89  O   UNL A   1      36.497  31.835  30.174  1.00  0.00    -0.237 OA
ATOM     90  O   UNL A   1      35.518  30.150  28.668  1.00  0.00    -0.744 OA
ENDBRANCH  86  87
ENDBRANCH  58  81
BRANCH  70  91
ATOM     91  C   UNL A   1      46.591  32.683  28.217  1.00  0.00    -0.014 A 
ATOM     92  C   UNL A   1      47.049  33.149  29.462  1.00  0.00     0.010 A 
ATOM     93  C   UNL A   1      46.510  33.581  27.137  1.00  0.00     0.010 A 
ATOM     94  C   UNL A   1      47.386  34.495  29.631  1.00  0.00     0.020 A 
ATOM     95  C   UNL A   1      46.877  34.919  27.293  1.00  0.00     0.020 A 
ATOM     96  C   UNL A   1      47.299  35.371  28.545  1.00  0.00     0.054 A 
BRANCH  96  97
ATOM     97  S   UNL A   1      47.785  37.103  28.778  1.00  0.00     0.124 S 
ATOM     98  O   UNL A   1      48.104  37.140  30.203  1.00  0.00    -0.237 OA
ATOM     99  O   UNL A   1      48.925  37.240  27.874  1.00  0.00    -0.237 OA
ATOM    100  O   UNL A   1      46.594  37.853  28.387  1.00  0.00    -0.744 OA
ENDBRANCH  96  97
ENDBRANCH  70  91
ENDBRANCH  44  45
ENDBRANCH  36  39
ENDBRANCH  34  35
ENDBRANCH  33  34
ENDBRANCH   1  33
TORSDOF 20
ENDMDL
MODEL 3
REMARK VINA RESULT:     -11.4      5.125      6.570
REMARK SMILES Nc1nccc(N2CCC[C@@](Cc3ccc(F)cc3F)(C(=O)NCCCCCCNC(=O)c3ccc(-c4c5nc(c(-c6ccc(S(=O)(=O)[O-])cc6)c6ccc([nH]6)c(-c6ccc(S(=O)(=O)[O-])cc6)c6nc(c(-c7ccc(S(=O)(=O)[O-])cc7)c7ccc4[nH]7)C=C6)C=C5)cc3)C2)n1
REMARK SMILES IDX 27 1 26 2 25 3 24 4 23 5 21 6 22 7 11 9 7 10 8 11 93 12 9 13
REMARK SMILES IDX 10 14 6 15 2 16 3 17 94 18 4 19 5 20 1 21 12 24 13 25 14 26
REMARK SMILES IDX 19 27 15 28 18 29 20 30 16 31 17 32 28 33 29 34 30 35 31 36
REMARK SMILES IDX 32 38 33 39 34 40 92 41 35 42 91 43 36 44 37 45 38 46 85 47
REMARK SMILES IDX 39 48 90 49 84 50 86 51 40 52 89 53 83 54 82 55 41 57 71 58
REMARK SMILES IDX 52 59 70 60 53 61 56 62 69 63 87 64 54 65 55 66 68 68 88 69
REMARK SMILES IDX 57 70 42 71 43 72 51 73 44 74 50 75 45 76 46 77 47 78 48 79
REMARK SMILES IDX 49 80 72 81 73 82 81 83 74 84 80 85 75 86 76 87 77 88 78 89
REMARK SMILES IDX 79 90 58 91 59 92 67 93 60 94 66 95 61 96 62 97 63 98 64 99
REMARK SMILES IDX 65 100
REMARK H PARENT 23 8 1 22 1 23 30 37 86 56 56 67
REMARK Flexibility Score: inf
ROOT
ATOM      1  C   UNL A   1      35.724  22.671  24.414  1.00  0.00     0.002 C 
ENDROOT
BRANCH   1   2
ATOM      2  C   UNL A   1      35.058  22.098  25.673  1.00  0.00     0.002 C 
BRANCH   2   3
ATOM      3  C   UNL A   1      34.186  23.072  26.471  1.00  0.00     0.021 C 
BRANCH   3   4
ATOM      4  C   UNL A   1      34.120  24.472  25.880  1.00  0.00     0.116 C 
BRANCH   4   5
ATOM      5  N   UNL A   1      33.188  25.350  26.551  1.00  0.00    -0.356 N 
ATOM      6  C   UNL A   1      32.201  26.157  26.074  1.00  0.00     0.228 C 
ATOM      7  O   UNL A   1      31.394  26.551  26.924  1.00  0.00    -0.274 OA
ATOM      8  H   UNL A   1      33.285  25.368  27.529  1.00  0.00     0.163 HD
BRANCH   6   9
ATOM      9  C   UNL A   1      32.059  26.563  24.588  1.00  0.00     0.071 C 
ATOM     10  N   UNL A   1      31.183  28.436  23.255  1.00  0.00    -0.355 N 
ATOM     11  C   UNL A   1      32.435  28.881  22.677  1.00  0.00     0.118 C 
ATOM     12  C   UNL A   1      31.237  27.906  24.613  1.00  0.00     0.135 C 
ATOM     13  C   UNL A   1      33.364  27.679  22.617  1.00  0.00     0.023 C 
ATOM     14  C   UNL A   1      33.434  26.914  23.946  1.00  0.00     0.021 C 
BRANCH  10  15
ATOM     15  C   UNL A   1      30.005  28.983  22.793  1.00  0.00     0.134 A 
ATOM     16  C   UNL A   1      27.724  29.002  22.666  1.00  0.00     0.221 A 
ATOM     17  N   UNL A   1      27.692  30.000  21.778  1.00  0.00    -0.222 NA
ATOM     18  N   UNL A   1      28.833  28.457  23.176  1.00  0.00    -0.196 NA
ATOM     19  C   UNL A   1      28.882  30.489  21.400  1.00  0.00     0.119 A 
ATOM     20  C   UNL A   1      30.074  30.029  21.895  1.00  0.00     0.067 A 
BRANCH  16  21
ATOM     21  N   UNL A   1      26.526  28.508  23.092  1.00  0.00    -0.368 N 
ATOM     22  H   UNL A   1      26.050  28.946  23.834  1.00  0.00     0.159 HD
ATOM     23  H   UNL A   1      26.138  27.715  22.659  1.00  0.00     0.159 HD
ENDBRANCH  16  21
ENDBRANCH  10  15
BRANCH   9  24
ATOM     24  C   UNL A   1      31.168  25.552  23.792  1.00  0.00     0.057 C 
BRANCH  24  25
ATOM     25  C   UNL A   1      31.591  24.114  23.626  1.00  0.00    -0.011 A 
ATOM     26  C   UNL A   1      32.432  23.736  22.567  1.00  0.00     0.010 A 
ATOM     27  C   UNL A   1      31.180  23.131  24.537  1.00  0.00     0.129 A 
ATOM     28  C   UNL A   1      32.786  22.395  22.395  1.00  0.00     0.040 A 
ATOM     29  C   UNL A   1      31.532  21.796  24.375  1.00  0.00     0.078 A 
ATOM     30  F   UNL A   1      30.416  23.468  25.584  1.00  0.00    -0.207 F 
ATOM     31  C   UNL A   1      32.321  21.439  23.292  1.00  0.00     0.126 A 
ATOM     32  F   UNL A   1      32.620  20.150  23.091  1.00  0.00    -0.207 F 
ENDBRANCH  24  25
ENDBRANCH   9  24
ENDBRANCH   6   9
ENDBRANCH   4   5
ENDBRANCH   3   4
ENDBRANCH   2   3
ENDBRANCH   1   2
BRANCH   1  33
ATOM     33  C   UNL A   1      37.079  23.353  24.625  1.00  0.00     0.021 C 
BRANCH  33  34
ATOM     34  C   UNL A   1      37.624  23.279  26.045  1.00  0.00     0.116 C 
BRANCH  34  35
ATOM     35  N   UNL A   1      38.698  22.309  26.172  1.00  0.00    -0.352 N 
ATOM     36  C   UNL A   1      40.021  22.512  26.464  1.00  0.00     0.251 C 
ATOM     37  H   UNL A   1      38.437  21.371  26.027  1.00  0.00     0.163 HD
ATOM     38  O   UNL A   1      40.819  21.580  26.345  1.00  0.00    -0.269 OA
BRANCH  36  39
ATOM     39  C   UNL A   1      40.494  23.841  26.903  1.00  0.00     0.039 A 
ATOM     40  C   UNL A   1      41.086  23.964  28.163  1.00  0.00     0.014 A 
ATOM     41  C   UNL A   1      40.336  24.968  26.091  1.00  0.00     0.014 A 
ATOM     42  C   UNL A   1      41.561  25.207  28.587  1.00  0.00     0.010 A 
ATOM     43  C   UNL A   1      40.879  26.188  26.483  1.00  0.00     0.010 A 
ATOM     44  C   UNL A   1      41.484  26.324  27.740  1.00  0.00    -0.014 A 
BRANCH  44  45
ATOM     45  C   UNL A   1      42.020  27.644  28.159  1.00  0.00     0.031 A 
ATOM     46  C   UNL A   1      43.497  27.923  28.075  1.00  0.00     0.074 A 
ATOM     47  C   UNL A   1      41.184  28.573  28.664  1.00  0.00     0.049 A 
ATOM     48  N   UNL A   1      44.154  28.999  28.422  1.00  0.00    -0.248 NA
ATOM     49  C   UNL A   1      44.351  26.840  27.558  1.00  0.00     0.031 C 
ATOM     50  C   UNL A   1      39.737  28.411  28.828  1.00  0.00     0.029 A 
ATOM     51  N   UNL A   1      41.430  29.839  29.131  1.00  0.00    -0.354 N 
ATOM     52  C   UNL A   1      45.496  28.716  28.189  1.00  0.00     0.074 A 
ATOM     53  C   UNL A   1      45.563  27.352  27.715  1.00  0.00     0.031 C 
ATOM     54  C   UNL A   1      39.219  29.549  29.320  1.00  0.00     0.029 A 
ATOM     55  C   UNL A   1      40.299  30.503  29.550  1.00  0.00     0.049 A 
ATOM     56  H   UNL A   1      42.330  30.236  29.165  1.00  0.00     0.167 HD
ATOM     57  C   UNL A   1      46.573  29.524  28.339  1.00  0.00     0.031 A 
ATOM     58  C   UNL A   1      40.149  31.740  30.062  1.00  0.00     0.031 A 
ATOM     59  C   UNL A   1      46.497  30.887  28.797  1.00  0.00     0.049 A 
ATOM     60  C   UNL A   1      41.363  32.613  30.232  1.00  0.00     0.074 A 
ATOM     61  C   UNL A   1      47.520  31.811  28.916  1.00  0.00     0.029 A 
ATOM     62  N   UNL A   1      45.336  31.517  29.217  1.00  0.00    -0.354 N 
ATOM     63  N   UNL A   1      42.613  32.354  29.935  1.00  0.00    -0.248 NA
ATOM     64  C   UNL A   1      41.140  33.951  30.797  1.00  0.00     0.031 C 
ATOM     65  C   UNL A   1      46.987  32.981  29.469  1.00  0.00     0.029 A 
ATOM     66  C   UNL A   1      45.621  32.808  29.629  1.00  0.00     0.049 A 
ATOM     67  H   UNL A   1      44.440  31.108  29.222  1.00  0.00     0.167 HD
ATOM     68  C   UNL A   1      43.323  33.509  30.245  1.00  0.00     0.074 A 
ATOM     69  C   UNL A   1      42.360  34.470  30.743  1.00  0.00     0.031 C 
ATOM     70  C   UNL A   1      44.652  33.754  30.124  1.00  0.00     0.031 A 
BRANCH  57  71
ATOM     71  C   UNL A   1      47.929  28.946  28.025  1.00  0.00    -0.014 A 
ATOM     72  C   UNL A   1      48.710  28.324  29.017  1.00  0.00     0.010 A 
ATOM     73  C   UNL A   1      48.419  28.999  26.707  1.00  0.00     0.010 A 
ATOM     74  C   UNL A   1      49.973  27.813  28.708  1.00  0.00     0.020 A 
ATOM     75  C   UNL A   1      49.668  28.460  26.387  1.00  0.00     0.020 A 
ATOM     76  C   UNL A   1      50.447  27.890  27.395  1.00  0.00     0.054 A 
BRANCH  76  77
ATOM     77  S   UNL A   1      52.087  27.210  27.020  1.00  0.00     0.124 S 
ATOM     78  O   UNL A   1      52.102  25.998  27.835  1.00  0.00    -0.237 OA
ATOM     79  O   UNL A   1      52.022  26.994  25.577  1.00  0.00    -0.237 OA
ATOM     80  O   UNL A   1      53.005  28.261  27.449  1.00  0.00    -0.744 OA
ENDBRANCH  76  77
ENDBRANCH  57  71
BRANCH  58  81
ATOM     81  C   UNL A   1      38.793  32.236  30.424  1.00  0.00    -0.014 A 
ATOM     82  C   UNL A   1      38.021  32.939  29.481  1.00  0.00     0.010 A 
ATOM     83  C   UNL A   1      38.259  31.997  31.702  1.00  0.00     0.010 A 
ATOM     84  C   UNL A   1      36.748  33.410  29.817  1.00  0.00     0.020 A 
ATOM     85  C   UNL A   1      36.974  32.440  32.032  1.00  0.00     0.020 A 
ATOM     86  C   UNL A   1      36.231  33.154  31.090  1.00  0.00     0.054 A 
BRANCH  86  87
ATOM     87  S   UNL A   1      34.556  33.730  31.484  1.00  0.00     0.124 S 
ATOM     88  O   UNL A   1      34.822  34.997  32.159  1.00  0.00    -0.237 OA
ATOM     89  O   UNL A   1      33.940  33.832  30.164  1.00  0.00    -0.237 OA
ATOM     90  O   UNL A   1      34.021  32.669  32.334  1.00  0.00    -0.744 OA
ENDBRANCH  86  87
ENDBRANCH  58  81
BRANCH  70  91
ATOM     91  C   UNL A   1      45.141  35.127  30.500  1.00  0.00    -0.014 A 
ATOM     92  C   UNL A   1      45.118  36.191  29.580  1.00  0.00     0.010 A 
ATOM     93  C   UNL A   1      45.582  35.368  31.814  1.00  0.00     0.010 A 
ATOM     94  C   UNL A   1      45.559  37.461  29.960  1.00  0.00     0.020 A 
ATOM     95  C   UNL A   1      45.993  36.643  32.206  1.00  0.00     0.020 A 
ATOM     96  C   UNL A   1      45.993  37.680  31.271  1.00  0.00     0.054 A 
BRANCH  96  97
ATOM     97  S   UNL A   1      46.519  39.348  31.751  1.00  0.00     0.124 S 
ATOM     98  O   UNL A   1      47.250  39.093  32.989  1.00  0.00    -0.237 OA
ATOM     99  O   UNL A   1      47.335  39.766  30.612  1.00  0.00    -0.237 OA
ATOM    100  O   UNL A   1      45.262  40.076  31.908  1.00  0.00    -0.744 OA
ENDBRANCH  96  97
ENDBRANCH  70  91
ENDBRANCH  44  45
ENDBRANCH  36  39
ENDBRANCH  34  35
ENDBRANCH  33  34
ENDBRANCH   1  33
TORSDOF 20
ENDMDL
