MODEL 1
REMARK VINA RESULT:     -11.6      0.000      0.000
REMARK SMILES Cc1ccc(NC(=O)c2cccnc2C(=O)NCCCCCCNC(=O)c2ccc(-c3c4nc(c(-c5ccc(S(=O)(=O)[O-])cc5)c5ccc([nH]5)c(-c5ccc(S(=O)(=O)[O-])cc5)c5nc(c(-c6ccc(S(=O)(=O)[O-])cc6)c6ccc3[nH]6)C=C5)C=C4)cc2)nc1
REMARK SMILES IDX 21 1 20 2 19 3 18 4 17 5 15 6 16 7 14 9 9 10 10 11 11 12
REMARK SMILES IDX 13 13 12 14 7 15 6 16 8 18 5 19 1 20 2 21 3 22 88 23 4 24
REMARK SMILES IDX 87 25 22 26 23 27 24 28 25 29 26 31 27 32 28 33 86 34 29 35
REMARK SMILES IDX 85 36 30 37 31 38 32 39 79 40 33 41 84 42 78 43 80 44 34 45
REMARK SMILES IDX 83 46 77 47 76 48 35 50 65 51 46 52 64 53 47 54 50 55 63 56
REMARK SMILES IDX 81 57 48 58 49 59 62 61 82 62 51 63 36 64 37 65 45 66 38 67
REMARK SMILES IDX 44 68 39 69 40 70 41 71 42 72 43 73 66 74 67 75 75 76 68 77
REMARK SMILES IDX 74 78 69 79 70 80 71 81 72 82 73 83 52 84 53 85 61 86 54 87
REMARK SMILES IDX 60 88 55 89 56 90 57 91 58 92 59 93
REMARK H PARENT 17 8 6 17 24 30 80 49 50 60
REMARK Flexibility Score: inf
ROOT
ATOM      1  C   UNL A   1      36.984  23.133  24.565  1.00  0.00     0.002 C 
ENDROOT
BRANCH   1   2
ATOM      2  C   UNL A   1      35.554  23.531  24.188  1.00  0.00     0.002 C 
BRANCH   2   3
ATOM      3  C   UNL A   1      34.838  24.406  25.221  1.00  0.00     0.021 C 
BRANCH   3   4
ATOM      4  C   UNL A   1      34.035  25.564  24.616  1.00  0.00     0.116 C 
BRANCH   4   5
ATOM      5  N   UNL A   1      33.591  26.455  25.667  1.00  0.00    -0.351 N 
ATOM      6  C   UNL A   1      32.644  27.448  25.741  1.00  0.00     0.270 C 
ATOM      7  O   UNL A   1      32.610  28.074  26.808  1.00  0.00    -0.267 OA
ATOM      8  H   UNL A   1      34.073  26.321  26.515  1.00  0.00     0.163 HD
BRANCH   6   9
ATOM      9  C   UNL A   1      31.589  27.727  24.704  1.00  0.00     0.140 A 
ATOM     10  C   UNL A   1      30.388  27.056  24.518  1.00  0.00     0.071 A 
ATOM     11  C   UNL A   1      29.542  27.469  23.468  1.00  0.00     0.018 A 
ATOM     12  C   UNL A   1      29.941  28.476  22.599  1.00  0.00     0.021 A 
ATOM     13  N   UNL A   1      31.963  28.748  23.863  1.00  0.00    -0.250 NA
ATOM     14  C   UNL A   1      31.165  29.064  22.823  1.00  0.00     0.112 A 
BRANCH  10  15
ATOM     15  C   UNL A   1      30.073  25.751  25.112  1.00  0.00     0.259 C 
ATOM     16  N   UNL A   1      30.026  24.689  24.231  1.00  0.00    -0.306 N 
ATOM     17  H   UNL A   1      29.337  24.658  23.530  1.00  0.00     0.171 HD
ATOM     18  O   UNL A   1      29.967  25.668  26.332  1.00  0.00    -0.269 OA
BRANCH  16  19
ATOM     19  C   UNL A   1      30.967  23.653  24.342  1.00  0.00     0.132 A 
ATOM     20  C   UNL A   1      33.278  20.097  24.384  1.00  0.00     0.046 C 
ATOM     21  C   UNL A   1      32.490  21.366  24.428  1.00  0.00    -0.033 A 
ATOM     22  C   UNL A   1      31.923  21.859  25.603  1.00  0.00     0.009 A 
ATOM     23  C   UNL A   1      32.263  22.078  23.262  1.00  0.00     0.117 A 
ATOM     24  C   UNL A   1      31.140  23.016  25.562  1.00  0.00     0.047 A 
ATOM     25  N   UNL A   1      31.518  23.198  23.201  1.00  0.00    -0.239 NA
ENDBRANCH  16  19
ENDBRANCH  10  15
ENDBRANCH   6   9
ENDBRANCH   4   5
ENDBRANCH   3   4
ENDBRANCH   2   3
ENDBRANCH   1   2
BRANCH   1  26
ATOM     26  C   UNL A   1      37.330  23.271  26.050  1.00  0.00     0.021 C 
BRANCH  26  27
ATOM     27  C   UNL A   1      38.249  24.445  26.387  1.00  0.00     0.116 C 
BRANCH  27  28
ATOM     28  N   UNL A   1      39.643  24.128  26.117  1.00  0.00    -0.352 N 
ATOM     29  C   UNL A   1      40.780  24.771  26.535  1.00  0.00     0.251 C 
ATOM     30  H   UNL A   1      39.792  23.338  25.550  1.00  0.00     0.163 HD
ATOM     31  O   UNL A   1      41.856  24.528  25.996  1.00  0.00    -0.269 OA
BRANCH  29  32
ATOM     32  C   UNL A   1      40.711  25.759  27.633  1.00  0.00     0.039 A 
ATOM     33  C   UNL A   1      41.681  26.763  27.709  1.00  0.00     0.014 A 
ATOM     34  C   UNL A   1      39.714  25.673  28.609  1.00  0.00     0.014 A 
ATOM     35  C   UNL A   1      41.622  27.708  28.736  1.00  0.00     0.010 A 
ATOM     36  C   UNL A   1      39.616  26.655  29.591  1.00  0.00     0.010 A 
ATOM     37  C   UNL A   1      40.575  27.676  29.671  1.00  0.00    -0.014 A 
BRANCH  37  38
ATOM     38  C   UNL A   1      40.474  28.692  30.751  1.00  0.00     0.031 A 
ATOM     39  C   UNL A   1      41.351  28.584  31.971  1.00  0.00     0.074 A 
ATOM     40  C   UNL A   1      39.555  29.674  30.661  1.00  0.00     0.049 A 
ATOM     41  N   UNL A   1      41.359  29.328  33.048  1.00  0.00    -0.248 NA
ATOM     42  C   UNL A   1      42.328  27.483  31.994  1.00  0.00     0.031 C 
ATOM     43  C   UNL A   1      38.624  29.866  29.546  1.00  0.00     0.029 A 
ATOM     44  N   UNL A   1      39.246  30.692  31.528  1.00  0.00    -0.354 N 
ATOM     45  C   UNL A   1      42.328  28.777  33.880  1.00  0.00     0.074 A 
ATOM     46  C   UNL A   1      42.850  27.610  33.206  1.00  0.00     0.031 C 
ATOM     47  C   UNL A   1      37.867  30.949  29.786  1.00  0.00     0.029 A 
ATOM     48  C   UNL A   1      38.228  31.505  31.087  1.00  0.00     0.049 A 
ATOM     49  H   UNL A   1      39.710  30.829  32.385  1.00  0.00     0.167 HD
ATOM     50  C   UNL A   1      42.758  29.216  35.087  1.00  0.00     0.031 A 
ATOM     51  C   UNL A   1      37.645  32.572  31.666  1.00  0.00     0.031 A 
ATOM     52  C   UNL A   1      42.247  30.388  35.748  1.00  0.00     0.049 A 
ATOM     53  C   UNL A   1      38.135  33.033  33.012  1.00  0.00     0.074 A 
ATOM     54  C   UNL A   1      42.650  30.941  36.951  1.00  0.00     0.029 A 
ATOM     55  N   UNL A   1      41.226  31.190  35.260  1.00  0.00    -0.354 N 
ATOM     56  N   UNL A   1      39.086  32.528  33.760  1.00  0.00    -0.248 NA
ATOM     57  C   UNL A   1      37.480  34.217  33.587  1.00  0.00     0.031 C 
ATOM     58  C   UNL A   1      41.840  32.051  37.212  1.00  0.00     0.029 A 
ATOM     59  C   UNL A   1      40.973  32.222  36.146  1.00  0.00     0.049 A 
ATOM     60  H   UNL A   1      40.752  31.046  34.409  1.00  0.00     0.167 HD
ATOM     61  C   UNL A   1      39.165  33.350  34.878  1.00  0.00     0.074 A 
ATOM     62  C   UNL A   1      38.174  34.391  34.703  1.00  0.00     0.031 C 
ATOM     63  C   UNL A   1      39.984  33.253  35.953  1.00  0.00     0.031 A 
BRANCH  50  64
ATOM     64  C   UNL A   1      43.838  28.422  35.774  1.00  0.00    -0.014 A 
ATOM     65  C   UNL A   1      45.198  28.727  35.577  1.00  0.00     0.010 A 
ATOM     66  C   UNL A   1      43.491  27.393  36.667  1.00  0.00     0.010 A 
ATOM     67  C   UNL A   1      46.190  27.993  36.231  1.00  0.00     0.020 A 
ATOM     68  C   UNL A   1      44.480  26.674  37.345  1.00  0.00     0.020 A 
ATOM     69  C   UNL A   1      45.825  26.970  37.111  1.00  0.00     0.054 A 
BRANCH  69  70
ATOM     70  S   UNL A   1      47.134  26.056  37.973  1.00  0.00     0.124 S 
ATOM     71  O   UNL A   1      48.098  25.828  36.898  1.00  0.00    -0.237 OA
ATOM     72  O   UNL A   1      47.556  26.999  39.005  1.00  0.00    -0.237 OA
ATOM     73  O   UNL A   1      46.456  24.860  38.464  1.00  0.00    -0.744 OA
ENDBRANCH  69  70
ENDBRANCH  50  64
BRANCH  51  74
ATOM     74  C   UNL A   1      36.536  33.286  30.973  1.00  0.00    -0.014 A 
ATOM     75  C   UNL A   1      35.251  33.329  31.540  1.00  0.00     0.010 A 
ATOM     76  C   UNL A   1      36.763  33.922  29.740  1.00  0.00     0.010 A 
ATOM     77  C   UNL A   1      34.205  33.973  30.873  1.00  0.00     0.020 A 
ATOM     78  C   UNL A   1      35.726  34.591  29.084  1.00  0.00     0.020 A 
ATOM     79  C   UNL A   1      34.450  34.600  29.648  1.00  0.00     0.054 A 
BRANCH  79  80
ATOM     80  S   UNL A   1      33.087  35.461  28.815  1.00  0.00     0.124 S 
ATOM     81  O   UNL A   1      32.313  35.967  29.944  1.00  0.00    -0.237 OA
ATOM     82  O   UNL A   1      33.786  36.469  28.022  1.00  0.00    -0.237 OA
ATOM     83  O   UNL A   1      32.443  34.405  28.036  1.00  0.00    -0.744 OA
ENDBRANCH  79  80
ENDBRANCH  51  74
BRANCH  63  84
ATOM     84  C   UNL A   1      39.874  34.321  37.007  1.00  0.00    -0.014 A 
ATOM     85  C   UNL A   1      40.559  35.543  36.883  1.00  0.00     0.010 A 
ATOM     86  C   UNL A   1      39.026  34.120  38.111  1.00  0.00     0.010 A 
ATOM     87  C   UNL A   1      40.423  36.531  37.861  1.00  0.00     0.020 A 
ATOM     88  C   UNL A   1      38.865  35.116  39.078  1.00  0.00     0.020 A 
ATOM     89  C   UNL A   1      39.577  36.311  38.953  1.00  0.00     0.054 A 
BRANCH  89  90
ATOM     90  S   UNL A   1      39.381  37.627  40.186  1.00  0.00     0.124 S 
ATOM     91  O   UNL A   1      38.260  38.388  39.640  1.00  0.00    -0.237 OA
ATOM     92  O   UNL A   1      39.096  36.880  41.409  1.00  0.00    -0.237 OA
ATOM     93  O   UNL A   1      40.670  38.314  40.167  1.00  0.00    -0.744 OA
ENDBRANCH  89  90
ENDBRANCH  63  84
ENDBRANCH  37  38
ENDBRANCH  29  32
ENDBRANCH  27  28
ENDBRANCH  26  27
ENDBRANCH   1  26
TORSDOF 18
ENDMDL
MODEL 2
REMARK VINA RESULT:     -11.5      1.971      8.071
REMARK SMILES Cc1ccc(NC(=O)c2cccnc2C(=O)NCCCCCCNC(=O)c2ccc(-c3c4nc(c(-c5ccc(S(=O)(=O)[O-])cc5)c5ccc([nH]5)c(-c5ccc(S(=O)(=O)[O-])cc5)c5nc(c(-c6ccc(S(=O)(=O)[O-])cc6)c6ccc3[nH]6)C=C5)C=C4)cc2)nc1
REMARK SMILES IDX 21 1 20 2 19 3 18 4 17 5 15 6 16 7 14 9 9 10 10 11 11 12
REMARK SMILES IDX 13 13 12 14 7 15 6 16 8 18 5 19 1 20 2 21 3 22 88 23 4 24
REMARK SMILES IDX 87 25 22 26 23 27 24 28 25 29 26 31 27 32 28 33 86 34 29 35
REMARK SMILES IDX 85 36 30 37 31 38 32 39 79 40 33 41 84 42 78 43 80 44 34 45
REMARK SMILES IDX 83 46 77 47 76 48 35 50 65 51 46 52 64 53 47 54 50 55 63 56
REMARK SMILES IDX 81 57 48 58 49 59 62 61 82 62 51 63 36 64 37 65 45 66 38 67
REMARK SMILES IDX 44 68 39 69 40 70 41 71 42 72 43 73 66 74 67 75 75 76 68 77
REMARK SMILES IDX 74 78 69 79 70 80 71 81 72 82 73 83 52 84 53 85 61 86 54 87
REMARK SMILES IDX 60 88 55 89 56 90 57 91 58 92 59 93
REMARK H PARENT 17 8 6 17 24 30 80 49 50 60
REMARK Flexibility Score: inf
ROOT
ATOM      1  C   UNL A   1      31.757  30.522  26.095  1.00  0.00     0.002 C 
ENDROOT
BRANCH   1   2
ATOM      2  C   UNL A   1      31.778  29.516  27.249  1.00  0.00     0.002 C 
BRANCH   2   3
ATOM      3  C   UNL A   1      32.936  28.515  27.208  1.00  0.00     0.021 C 
BRANCH   3   4
ATOM      4  C   UNL A   1      33.985  28.811  26.130  1.00  0.00     0.116 C 
BRANCH   4   5
ATOM      5  N   UNL A   1      34.118  27.670  25.248  1.00  0.00    -0.351 N 
ATOM      6  C   UNL A   1      33.265  27.028  24.382  1.00  0.00     0.270 C 
ATOM      7  O   UNL A   1      33.715  26.004  23.853  1.00  0.00    -0.267 OA
ATOM      8  H   UNL A   1      35.014  27.264  25.276  1.00  0.00     0.163 HD
BRANCH   6   9
ATOM      9  C   UNL A   1      31.922  27.543  23.938  1.00  0.00     0.140 A 
ATOM     10  C   UNL A   1      30.672  27.148  24.394  1.00  0.00     0.071 A 
ATOM     11  C   UNL A   1      29.529  27.750  23.829  1.00  0.00     0.018 A 
ATOM     12  C   UNL A   1      29.655  28.663  22.791  1.00  0.00     0.021 A 
ATOM     13  N   UNL A   1      32.044  28.475  22.934  1.00  0.00    -0.250 NA
ATOM     14  C   UNL A   1      30.927  28.971  22.364  1.00  0.00     0.112 A 
BRANCH  10  15
ATOM     15  C   UNL A   1      30.429  25.931  25.177  1.00  0.00     0.259 C 
ATOM     16  N   UNL A   1      30.006  24.831  24.458  1.00  0.00    -0.306 N 
ATOM     17  H   UNL A   1      29.134  24.843  24.002  1.00  0.00     0.171 HD
ATOM     18  O   UNL A   1      30.698  25.936  26.375  1.00  0.00    -0.269 OA
BRANCH  16  19
ATOM     19  C   UNL A   1      30.827  23.695  24.380  1.00  0.00     0.132 A 
ATOM     20  C   UNL A   1      33.780  20.655  24.553  1.00  0.00     0.046 C 
ATOM     21  C   UNL A   1      32.728  21.709  24.428  1.00  0.00    -0.033 A 
ATOM     22  C   UNL A   1      32.560  22.473  23.273  1.00  0.00     0.009 A 
ATOM     23  C   UNL A   1      31.900  21.989  25.504  1.00  0.00     0.117 A 
ATOM     24  C   UNL A   1      31.602  23.489  23.247  1.00  0.00     0.047 A 
ATOM     25  N   UNL A   1      30.966  22.958  25.498  1.00  0.00    -0.239 NA
ENDBRANCH  16  19
ENDBRANCH  10  15
ENDBRANCH   6   9
ENDBRANCH   4   5
ENDBRANCH   3   4
ENDBRANCH   2   3
ENDBRANCH   1   2
BRANCH   1  26
ATOM     26  C   UNL A   1      31.617  31.989  26.511  1.00  0.00     0.021 C 
BRANCH  26  27
ATOM     27  C   UNL A   1      32.754  32.519  27.384  1.00  0.00     0.116 C 
BRANCH  27  28
ATOM     28  N   UNL A   1      32.600  33.939  27.661  1.00  0.00    -0.352 N 
ATOM     29  C   UNL A   1      33.173  34.702  28.646  1.00  0.00     0.251 C 
ATOM     30  H   UNL A   1      31.995  34.422  27.054  1.00  0.00     0.163 HD
ATOM     31  O   UNL A   1      32.726  35.818  28.895  1.00  0.00    -0.269 OA
BRANCH  29  32
ATOM     32  C   UNL A   1      34.328  34.182  29.409  1.00  0.00     0.039 A 
ATOM     33  C   UNL A   1      34.102  33.513  30.615  1.00  0.00     0.014 A 
ATOM     34  C   UNL A   1      35.634  34.387  28.955  1.00  0.00     0.014 A 
ATOM     35  C   UNL A   1      35.183  33.008  31.341  1.00  0.00     0.010 A 
ATOM     36  C   UNL A   1      36.705  33.824  29.644  1.00  0.00     0.010 A 
ATOM     37  C   UNL A   1      36.492  33.138  30.849  1.00  0.00    -0.014 A 
BRANCH  37  38
ATOM     38  C   UNL A   1      37.654  32.579  31.588  1.00  0.00     0.031 A 
ATOM     39  C   UNL A   1      38.384  31.379  31.046  1.00  0.00     0.074 A 
ATOM     40  C   UNL A   1      38.014  33.114  32.771  1.00  0.00     0.049 A 
ATOM     41  N   UNL A   1      39.372  30.705  31.579  1.00  0.00    -0.248 NA
ATOM     42  C   UNL A   1      37.930  30.851  29.749  1.00  0.00     0.031 C 
ATOM     43  C   UNL A   1      37.364  34.258  33.418  1.00  0.00     0.029 A 
ATOM     44  N   UNL A   1      39.011  32.762  33.646  1.00  0.00    -0.354 N 
ATOM     45  C   UNL A   1      39.645  29.669  30.692  1.00  0.00     0.074 A 
ATOM     46  C   UNL A   1      38.689  29.773  29.613  1.00  0.00     0.031 C 
ATOM     47  C   UNL A   1      37.995  34.526  34.573  1.00  0.00     0.029 A 
ATOM     48  C   UNL A   1      39.065  33.553  34.771  1.00  0.00     0.049 A 
ATOM     49  H   UNL A   1      39.630  32.013  33.485  1.00  0.00     0.167 HD
ATOM     50  C   UNL A   1      40.617  28.729  30.760  1.00  0.00     0.031 A 
ATOM     51  C   UNL A   1      39.879  33.496  35.843  1.00  0.00     0.031 A 
ATOM     52  C   UNL A   1      41.578  28.638  31.829  1.00  0.00     0.049 A 
ATOM     53  C   UNL A   1      40.944  32.436  35.898  1.00  0.00     0.074 A 
ATOM     54  C   UNL A   1      42.631  27.750  31.965  1.00  0.00     0.029 A 
ATOM     55  N   UNL A   1      41.606  29.466  32.940  1.00  0.00    -0.354 N 
ATOM     56  N   UNL A   1      41.219  31.497  35.025  1.00  0.00    -0.248 NA
ATOM     57  C   UNL A   1      41.819  32.436  37.080  1.00  0.00     0.031 C 
ATOM     58  C   UNL A   1      43.267  28.012  33.182  1.00  0.00     0.029 A 
ATOM     59  C   UNL A   1      42.646  29.099  33.776  1.00  0.00     0.049 A 
ATOM     60  H   UNL A   1      40.979  30.206  33.109  1.00  0.00     0.167 HD
ATOM     61  C   UNL A   1      42.316  30.814  35.536  1.00  0.00     0.074 A 
ATOM     62  C   UNL A   1      42.663  31.455  36.788  1.00  0.00     0.031 C 
ATOM     63  C   UNL A   1      42.979  29.752  35.017  1.00  0.00     0.031 A 
BRANCH  50  64
ATOM     64  C   UNL A   1      40.692  27.720  29.645  1.00  0.00    -0.014 A 
ATOM     65  C   UNL A   1      41.755  27.735  28.723  1.00  0.00     0.010 A 
ATOM     66  C   UNL A   1      39.716  26.712  29.545  1.00  0.00     0.010 A 
ATOM     67  C   UNL A   1      41.821  26.785  27.701  1.00  0.00     0.020 A 
ATOM     68  C   UNL A   1      39.793  25.742  28.542  1.00  0.00     0.020 A 
ATOM     69  C   UNL A   1      40.838  25.793  27.617  1.00  0.00     0.054 A 
BRANCH  69  70
ATOM     70  S   UNL A   1      40.967  24.552  26.301  1.00  0.00     0.124 S 
ATOM     71  O   UNL A   1      39.627  23.969  26.306  1.00  0.00    -0.237 OA
ATOM     72  O   UNL A   1      41.296  25.360  25.129  1.00  0.00    -0.237 OA
ATOM     73  O   UNL A   1      42.033  23.666  26.762  1.00  0.00    -0.744 OA
ENDBRANCH  69  70
ENDBRANCH  50  64
BRANCH  51  74
ATOM     74  C   UNL A   1      39.723  34.479  36.951  1.00  0.00    -0.014 A 
ATOM     75  C   UNL A   1      38.920  34.180  38.064  1.00  0.00     0.010 A 
ATOM     76  C   UNL A   1      40.378  35.723  36.893  1.00  0.00     0.010 A 
ATOM     77  C   UNL A   1      38.752  35.117  39.088  1.00  0.00     0.020 A 
ATOM     78  C   UNL A   1      40.234  36.651  37.929  1.00  0.00     0.020 A 
ATOM     79  C   UNL A   1      39.410  36.347  39.013  1.00  0.00     0.054 A 
BRANCH  79  80
ATOM     80  S   UNL A   1      39.207  37.535  40.369  1.00  0.00     0.124 S 
ATOM     81  O   UNL A   1      40.527  38.154  40.430  1.00  0.00    -0.237 OA
ATOM     82  O   UNL A   1      38.127  38.390  39.883  1.00  0.00    -0.237 OA
ATOM     83  O   UNL A   1      38.856  36.692  41.510  1.00  0.00    -0.744 OA
ENDBRANCH  79  80
ENDBRANCH  51  74
BRANCH  63  84
ATOM     84  C   UNL A   1      44.172  29.239  35.778  1.00  0.00    -0.014 A 
ATOM     85  C   UNL A   1      44.044  28.213  36.730  1.00  0.00     0.010 A 
ATOM     86  C   UNL A   1      45.449  29.755  35.492  1.00  0.00     0.010 A 
ATOM     87  C   UNL A   1      45.168  27.735  37.407  1.00  0.00     0.020 A 
ATOM     88  C   UNL A   1      46.580  29.260  36.146  1.00  0.00     0.020 A 
ATOM     89  C   UNL A   1      46.430  28.261  37.111  1.00  0.00     0.054 A 
BRANCH  89  90
ATOM     90  S   UNL A   1      47.880  27.592  37.970  1.00  0.00     0.124 S 
ATOM     91  O   UNL A   1      48.789  28.735  37.966  1.00  0.00    -0.237 OA
ATOM     92  O   UNL A   1      47.337  27.225  39.276  1.00  0.00    -0.237 OA
ATOM     93  O   UNL A   1      48.289  26.466  37.133  1.00  0.00    -0.744 OA
ENDBRANCH  89  90
ENDBRANCH  63  84
ENDBRANCH  37  38
ENDBRANCH  29  32
ENDBRANCH  27  28
ENDBRANCH  26  27
ENDBRANCH   1  26
TORSDOF 18
ENDMDL
MODEL 3
REMARK VINA RESULT:     -11.4      6.343      8.510
REMARK SMILES Cc1ccc(NC(=O)c2cccnc2C(=O)NCCCCCCNC(=O)c2ccc(-c3c4nc(c(-c5ccc(S(=O)(=O)[O-])cc5)c5ccc([nH]5)c(-c5ccc(S(=O)(=O)[O-])cc5)c5nc(c(-c6ccc(S(=O)(=O)[O-])cc6)c6ccc3[nH]6)C=C5)C=C4)cc2)nc1
REMARK SMILES IDX 21 1 20 2 19 3 18 4 17 5 15 6 16 7 14 9 9 10 10 11 11 12
REMARK SMILES IDX 13 13 12 14 7 15 6 16 8 18 5 19 1 20 2 21 3 22 88 23 4 24
REMARK SMILES IDX 87 25 22 26 23 27 24 28 25 29 26 31 27 32 28 33 86 34 29 35
REMARK SMILES IDX 85 36 30 37 31 38 32 39 79 40 33 41 84 42 78 43 80 44 34 45
REMARK SMILES IDX 83 46 77 47 76 48 35 50 65 51 46 52 64 53 47 54 50 55 63 56
REMARK SMILES IDX 81 57 48 58 49 59 62 61 82 62 51 63 36 64 37 65 45 66 38 67
REMARK SMILES IDX 44 68 39 69 40 70 41 71 42 72 43 73 66 74 67 75 75 76 68 77
REMARK SMILES IDX 74 78 69 79 70 80 71 81 72 82 73 83 52 84 53 85 61 86 54 87
REMARK SMILES IDX 60 88 55 89 56 90 57 91 58 92 59 93
REMARK H PARENT 17 8 6 17 24 30 80 49 50 60
REMARK Flexibility Score: inf
ROOT
ATOM      1  C   UNL A   1      37.230  20.412  24.859  1.00  0.00     0.002 C 
ENDROOT
BRANCH   1   2
ATOM      2  C   UNL A   1      37.418  21.927  24.965  1.00  0.00     0.002 C 
BRANCH   2   3
ATOM      3  C   UNL A   1      36.388  22.643  25.844  1.00  0.00     0.021 C 
BRANCH   3   4
ATOM      4  C   UNL A   1      36.081  24.081  25.409  1.00  0.00     0.116 C 
BRANCH   4   5
ATOM      5  N   UNL A   1      35.465  24.076  24.099  1.00  0.00    -0.351 N 
ATOM      6  C   UNL A   1      34.244  23.667  23.619  1.00  0.00     0.270 C 
ATOM      7  O   UNL A   1      34.104  23.735  22.391  1.00  0.00    -0.267 OA
ATOM      8  H   UNL A   1      36.048  24.447  23.398  1.00  0.00     0.163 HD
BRANCH   6   9
ATOM      9  C   UNL A   1      33.057  23.286  24.463  1.00  0.00     0.140 A 
ATOM     10  C   UNL A   1      32.533  22.016  24.662  1.00  0.00     0.071 A 
ATOM     11  C   UNL A   1      31.396  21.879  25.486  1.00  0.00     0.018 A 
ATOM     12  C   UNL A   1      30.778  23.000  26.022  1.00  0.00     0.021 A 
ATOM     13  N   UNL A   1      32.463  24.390  25.027  1.00  0.00    -0.250 NA
ATOM     14  C   UNL A   1      31.332  24.230  25.744  1.00  0.00     0.112 A 
BRANCH  10  15
ATOM     15  C   UNL A   1      32.862  20.851  23.833  1.00  0.00     0.259 C 
ATOM     16  N   UNL A   1      33.931  20.092  24.266  1.00  0.00    -0.306 N 
ATOM     17  H   UNL A   1      34.838  20.475  24.281  1.00  0.00     0.171 HD
ATOM     18  O   UNL A   1      32.133  20.575  22.885  1.00  0.00    -0.269 OA
BRANCH  16  19
ATOM     19  C   UNL A   1      33.719  18.769  24.686  1.00  0.00     0.132 A 
ATOM     20  C   UNL A   1      32.599  14.740  25.392  1.00  0.00     0.046 C 
ATOM     21  C   UNL A   1      32.995  16.169  25.209  1.00  0.00    -0.033 A 
ATOM     22  C   UNL A   1      32.499  17.196  26.013  1.00  0.00     0.009 A 
ATOM     23  C   UNL A   1      33.854  16.521  24.181  1.00  0.00     0.117 A 
ATOM     24  C   UNL A   1      32.857  18.520  25.745  1.00  0.00     0.047 A 
ATOM     25  N   UNL A   1      34.217  17.789  23.910  1.00  0.00    -0.239 NA
ENDBRANCH  16  19
ENDBRANCH  10  15
ENDBRANCH   6   9
ENDBRANCH   4   5
ENDBRANCH   3   4
ENDBRANCH   2   3
ENDBRANCH   1   2
BRANCH   1  26
ATOM     26  C   UNL A   1      38.509  19.583  25.007  1.00  0.00     0.021 C 
BRANCH  26  27
ATOM     27  C   UNL A   1      39.517  20.135  26.013  1.00  0.00     0.116 C 
BRANCH  27  28
ATOM     28  N   UNL A   1      40.655  19.244  26.176  1.00  0.00    -0.352 N 
ATOM     29  C   UNL A   1      41.992  19.541  26.254  1.00  0.00     0.251 C 
ATOM     30  H   UNL A   1      40.433  18.287  26.240  1.00  0.00     0.163 HD
ATOM     31  O   UNL A   1      42.826  18.651  26.122  1.00  0.00    -0.269 OA
BRANCH  29  32
ATOM     32  C   UNL A   1      42.428  20.934  26.493  1.00  0.00     0.039 A 
ATOM     33  C   UNL A   1      42.613  21.373  27.807  1.00  0.00     0.014 A 
ATOM     34  C   UNL A   1      42.617  21.816  25.425  1.00  0.00     0.014 A 
ATOM     35  C   UNL A   1      43.035  22.683  28.047  1.00  0.00     0.010 A 
ATOM     36  C   UNL A   1      43.103  23.099  25.662  1.00  0.00     0.010 A 
ATOM     37  C   UNL A   1      43.306  23.549  26.975  1.00  0.00    -0.014 A 
BRANCH  37  38
ATOM     38  C   UNL A   1      43.788  24.936  27.206  1.00  0.00     0.031 A 
ATOM     39  C   UNL A   1      45.238  25.277  26.984  1.00  0.00     0.074 A 
ATOM     40  C   UNL A   1      42.935  25.871  27.670  1.00  0.00     0.049 A 
ATOM     41  N   UNL A   1      45.861  26.407  27.199  1.00  0.00    -0.248 NA
ATOM     42  C   UNL A   1      46.106  24.201  26.477  1.00  0.00     0.031 C 
ATOM     43  C   UNL A   1      41.514  25.656  27.957  1.00  0.00     0.029 A 
ATOM     44  N   UNL A   1      43.142  27.189  27.991  1.00  0.00    -0.354 N 
ATOM     45  C   UNL A   1      47.192  26.174  26.869  1.00  0.00     0.074 A 
ATOM     46  C   UNL A   1      47.296  24.784  26.488  1.00  0.00     0.031 C 
ATOM     47  C   UNL A   1      40.974  26.808  28.387  1.00  0.00     0.029 A 
ATOM     48  C   UNL A   1      42.013  27.831  28.447  1.00  0.00     0.049 A 
ATOM     49  H   UNL A   1      44.015  27.635  27.903  1.00  0.00     0.167 HD
ATOM     50  C   UNL A   1      48.229  27.045  26.865  1.00  0.00     0.031 A 
ATOM     51  C   UNL A   1      41.837  29.097  28.871  1.00  0.00     0.031 A 
ATOM     52  C   UNL A   1      48.119  28.433  27.230  1.00  0.00     0.049 A 
ATOM     53  C   UNL A   1      43.008  30.042  28.866  1.00  0.00     0.074 A 
ATOM     54  C   UNL A   1      49.102  29.407  27.213  1.00  0.00     0.029 A 
ATOM     55  N   UNL A   1      46.957  29.045  27.672  1.00  0.00    -0.354 N 
ATOM     56  N   UNL A   1      44.247  29.815  28.503  1.00  0.00    -0.248 NA
ATOM     57  C   UNL A   1      42.753  31.417  29.317  1.00  0.00     0.031 C 
ATOM     58  C   UNL A   1      48.544  30.597  27.690  1.00  0.00     0.029 A 
ATOM     59  C   UNL A   1      47.201  30.378  27.948  1.00  0.00     0.049 A 
ATOM     60  H   UNL A   1      46.086  28.597  27.773  1.00  0.00     0.167 HD
ATOM     61  C   UNL A   1      44.913  31.026  28.651  1.00  0.00     0.074 A 
ATOM     62  C   UNL A   1      43.936  31.985  29.125  1.00  0.00     0.031 C 
ATOM     63  C   UNL A   1      46.215  31.320  28.416  1.00  0.00     0.031 A 
BRANCH  50  64
ATOM     64  C   UNL A   1      49.579  26.520  26.451  1.00  0.00    -0.014 A 
ATOM     65  C   UNL A   1      50.036  26.658  25.127  1.00  0.00     0.010 A 
ATOM     66  C   UNL A   1      50.424  25.927  27.407  1.00  0.00     0.010 A 
ATOM     67  C   UNL A   1      51.296  26.180  24.759  1.00  0.00     0.020 A 
ATOM     68  C   UNL A   1      51.697  25.473  27.049  1.00  0.00     0.020 A 
ATOM     69  C   UNL A   1      52.119  25.589  25.723  1.00  0.00     0.054 A 
BRANCH  69  70
ATOM     70  S   UNL A   1      53.763  25.009  25.224  1.00  0.00     0.124 S 
ATOM     71  O   UNL A   1      54.618  25.616  26.242  1.00  0.00    -0.237 OA
ATOM     72  O   UNL A   1      53.627  23.557  25.304  1.00  0.00    -0.237 OA
ATOM     73  O   UNL A   1      53.926  25.544  23.875  1.00  0.00    -0.744 OA
ENDBRANCH  69  70
ENDBRANCH  50  64
BRANCH  51  74
ATOM     74  C   UNL A   1      40.495  29.551  29.331  1.00  0.00    -0.014 A 
ATOM     75  C   UNL A   1      39.469  29.800  28.403  1.00  0.00     0.010 A 
ATOM     76  C   UNL A   1      40.239  29.738  30.701  1.00  0.00     0.010 A 
ATOM     77  C   UNL A   1      38.220  30.255  28.834  1.00  0.00     0.020 A 
ATOM     78  C   UNL A   1      38.982  30.165  31.138  1.00  0.00     0.020 A 
ATOM     79  C   UNL A   1      37.985  30.435  30.200  1.00  0.00     0.054 A 
BRANCH  79  80
ATOM     80  S   UNL A   1      36.345  30.992  30.742  1.00  0.00     0.124 S 
ATOM     81  O   UNL A   1      35.992  29.977  31.730  1.00  0.00    -0.237 OA
ATOM     82  O   UNL A   1      36.621  32.325  31.272  1.00  0.00    -0.237 OA
ATOM     83  O   UNL A   1      35.555  30.971  29.512  1.00  0.00    -0.744 OA
ENDBRANCH  79  80
ENDBRANCH  51  74
BRANCH  63  84
ATOM     84  C   UNL A   1      46.654  32.744  28.628  1.00  0.00    -0.014 A 
ATOM     85  C   UNL A   1      47.177  33.171  29.861  1.00  0.00     0.010 A 
ATOM     86  C   UNL A   1      46.593  33.653  27.556  1.00  0.00     0.010 A 
ATOM     87  C   UNL A   1      47.602  34.491  30.027  1.00  0.00     0.020 A 
ATOM     88  C   UNL A   1      47.043  34.967  27.710  1.00  0.00     0.020 A 
ATOM     89  C   UNL A   1      47.532  35.381  28.951  1.00  0.00     0.054 A 
BRANCH  89  90
ATOM     90  S   UNL A   1      48.132  37.077  29.180  1.00  0.00     0.124 S 
ATOM     91  O   UNL A   1      47.201  37.842  28.354  1.00  0.00    -0.237 OA
ATOM     92  O   UNL A   1      47.999  37.273  30.621  1.00  0.00    -0.237 OA
ATOM     93  O   UNL A   1      49.507  37.028  28.687  1.00  0.00    -0.744 OA
ENDBRANCH  89  90
ENDBRANCH  63  84
ENDBRANCH  37  38
ENDBRANCH  29  32
ENDBRANCH  27  28
ENDBRANCH  26  27
ENDBRANCH   1  26
TORSDOF 18
ENDMDL
