MODEL 1
REMARK VINA RESULT:     -11.3      0.000      0.000
REMARK SMILES Cc1ccc(S(=O)(=O)n2cc(C(=O)C(=O)N[C@@H](Cc3c[nH]c4ccccc34)C(=O)NCC(=O)NCCCCCCNC(=O)c3ccc(-c4c5nc(c(-c6ccc(S(=O)(=O)[O-])cc6)c6ccc([nH]6)c(-c6ccc(S(=O)(=O)[O-])cc6)c6nc(c(-c7ccc(S(=O)(=O)[O-])cc7)c7ccc4[nH]7)C=C6)C=C5)cc3)c3ccccc32)cc1
REMARK SMILES IDX 35 1 34 2 32 3 33 4 31 6 30 7 28 8 29 9 17 11 16 12 14 13
REMARK SMILES IDX 15 14 12 16 13 17 11 18 9 19 10 20 109 21 104 22 108 23
REMARK SMILES IDX 105 24 107 25 106 26 6 27 7 28 8 29 5 30 1 31 2 32 3 33
REMARK SMILES IDX 111 34 4 35 110 36 18 37 19 38 20 39 27 40 21 41 22 42 26 43
REMARK SMILES IDX 23 45 25 46 24 47 36 48 37 49 38 50 39 51 40 52 41 53 42 54
REMARK SMILES IDX 43 56 44 57 45 58 103 59 46 60 102 61 47 62 48 63 49 64
REMARK SMILES IDX 96 65 50 66 101 67 95 68 97 69 51 70 100 71 94 72 93 73
REMARK SMILES IDX 52 75 82 76 63 77 81 78 64 79 67 80 80 81 98 82 65 83 66 84
REMARK SMILES IDX 79 86 99 87 68 88 53 89 54 90 62 91 55 92 61 93 56 94 57 95
REMARK SMILES IDX 58 96 59 97 60 98 83 99 84 100 92 101 85 102 91 103 86 104
REMARK SMILES IDX 87 105 88 106 89 107 90 108 69 109 70 110 78 111 71 112
REMARK SMILES IDX 77 113 72 114 73 115 74 116 75 117 76 118
REMARK H PARENT 34 5 30 10 16 15 21 44 41 55 97 74 67 85
REMARK Flexibility Score: inf
ROOT
ATOM      1  C   UNL A   1      39.799  26.387  27.913  1.00  0.00     0.116 C 
ENDROOT
BRANCH   1   2
ATOM      2  N   UNL A   1      40.455  27.623  28.276  1.00  0.00    -0.355 N 
ATOM      3  C   UNL A   1      39.865  28.837  28.476  1.00  0.00     0.239 C 
ATOM      4  O   UNL A   1      40.540  29.778  28.898  1.00  0.00    -0.273 OA
ATOM      5  H   UNL A   1      41.432  27.585  28.392  1.00  0.00     0.163 HD
BRANCH   3   6
ATOM      6  C   UNL A   1      38.348  28.947  28.329  1.00  0.00     0.216 C 
BRANCH   6   7
ATOM      7  N   UNL A   1      37.567  29.332  29.491  1.00  0.00    -0.345 N 
ATOM      8  C   UNL A   1      36.335  29.914  29.561  1.00  0.00     0.243 C 
ATOM      9  O   UNL A   1      35.682  29.683  30.587  1.00  0.00    -0.273 OA
ATOM     10  H   UNL A   1      37.990  29.145  30.360  1.00  0.00     0.164 HD
BRANCH   8  11
ATOM     11  C   UNL A   1      35.658  30.694  28.391  1.00  0.00     0.176 C 
BRANCH  11  12
ATOM     12  N   UNL A   1      34.182  30.671  28.294  1.00  0.00    -0.337 N 
ATOM     13  C   UNL A   1      33.343  30.063  27.365  1.00  0.00     0.293 C 
ATOM     14  O   UNL A   1      32.162  30.394  27.302  1.00  0.00    -0.265 OA
ATOM     15  H   UNL A   1      33.716  31.168  29.005  1.00  0.00     0.164 HD
BRANCH  13  16
ATOM     16  C   UNL A   1      33.854  28.932  26.462  1.00  0.00     0.252 C 
ATOM     17  O   UNL A   1      34.994  29.087  26.027  1.00  0.00    -0.283 OA
BRANCH  16  18
ATOM     18  C   UNL A   1      33.011  27.795  26.036  1.00  0.00     0.054 A 
ATOM     19  N   UNL A   1      31.997  25.797  25.689  1.00  0.00    -0.240 N 
ATOM     20  C   UNL A   1      33.063  26.422  26.333  1.00  0.00     0.117 A 
ATOM     21  C   UNL A   1      31.215  26.787  25.073  1.00  0.00     0.065 A 
ATOM     22  C   UNL A   1      31.998  27.937  25.036  1.00  0.00     0.012 A 
ATOM     23  C   UNL A   1      30.008  26.698  24.347  1.00  0.00     0.028 A 
ATOM     24  C   UNL A   1      31.659  28.950  24.112  1.00  0.00     0.011 A 
ATOM     25  C   UNL A   1      29.720  27.689  23.412  1.00  0.00     0.002 A 
ATOM     26  C   UNL A   1      30.560  28.781  23.263  1.00  0.00     0.001 A 
BRANCH  19  27
ATOM     27  S   UNL A   1      31.952  24.291  24.829  1.00  0.00     0.268 S 
ATOM     28  O   UNL A   1      32.104  24.712  23.446  1.00  0.00    -0.201 OA
ATOM     29  O   UNL A   1      30.697  23.715  25.299  1.00  0.00    -0.201 OA
BRANCH  27  30
ATOM     30  C   UNL A   1      33.036  22.921  25.002  1.00  0.00     0.088 A 
ATOM     31  C   UNL A   1      36.422  20.232  24.906  1.00  0.00     0.044 C 
ATOM     32  C   UNL A   1      35.226  21.138  24.985  1.00  0.00    -0.051 A 
ATOM     33  C   UNL A   1      35.458  22.501  25.101  1.00  0.00     0.005 A 
ATOM     34  C   UNL A   1      33.893  20.677  24.905  1.00  0.00     0.005 A 
ATOM     35  C   UNL A   1      34.378  23.369  25.119  1.00  0.00     0.022 A 
ATOM     36  C   UNL A   1      32.785  21.564  24.907  1.00  0.00     0.022 A 
ENDBRANCH  27  30
ENDBRANCH  19  27
ENDBRANCH  16  18
ENDBRANCH  13  16
ENDBRANCH  11  12
BRANCH  11  37
ATOM     37  C   UNL A   1      36.254  32.131  28.227  1.00  0.00     0.072 C 
BRANCH  37  38
ATOM     38  C   UNL A   1      36.060  33.107  29.366  1.00  0.00    -0.020 A 
ATOM     39  C   UNL A   1      36.866  33.210  30.488  1.00  0.00     0.087 A 
ATOM     40  C   UNL A   1      34.999  34.063  29.548  1.00  0.00     0.003 A 
ATOM     41  N   UNL A   1      36.270  34.067  31.378  1.00  0.00    -0.361 N 
ATOM     42  C   UNL A   1      35.076  34.517  30.866  1.00  0.00     0.046 A 
ATOM     43  C   UNL A   1      33.902  34.483  28.766  1.00  0.00     0.010 A 
ATOM     44  H   UNL A   1      36.642  34.321  32.253  1.00  0.00     0.166 HD
ATOM     45  C   UNL A   1      34.054  35.255  31.477  1.00  0.00     0.026 A 
ATOM     46  C   UNL A   1      32.860  35.199  29.366  1.00  0.00     0.001 A 
ATOM     47  C   UNL A   1      32.926  35.556  30.710  1.00  0.00     0.002 A 
ENDBRANCH  37  38
ENDBRANCH  11  37
ENDBRANCH   8  11
ENDBRANCH   6   7
ENDBRANCH   3   6
ENDBRANCH   1   2
BRANCH   1  48
ATOM     48  C   UNL A   1      40.521  25.654  26.796  1.00  0.00     0.021 C 
BRANCH  48  49
ATOM     49  C   UNL A   1      42.008  25.403  27.055  1.00  0.00     0.002 C 
BRANCH  49  50
ATOM     50  C   UNL A   1      43.000  26.403  26.438  1.00  0.00     0.002 C 
BRANCH  50  51
ATOM     51  C   UNL A   1      43.892  27.189  27.402  1.00  0.00     0.021 C 
BRANCH  51  52
ATOM     52  C   UNL A   1      45.343  27.313  26.985  1.00  0.00     0.116 C 
BRANCH  52  53
ATOM     53  N   UNL A   1      46.014  26.080  26.613  1.00  0.00    -0.352 N 
ATOM     54  C   UNL A   1      47.055  25.669  27.448  1.00  0.00     0.251 C 
ATOM     55  H   UNL A   1      45.750  25.563  25.816  1.00  0.00     0.163 HD
ATOM     56  O   UNL A   1      48.221  25.996  27.322  1.00  0.00    -0.269 OA
BRANCH  54  57
ATOM     57  C   UNL A   1      46.549  25.107  28.723  1.00  0.00     0.039 A 
ATOM     58  C   UNL A   1      45.346  24.408  28.790  1.00  0.00     0.014 A 
ATOM     59  C   UNL A   1      47.163  25.606  29.875  1.00  0.00     0.014 A 
ATOM     60  C   UNL A   1      44.687  24.310  30.019  1.00  0.00     0.010 A 
ATOM     61  C   UNL A   1      46.457  25.604  31.058  1.00  0.00     0.010 A 
ATOM     62  C   UNL A   1      45.205  24.979  31.131  1.00  0.00    -0.014 A 
BRANCH  62  63
ATOM     63  C   UNL A   1      44.518  25.143  32.410  1.00  0.00     0.031 A 
ATOM     64  C   UNL A   1      43.966  26.466  32.790  1.00  0.00     0.074 A 
ATOM     65  C   UNL A   1      44.233  24.070  33.181  1.00  0.00     0.049 A 
ATOM     66  N   UNL A   1      43.595  26.785  33.987  1.00  0.00    -0.248 NA
ATOM     67  C   UNL A   1      43.828  27.565  31.839  1.00  0.00     0.031 C 
ATOM     68  C   UNL A   1      43.234  24.000  34.246  1.00  0.00     0.029 A 
ATOM     69  N   UNL A   1      44.945  22.878  33.319  1.00  0.00    -0.354 N 
ATOM     70  C   UNL A   1      42.901  27.970  33.904  1.00  0.00     0.074 A 
ATOM     71  C   UNL A   1      43.143  28.454  32.564  1.00  0.00     0.031 C 
ATOM     72  C   UNL A   1      43.582  23.025  35.097  1.00  0.00     0.029 A 
ATOM     73  C   UNL A   1      44.890  22.548  34.686  1.00  0.00     0.049 A 
ATOM     74  H   UNL A   1      45.394  22.371  32.604  1.00  0.00     0.167 HD
ATOM     75  C   UNL A   1      42.094  28.359  34.931  1.00  0.00     0.031 A 
ATOM     76  C   UNL A   1      45.989  22.447  35.492  1.00  0.00     0.031 A 
ATOM     77  C   UNL A   1      42.177  27.457  36.079  1.00  0.00     0.049 A 
ATOM     78  C   UNL A   1      45.956  23.373  36.697  1.00  0.00     0.074 A 
ATOM     79  C   UNL A   1      41.345  26.499  36.636  1.00  0.00     0.029 A 
ATOM     80  N   UNL A   1      43.398  27.311  36.711  1.00  0.00    -0.354 N 
ATOM     81  N   UNL A   1      44.976  24.189  36.973  1.00  0.00    -0.248 NA
ATOM     82  C   UNL A   1      47.077  23.529  37.628  1.00  0.00     0.031 C 
ATOM     83  C   UNL A   1      42.085  25.787  37.625  1.00  0.00     0.029 A 
ATOM     84  C   UNL A   1      43.360  26.318  37.668  1.00  0.00     0.049 A 
ATOM     85  H   UNL A   1      44.197  27.848  36.504  1.00  0.00     0.167 HD
ATOM     86  C   UNL A   1      45.337  25.007  38.010  1.00  0.00     0.074 A 
ATOM     87  C   UNL A   1      46.651  24.538  38.408  1.00  0.00     0.031 C 
ATOM     88  C   UNL A   1      44.566  26.050  38.429  1.00  0.00     0.031 A 
BRANCH  75  89
ATOM     89  C   UNL A   1      41.062  29.461  34.817  1.00  0.00    -0.014 A 
ATOM     90  C   UNL A   1      40.955  30.425  35.840  1.00  0.00     0.010 A 
ATOM     91  C   UNL A   1      40.150  29.586  33.752  1.00  0.00     0.010 A 
ATOM     92  C   UNL A   1      39.934  31.389  35.852  1.00  0.00     0.020 A 
ATOM     93  C   UNL A   1      39.101  30.516  33.769  1.00  0.00     0.020 A 
ATOM     94  C   UNL A   1      38.991  31.408  34.829  1.00  0.00     0.054 A 
BRANCH  94  95
ATOM     95  S   UNL A   1      37.629  32.600  34.902  1.00  0.00     0.124 S 
ATOM     96  O   UNL A   1      38.313  33.874  34.699  1.00  0.00    -0.237 OA
ATOM     97  O   UNL A   1      36.771  32.163  33.805  1.00  0.00    -0.237 OA
ATOM     98  O   UNL A   1      37.072  32.409  36.240  1.00  0.00    -0.744 OA
ENDBRANCH  94  95
ENDBRANCH  75  89
BRANCH  76  99
ATOM     99  C   UNL A   1      47.221  22.025  34.763  1.00  0.00    -0.014 A 
ATOM    100  C   UNL A   1      48.209  23.011  34.554  1.00  0.00     0.010 A 
ATOM    101  C   UNL A   1      47.593  20.669  34.738  1.00  0.00     0.010 A 
ATOM    102  C   UNL A   1      49.562  22.665  34.547  1.00  0.00     0.020 A 
ATOM    103  C   UNL A   1      48.951  20.321  34.711  1.00  0.00     0.020 A 
ATOM    104  C   UNL A   1      49.922  21.328  34.711  1.00  0.00     0.054 A 
BRANCH 104 105
ATOM    105  S   UNL A   1      51.652  20.947  35.129  1.00  0.00     0.124 S 
ATOM    106  O   UNL A   1      51.940  19.802  34.273  1.00  0.00    -0.237 OA
ATOM    107  O   UNL A   1      52.335  22.194  34.774  1.00  0.00    -0.237 OA
ATOM    108  O   UNL A   1      51.597  20.666  36.559  1.00  0.00    -0.744 OA
ENDBRANCH 104 105
ENDBRANCH  76  99
BRANCH  88 109
ATOM    109  C   UNL A   1      44.924  26.959  39.572  1.00  0.00    -0.014 A 
ATOM    110  C   UNL A   1      45.740  28.089  39.407  1.00  0.00     0.010 A 
ATOM    111  C   UNL A   1      44.551  26.613  40.891  1.00  0.00     0.010 A 
ATOM    112  C   UNL A   1      46.121  28.871  40.508  1.00  0.00     0.020 A 
ATOM    113  C   UNL A   1      44.939  27.375  41.996  1.00  0.00     0.020 A 
ATOM    114  C   UNL A   1      45.710  28.513  41.795  1.00  0.00     0.054 A 
BRANCH 114 115
ATOM    115  S   UNL A   1      46.243  29.513  43.208  1.00  0.00     0.124 S 
ATOM    116  O   UNL A   1      47.182  28.627  43.893  1.00  0.00    -0.237 OA
ATOM    117  O   UNL A   1      46.842  30.671  42.547  1.00  0.00    -0.237 OA
ATOM    118  O   UNL A   1      45.005  29.781  43.934  1.00  0.00    -0.744 OA
ENDBRANCH 114 115
ENDBRANCH  88 109
ENDBRANCH  62  63
ENDBRANCH  54  57
ENDBRANCH  52  53
ENDBRANCH  51  52
ENDBRANCH  50  51
ENDBRANCH  49  50
ENDBRANCH  48  49
ENDBRANCH   1  48
TORSDOF 25
ENDMDL
MODEL 2
REMARK VINA RESULT:     -10.4      3.848      6.518
REMARK SMILES Cc1ccc(S(=O)(=O)n2cc(C(=O)C(=O)N[C@@H](Cc3c[nH]c4ccccc34)C(=O)NCC(=O)NCCCCCCNC(=O)c3ccc(-c4c5nc(c(-c6ccc(S(=O)(=O)[O-])cc6)c6ccc([nH]6)c(-c6ccc(S(=O)(=O)[O-])cc6)c6nc(c(-c7ccc(S(=O)(=O)[O-])cc7)c7ccc4[nH]7)C=C6)C=C5)cc3)c3ccccc32)cc1
REMARK SMILES IDX 35 1 34 2 32 3 33 4 31 6 30 7 28 8 29 9 17 11 16 12 14 13
REMARK SMILES IDX 15 14 12 16 13 17 11 18 9 19 10 20 109 21 104 22 108 23
REMARK SMILES IDX 105 24 107 25 106 26 6 27 7 28 8 29 5 30 1 31 2 32 3 33
REMARK SMILES IDX 111 34 4 35 110 36 18 37 19 38 20 39 27 40 21 41 22 42 26 43
REMARK SMILES IDX 23 45 25 46 24 47 36 48 37 49 38 50 39 51 40 52 41 53 42 54
REMARK SMILES IDX 43 56 44 57 45 58 103 59 46 60 102 61 47 62 48 63 49 64
REMARK SMILES IDX 96 65 50 66 101 67 95 68 97 69 51 70 100 71 94 72 93 73
REMARK SMILES IDX 52 75 82 76 63 77 81 78 64 79 67 80 80 81 98 82 65 83 66 84
REMARK SMILES IDX 79 86 99 87 68 88 53 89 54 90 62 91 55 92 61 93 56 94 57 95
REMARK SMILES IDX 58 96 59 97 60 98 83 99 84 100 92 101 85 102 91 103 86 104
REMARK SMILES IDX 87 105 88 106 89 107 90 108 69 109 70 110 78 111 71 112
REMARK SMILES IDX 77 113 72 114 73 115 74 116 75 117 76 118
REMARK H PARENT 34 5 30 10 16 15 21 44 41 55 97 74 67 85
REMARK Flexibility Score: inf
ROOT
ATOM      1  C   UNL A   1      43.015  30.099  26.824  1.00  0.00     0.116 C 
ENDROOT
BRANCH   1   2
ATOM      2  N   UNL A   1      44.377  29.675  26.581  1.00  0.00    -0.355 N 
ATOM      3  C   UNL A   1      45.354  29.482  27.513  1.00  0.00     0.239 C 
ATOM      4  O   UNL A   1      46.438  29.005  27.168  1.00  0.00    -0.273 OA
ATOM      5  H   UNL A   1      44.625  29.508  25.643  1.00  0.00     0.163 HD
BRANCH   3   6
ATOM      6  C   UNL A   1      45.016  29.707  28.986  1.00  0.00     0.216 C 
BRANCH   6   7
ATOM      7  N   UNL A   1      45.690  30.782  29.693  1.00  0.00    -0.345 N 
ATOM      8  C   UNL A   1      45.249  32.037  29.998  1.00  0.00     0.243 C 
ATOM      9  O   UNL A   1      45.755  32.562  30.998  1.00  0.00    -0.273 OA
ATOM     10  H   UNL A   1      46.602  30.574  29.998  1.00  0.00     0.164 HD
BRANCH   8  11
ATOM     11  C   UNL A   1      44.066  32.758  29.280  1.00  0.00     0.176 C 
BRANCH  11  12
ATOM     12  N   UNL A   1      43.341  33.818  30.015  1.00  0.00    -0.337 N 
ATOM     13  C   UNL A   1      42.060  33.832  30.560  1.00  0.00     0.293 C 
ATOM     14  O   UNL A   1      41.547  34.899  30.883  1.00  0.00    -0.265 OA
ATOM     15  H   UNL A   1      43.849  34.653  30.138  1.00  0.00     0.164 HD
BRANCH  13  16
ATOM     16  C   UNL A   1      41.304  32.524  30.831  1.00  0.00     0.252 C 
ATOM     17  O   UNL A   1      41.893  31.721  31.554  1.00  0.00    -0.283 OA
BRANCH  16  18
ATOM     18  C   UNL A   1      40.020  32.184  30.182  1.00  0.00     0.054 A 
ATOM     19  N   UNL A   1      37.977  32.143  29.200  1.00  0.00    -0.240 N 
ATOM     20  C   UNL A   1      38.912  32.970  29.821  1.00  0.00     0.117 A 
ATOM     21  C   UNL A   1      38.538  30.862  29.075  1.00  0.00     0.065 A 
ATOM     22  C   UNL A   1      39.633  30.830  29.933  1.00  0.00     0.012 A 
ATOM     23  C   UNL A   1      38.040  29.685  28.477  1.00  0.00     0.028 A 
ATOM     24  C   UNL A   1      40.126  29.572  30.345  1.00  0.00     0.011 A 
ATOM     25  C   UNL A   1      38.514  28.457  28.932  1.00  0.00     0.002 A 
ATOM     26  C   UNL A   1      39.515  28.399  29.889  1.00  0.00     0.001 A 
BRANCH  19  27
ATOM     27  S   UNL A   1      36.253  32.093  29.377  1.00  0.00     0.268 S 
ATOM     28  O   UNL A   1      36.069  31.079  30.402  1.00  0.00    -0.201 OA
ATOM     29  O   UNL A   1      35.817  31.853  28.005  1.00  0.00    -0.201 OA
BRANCH  27  30
ATOM     30  C   UNL A   1      35.181  33.402  29.845  1.00  0.00     0.088 A 
ATOM     31  C   UNL A   1      32.460  36.031  31.942  1.00  0.00     0.044 C 
ATOM     32  C   UNL A   1      33.423  35.163  31.182  1.00  0.00    -0.051 A 
ATOM     33  C   UNL A   1      34.362  34.450  31.914  1.00  0.00     0.005 A 
ATOM     34  C   UNL A   1      33.390  35.005  29.778  1.00  0.00     0.005 A 
ATOM     35  C   UNL A   1      35.228  33.596  31.250  1.00  0.00     0.022 A 
ATOM     36  C   UNL A   1      34.265  34.120  29.096  1.00  0.00     0.022 A 
ENDBRANCH  27  30
ENDBRANCH  19  27
ENDBRANCH  16  18
ENDBRANCH  13  16
ENDBRANCH  11  12
BRANCH  11  37
ATOM     37  C   UNL A   1      44.438  33.178  27.821  1.00  0.00     0.072 C 
BRANCH  37  38
ATOM     38  C   UNL A   1      44.904  34.598  27.595  1.00  0.00    -0.020 A 
ATOM     39  C   UNL A   1      46.192  35.068  27.798  1.00  0.00     0.087 A 
ATOM     40  C   UNL A   1      44.122  35.738  27.193  1.00  0.00     0.003 A 
ATOM     41  N   UNL A   1      46.184  36.434  27.672  1.00  0.00    -0.361 N 
ATOM     42  C   UNL A   1      44.908  36.872  27.407  1.00  0.00     0.046 A 
ATOM     43  C   UNL A   1      42.781  35.927  26.799  1.00  0.00     0.010 A 
ATOM     44  H   UNL A   1      46.974  37.014  27.760  1.00  0.00     0.166 HD
ATOM     45  C   UNL A   1      44.390  38.173  27.376  1.00  0.00     0.026 A 
ATOM     46  C   UNL A   1      42.239  37.217  26.786  1.00  0.00     0.001 A 
ATOM     47  C   UNL A   1      43.029  38.320  27.097  1.00  0.00     0.002 A 
ENDBRANCH  37  38
ENDBRANCH  11  37
ENDBRANCH   8  11
ENDBRANCH   6   7
ENDBRANCH   3   6
ENDBRANCH   1   2
BRANCH   1  48
ATOM     48  C   UNL A   1      42.143  28.972  27.349  1.00  0.00     0.021 C 
BRANCH  48  49
ATOM     49  C   UNL A   1      41.330  28.242  26.279  1.00  0.00     0.002 C 
BRANCH  49  50
ATOM     50  C   UNL A   1      42.090  27.243  25.389  1.00  0.00     0.002 C 
BRANCH  50  51
ATOM     51  C   UNL A   1      42.712  26.026  26.077  1.00  0.00     0.021 C 
BRANCH  51  52
ATOM     52  C   UNL A   1      44.138  26.211  26.553  1.00  0.00     0.116 C 
BRANCH  52  53
ATOM     53  N   UNL A   1      45.052  25.112  26.297  1.00  0.00    -0.352 N 
ATOM     54  C   UNL A   1      46.214  25.085  27.070  1.00  0.00     0.251 C 
ATOM     55  H   UNL A   1      44.862  24.425  25.617  1.00  0.00     0.163 HD
ATOM     56  O   UNL A   1      47.260  25.635  26.778  1.00  0.00    -0.269 OA
BRANCH  54  57
ATOM     57  C   UNL A   1      45.941  24.645  28.460  1.00  0.00     0.039 A 
ATOM     58  C   UNL A   1      44.863  23.819  28.769  1.00  0.00     0.014 A 
ATOM     59  C   UNL A   1      46.609  25.369  29.451  1.00  0.00     0.014 A 
ATOM     60  C   UNL A   1      44.370  23.811  30.077  1.00  0.00     0.010 A 
ATOM     61  C   UNL A   1      46.051  25.442  30.709  1.00  0.00     0.010 A 
ATOM     62  C   UNL A   1      44.915  24.685  31.022  1.00  0.00    -0.014 A 
BRANCH  62  63
ATOM     63  C   UNL A   1      44.364  24.936  32.351  1.00  0.00     0.031 A 
ATOM     64  C   UNL A   1      43.839  26.280  32.694  1.00  0.00     0.074 A 
ATOM     65  C   UNL A   1      44.173  23.919  33.222  1.00  0.00     0.049 A 
ATOM     66  N   UNL A   1      43.593  26.683  33.897  1.00  0.00    -0.248 NA
ATOM     67  C   UNL A   1      43.590  27.309  31.688  1.00  0.00     0.031 C 
ATOM     68  C   UNL A   1      43.292  23.922  34.389  1.00  0.00     0.029 A 
ATOM     69  N   UNL A   1      44.909  22.744  33.367  1.00  0.00    -0.354 N 
ATOM     70  C   UNL A   1      42.881  27.857  33.804  1.00  0.00     0.074 A 
ATOM     71  C   UNL A   1      42.975  28.245  32.416  1.00  0.00     0.031 C 
ATOM     72  C   UNL A   1      43.739  23.011  35.264  1.00  0.00     0.029 A 
ATOM     73  C   UNL A   1      45.002  22.511  34.753  1.00  0.00     0.049 A 
ATOM     74  H   UNL A   1      45.287  22.189  32.647  1.00  0.00     0.167 HD
ATOM     75  C   UNL A   1      42.181  28.314  34.881  1.00  0.00     0.031 A 
ATOM     76  C   UNL A   1      46.181  22.472  35.444  1.00  0.00     0.031 A 
ATOM     77  C   UNL A   1      42.394  27.497  36.074  1.00  0.00     0.049 A 
ATOM     78  C   UNL A   1      46.263  23.482  36.577  1.00  0.00     0.074 A 
ATOM     79  C   UNL A   1      41.636  26.578  36.782  1.00  0.00     0.029 A 
ATOM     80  N   UNL A   1      43.677  27.401  36.583  1.00  0.00    -0.354 N 
ATOM     81  N   UNL A   1      45.309  24.312  36.896  1.00  0.00    -0.248 NA
ATOM     82  C   UNL A   1      47.473  23.708  37.371  1.00  0.00     0.031 C 
ATOM     83  C   UNL A   1      42.483  25.941  37.735  1.00  0.00     0.029 A 
ATOM     84  C   UNL A   1      43.750  26.478  37.606  1.00  0.00     0.049 A 
ATOM     85  H   UNL A   1      44.443  27.925  36.255  1.00  0.00     0.167 HD
ATOM     86  C   UNL A   1      45.767  25.202  37.830  1.00  0.00     0.074 A 
ATOM     87  C   UNL A   1      47.121  24.769  38.119  1.00  0.00     0.031 C 
ATOM     88  C   UNL A   1      45.032  26.269  38.253  1.00  0.00     0.031 A 
BRANCH  75  89
ATOM     89  C   UNL A   1      41.130  29.401  34.799  1.00  0.00    -0.014 A 
ATOM     90  C   UNL A   1      41.107  30.424  35.769  1.00  0.00     0.010 A 
ATOM     91  C   UNL A   1      40.123  29.457  33.817  1.00  0.00     0.010 A 
ATOM     92  C   UNL A   1      40.081  31.380  35.820  1.00  0.00     0.020 A 
ATOM     93  C   UNL A   1      39.069  30.381  33.877  1.00  0.00     0.020 A 
ATOM     94  C   UNL A   1      39.047  31.333  34.889  1.00  0.00     0.054 A 
BRANCH  94  95
ATOM     95  S   UNL A   1      37.684  32.519  35.019  1.00  0.00     0.124 S 
ATOM     96  O   UNL A   1      38.326  33.779  34.652  1.00  0.00    -0.237 OA
ATOM     97  O   UNL A   1      36.721  31.997  34.053  1.00  0.00    -0.237 OA
ATOM     98  O   UNL A   1      37.273  32.424  36.418  1.00  0.00    -0.744 OA
ENDBRANCH  94  95
ENDBRANCH  75  89
BRANCH  76  99
ATOM     99  C   UNL A   1      47.334  22.005  34.621  1.00  0.00    -0.014 A 
ATOM    100  C   UNL A   1      48.318  22.963  34.295  1.00  0.00     0.010 A 
ATOM    101  C   UNL A   1      47.677  20.641  34.602  1.00  0.00     0.010 A 
ATOM    102  C   UNL A   1      49.658  22.589  34.177  1.00  0.00     0.020 A 
ATOM    103  C   UNL A   1      49.021  20.263  34.465  1.00  0.00     0.020 A 
ATOM    104  C   UNL A   1      50.005  21.250  34.349  1.00  0.00     0.054 A 
BRANCH 104 105
ATOM    105  S   UNL A   1      51.759  20.844  34.621  1.00  0.00     0.124 S 
ATOM    106  O   UNL A   1      51.948  19.671  33.776  1.00  0.00    -0.237 OA
ATOM    107  O   UNL A   1      52.431  22.066  34.172  1.00  0.00    -0.237 OA
ATOM    108  O   UNL A   1      51.827  20.601  36.058  1.00  0.00    -0.744 OA
ENDBRANCH 104 105
ENDBRANCH  76  99
BRANCH  88 109
ATOM    109  C   UNL A   1      45.497  27.259  39.285  1.00  0.00    -0.014 A 
ATOM    110  C   UNL A   1      45.053  27.223  40.617  1.00  0.00     0.010 A 
ATOM    111  C   UNL A   1      46.303  28.355  38.898  1.00  0.00     0.010 A 
ATOM    112  C   UNL A   1      45.443  28.209  41.535  1.00  0.00     0.020 A 
ATOM    113  C   UNL A   1      46.683  29.352  39.801  1.00  0.00     0.020 A 
ATOM    114  C   UNL A   1      46.263  29.263  41.122  1.00  0.00     0.054 A 
BRANCH 114 115
ATOM    115  S   UNL A   1      46.726  30.548  42.312  1.00  0.00     0.124 S 
ATOM    116  O   UNL A   1      45.440  31.156  42.644  1.00  0.00    -0.237 OA
ATOM    117  O   UNL A   1      47.341  29.761  43.379  1.00  0.00    -0.237 OA
ATOM    118  O   UNL A   1      47.639  31.406  41.564  1.00  0.00    -0.744 OA
ENDBRANCH 114 115
ENDBRANCH  88 109
ENDBRANCH  62  63
ENDBRANCH  54  57
ENDBRANCH  52  53
ENDBRANCH  51  52
ENDBRANCH  50  51
ENDBRANCH  49  50
ENDBRANCH  48  49
ENDBRANCH   1  48
TORSDOF 25
ENDMDL
MODEL 3
REMARK VINA RESULT:     -10.1      5.712     10.164
REMARK SMILES Cc1ccc(S(=O)(=O)n2cc(C(=O)C(=O)N[C@@H](Cc3c[nH]c4ccccc34)C(=O)NCC(=O)NCCCCCCNC(=O)c3ccc(-c4c5nc(c(-c6ccc(S(=O)(=O)[O-])cc6)c6ccc([nH]6)c(-c6ccc(S(=O)(=O)[O-])cc6)c6nc(c(-c7ccc(S(=O)(=O)[O-])cc7)c7ccc4[nH]7)C=C6)C=C5)cc3)c3ccccc32)cc1
REMARK SMILES IDX 35 1 34 2 32 3 33 4 31 6 30 7 28 8 29 9 17 11 16 12 14 13
REMARK SMILES IDX 15 14 12 16 13 17 11 18 9 19 10 20 109 21 104 22 108 23
REMARK SMILES IDX 105 24 107 25 106 26 6 27 7 28 8 29 5 30 1 31 2 32 3 33
REMARK SMILES IDX 111 34 4 35 110 36 18 37 19 38 20 39 27 40 21 41 22 42 26 43
REMARK SMILES IDX 23 45 25 46 24 47 36 48 37 49 38 50 39 51 40 52 41 53 42 54
REMARK SMILES IDX 43 56 44 57 45 58 103 59 46 60 102 61 47 62 48 63 49 64
REMARK SMILES IDX 96 65 50 66 101 67 95 68 97 69 51 70 100 71 94 72 93 73
REMARK SMILES IDX 52 75 82 76 63 77 81 78 64 79 67 80 80 81 98 82 65 83 66 84
REMARK SMILES IDX 79 86 99 87 68 88 53 89 54 90 62 91 55 92 61 93 56 94 57 95
REMARK SMILES IDX 58 96 59 97 60 98 83 99 84 100 92 101 85 102 91 103 86 104
REMARK SMILES IDX 87 105 88 106 89 107 90 108 69 109 70 110 78 111 71 112
REMARK SMILES IDX 77 113 72 114 73 115 74 116 75 117 76 118
REMARK H PARENT 34 5 30 10 16 15 21 44 41 55 97 74 67 85
REMARK Flexibility Score: inf
ROOT
ATOM      1  C   UNL A   1      36.877  29.050  28.243  1.00  0.00     0.116 C 
ENDROOT
BRANCH   1   2
ATOM      2  N   UNL A   1      36.288  30.363  28.096  1.00  0.00    -0.355 N 
ATOM      3  C   UNL A   1      35.070  30.659  27.558  1.00  0.00     0.239 C 
ATOM      4  O   UNL A   1      34.651  31.818  27.605  1.00  0.00    -0.273 OA
ATOM      5  H   UNL A   1      36.824  31.123  28.418  1.00  0.00     0.163 HD
BRANCH   3   6
ATOM      6  C   UNL A   1      34.191  29.513  27.060  1.00  0.00     0.216 C 
BRANCH   6   7
ATOM      7  N   UNL A   1      34.458  28.957  25.746  1.00  0.00    -0.345 N 
ATOM      8  C   UNL A   1      33.591  28.616  24.749  1.00  0.00     0.243 C 
ATOM      9  O   UNL A   1      34.042  28.656  23.598  1.00  0.00    -0.273 OA
ATOM     10  H   UNL A   1      35.408  28.804  25.542  1.00  0.00     0.164 HD
BRANCH   8  11
ATOM     11  C   UNL A   1      32.068  28.346  24.957  1.00  0.00     0.176 C 
BRANCH  11  12
ATOM     12  N   UNL A   1      31.650  27.549  26.133  1.00  0.00    -0.337 N 
ATOM     13  C   UNL A   1      30.738  26.504  26.243  1.00  0.00     0.293 C 
ATOM     14  O   UNL A   1      30.330  26.166  27.350  1.00  0.00    -0.265 OA
ATOM     15  H   UNL A   1      32.091  27.801  26.976  1.00  0.00     0.164 HD
BRANCH  13  16
ATOM     16  C   UNL A   1      30.285  25.718  25.005  1.00  0.00     0.252 C 
ATOM     17  O   UNL A   1      29.255  26.132  24.473  1.00  0.00    -0.283 OA
BRANCH  16  18
ATOM     18  C   UNL A   1      30.950  24.482  24.545  1.00  0.00     0.054 A 
ATOM     19  N   UNL A   1      31.781  22.394  24.244  1.00  0.00    -0.240 N 
ATOM     20  C   UNL A   1      31.084  23.211  25.132  1.00  0.00     0.117 A 
ATOM     21  C   UNL A   1      31.996  23.115  23.059  1.00  0.00     0.065 A 
ATOM     22  C   UNL A   1      31.760  24.452  23.367  1.00  0.00     0.012 A 
ATOM     23  C   UNL A   1      32.597  22.738  21.839  1.00  0.00     0.028 A 
ATOM     24  C   UNL A   1      32.303  25.441  22.517  1.00  0.00     0.011 A 
ATOM     25  C   UNL A   1      33.161  23.731  21.041  1.00  0.00     0.002 A 
ATOM     26  C   UNL A   1      33.055  25.065  21.399  1.00  0.00     0.001 A 
BRANCH  19  27
ATOM     27  S   UNL A   1      33.044  21.246  24.556  1.00  0.00     0.268 S 
ATOM     28  O   UNL A   1      32.884  20.296  23.468  1.00  0.00    -0.201 OA
ATOM     29  O   UNL A   1      32.762  20.856  25.933  1.00  0.00    -0.201 OA
BRANCH  27  30
ATOM     30  C   UNL A   1      34.772  21.544  24.639  1.00  0.00     0.088 A 
ATOM     31  C   UNL A   1      38.991  21.441  25.588  1.00  0.00     0.044 C 
ATOM     32  C   UNL A   1      37.539  21.500  25.207  1.00  0.00    -0.051 A 
ATOM     33  C   UNL A   1      36.817  20.315  25.239  1.00  0.00     0.005 A 
ATOM     34  C   UNL A   1      36.870  22.696  24.865  1.00  0.00     0.005 A 
ATOM     35  C   UNL A   1      35.462  20.343  24.948  1.00  0.00     0.022 A 
ATOM     36  C   UNL A   1      35.480  22.731  24.583  1.00  0.00     0.022 A 
ENDBRANCH  27  30
ENDBRANCH  19  27
ENDBRANCH  16  18
ENDBRANCH  13  16
ENDBRANCH  11  12
BRANCH  11  37
ATOM     37  C   UNL A   1      31.215  29.643  24.770  1.00  0.00     0.072 C 
BRANCH  37  38
ATOM     38  C   UNL A   1      30.298  29.715  23.571  1.00  0.00    -0.020 A 
ATOM     39  C   UNL A   1      30.182  28.749  22.583  1.00  0.00     0.087 A 
ATOM     40  C   UNL A   1      29.423  30.790  23.181  1.00  0.00     0.003 A 
ATOM     41  N   UNL A   1      29.401  29.248  21.572  1.00  0.00    -0.361 N 
ATOM     42  C   UNL A   1      29.014  30.533  21.871  1.00  0.00     0.046 A 
ATOM     43  C   UNL A   1      29.050  32.020  23.762  1.00  0.00     0.010 A 
ATOM     44  H   UNL A   1      29.154  28.759  20.755  1.00  0.00     0.166 HD
ATOM     45  C   UNL A   1      28.370  31.489  21.075  1.00  0.00     0.026 A 
ATOM     46  C   UNL A   1      28.429  32.996  22.975  1.00  0.00     0.001 A 
ATOM     47  C   UNL A   1      28.119  32.740  21.643  1.00  0.00     0.002 A 
ENDBRANCH  37  38
ENDBRANCH  11  37
ENDBRANCH   8  11
ENDBRANCH   6   7
ENDBRANCH   3   6
ENDBRANCH   1   2
BRANCH   1  48
ATOM     48  C   UNL A   1      38.318  29.112  28.719  1.00  0.00     0.021 C 
BRANCH  48  49
ATOM     49  C   UNL A   1      38.920  27.761  29.109  1.00  0.00     0.002 C 
BRANCH  49  50
ATOM     50  C   UNL A   1      39.528  26.917  27.976  1.00  0.00     0.002 C 
BRANCH  50  51
ATOM     51  C   UNL A   1      39.767  25.432  28.260  1.00  0.00     0.021 C 
BRANCH  51  52
ATOM     52  C   UNL A   1      41.088  24.883  27.761  1.00  0.00     0.116 C 
BRANCH  52  53
ATOM     53  N   UNL A   1      41.517  23.618  28.332  1.00  0.00    -0.352 N 
ATOM     54  C   UNL A   1      42.419  22.874  27.569  1.00  0.00     0.251 C 
ATOM     55  H   UNL A   1      41.191  23.304  29.207  1.00  0.00     0.163 HD
ATOM     56  O   UNL A   1      42.109  22.052  26.727  1.00  0.00    -0.269 OA
BRANCH  54  57
ATOM     57  C   UNL A   1      43.784  23.452  27.610  1.00  0.00     0.039 A 
ATOM     58  C   UNL A   1      44.383  23.832  28.808  1.00  0.00     0.014 A 
ATOM     59  C   UNL A   1      44.276  23.896  26.380  1.00  0.00     0.014 A 
ATOM     60  C   UNL A   1      45.420  24.769  28.779  1.00  0.00     0.010 A 
ATOM     61  C   UNL A   1      45.219  24.900  26.365  1.00  0.00     0.010 A 
ATOM     62  C   UNL A   1      45.778  25.360  27.564  1.00  0.00    -0.014 A 
BRANCH  62  63
ATOM     63  C   UNL A   1      46.683  26.497  27.417  1.00  0.00     0.031 A 
ATOM     64  C   UNL A   1      48.137  26.323  27.653  1.00  0.00     0.074 A 
ATOM     65  C   UNL A   1      46.240  27.670  26.909  1.00  0.00     0.049 A 
ATOM     66  N   UNL A   1      48.971  27.295  27.821  1.00  0.00    -0.248 NA
ATOM     67  C   UNL A   1      48.765  25.009  27.763  1.00  0.00     0.031 C 
ATOM     68  C   UNL A   1      47.057  28.736  26.333  1.00  0.00     0.029 A 
ATOM     69  N   UNL A   1      44.973  28.244  27.014  1.00  0.00    -0.354 N 
ATOM     70  C   UNL A   1      50.241  26.771  27.744  1.00  0.00     0.074 A 
ATOM     71  C   UNL A   1      50.060  25.339  27.789  1.00  0.00     0.031 C 
ATOM     72  C   UNL A   1      46.383  29.890  26.428  1.00  0.00     0.029 A 
ATOM     73  C   UNL A   1      45.186  29.622  27.205  1.00  0.00     0.049 A 
ATOM     74  H   UNL A   1      44.107  27.779  26.964  1.00  0.00     0.167 HD
ATOM     75  C   UNL A   1      51.305  27.596  27.526  1.00  0.00     0.031 A 
ATOM     76  C   UNL A   1      44.789  30.309  28.318  1.00  0.00     0.031 A 
ATOM     77  C   UNL A   1      50.925  29.007  27.514  1.00  0.00     0.049 A 
ATOM     78  C   UNL A   1      45.926  31.008  29.047  1.00  0.00     0.074 A 
ATOM     79  C   UNL A   1      50.790  29.979  26.535  1.00  0.00     0.029 A 
ATOM     80  N   UNL A   1      50.372  29.548  28.661  1.00  0.00    -0.354 N 
ATOM     81  N   UNL A   1      47.172  30.985  28.664  1.00  0.00    -0.248 NA
ATOM     82  C   UNL A   1      45.760  31.697  30.330  1.00  0.00     0.031 C 
ATOM     83  C   UNL A   1      50.162  31.117  27.120  1.00  0.00     0.029 A 
ATOM     84  C   UNL A   1      49.921  30.835  28.451  1.00  0.00     0.049 A 
ATOM     85  H   UNL A   1      50.306  29.072  29.521  1.00  0.00     0.167 HD
ATOM     86  C   UNL A   1      47.961  31.549  29.631  1.00  0.00     0.074 A 
ATOM     87  C   UNL A   1      47.030  32.007  30.645  1.00  0.00     0.031 C 
ATOM     88  C   UNL A   1      49.322  31.544  29.566  1.00  0.00     0.031 A 
BRANCH  75  89
ATOM     89  C   UNL A   1      52.677  27.105  27.117  1.00  0.00    -0.014 A 
ATOM     90  C   UNL A   1      53.177  27.418  25.836  1.00  0.00     0.010 A 
ATOM     91  C   UNL A   1      53.508  26.308  27.927  1.00  0.00     0.010 A 
ATOM     92  C   UNL A   1      54.381  26.883  25.354  1.00  0.00     0.020 A 
ATOM     93  C   UNL A   1      54.694  25.733  27.446  1.00  0.00     0.020 A 
ATOM     94  C   UNL A   1      55.119  26.015  26.153  1.00  0.00     0.054 A 
BRANCH  94  95
ATOM     95  S   UNL A   1      56.626  25.263  25.487  1.00  0.00     0.124 S 
ATOM     96  O   UNL A   1      56.864  26.049  24.279  1.00  0.00    -0.237 OA
ATOM     97  O   UNL A   1      57.584  25.466  26.571  1.00  0.00    -0.237 OA
ATOM     98  O   UNL A   1      56.245  23.872  25.250  1.00  0.00    -0.744 OA
ENDBRANCH  94  95
ENDBRANCH  75  89
BRANCH  76  99
ATOM     99  C   UNL A   1      43.573  29.736  28.965  1.00  0.00    -0.014 A 
ATOM    100  C   UNL A   1      43.774  28.684  29.885  1.00  0.00     0.010 A 
ATOM    101  C   UNL A   1      42.395  30.500  29.047  1.00  0.00     0.010 A 
ATOM    102  C   UNL A   1      42.934  28.544  30.992  1.00  0.00     0.020 A 
ATOM    103  C   UNL A   1      41.542  30.346  30.150  1.00  0.00     0.020 A 
ATOM    104  C   UNL A   1      41.874  29.434  31.156  1.00  0.00     0.054 A 
BRANCH 104 105
ATOM    105  S   UNL A   1      41.066  29.519  32.786  1.00  0.00     0.124 S 
ATOM    106  O   UNL A   1      41.004  28.117  33.183  1.00  0.00    -0.237 OA
ATOM    107  O   UNL A   1      41.998  30.354  33.547  1.00  0.00    -0.237 OA
ATOM    108  O   UNL A   1      39.782  30.147  32.491  1.00  0.00    -0.744 OA
ENDBRANCH 104 105
ENDBRANCH  76  99
BRANCH  88 109
ATOM    109  C   UNL A   1      50.219  32.164  30.602  1.00  0.00    -0.014 A 
ATOM    110  C   UNL A   1      50.365  31.625  31.890  1.00  0.00     0.010 A 
ATOM    111  C   UNL A   1      50.844  33.406  30.341  1.00  0.00     0.010 A 
ATOM    112  C   UNL A   1      51.147  32.273  32.858  1.00  0.00     0.020 A 
ATOM    113  C   UNL A   1      51.610  34.067  31.304  1.00  0.00     0.020 A 
ATOM    114  C   UNL A   1      51.771  33.486  32.556  1.00  0.00     0.054 A 
BRANCH 114 115
ATOM    115  S   UNL A   1      52.745  34.326  33.831  1.00  0.00     0.124 S 
ATOM    116  O   UNL A   1      51.822  34.372  34.963  1.00  0.00    -0.237 OA
ATOM    117  O   UNL A   1      53.882  33.422  33.985  1.00  0.00    -0.237 OA
ATOM    118  O   UNL A   1      53.056  35.623  33.236  1.00  0.00    -0.744 OA
ENDBRANCH 114 115
ENDBRANCH  88 109
ENDBRANCH  62  63
ENDBRANCH  54  57
ENDBRANCH  52  53
ENDBRANCH  51  52
ENDBRANCH  50  51
ENDBRANCH  49  50
ENDBRANCH  48  49
ENDBRANCH   1  48
TORSDOF 25
ENDMDL
