MODEL 1
REMARK VINA RESULT:     -11.8      0.000      0.000
REMARK SMILES O=C(NCCCCCCNC(=O)c1nnn(-c2cccc(OC(F)(F)F)c2)c1-c1ccncc1)c1ccc(-c2c3nc(c(-c4ccc(S(=O)(=O)[O-])cc4)c4ccc([nH]4)c(-c4ccc(S(=O)(=O)[O-])cc4)c4nc(c(-c5ccc(S(=O)(=O)[O-])cc5)c5ccc2[nH]5)C=C4)C=C3)cc1
REMARK SMILES IDX 6 1 5 2 4 3 3 4 1 5 2 6 35 8 36 9 94 10 37 11 93 12 38 13
REMARK SMILES IDX 39 14 40 15 87 16 41 17 92 18 86 19 88 20 42 21 91 22 85 23
REMARK SMILES IDX 84 24 43 26 73 27 54 28 72 29 55 30 58 31 71 32 89 33 56 34
REMARK SMILES IDX 57 35 70 37 90 38 59 39 44 40 45 41 53 42 46 43 52 44 47 45
REMARK SMILES IDX 48 46 49 47 50 48 51 49 74 50 75 51 83 52 76 53 82 54 77 55
REMARK SMILES IDX 78 56 79 57 80 58 81 59 60 60 61 61 69 62 62 63 68 64 63 65
REMARK SMILES IDX 64 66 65 67 66 68 67 69 7 70 8 71 9 72 10 73 11 74 12 76
REMARK SMILES IDX 13 77 14 78 28 79 15 80 16 81 29 82 30 83 34 84 31 85 33 86
REMARK SMILES IDX 32 87 17 88 18 89 27 90 19 91 21 92 20 93 22 94 23 95 24 96
REMARK SMILES IDX 25 97 26 98
REMARK H PARENT 3 7 88 25 58 36 10 75
REMARK Flexibility Score: inf
ROOT
ATOM      1  C   UNL A   1      35.150  33.667  27.992  1.00  0.00     0.002 C 
ENDROOT
BRANCH   1   2
ATOM      2  C   UNL A   1      34.481  34.943  28.524  1.00  0.00     0.021 C 
BRANCH   2   3
ATOM      3  C   UNL A   1      33.273  34.725  29.433  1.00  0.00     0.116 C 
BRANCH   3   4
ATOM      4  N   UNL A   1      33.512  35.028  30.829  1.00  0.00    -0.352 N 
ATOM      5  O   UNL A   1      34.396  35.333  32.819  1.00  0.00    -0.269 OA
ATOM      6  C   UNL A   1      34.514  34.775  31.724  1.00  0.00     0.251 C 
ATOM      7  H   UNL A   1      32.774  35.540  31.230  1.00  0.00     0.163 HD
BRANCH   6   8
ATOM      8  C   UNL A   1      35.684  33.877  31.502  1.00  0.00     0.039 A 
ATOM      9  C   UNL A   1      36.994  34.277  31.243  1.00  0.00     0.014 A 
ATOM     10  C   UNL A   1      35.413  32.492  31.567  1.00  0.00     0.014 A 
ATOM     11  C   UNL A   1      37.994  33.325  31.023  1.00  0.00     0.010 A 
ATOM     12  C   UNL A   1      36.408  31.538  31.349  1.00  0.00     0.010 A 
ATOM     13  C   UNL A   1      37.703  31.954  31.064  1.00  0.00    -0.014 A 
BRANCH  13  14
ATOM     14  C   UNL A   1      38.813  31.005  30.968  1.00  0.00     0.031 A 
ATOM     15  C   UNL A   1      39.508  30.718  32.255  1.00  0.00     0.074 A 
ATOM     16  C   UNL A   1      39.167  30.297  29.878  1.00  0.00     0.049 A 
ATOM     17  N   UNL A   1      40.701  31.070  32.608  1.00  0.00    -0.248 NA
ATOM     18  C   UNL A   1      38.751  30.024  33.306  1.00  0.00     0.031 C 
ATOM     19  C   UNL A   1      38.452  30.165  28.608  1.00  0.00     0.029 A 
ATOM     20  N   UNL A   1      40.235  29.458  29.720  1.00  0.00    -0.354 N 
ATOM     21  C   UNL A   1      40.924  30.489  33.854  1.00  0.00     0.074 A 
ATOM     22  C   UNL A   1      39.650  29.973  34.291  1.00  0.00     0.031 C 
ATOM     23  C   UNL A   1      38.990  29.146  27.897  1.00  0.00     0.029 A 
ATOM     24  C   UNL A   1      40.170  28.652  28.592  1.00  0.00     0.049 A 
ATOM     25  H   UNL A   1      40.987  29.428  30.355  1.00  0.00     0.167 HD
ATOM     26  C   UNL A   1      42.179  30.305  34.354  1.00  0.00     0.031 A 
ATOM     27  C   UNL A   1      41.003  27.628  28.272  1.00  0.00     0.031 A 
ATOM     28  C   UNL A   1      43.174  31.028  33.609  1.00  0.00     0.049 A 
ATOM     29  C   UNL A   1      42.268  27.821  29.019  1.00  0.00     0.074 A 
ATOM     30  C   UNL A   1      43.398  32.355  33.301  1.00  0.00     0.029 A 
ATOM     31  N   UNL A   1      43.962  30.301  32.748  1.00  0.00    -0.354 N 
ATOM     32  N   UNL A   1      43.114  28.779  28.773  1.00  0.00    -0.248 NA
ATOM     33  C   UNL A   1      42.431  27.161  30.305  1.00  0.00     0.031 C 
ATOM     34  C   UNL A   1      43.923  32.341  31.976  1.00  0.00     0.029 A 
ATOM     35  C   UNL A   1      44.035  31.008  31.576  1.00  0.00     0.049 A 
ATOM     36  H   UNL A   1      44.392  29.437  32.938  1.00  0.00     0.167 HD
ATOM     37  C   UNL A   1      43.626  29.128  30.012  1.00  0.00     0.074 A 
ATOM     38  C   UNL A   1      43.256  28.027  30.897  1.00  0.00     0.031 C 
ATOM     39  C   UNL A   1      44.064  30.398  30.264  1.00  0.00     0.031 A 
BRANCH  26  40
ATOM     40  C   UNL A   1      42.565  29.188  35.295  1.00  0.00    -0.014 A 
ATOM     41  C   UNL A   1      43.508  29.450  36.312  1.00  0.00     0.010 A 
ATOM     42  C   UNL A   1      42.254  27.837  35.043  1.00  0.00     0.010 A 
ATOM     43  C   UNL A   1      44.162  28.410  36.987  1.00  0.00     0.020 A 
ATOM     44  C   UNL A   1      42.865  26.794  35.743  1.00  0.00     0.020 A 
ATOM     45  C   UNL A   1      43.844  27.086  36.685  1.00  0.00     0.054 A 
BRANCH  45  46
ATOM     46  S   UNL A   1      44.773  25.751  37.479  1.00  0.00     0.124 S 
ATOM     47  O   UNL A   1      44.375  25.898  38.875  1.00  0.00    -0.237 OA
ATOM     48  O   UNL A   1      44.261  24.567  36.793  1.00  0.00    -0.237 OA
ATOM     49  O   UNL A   1      46.166  26.082  37.184  1.00  0.00    -0.744 OA
ENDBRANCH  45  46
ENDBRANCH  26  40
BRANCH  27  50
ATOM     50  C   UNL A   1      40.699  26.361  27.559  1.00  0.00    -0.014 A 
ATOM     51  C   UNL A   1      41.667  25.738  26.746  1.00  0.00     0.010 A 
ATOM     52  C   UNL A   1      39.563  25.610  27.919  1.00  0.00     0.010 A 
ATOM     53  C   UNL A   1      41.538  24.390  26.372  1.00  0.00     0.020 A 
ATOM     54  C   UNL A   1      39.424  24.268  27.541  1.00  0.00     0.020 A 
ATOM     55  C   UNL A   1      40.428  23.656  26.794  1.00  0.00     0.054 A 
BRANCH  55  56
ATOM     56  S   UNL A   1      40.366  21.866  26.482  1.00  0.00     0.124 S 
ATOM     57  O   UNL A   1      41.522  21.661  25.613  1.00  0.00    -0.237 OA
ATOM     58  O   UNL A   1      40.478  21.305  27.825  1.00  0.00    -0.237 OA
ATOM     59  O   UNL A   1      39.067  21.672  25.840  1.00  0.00    -0.744 OA
ENDBRANCH  55  56
ENDBRANCH  27  50
BRANCH  39  60
ATOM     60  C   UNL A   1      44.351  31.314  29.099  1.00  0.00    -0.014 A 
ATOM     61  C   UNL A   1      45.429  31.148  28.208  1.00  0.00     0.010 A 
ATOM     62  C   UNL A   1      43.407  32.321  28.826  1.00  0.00     0.010 A 
ATOM     63  C   UNL A   1      45.577  31.993  27.098  1.00  0.00     0.020 A 
ATOM     64  C   UNL A   1      43.536  33.151  27.711  1.00  0.00     0.020 A 
ATOM     65  C   UNL A   1      44.630  32.992  26.859  1.00  0.00     0.054 A 
BRANCH  65  66
ATOM     66  S   UNL A   1      44.807  34.061  25.404  1.00  0.00     0.124 S 
ATOM     67  O   UNL A   1      44.319  33.209  24.324  1.00  0.00    -0.237 OA
ATOM     68  O   UNL A   1      43.960  35.204  25.736  1.00  0.00    -0.237 OA
ATOM     69  O   UNL A   1      46.239  34.356  25.361  1.00  0.00    -0.744 OA
ENDBRANCH  65  66
ENDBRANCH  39  60
ENDBRANCH  13  14
ENDBRANCH   6   8
ENDBRANCH   3   4
ENDBRANCH   2   3
ENDBRANCH   1   2
BRANCH   1  70
ATOM     70  C   UNL A   1      34.378  32.354  28.170  1.00  0.00     0.002 C 
BRANCH  70  71
ATOM     71  C   UNL A   1      35.129  31.072  27.809  1.00  0.00     0.021 C 
BRANCH  71  72
ATOM     72  C   UNL A   1      34.277  29.985  27.164  1.00  0.00     0.116 C 
BRANCH  72  73
ATOM     73  N   UNL A   1      33.086  30.503  26.517  1.00  0.00    -0.351 N 
ATOM     74  C   UNL A   1      31.995  29.799  26.054  1.00  0.00     0.274 C 
ATOM     75  H   UNL A   1      33.052  31.479  26.393  1.00  0.00     0.163 HD
ATOM     76  O   UNL A   1      31.100  30.403  25.463  1.00  0.00    -0.267 OA
BRANCH  74  77
ATOM     77  C   UNL A   1      31.937  28.364  26.284  1.00  0.00     0.178 A 
ATOM     78  N   UNL A   1      31.335  27.820  27.394  1.00  0.00    -0.124 NA
ATOM     79  C   UNL A   1      32.366  27.343  25.448  1.00  0.00     0.108 A 
ATOM     80  N   UNL A   1      31.304  26.501  27.246  1.00  0.00    -0.061 NA
ATOM     81  N   UNL A   1      32.029  26.192  26.151  1.00  0.00    -0.212 N 
BRANCH  79  82
ATOM     82  C   UNL A   1      32.850  27.368  24.067  1.00  0.00     0.006 A 
ATOM     83  C   UNL A   1      32.333  26.508  23.102  1.00  0.00     0.030 A 
ATOM     84  C   UNL A   1      33.883  28.247  23.709  1.00  0.00     0.030 A 
ATOM     85  C   UNL A   1      32.870  26.565  21.827  1.00  0.00     0.111 A 
ATOM     86  C   UNL A   1      34.354  28.226  22.411  1.00  0.00     0.111 A 
ATOM     87  N   UNL A   1      33.873  27.394  21.470  1.00  0.00    -0.265 NA
ENDBRANCH  79  82
BRANCH  81  88
ATOM     88  C   UNL A   1      32.294  24.859  25.767  1.00  0.00     0.071 A 
ATOM     89  C   UNL A   1      31.264  24.063  25.264  1.00  0.00     0.029 A 
ATOM     90  C   UNL A   1      33.623  24.407  25.769  1.00  0.00     0.075 A 
ATOM     91  C   UNL A   1      31.595  22.850  24.661  1.00  0.00     0.006 A 
ATOM     92  C   UNL A   1      33.949  23.186  25.190  1.00  0.00     0.131 A 
ATOM     93  C   UNL A   1      32.928  22.423  24.615  1.00  0.00     0.047 A 
BRANCH  92  94
ATOM     94  O   UNL A   1      35.203  22.655  25.097  1.00  0.00    -0.406 OA
BRANCH  94  95
ATOM     95  C   UNL A   1      36.093  23.227  24.148  1.00  0.00     0.573 C 
ATOM     96  F   UNL A   1      35.428  23.940  23.215  1.00  0.00    -0.132 F 
ATOM     97  F   UNL A   1      36.989  24.035  24.763  1.00  0.00    -0.132 F 
ATOM     98  F   UNL A   1      36.778  22.242  23.532  1.00  0.00    -0.132 F 
ENDBRANCH  94  95
ENDBRANCH  92  94
ENDBRANCH  81  88
ENDBRANCH  74  77
ENDBRANCH  72  73
ENDBRANCH  71  72
ENDBRANCH  70  71
ENDBRANCH   1  70
TORSDOF 20
ENDMDL
MODEL 2
REMARK VINA RESULT:     -11.7      3.152      9.694
REMARK SMILES O=C(NCCCCCCNC(=O)c1nnn(-c2cccc(OC(F)(F)F)c2)c1-c1ccncc1)c1ccc(-c2c3nc(c(-c4ccc(S(=O)(=O)[O-])cc4)c4ccc([nH]4)c(-c4ccc(S(=O)(=O)[O-])cc4)c4nc(c(-c5ccc(S(=O)(=O)[O-])cc5)c5ccc2[nH]5)C=C4)C=C3)cc1
REMARK SMILES IDX 6 1 5 2 4 3 3 4 1 5 2 6 35 8 36 9 94 10 37 11 93 12 38 13
REMARK SMILES IDX 39 14 40 15 87 16 41 17 92 18 86 19 88 20 42 21 91 22 85 23
REMARK SMILES IDX 84 24 43 26 73 27 54 28 72 29 55 30 58 31 71 32 89 33 56 34
REMARK SMILES IDX 57 35 70 37 90 38 59 39 44 40 45 41 53 42 46 43 52 44 47 45
REMARK SMILES IDX 48 46 49 47 50 48 51 49 74 50 75 51 83 52 76 53 82 54 77 55
REMARK SMILES IDX 78 56 79 57 80 58 81 59 60 60 61 61 69 62 62 63 68 64 63 65
REMARK SMILES IDX 64 66 65 67 66 68 67 69 7 70 8 71 9 72 10 73 11 74 12 76
REMARK SMILES IDX 13 77 14 78 28 79 15 80 16 81 29 82 30 83 34 84 31 85 33 86
REMARK SMILES IDX 32 87 17 88 18 89 27 90 19 91 21 92 20 93 22 94 23 95 24 96
REMARK SMILES IDX 25 97 26 98
REMARK H PARENT 3 7 88 25 58 36 10 75
REMARK Flexibility Score: inf
ROOT
ATOM      1  C   UNL A   1      40.775  20.433  26.686  1.00  0.00     0.002 C 
ENDROOT
BRANCH   1   2
ATOM      2  C   UNL A   1      41.309  19.128  26.079  1.00  0.00     0.021 C 
BRANCH   2   3
ATOM      3  C   UNL A   1      42.804  18.876  26.266  1.00  0.00     0.116 C 
BRANCH   3   4
ATOM      4  N   UNL A   1      43.639  19.425  25.218  1.00  0.00    -0.352 N 
ATOM      5  O   UNL A   1      44.971  20.675  23.993  1.00  0.00    -0.269 OA
ATOM      6  C   UNL A   1      44.191  20.647  24.951  1.00  0.00     0.251 C 
ATOM      7  H   UNL A   1      43.863  18.757  24.531  1.00  0.00     0.163 HD
BRANCH   6   8
ATOM      8  C   UNL A   1      43.906  21.918  25.678  1.00  0.00     0.039 A 
ATOM      9  C   UNL A   1      44.477  22.324  26.883  1.00  0.00     0.014 A 
ATOM     10  C   UNL A   1      42.966  22.776  25.066  1.00  0.00     0.014 A 
ATOM     11  C   UNL A   1      44.096  23.533  27.474  1.00  0.00     0.010 A 
ATOM     12  C   UNL A   1      42.582  23.982  25.652  1.00  0.00     0.010 A 
ATOM     13  C   UNL A   1      43.140  24.360  26.867  1.00  0.00    -0.014 A 
BRANCH  13  14
ATOM     14  C   UNL A   1      42.886  25.675  27.457  1.00  0.00     0.031 A 
ATOM     15  C   UNL A   1      43.924  26.705  27.169  1.00  0.00     0.074 A 
ATOM     16  C   UNL A   1      41.769  26.056  28.108  1.00  0.00     0.049 A 
ATOM     17  N   UNL A   1      44.772  27.227  27.993  1.00  0.00    -0.248 NA
ATOM     18  C   UNL A   1      44.089  27.145  25.777  1.00  0.00     0.031 C 
ATOM     19  C   UNL A   1      40.500  25.338  28.234  1.00  0.00     0.029 A 
ATOM     20  N   UNL A   1      41.516  27.245  28.735  1.00  0.00    -0.354 N 
ATOM     21  C   UNL A   1      45.463  28.200  27.274  1.00  0.00     0.074 A 
ATOM     22  C   UNL A   1      45.096  28.013  25.891  1.00  0.00     0.031 C 
ATOM     23  C   UNL A   1      39.556  26.183  28.711  1.00  0.00     0.029 A 
ATOM     24  C   UNL A   1      40.182  27.451  29.058  1.00  0.00     0.049 A 
ATOM     25  H   UNL A   1      42.222  27.899  28.941  1.00  0.00     0.167 HD
ATOM     26  C   UNL A   1      46.140  29.211  27.886  1.00  0.00     0.031 A 
ATOM     27  C   UNL A   1      39.626  28.594  29.537  1.00  0.00     0.031 A 
ATOM     28  C   UNL A   1      46.301  28.983  29.297  1.00  0.00     0.049 A 
ATOM     29  C   UNL A   1      40.707  29.406  30.142  1.00  0.00     0.074 A 
ATOM     30  C   UNL A   1      46.887  28.003  30.073  1.00  0.00     0.029 A 
ATOM     31  N   UNL A   1      45.486  29.698  30.144  1.00  0.00    -0.354 N 
ATOM     32  N   UNL A   1      41.333  29.077  31.236  1.00  0.00    -0.248 NA
ATOM     33  C   UNL A   1      41.364  30.416  29.329  1.00  0.00     0.031 C 
ATOM     34  C   UNL A   1      46.040  27.879  31.212  1.00  0.00     0.029 A 
ATOM     35  C   UNL A   1      45.018  28.822  31.088  1.00  0.00     0.049 A 
ATOM     36  H   UNL A   1      45.279  30.659  30.083  1.00  0.00     0.167 HD
ATOM     37  C   UNL A   1      42.636  29.506  31.043  1.00  0.00     0.074 A 
ATOM     38  C   UNL A   1      42.567  30.420  29.906  1.00  0.00     0.031 C 
ATOM     39  C   UNL A   1      43.685  28.873  31.648  1.00  0.00     0.031 A 
BRANCH  26  40
ATOM     40  C   UNL A   1      46.348  30.583  27.288  1.00  0.00    -0.014 A 
ATOM     41  C   UNL A   1      47.648  31.131  27.278  1.00  0.00     0.010 A 
ATOM     42  C   UNL A   1      45.281  31.457  26.998  1.00  0.00     0.010 A 
ATOM     43  C   UNL A   1      47.861  32.501  27.064  1.00  0.00     0.020 A 
ATOM     44  C   UNL A   1      45.488  32.814  26.737  1.00  0.00     0.020 A 
ATOM     45  C   UNL A   1      46.774  33.335  26.810  1.00  0.00     0.054 A 
BRANCH  45  46
ATOM     46  S   UNL A   1      47.046  35.117  26.648  1.00  0.00     0.124 S 
ATOM     47  O   UNL A   1      48.142  35.339  27.586  1.00  0.00    -0.237 OA
ATOM     48  O   UNL A   1      47.383  35.252  25.234  1.00  0.00    -0.237 OA
ATOM     49  O   UNL A   1      45.761  35.695  27.035  1.00  0.00    -0.744 OA
ENDBRANCH  45  46
ENDBRANCH  26  40
BRANCH  27  50
ATOM     50  C   UNL A   1      38.271  29.149  29.294  1.00  0.00    -0.014 A 
ATOM     51  C   UNL A   1      37.482  29.627  30.360  1.00  0.00     0.010 A 
ATOM     52  C   UNL A   1      37.877  29.488  27.985  1.00  0.00     0.010 A 
ATOM     53  C   UNL A   1      36.386  30.473  30.127  1.00  0.00     0.020 A 
ATOM     54  C   UNL A   1      36.779  30.324  27.745  1.00  0.00     0.020 A 
ATOM     55  C   UNL A   1      36.056  30.837  28.820  1.00  0.00     0.054 A 
BRANCH  55  56
ATOM     56  S   UNL A   1      34.770  32.091  28.536  1.00  0.00     0.124 S 
ATOM     57  O   UNL A   1      33.701  31.307  27.922  1.00  0.00    -0.237 OA
ATOM     58  O   UNL A   1      34.501  32.581  29.884  1.00  0.00    -0.237 OA
ATOM     59  O   UNL A   1      35.419  33.055  27.649  1.00  0.00    -0.744 OA
ENDBRANCH  55  56
ENDBRANCH  27  50
BRANCH  39  60
ATOM     60  C   UNL A   1      43.408  27.961  32.819  1.00  0.00    -0.014 A 
ATOM     61  C   UNL A   1      43.532  26.559  32.777  1.00  0.00     0.010 A 
ATOM     62  C   UNL A   1      43.127  28.571  34.055  1.00  0.00     0.010 A 
ATOM     63  C   UNL A   1      43.340  25.789  33.933  1.00  0.00     0.020 A 
ATOM     64  C   UNL A   1      42.957  27.812  35.214  1.00  0.00     0.020 A 
ATOM     65  C   UNL A   1      43.050  26.422  35.145  1.00  0.00     0.054 A 
BRANCH  65  66
ATOM     66  S   UNL A   1      42.836  25.424  36.645  1.00  0.00     0.124 S 
ATOM     67  O   UNL A   1      42.539  26.434  37.657  1.00  0.00    -0.237 OA
ATOM     68  O   UNL A   1      41.726  24.542  36.292  1.00  0.00    -0.237 OA
ATOM     69  O   UNL A   1      44.124  24.750  36.803  1.00  0.00    -0.744 OA
ENDBRANCH  65  66
ENDBRANCH  39  60
ENDBRANCH  13  14
ENDBRANCH   6   8
ENDBRANCH   3   4
ENDBRANCH   2   3
ENDBRANCH   1   2
BRANCH   1  70
ATOM     70  C   UNL A   1      39.665  21.154  25.911  1.00  0.00     0.002 C 
BRANCH  70  71
ATOM     71  C   UNL A   1      39.250  22.527  26.442  1.00  0.00     0.021 C 
BRANCH  71  72
ATOM     72  C   UNL A   1      37.807  22.922  26.152  1.00  0.00     0.116 C 
BRANCH  72  73
ATOM     73  N   UNL A   1      36.896  21.792  26.152  1.00  0.00    -0.351 N 
ATOM     74  C   UNL A   1      35.737  21.633  25.423  1.00  0.00     0.274 C 
ATOM     75  H   UNL A   1      37.134  21.046  26.748  1.00  0.00     0.163 HD
ATOM     76  O   UNL A   1      35.048  20.630  25.605  1.00  0.00    -0.267 OA
BRANCH  74  77
ATOM     77  C   UNL A   1      35.371  22.656  24.456  1.00  0.00     0.178 A 
ATOM     78  N   UNL A   1      36.068  22.847  23.286  1.00  0.00    -0.124 NA
ATOM     79  C   UNL A   1      34.279  23.512  24.484  1.00  0.00     0.108 A 
ATOM     80  N   UNL A   1      35.409  23.734  22.550  1.00  0.00    -0.061 NA
ATOM     81  N   UNL A   1      34.409  24.236  23.304  1.00  0.00    -0.212 N 
BRANCH  79  82
ATOM     82  C   UNL A   1      33.114  23.558  25.369  1.00  0.00     0.006 A 
ATOM     83  C   UNL A   1      32.170  22.534  25.377  1.00  0.00     0.030 A 
ATOM     84  C   UNL A   1      32.917  24.669  26.202  1.00  0.00     0.030 A 
ATOM     85  C   UNL A   1      31.075  22.668  26.215  1.00  0.00     0.111 A 
ATOM     86  C   UNL A   1      31.790  24.712  27.000  1.00  0.00     0.111 A 
ATOM     87  N   UNL A   1      30.864  23.737  27.011  1.00  0.00    -0.265 NA
ENDBRANCH  79  82
BRANCH  81  88
ATOM     88  C   UNL A   1      33.578  25.287  22.861  1.00  0.00     0.071 A 
ATOM     89  C   UNL A   1      32.534  25.023  21.974  1.00  0.00     0.029 A 
ATOM     90  C   UNL A   1      33.733  26.559  23.436  1.00  0.00     0.075 A 
ATOM     91  C   UNL A   1      31.581  26.016  21.751  1.00  0.00     0.006 A 
ATOM     92  C   UNL A   1      32.796  27.556  23.195  1.00  0.00     0.131 A 
ATOM     93  C   UNL A   1      31.707  27.267  22.368  1.00  0.00     0.047 A 
BRANCH  92  94
ATOM     94  O   UNL A   1      32.816  28.816  23.720  1.00  0.00    -0.406 OA
BRANCH  94  95
ATOM     95  C   UNL A   1      32.512  28.959  25.102  1.00  0.00     0.573 C 
ATOM     96  F   UNL A   1      33.611  28.804  25.867  1.00  0.00    -0.132 F 
ATOM     97  F   UNL A   1      31.973  30.177  25.346  1.00  0.00    -0.132 F 
ATOM     98  F   UNL A   1      31.604  28.026  25.454  1.00  0.00    -0.132 F 
ENDBRANCH  94  95
ENDBRANCH  92  94
ENDBRANCH  81  88
ENDBRANCH  74  77
ENDBRANCH  72  73
ENDBRANCH  71  72
ENDBRANCH  70  71
ENDBRANCH   1  70
TORSDOF 20
ENDMDL
MODEL 3
REMARK VINA RESULT:     -11.4      2.861      9.440
REMARK SMILES O=C(NCCCCCCNC(=O)c1nnn(-c2cccc(OC(F)(F)F)c2)c1-c1ccncc1)c1ccc(-c2c3nc(c(-c4ccc(S(=O)(=O)[O-])cc4)c4ccc([nH]4)c(-c4ccc(S(=O)(=O)[O-])cc4)c4nc(c(-c5ccc(S(=O)(=O)[O-])cc5)c5ccc2[nH]5)C=C4)C=C3)cc1
REMARK SMILES IDX 6 1 5 2 4 3 3 4 1 5 2 6 35 8 36 9 94 10 37 11 93 12 38 13
REMARK SMILES IDX 39 14 40 15 87 16 41 17 92 18 86 19 88 20 42 21 91 22 85 23
REMARK SMILES IDX 84 24 43 26 73 27 54 28 72 29 55 30 58 31 71 32 89 33 56 34
REMARK SMILES IDX 57 35 70 37 90 38 59 39 44 40 45 41 53 42 46 43 52 44 47 45
REMARK SMILES IDX 48 46 49 47 50 48 51 49 74 50 75 51 83 52 76 53 82 54 77 55
REMARK SMILES IDX 78 56 79 57 80 58 81 59 60 60 61 61 69 62 62 63 68 64 63 65
REMARK SMILES IDX 64 66 65 67 66 68 67 69 7 70 8 71 9 72 10 73 11 74 12 76
REMARK SMILES IDX 13 77 14 78 28 79 15 80 16 81 29 82 30 83 34 84 31 85 33 86
REMARK SMILES IDX 32 87 17 88 18 89 27 90 19 91 21 92 20 93 22 94 23 95 24 96
REMARK SMILES IDX 25 97 26 98
REMARK H PARENT 3 7 88 25 58 36 10 75
REMARK Flexibility Score: inf
ROOT
ATOM      1  C   UNL A   1      38.716  21.536  25.641  1.00  0.00     0.002 C 
ENDROOT
BRANCH   1   2
ATOM      2  C   UNL A   1      39.845  21.887  26.621  1.00  0.00     0.021 C 
BRANCH   2   3
ATOM      3  C   UNL A   1      41.188  21.210  26.351  1.00  0.00     0.116 C 
BRANCH   3   4
ATOM      4  N   UNL A   1      41.996  21.864  25.343  1.00  0.00    -0.352 N 
ATOM      5  O   UNL A   1      43.340  23.206  24.234  1.00  0.00    -0.269 OA
ATOM      6  C   UNL A   1      42.620  23.076  25.229  1.00  0.00     0.251 C 
ATOM      7  H   UNL A   1      42.128  21.300  24.548  1.00  0.00     0.163 HD
BRANCH   6   8
ATOM      8  C   UNL A   1      42.473  24.230  26.162  1.00  0.00     0.039 A 
ATOM      9  C   UNL A   1      42.990  24.317  27.454  1.00  0.00     0.014 A 
ATOM     10  C   UNL A   1      41.740  25.330  25.665  1.00  0.00     0.014 A 
ATOM     11  C   UNL A   1      42.751  25.451  28.236  1.00  0.00     0.010 A 
ATOM     12  C   UNL A   1      41.500  26.464  26.441  1.00  0.00     0.010 A 
ATOM     13  C   UNL A   1      41.997  26.523  27.737  1.00  0.00    -0.014 A 
BRANCH  13  14
ATOM     14  C   UNL A   1      41.901  27.739  28.546  1.00  0.00     0.031 A 
ATOM     15  C   UNL A   1      43.015  28.711  28.356  1.00  0.00     0.074 A 
ATOM     16  C   UNL A   1      40.862  28.101  29.324  1.00  0.00     0.049 A 
ATOM     17  N   UNL A   1      43.952  29.015  29.193  1.00  0.00    -0.248 NA
ATOM     18  C   UNL A   1      43.147  29.359  27.044  1.00  0.00     0.031 C 
ATOM     19  C   UNL A   1      39.540  27.483  29.420  1.00  0.00     0.029 A 
ATOM     20  N   UNL A   1      40.757  29.187  30.149  1.00  0.00    -0.354 N 
ATOM     21  C   UNL A   1      44.693  30.031  28.593  1.00  0.00     0.074 A 
ATOM     22  C   UNL A   1      44.237  30.108  27.226  1.00  0.00     0.031 C 
ATOM     23  C   UNL A   1      38.706  28.314  30.090  1.00  0.00     0.029 A 
ATOM     24  C   UNL A   1      39.468  29.450  30.591  1.00  0.00     0.049 A 
ATOM     25  H   UNL A   1      41.532  29.735  30.408  1.00  0.00     0.167 HD
ATOM     26  C   UNL A   1      45.495  30.866  29.311  1.00  0.00     0.031 A 
ATOM     27  C   UNL A   1      39.049  30.541  31.283  1.00  0.00     0.031 A 
ATOM     28  C   UNL A   1      45.708  30.395  30.654  1.00  0.00     0.049 A 
ATOM     29  C   UNL A   1      40.234  31.146  31.935  1.00  0.00     0.074 A 
ATOM     30  C   UNL A   1      46.240  29.254  31.221  1.00  0.00     0.029 A 
ATOM     31  N   UNL A   1      45.012  31.027  31.657  1.00  0.00    -0.354 N 
ATOM     32  N   UNL A   1      40.883  30.590  32.917  1.00  0.00    -0.248 NA
ATOM     33  C   UNL A   1      40.939  32.218  31.251  1.00  0.00     0.031 C 
ATOM     34  C   UNL A   1      45.447  29.016  32.380  1.00  0.00     0.029 A 
ATOM     35  C   UNL A   1      44.514  30.050  32.479  1.00  0.00     0.049 A 
ATOM     36  H   UNL A   1      44.895  31.998  31.765  1.00  0.00     0.167 HD
ATOM     37  C   UNL A   1      42.209  30.932  32.706  1.00  0.00     0.074 A 
ATOM     38  C   UNL A   1      42.167  32.024  31.738  1.00  0.00     0.031 C 
ATOM     39  C   UNL A   1      43.224  30.121  33.129  1.00  0.00     0.031 A 
BRANCH  26  40
ATOM     40  C   UNL A   1      45.800  32.295  28.927  1.00  0.00    -0.014 A 
ATOM     41  C   UNL A   1      44.896  33.310  29.308  1.00  0.00     0.010 A 
ATOM     42  C   UNL A   1      46.779  32.635  27.972  1.00  0.00     0.010 A 
ATOM     43  C   UNL A   1      44.925  34.577  28.708  1.00  0.00     0.020 A 
ATOM     44  C   UNL A   1      46.846  33.909  27.403  1.00  0.00     0.020 A 
ATOM     45  C   UNL A   1      45.894  34.861  27.747  1.00  0.00     0.054 A 
BRANCH  45  46
ATOM     46  S   UNL A   1      45.853  36.458  26.897  1.00  0.00     0.124 S 
ATOM     47  O   UNL A   1      46.644  36.182  25.703  1.00  0.00    -0.237 OA
ATOM     48  O   UNL A   1      44.423  36.658  26.681  1.00  0.00    -0.237 OA
ATOM     49  O   UNL A   1      46.466  37.373  27.859  1.00  0.00    -0.744 OA
ENDBRANCH  45  46
ENDBRANCH  26  40
BRANCH  27  50
ATOM     50  C   UNL A   1      37.742  31.242  31.225  1.00  0.00    -0.014 A 
ATOM     51  C   UNL A   1      36.716  30.937  32.141  1.00  0.00     0.010 A 
ATOM     52  C   UNL A   1      37.612  32.419  30.463  1.00  0.00     0.010 A 
ATOM     53  C   UNL A   1      35.639  31.817  32.341  1.00  0.00     0.020 A 
ATOM     54  C   UNL A   1      36.536  33.297  30.651  1.00  0.00     0.020 A 
ATOM     55  C   UNL A   1      35.570  33.006  31.611  1.00  0.00     0.054 A 
BRANCH  55  56
ATOM     56  S   UNL A   1      34.292  34.233  32.018  1.00  0.00     0.124 S 
ATOM     57  O   UNL A   1      35.084  35.351  32.525  1.00  0.00    -0.237 OA
ATOM     58  O   UNL A   1      33.641  34.454  30.730  1.00  0.00    -0.237 OA
ATOM     59  O   UNL A   1      33.467  33.555  33.016  1.00  0.00    -0.744 OA
ENDBRANCH  55  56
ENDBRANCH  27  50
BRANCH  39  60
ATOM     60  C   UNL A   1      42.925  29.055  34.156  1.00  0.00    -0.014 A 
ATOM     61  C   UNL A   1      42.700  29.313  35.522  1.00  0.00     0.010 A 
ATOM     62  C   UNL A   1      42.744  27.742  33.684  1.00  0.00     0.010 A 
ATOM     63  C   UNL A   1      42.342  28.276  36.396  1.00  0.00     0.020 A 
ATOM     64  C   UNL A   1      42.367  26.710  34.545  1.00  0.00     0.020 A 
ATOM     65  C   UNL A   1      42.181  26.979  35.901  1.00  0.00     0.054 A 
BRANCH  65  66
ATOM     66  S   UNL A   1      41.687  25.646  37.029  1.00  0.00     0.124 S 
ATOM     67  O   UNL A   1      41.522  24.511  36.125  1.00  0.00    -0.237 OA
ATOM     68  O   UNL A   1      42.820  25.561  37.947  1.00  0.00    -0.237 OA
ATOM     69  O   UNL A   1      40.450  26.141  37.632  1.00  0.00    -0.744 OA
ENDBRANCH  65  66
ENDBRANCH  39  60
ENDBRANCH  13  14
ENDBRANCH   6   8
ENDBRANCH   3   4
ENDBRANCH   2   3
ENDBRANCH   1   2
BRANCH   1  70
ATOM     70  C   UNL A   1      37.742  22.662  25.274  1.00  0.00     0.002 C 
BRANCH  70  71
ATOM     71  C   UNL A   1      36.812  22.395  24.090  1.00  0.00     0.021 C 
BRANCH  71  72
ATOM     72  C   UNL A   1      35.419  23.000  24.213  1.00  0.00     0.116 C 
BRANCH  72  73
ATOM     73  N   UNL A   1      34.538  22.628  23.121  1.00  0.00    -0.351 N 
ATOM     74  C   UNL A   1      33.635  23.423  22.449  1.00  0.00     0.274 C 
ATOM     75  H   UNL A   1      34.592  21.692  22.823  1.00  0.00     0.163 HD
ATOM     76  O   UNL A   1      32.914  22.916  21.589  1.00  0.00    -0.267 OA
BRANCH  74  77
ATOM     77  C   UNL A   1      33.566  24.839  22.776  1.00  0.00     0.178 A 
ATOM     78  N   UNL A   1      33.905  25.820  21.875  1.00  0.00    -0.124 NA
ATOM     79  C   UNL A   1      33.097  25.429  23.942  1.00  0.00     0.108 A 
ATOM     80  N   UNL A   1      33.594  26.997  22.405  1.00  0.00    -0.061 NA
ATOM     81  N   UNL A   1      33.230  26.789  23.688  1.00  0.00    -0.212 N 
BRANCH  79  82
ATOM     82  C   UNL A   1      32.409  24.857  25.101  1.00  0.00     0.006 A 
ATOM     83  C   UNL A   1      33.118  24.263  26.142  1.00  0.00     0.030 A 
ATOM     84  C   UNL A   1      31.008  24.871  25.154  1.00  0.00     0.030 A 
ATOM     85  C   UNL A   1      32.395  23.710  27.187  1.00  0.00     0.111 A 
ATOM     86  C   UNL A   1      30.378  24.290  26.237  1.00  0.00     0.111 A 
ATOM     87  N   UNL A   1      31.046  23.703  27.246  1.00  0.00    -0.265 NA
ENDBRANCH  79  82
BRANCH  81  88
ATOM     88  C   UNL A   1      32.940  27.847  24.576  1.00  0.00     0.071 A 
ATOM     89  C   UNL A   1      31.777  28.598  24.407  1.00  0.00     0.029 A 
ATOM     90  C   UNL A   1      33.763  28.030  25.699  1.00  0.00     0.075 A 
ATOM     91  C   UNL A   1      31.386  29.461  25.431  1.00  0.00     0.006 A 
ATOM     92  C   UNL A   1      33.385  28.909  26.708  1.00  0.00     0.131 A 
ATOM     93  C   UNL A   1      32.180  29.603  26.576  1.00  0.00     0.047 A 
BRANCH  92  94
ATOM     94  O   UNL A   1      34.077  29.147  27.860  1.00  0.00    -0.406 OA
BRANCH  94  95
ATOM     95  C   UNL A   1      35.097  30.137  27.824  1.00  0.00     0.573 C 
ATOM     96  F   UNL A   1      35.335  30.645  29.051  1.00  0.00    -0.132 F 
ATOM     97  F   UNL A   1      36.246  29.620  27.331  1.00  0.00    -0.132 F 
ATOM     98  F   UNL A   1      34.711  31.141  27.009  1.00  0.00    -0.132 F 
ENDBRANCH  94  95
ENDBRANCH  92  94
ENDBRANCH  81  88
ENDBRANCH  74  77
ENDBRANCH  72  73
ENDBRANCH  71  72
ENDBRANCH  70  71
ENDBRANCH   1  70
TORSDOF 20
ENDMDL
