MODEL 1
REMARK VINA RESULT:     -12.4      0.000      0.000
REMARK SMILES Cc1cc(S(F)(F)(F)(F)F)cc2c1O[C@H](C(F)(F)F)C(C(=O)NCCCCCCNC(=O)c1ccc(-c3c4nc(c(-c5ccc(S(=O)(=O)[O-])cc5)c5ccc([nH]5)c(-c5ccc(S(=O)(=O)[O-])cc5)c5nc(c(-c6ccc(S(=O)(=O)[O-])cc6)c6ccc3[nH]6)C=C5)C=C4)cc1)=C2
REMARK SMILES IDX 27 1 26 2 25 3 24 4 23 5 21 6 22 7 20 9 1 10 2 11 3 12 13 13
REMARK SMILES IDX 4 14 12 15 14 16 11 17 93 18 15 19 5 20 6 21 7 22 8 23 9 24
REMARK SMILES IDX 10 25 16 26 17 27 18 28 19 29 28 30 29 31 30 32 31 33 32 35
REMARK SMILES IDX 33 36 34 37 92 38 35 39 91 40 36 41 37 42 38 43 85 44 39 45
REMARK SMILES IDX 90 46 84 47 86 48 40 49 89 50 83 51 82 52 41 54 71 55 52 56
REMARK SMILES IDX 70 57 53 58 56 59 69 60 87 61 54 62 55 63 68 65 88 66 57 67
REMARK SMILES IDX 42 68 43 69 51 70 44 71 50 72 45 73 46 74 47 75 48 76 49 77
REMARK SMILES IDX 72 78 73 79 81 80 74 81 80 82 75 83 76 84 77 85 78 86 79 87
REMARK SMILES IDX 58 88 59 89 67 90 60 91 66 92 61 93 62 94 63 95 64 96 65 97
REMARK H PARENT 23 8 30 34 86 53 56 64
REMARK Flexibility Score: inf
ROOT
ATOM      1  C   UNL A   1      31.975  29.735  26.641  1.00  0.00     0.002 C 
ENDROOT
BRANCH   1   2
ATOM      2  C   UNL A   1      33.343  29.481  27.251  1.00  0.00     0.002 C 
BRANCH   2   3
ATOM      3  C   UNL A   1      34.103  28.483  26.393  1.00  0.00     0.021 C 
BRANCH   3   4
ATOM      4  C   UNL A   1      33.366  28.281  25.079  1.00  0.00     0.116 C 
BRANCH   4   5
ATOM      5  N   UNL A   1      33.674  26.946  24.544  1.00  0.00    -0.352 N 
ATOM      6  C   UNL A   1      32.625  26.162  23.877  1.00  0.00     0.251 C 
ATOM      7  O   UNL A   1      32.892  25.008  23.415  1.00  0.00    -0.270 OA
ATOM      8  H   UNL A   1      34.583  26.578  24.634  1.00  0.00     0.163 HD
BRANCH   6   9
ATOM      9  C   UNL A   1      31.222  26.731  23.738  1.00  0.00     0.067 C 
ATOM     10  C   UNL A   1      26.199  27.450  23.961  1.00  0.00     0.048 C 
ATOM     11  C   UNL A   1      27.344  28.257  23.371  1.00  0.00    -0.007 A 
ATOM     12  C   UNL A   1      27.182  29.534  22.879  1.00  0.00     0.031 A 
ATOM     13  C   UNL A   1      28.628  27.733  23.501  1.00  0.00     0.130 A 
ATOM     14  C   UNL A   1      28.282  30.297  22.509  1.00  0.00     0.108 A 
ATOM     15  C   UNL A   1      29.745  28.513  23.128  1.00  0.00     0.019 A 
ATOM     16  O   UNL A   1      28.867  26.378  24.017  1.00  0.00    -0.475 OA
ATOM     17  C   UNL A   1      29.550  29.804  22.633  1.00  0.00     0.036 A 
ATOM     18  C   UNL A   1      31.082  27.935  23.275  1.00  0.00     0.025 C 
ATOM     19  C   UNL A   1      30.138  25.936  24.115  1.00  0.00     0.314 C 
BRANCH  14  20
ATOM     20  S   UNL A   1      28.032  31.965  21.852  1.00  0.00     0.310 S 
ATOM     21  F   UNL A   1      29.527  32.469  22.017  1.00  0.00    -0.094 F 
ATOM     22  F   UNL A   1      27.760  32.516  23.304  1.00  0.00    -0.094 F 
ATOM     23  F   UNL A   1      27.697  33.351  21.233  1.00  0.00    -0.094 F 
ATOM     24  F   UNL A   1      28.444  31.435  20.423  1.00  0.00    -0.094 F 
ATOM     25  F   UNL A   1      28.484  30.585  22.478  1.00  0.00    -0.094 F 
ENDBRANCH  14  20
BRANCH  19  26
ATOM     26  C   UNL A   1      30.327  25.824  25.619  1.00  0.00     0.429 C 
ATOM     27  F   UNL A   1      30.660  27.014  26.113  1.00  0.00    -0.167 F 
ATOM     28  F   UNL A   1      29.192  25.414  26.178  1.00  0.00    -0.167 F 
ATOM     29  F   UNL A   1      31.292  24.949  25.882  1.00  0.00    -0.167 F 
ENDBRANCH  19  26
ENDBRANCH   6   9
ENDBRANCH   4   5
ENDBRANCH   3   4
ENDBRANCH   2   3
ENDBRANCH   1   2
BRANCH   1  30
ATOM     30  C   UNL A   1      31.754  31.232  26.498  1.00  0.00     0.021 C 
BRANCH  30  31
ATOM     31  C   UNL A   1      32.924  31.979  27.118  1.00  0.00     0.116 C 
BRANCH  31  32
ATOM     32  N   UNL A   1      32.526  33.365  27.401  1.00  0.00    -0.352 N 
ATOM     33  C   UNL A   1      33.322  34.184  28.326  1.00  0.00     0.251 C 
ATOM     34  H   UNL A   1      31.726  33.746  26.971  1.00  0.00     0.163 HD
ATOM     35  O   UNL A   1      32.978  35.382  28.572  1.00  0.00    -0.269 OA
BRANCH  33  36
ATOM     36  C   UNL A   1      34.557  33.597  28.990  1.00  0.00     0.039 A 
ATOM     37  C   UNL A   1      35.849  33.816  28.522  1.00  0.00     0.014 A 
ATOM     38  C   UNL A   1      34.405  32.940  30.120  1.00  0.00     0.014 A 
ATOM     39  C   UNL A   1      36.882  33.788  29.485  1.00  0.00     0.010 A 
ATOM     40  C   UNL A   1      35.515  32.467  30.828  1.00  0.00     0.010 A 
ATOM     41  C   UNL A   1      36.729  32.875  30.528  1.00  0.00    -0.014 A 
BRANCH  41  42
ATOM     42  C   UNL A   1      37.936  32.366  31.299  1.00  0.00     0.031 A 
ATOM     43  C   UNL A   1      38.189  32.950  32.541  1.00  0.00     0.074 A 
ATOM     44  C   UNL A   1      38.639  31.285  30.795  1.00  0.00     0.049 A 
ATOM     45  N   UNL A   1      39.092  32.575  33.449  1.00  0.00    -0.248 NA
ATOM     46  C   UNL A   1      37.467  34.119  33.065  1.00  0.00     0.031 C 
ATOM     47  C   UNL A   1      38.384  30.685  29.547  1.00  0.00     0.029 A 
ATOM     48  N   UNL A   1      39.685  30.608  31.382  1.00  0.00    -0.354 N 
ATOM     49  C   UNL A   1      39.025  33.366  34.521  1.00  0.00     0.074 A 
ATOM     50  C   UNL A   1      37.982  34.375  34.287  1.00  0.00     0.031 C 
ATOM     51  C   UNL A   1      39.270  29.668  29.379  1.00  0.00     0.029 A 
ATOM     52  C   UNL A   1      40.093  29.616  30.520  1.00  0.00     0.049 A 
ATOM     53  H   UNL A   1      40.073  30.801  32.267  1.00  0.00     0.167 HD
ATOM     54  C   UNL A   1      39.791  33.285  35.686  1.00  0.00     0.031 A 
ATOM     55  C   UNL A   1      41.125  28.707  30.698  1.00  0.00     0.031 A 
ATOM     56  C   UNL A   1      40.793  32.349  35.882  1.00  0.00     0.049 A 
ATOM     57  C   UNL A   1      41.930  28.663  31.839  1.00  0.00     0.074 A 
ATOM     58  C   UNL A   1      41.568  32.248  37.053  1.00  0.00     0.029 A 
ATOM     59  N   UNL A   1      41.218  31.372  35.009  1.00  0.00    -0.354 N 
ATOM     60  N   UNL A   1      41.837  29.429  32.927  1.00  0.00    -0.248 NA
ATOM     61  C   UNL A   1      43.046  27.727  32.026  1.00  0.00     0.031 C 
ATOM     62  C   UNL A   1      42.456  31.231  36.885  1.00  0.00     0.029 A 
ATOM     63  C   UNL A   1      42.249  30.680  35.607  1.00  0.00     0.049 A 
ATOM     64  H   UNL A   1      40.848  31.198  34.114  1.00  0.00     0.167 HD
ATOM     65  C   UNL A   1      42.766  29.079  33.817  1.00  0.00     0.074 A 
ATOM     66  C   UNL A   1      43.563  27.984  33.247  1.00  0.00     0.031 C 
ATOM     67  C   UNL A   1      42.982  29.625  35.084  1.00  0.00     0.031 A 
BRANCH  54  68
ATOM     68  C   UNL A   1      39.508  34.278  36.801  1.00  0.00    -0.014 A 
ATOM     69  C   UNL A   1      38.612  33.946  37.810  1.00  0.00     0.010 A 
ATOM     70  C   UNL A   1      40.154  35.421  36.889  1.00  0.00     0.010 A 
ATOM     71  C   UNL A   1      38.816  34.563  39.064  1.00  0.00     0.020 A 
ATOM     72  C   UNL A   1      39.937  36.284  37.969  1.00  0.00     0.020 A 
ATOM     73  C   UNL A   1      39.286  35.875  39.038  1.00  0.00     0.054 A 
BRANCH  73  74
ATOM     74  S   UNL A   1      39.009  36.989  40.438  1.00  0.00     0.124 S 
ATOM     75  O   UNL A   1      38.167  38.182  39.980  1.00  0.00    -0.237 OA
ATOM     76  O   UNL A   1      38.268  36.239  41.547  1.00  0.00    -0.237 OA
ATOM     77  O   UNL A   1      40.513  37.545  41.031  1.00  0.00    -0.744 OA
ENDBRANCH  73  74
ENDBRANCH  54  68
BRANCH  55  78
ATOM     78  C   UNL A   1      41.395  27.703  29.590  1.00  0.00    -0.014 A 
ATOM     79  C   UNL A   1      42.397  27.985  28.668  1.00  0.00     0.010 A 
ATOM     80  C   UNL A   1      40.679  26.611  29.421  1.00  0.00     0.010 A 
ATOM     81  C   UNL A   1      42.914  26.889  27.941  1.00  0.00     0.020 A 
ATOM     82  C   UNL A   1      40.916  25.761  28.335  1.00  0.00     0.020 A 
ATOM     83  C   UNL A   1      42.005  25.887  27.607  1.00  0.00     0.054 A 
BRANCH  83  84
ATOM     84  S   UNL A   1      42.315  24.785  26.204  1.00  0.00     0.124 S 
ATOM     85  O   UNL A   1      41.236  23.700  26.160  1.00  0.00    -0.237 OA
ATOM     86  O   UNL A   1      42.280  25.592  24.905  1.00  0.00    -0.237 OA
ATOM     87  O   UNL A   1      43.851  24.056  26.381  1.00  0.00    -0.744 OA
ENDBRANCH  83  84
ENDBRANCH  55  78
BRANCH  67  88
ATOM     88  C   UNL A   1      44.086  29.030  35.940  1.00  0.00    -0.014 A 
ATOM     89  C   UNL A   1      43.835  28.063  36.909  1.00  0.00     0.010 A 
ATOM     90  C   UNL A   1      45.338  29.323  35.661  1.00  0.00     0.010 A 
ATOM     91  C   UNL A   1      44.867  27.131  37.155  1.00  0.00     0.020 A 
ATOM     92  C   UNL A   1      46.389  28.687  36.330  1.00  0.00     0.020 A 
ATOM     93  C   UNL A   1      46.171  27.615  37.062  1.00  0.00     0.054 A 
BRANCH  93  94
ATOM     94  S   UNL A   1      47.530  26.787  37.924  1.00  0.00     0.124 S 
ATOM     95  O   UNL A   1      48.486  27.838  38.496  1.00  0.00    -0.237 OA
ATOM     96  O   UNL A   1      46.968  25.935  39.065  1.00  0.00    -0.237 OA
ATOM     97  O   UNL A   1      48.376  25.785  36.826  1.00  0.00    -0.744 OA
ENDBRANCH  93  94
ENDBRANCH  67  88
ENDBRANCH  41  42
ENDBRANCH  33  36
ENDBRANCH  31  32
ENDBRANCH  30  31
ENDBRANCH   1  30
TORSDOF 18
ENDMDL
MODEL 2
REMARK VINA RESULT:     -12.4      3.146      8.837
REMARK SMILES Cc1cc(S(F)(F)(F)(F)F)cc2c1O[C@H](C(F)(F)F)C(C(=O)NCCCCCCNC(=O)c1ccc(-c3c4nc(c(-c5ccc(S(=O)(=O)[O-])cc5)c5ccc([nH]5)c(-c5ccc(S(=O)(=O)[O-])cc5)c5nc(c(-c6ccc(S(=O)(=O)[O-])cc6)c6ccc3[nH]6)C=C5)C=C4)cc1)=C2
REMARK SMILES IDX 27 1 26 2 25 3 24 4 23 5 21 6 22 7 20 9 1 10 2 11 3 12 13 13
REMARK SMILES IDX 4 14 12 15 14 16 11 17 93 18 15 19 5 20 6 21 7 22 8 23 9 24
REMARK SMILES IDX 10 25 16 26 17 27 18 28 19 29 28 30 29 31 30 32 31 33 32 35
REMARK SMILES IDX 33 36 34 37 92 38 35 39 91 40 36 41 37 42 38 43 85 44 39 45
REMARK SMILES IDX 90 46 84 47 86 48 40 49 89 50 83 51 82 52 41 54 71 55 52 56
REMARK SMILES IDX 70 57 53 58 56 59 69 60 87 61 54 62 55 63 68 65 88 66 57 67
REMARK SMILES IDX 42 68 43 69 51 70 44 71 50 72 45 73 46 74 47 75 48 76 49 77
REMARK SMILES IDX 72 78 73 79 81 80 74 81 80 82 75 83 76 84 77 85 78 86 79 87
REMARK SMILES IDX 58 88 59 89 67 90 60 91 66 92 61 93 62 94 63 95 64 96 65 97
REMARK H PARENT 23 8 30 34 86 53 56 64
REMARK Flexibility Score: inf
ROOT
ATOM      1  C   UNL A   1      39.728  22.592  26.932  1.00  0.00     0.002 C 
ENDROOT
BRANCH   1   2
ATOM      2  C   UNL A   1      39.034  21.710  25.908  1.00  0.00     0.002 C 
BRANCH   2   3
ATOM      3  C   UNL A   1      37.759  22.389  25.435  1.00  0.00     0.021 C 
BRANCH   3   4
ATOM      4  C   UNL A   1      36.885  21.377  24.713  1.00  0.00     0.116 C 
BRANCH   4   5
ATOM      5  N   UNL A   1      35.908  20.812  25.655  1.00  0.00    -0.352 N 
ATOM      6  C   UNL A   1      34.643  21.515  25.913  1.00  0.00     0.251 C 
ATOM      7  O   UNL A   1      33.798  21.026  26.727  1.00  0.00    -0.270 OA
ATOM      8  H   UNL A   1      36.101  19.963  26.114  1.00  0.00     0.163 HD
BRANCH   6   9
ATOM      9  C   UNL A   1      34.343  22.826  25.204  1.00  0.00     0.067 C 
ATOM     10  C   UNL A   1      33.163  26.346  21.737  1.00  0.00     0.048 C 
ATOM     11  C   UNL A   1      33.521  26.414  23.213  1.00  0.00    -0.007 A 
ATOM     12  C   UNL A   1      33.420  27.570  23.954  1.00  0.00     0.031 A 
ATOM     13  C   UNL A   1      33.794  25.209  23.859  1.00  0.00     0.130 A 
ATOM     14  C   UNL A   1      33.592  27.547  25.332  1.00  0.00     0.108 A 
ATOM     15  C   UNL A   1      33.963  25.189  25.261  1.00  0.00     0.019 A 
ATOM     16  O   UNL A   1      33.915  23.942  23.125  1.00  0.00    -0.475 OA
ATOM     17  C   UNL A   1      33.855  26.377  25.986  1.00  0.00     0.036 A 
ATOM     18  C   UNL A   1      34.250  23.910  25.913  1.00  0.00     0.025 C 
ATOM     19  C   UNL A   1      34.181  22.815  23.818  1.00  0.00     0.314 C 
BRANCH  14  20
ATOM     20  S   UNL A   1      33.468  29.089  26.273  1.00  0.00     0.310 S 
ATOM     21  F   UNL A   1      33.361  28.434  27.714  1.00  0.00    -0.094 F 
ATOM     22  F   UNL A   1      31.894  29.026  26.204  1.00  0.00    -0.094 F 
ATOM     23  F   UNL A   1      33.410  30.479  26.968  1.00  0.00    -0.094 F 
ATOM     24  F   UNL A   1      35.036  29.070  26.459  1.00  0.00    -0.094 F 
ATOM     25  F   UNL A   1      33.536  27.629  25.672  1.00  0.00    -0.094 F 
ENDBRANCH  14  20
BRANCH  19  26
ATOM     26  C   UNL A   1      32.896  22.021  23.650  1.00  0.00     0.429 C 
ATOM     27  F   UNL A   1      32.367  22.282  22.457  1.00  0.00    -0.167 F 
ATOM     28  F   UNL A   1      33.163  20.721  23.741  1.00  0.00    -0.167 F 
ATOM     29  F   UNL A   1      32.034  22.364  24.602  1.00  0.00    -0.167 F 
ENDBRANCH  19  26
ENDBRANCH   6   9
ENDBRANCH   4   5
ENDBRANCH   3   4
ENDBRANCH   2   3
ENDBRANCH   1   2
BRANCH   1  30
ATOM     30  C   UNL A   1      41.097  22.017  27.252  1.00  0.00     0.021 C 
BRANCH  30  31
ATOM     31  C   UNL A   1      42.124  23.137  27.283  1.00  0.00     0.116 C 
BRANCH  31  32
ATOM     32  N   UNL A   1      42.097  23.862  26.005  1.00  0.00    -0.352 N 
ATOM     33  C   UNL A   1      41.918  25.322  25.991  1.00  0.00     0.251 C 
ATOM     34  H   UNL A   1      42.199  23.372  25.158  1.00  0.00     0.163 HD
ATOM     35  O   UNL A   1      41.894  25.949  24.887  1.00  0.00    -0.269 OA
BRANCH  33  36
ATOM     36  C   UNL A   1      41.761  26.079  27.299  1.00  0.00     0.039 A 
ATOM     37  C   UNL A   1      42.748  26.910  27.821  1.00  0.00     0.014 A 
ATOM     38  C   UNL A   1      40.597  26.032  27.911  1.00  0.00     0.014 A 
ATOM     39  C   UNL A   1      42.308  27.989  28.619  1.00  0.00     0.010 A 
ATOM     40  C   UNL A   1      40.362  26.792  29.062  1.00  0.00     0.010 A 
ATOM     41  C   UNL A   1      41.190  27.751  29.417  1.00  0.00    -0.014 A 
BRANCH  41  42
ATOM     42  C   UNL A   1      40.933  28.580  30.665  1.00  0.00     0.031 A 
ATOM     43  C   UNL A   1      41.799  28.389  31.743  1.00  0.00     0.074 A 
ATOM     44  C   UNL A   1      39.946  29.550  30.628  1.00  0.00     0.049 A 
ATOM     45  N   UNL A   1      41.859  29.094  32.874  1.00  0.00    -0.248 NA
ATOM     46  C   UNL A   1      42.825  27.337  31.800  1.00  0.00     0.031 C 
ATOM     47  C   UNL A   1      39.074  29.754  29.541  1.00  0.00     0.029 A 
ATOM     48  N   UNL A   1      39.628  30.470  31.601  1.00  0.00    -0.354 N 
ATOM     49  C   UNL A   1      42.829  28.624  33.660  1.00  0.00     0.074 A 
ATOM     50  C   UNL A   1      43.461  27.484  32.983  1.00  0.00     0.031 C 
ATOM     51  C   UNL A   1      38.236  30.775  29.858  1.00  0.00     0.029 A 
ATOM     52  C   UNL A   1      38.570  31.226  31.149  1.00  0.00     0.049 A 
ATOM     53  H   UNL A   1      40.080  30.570  32.471  1.00  0.00     0.167 HD
ATOM     54  C   UNL A   1      43.213  29.104  34.914  1.00  0.00     0.031 A 
ATOM     55  C   UNL A   1      37.917  32.255  31.811  1.00  0.00     0.031 A 
ATOM     56  C   UNL A   1      42.589  30.160  35.557  1.00  0.00     0.049 A 
ATOM     57  C   UNL A   1      38.264  32.696  33.090  1.00  0.00     0.074 A 
ATOM     58  C   UNL A   1      42.969  30.661  36.816  1.00  0.00     0.029 A 
ATOM     59  N   UNL A   1      41.514  30.900  35.115  1.00  0.00    -0.354 N 
ATOM     60  N   UNL A   1      39.260  32.253  33.859  1.00  0.00    -0.248 NA
ATOM     61  C   UNL A   1      37.559  33.763  33.814  1.00  0.00     0.031 C 
ATOM     62  C   UNL A   1      42.129  31.682  37.135  1.00  0.00     0.029 A 
ATOM     63  C   UNL A   1      41.211  31.837  36.079  1.00  0.00     0.049 A 
ATOM     64  H   UNL A   1      41.045  30.781  34.258  1.00  0.00     0.167 HD
ATOM     65  C   UNL A   1      39.292  32.932  35.006  1.00  0.00     0.074 A 
ATOM     66  C   UNL A   1      38.194  33.908  34.997  1.00  0.00     0.031 C 
ATOM     67  C   UNL A   1      40.195  32.780  36.060  1.00  0.00     0.031 A 
BRANCH  54  68
ATOM     68  C   UNL A   1      44.383  28.430  35.612  1.00  0.00    -0.014 A 
ATOM     69  C   UNL A   1      45.670  28.928  35.440  1.00  0.00     0.010 A 
ATOM     70  C   UNL A   1      44.206  27.431  36.450  1.00  0.00     0.010 A 
ATOM     71  C   UNL A   1      46.580  28.704  36.496  1.00  0.00     0.020 A 
ATOM     72  C   UNL A   1      45.289  26.879  37.144  1.00  0.00     0.020 A 
ATOM     73  C   UNL A   1      46.453  27.494  37.175  1.00  0.00     0.054 A 
BRANCH  73  74
ATOM     74  S   UNL A   1      47.853  26.783  38.077  1.00  0.00     0.124 S 
ATOM     75  O   UNL A   1      47.509  25.356  38.510  1.00  0.00    -0.237 OA
ATOM     76  O   UNL A   1      49.084  26.756  37.168  1.00  0.00    -0.237 OA
ATOM     77  O   UNL A   1      48.184  27.734  39.458  1.00  0.00    -0.744 OA
ENDBRANCH  73  74
ENDBRANCH  54  68
BRANCH  55  78
ATOM     78  C   UNL A   1      36.759  32.940  31.105  1.00  0.00    -0.014 A 
ATOM     79  C   UNL A   1      37.029  34.047  30.307  1.00  0.00     0.010 A 
ATOM     80  C   UNL A   1      35.504  32.578  31.267  1.00  0.00     0.010 A 
ATOM     81  C   UNL A   1      36.050  34.388  29.347  1.00  0.00     0.020 A 
ATOM     82  C   UNL A   1      34.468  33.296  30.659  1.00  0.00     0.020 A 
ATOM     83  C   UNL A   1      34.723  34.181  29.719  1.00  0.00     0.054 A 
BRANCH  83  84
ATOM     84  S   UNL A   1      33.384  35.106  28.928  1.00  0.00     0.124 S 
ATOM     85  O   UNL A   1      33.976  36.199  28.035  1.00  0.00    -0.237 OA
ATOM     86  O   UNL A   1      32.539  34.155  28.078  1.00  0.00    -0.237 OA
ATOM     87  O   UNL A   1      32.400  35.824  30.129  1.00  0.00    -0.744 OA
ENDBRANCH  83  84
ENDBRANCH  55  78
BRANCH  67  88
ATOM     88  C   UNL A   1      40.056  33.703  37.259  1.00  0.00    -0.014 A 
ATOM     89  C   UNL A   1      40.724  34.920  37.340  1.00  0.00     0.010 A 
ATOM     90  C   UNL A   1      39.163  33.417  38.183  1.00  0.00     0.010 A 
ATOM     91  C   UNL A   1      40.080  35.948  38.063  1.00  0.00     0.020 A 
ATOM     92  C   UNL A   1      38.902  34.312  39.227  1.00  0.00     0.020 A 
ATOM     93  C   UNL A   1      39.344  35.551  39.178  1.00  0.00     0.054 A 
BRANCH  93  94
ATOM     94  S   UNL A   1      39.003  36.711  40.525  1.00  0.00     0.124 S 
ATOM     95  O   UNL A   1      40.322  37.155  41.162  1.00  0.00    -0.237 OA
ATOM     96  O   UNL A   1      38.266  37.933  39.972  1.00  0.00    -0.237 OA
ATOM     97  O   UNL A   1      38.031  35.944  41.705  1.00  0.00    -0.744 OA
ENDBRANCH  93  94
ENDBRANCH  67  88
ENDBRANCH  41  42
ENDBRANCH  33  36
ENDBRANCH  31  32
ENDBRANCH  30  31
ENDBRANCH   1  30
TORSDOF 18
ENDMDL
MODEL 3
REMARK VINA RESULT:     -12.3      4.860     10.259
REMARK SMILES Cc1cc(S(F)(F)(F)(F)F)cc2c1O[C@H](C(F)(F)F)C(C(=O)NCCCCCCNC(=O)c1ccc(-c3c4nc(c(-c5ccc(S(=O)(=O)[O-])cc5)c5ccc([nH]5)c(-c5ccc(S(=O)(=O)[O-])cc5)c5nc(c(-c6ccc(S(=O)(=O)[O-])cc6)c6ccc3[nH]6)C=C5)C=C4)cc1)=C2
REMARK SMILES IDX 27 1 26 2 25 3 24 4 23 5 21 6 22 7 20 9 1 10 2 11 3 12 13 13
REMARK SMILES IDX 4 14 12 15 14 16 11 17 93 18 15 19 5 20 6 21 7 22 8 23 9 24
REMARK SMILES IDX 10 25 16 26 17 27 18 28 19 29 28 30 29 31 30 32 31 33 32 35
REMARK SMILES IDX 33 36 34 37 92 38 35 39 91 40 36 41 37 42 38 43 85 44 39 45
REMARK SMILES IDX 90 46 84 47 86 48 40 49 89 50 83 51 82 52 41 54 71 55 52 56
REMARK SMILES IDX 70 57 53 58 56 59 69 60 87 61 54 62 55 63 68 65 88 66 57 67
REMARK SMILES IDX 42 68 43 69 51 70 44 71 50 72 45 73 46 74 47 75 48 76 49 77
REMARK SMILES IDX 72 78 73 79 81 80 74 81 80 82 75 83 76 84 77 85 78 86 79 87
REMARK SMILES IDX 58 88 59 89 67 90 60 91 66 92 61 93 62 94 63 95 64 96 65 97
REMARK H PARENT 23 8 30 34 86 53 56 64
REMARK Flexibility Score: inf
ROOT
ATOM      1  C   UNL A   1      32.950  28.866  24.282  1.00  0.00     0.002 C 
ENDROOT
BRANCH   1   2
ATOM      2  C   UNL A   1      32.405  28.075  23.105  1.00  0.00     0.002 C 
BRANCH   2   3
ATOM      3  C   UNL A   1      33.521  27.247  22.488  1.00  0.00     0.021 C 
BRANCH   3   4
ATOM      4  C   UNL A   1      32.946  25.953  21.938  1.00  0.00     0.116 C 
BRANCH   4   5
ATOM      5  N   UNL A   1      31.544  25.820  22.359  1.00  0.00    -0.352 N 
ATOM      6  C   UNL A   1      31.141  24.712  23.237  1.00  0.00     0.251 C 
ATOM      7  O   UNL A   1      29.929  24.598  23.602  1.00  0.00    -0.270 OA
ATOM      8  H   UNL A   1      30.875  26.474  22.053  1.00  0.00     0.163 HD
BRANCH   6   9
ATOM      9  C   UNL A   1      32.176  23.702  23.710  1.00  0.00     0.067 C 
ATOM     10  C   UNL A   1      36.223  21.485  25.831  1.00  0.00     0.048 C 
ATOM     11  C   UNL A   1      35.048  20.958  25.023  1.00  0.00    -0.007 A 
ATOM     12  C   UNL A   1      34.801  19.614  24.854  1.00  0.00     0.031 A 
ATOM     13  C   UNL A   1      34.103  21.887  24.592  1.00  0.00     0.130 A 
ATOM     14  C   UNL A   1      33.626  19.178  24.255  1.00  0.00     0.108 A 
ATOM     15  C   UNL A   1      32.906  21.440  23.989  1.00  0.00     0.019 A 
ATOM     16  O   UNL A   1      34.307  23.334  24.744  1.00  0.00    -0.475 OA
ATOM     17  C   UNL A   1      32.683  20.071  23.831  1.00  0.00     0.036 A 
ATOM     18  C   UNL A   1      31.932  22.438  23.546  1.00  0.00     0.025 C 
ATOM     19  C   UNL A   1      33.348  24.174  24.302  1.00  0.00     0.314 C 
BRANCH  14  20
ATOM     20  S   UNL A   1      33.341  17.404  24.035  1.00  0.00     0.310 S 
ATOM     21  F   UNL A   1      34.765  16.911  24.528  1.00  0.00    -0.094 F 
ATOM     22  F   UNL A   1      33.943  17.469  22.580  1.00  0.00    -0.094 F 
ATOM     23  F   UNL A   1      32.958  15.910  23.840  1.00  0.00    -0.094 F 
ATOM     24  F   UNL A   1      32.870  17.321  25.540  1.00  0.00    -0.094 F 
ATOM     25  F   UNL A   1      33.826  18.888  24.284  1.00  0.00    -0.094 F 
ENDBRANCH  14  20
BRANCH  19  26
ATOM     26  C   UNL A   1      32.833  24.784  25.595  1.00  0.00     0.429 C 
ATOM     27  F   UNL A   1      32.142  25.887  25.320  1.00  0.00    -0.167 F 
ATOM     28  F   UNL A   1      32.044  23.910  26.215  1.00  0.00    -0.167 F 
ATOM     29  F   UNL A   1      33.860  25.090  26.382  1.00  0.00    -0.167 F 
ENDBRANCH  19  26
ENDBRANCH   6   9
ENDBRANCH   4   5
ENDBRANCH   3   4
ENDBRANCH   2   3
ENDBRANCH   1   2
BRANCH   1  30
ATOM     30  C   UNL A   1      34.219  28.203  24.792  1.00  0.00     0.021 C 
BRANCH  30  31
ATOM     31  C   UNL A   1      34.289  28.338  26.305  1.00  0.00     0.116 C 
BRANCH  31  32
ATOM     32  N   UNL A   1      33.592  29.563  26.720  1.00  0.00    -0.352 N 
ATOM     33  C   UNL A   1      34.263  30.525  27.607  1.00  0.00     0.251 C 
ATOM     34  H   UNL A   1      32.677  29.741  26.405  1.00  0.00     0.163 HD
ATOM     35  O   UNL A   1      33.660  31.584  27.967  1.00  0.00    -0.269 OA
BRANCH  33  36
ATOM     36  C   UNL A   1      35.676  30.251  28.094  1.00  0.00     0.039 A 
ATOM     37  C   UNL A   1      35.984  29.983  29.424  1.00  0.00     0.014 A 
ATOM     38  C   UNL A   1      36.636  30.156  27.200  1.00  0.00     0.014 A 
ATOM     39  C   UNL A   1      37.110  29.164  29.659  1.00  0.00     0.010 A 
ATOM     40  C   UNL A   1      37.935  29.803  27.579  1.00  0.00     0.010 A 
ATOM     41  C   UNL A   1      38.179  29.316  28.777  1.00  0.00    -0.014 A 
BRANCH  41  42
ATOM     42  C   UNL A   1      39.590  28.928  29.188  1.00  0.00     0.031 A 
ATOM     43  C   UNL A   1      40.028  27.652  28.831  1.00  0.00     0.074 A 
ATOM     44  C   UNL A   1      40.396  29.884  29.782  1.00  0.00     0.049 A 
ATOM     45  N   UNL A   1      41.257  27.149  28.955  1.00  0.00    -0.248 NA
ATOM     46  C   UNL A   1      39.166  26.622  28.232  1.00  0.00     0.031 C 
ATOM     47  C   UNL A   1      39.963  31.177  30.138  1.00  0.00     0.029 A 
ATOM     48  N   UNL A   1      41.723  29.774  30.130  1.00  0.00    -0.354 N 
ATOM     49  C   UNL A   1      41.294  25.901  28.484  1.00  0.00     0.074 A 
ATOM     50  C   UNL A   1      39.948  25.542  28.018  1.00  0.00     0.031 C 
ATOM     51  C   UNL A   1      41.011  31.832  30.703  1.00  0.00     0.029 A 
ATOM     52  C   UNL A   1      42.117  30.960  30.709  1.00  0.00     0.049 A 
ATOM     53  H   UNL A   1      42.293  28.983  29.989  1.00  0.00     0.167 HD
ATOM     54  C   UNL A   1      42.399  25.048  28.424  1.00  0.00     0.031 A 
ATOM     55  C   UNL A   1      43.364  31.282  31.222  1.00  0.00     0.031 A 
ATOM     56  C   UNL A   1      43.656  25.386  28.897  1.00  0.00     0.049 A 
ATOM     57  C   UNL A   1      44.454  30.408  31.214  1.00  0.00     0.074 A 
ATOM     58  C   UNL A   1      44.782  24.543  28.836  1.00  0.00     0.029 A 
ATOM     59  N   UNL A   1      44.043  26.564  29.499  1.00  0.00    -0.354 N 
ATOM     60  N   UNL A   1      44.501  29.175  30.708  1.00  0.00    -0.248 NA
ATOM     61  C   UNL A   1      45.770  30.727  31.783  1.00  0.00     0.031 C 
ATOM     62  C   UNL A   1      45.831  25.197  29.403  1.00  0.00     0.029 A 
ATOM     63  C   UNL A   1      45.378  26.461  29.826  1.00  0.00     0.049 A 
ATOM     64  H   UNL A   1      43.467  27.343  29.665  1.00  0.00     0.167 HD
ATOM     65  C   UNL A   1      45.720  28.658  30.870  1.00  0.00     0.074 A 
ATOM     66  C   UNL A   1      46.552  29.645  31.570  1.00  0.00     0.031 C 
ATOM     67  C   UNL A   1      46.174  27.403  30.459  1.00  0.00     0.031 A 
BRANCH  54  68
ATOM     68  C   UNL A   1      42.210  23.673  27.805  1.00  0.00    -0.014 A 
ATOM     69  C   UNL A   1      42.531  23.470  26.467  1.00  0.00     0.010 A 
ATOM     70  C   UNL A   1      41.830  22.638  28.522  1.00  0.00     0.010 A 
ATOM     71  C   UNL A   1      42.917  22.161  26.103  1.00  0.00     0.020 A 
ATOM     72  C   UNL A   1      41.743  21.364  27.948  1.00  0.00     0.020 A 
ATOM     73  C   UNL A   1      42.272  21.119  26.768  1.00  0.00     0.054 A 
BRANCH  73  74
ATOM     74  S   UNL A   1      42.163  19.471  26.027  1.00  0.00     0.124 S 
ATOM     75  O   UNL A   1      43.008  19.429  24.751  1.00  0.00    -0.237 OA
ATOM     76  O   UNL A   1      42.688  18.431  27.020  1.00  0.00    -0.237 OA
ATOM     77  O   UNL A   1      40.534  19.123  25.644  1.00  0.00    -0.744 OA
ENDBRANCH  73  74
ENDBRANCH  54  68
BRANCH  55  78
ATOM     78  C   UNL A   1      43.556  32.664  31.825  1.00  0.00    -0.014 A 
ATOM     79  C   UNL A   1      43.981  33.696  30.996  1.00  0.00     0.010 A 
ATOM     80  C   UNL A   1      43.406  32.913  33.108  1.00  0.00     0.010 A 
ATOM     81  C   UNL A   1      43.739  35.012  31.451  1.00  0.00     0.020 A 
ATOM     82  C   UNL A   1      43.676  34.185  33.626  1.00  0.00     0.020 A 
ATOM     83  C   UNL A   1      43.839  35.217  32.826  1.00  0.00     0.054 A 
BRANCH  83  84
ATOM     84  S   UNL A   1      44.184  36.863  33.495  1.00  0.00     0.124 S 
ATOM     85  O   UNL A   1      43.974  37.913  32.400  1.00  0.00    -0.237 OA
ATOM     86  O   UNL A   1      43.237  37.148  34.663  1.00  0.00    -0.237 OA
ATOM     87  O   UNL A   1      45.802  36.928  34.043  1.00  0.00    -0.744 OA
ENDBRANCH  83  84
ENDBRANCH  55  78
BRANCH  67  88
ATOM     88  C   UNL A   1      47.628  27.048  30.722  1.00  0.00    -0.014 A 
ATOM     89  C   UNL A   1      48.645  27.375  29.831  1.00  0.00     0.010 A 
ATOM     90  C   UNL A   1      47.960  26.549  31.894  1.00  0.00     0.010 A 
ATOM     91  C   UNL A   1      49.917  27.631  30.389  1.00  0.00     0.020 A 
ATOM     92  C   UNL A   1      49.303  26.343  32.229  1.00  0.00     0.020 A 
ATOM     93  C   UNL A   1      50.267  26.867  31.502  1.00  0.00     0.054 A 
BRANCH  93  94
ATOM     94  S   UNL A   1      52.004  26.606  31.937  1.00  0.00     0.124 S 
ATOM     95  O   UNL A   1      52.091  25.683  33.156  1.00  0.00    -0.237 OA
ATOM     96  O   UNL A   1      52.735  25.961  30.757  1.00  0.00    -0.237 OA
ATOM     97  O   UNL A   1      52.732  28.108  32.308  1.00  0.00    -0.744 OA
ENDBRANCH  93  94
ENDBRANCH  67  88
ENDBRANCH  41  42
ENDBRANCH  33  36
ENDBRANCH  31  32
ENDBRANCH  30  31
ENDBRANCH   1  30
TORSDOF 18
ENDMDL
