MODEL 1
REMARK VINA RESULT:      -8.9      0.000      0.000
REMARK SMILES Cc1ccc([C@H](C)Nc2ccc(C(=O)NCCCCCCNC(=O)c3ccc(-c4c5nc(c(-c6ccc(S(=O)(=O)[O-])cc6)c6ccc([nH]6)c(-c6ccc(S(=O)(=O)[O-])cc6)c6nc(c(-c7ccc(S(=O)(=O)[O-])cc7)c7ccc4[nH]7)C=C6)C=C5)cc3)cc2Cl)cc1F
REMARK SMILES IDX 18 1 17 2 16 3 15 4 13 5 14 6 12 8 9 9 10 10 86 11 11 12
REMARK SMILES IDX 85 13 87 14 8 15 6 17 7 18 5 19 1 20 2 21 3 22 89 23 4 24
REMARK SMILES IDX 88 25 90 26 19 27 20 28 21 29 22 30 23 31 24 33 25 34 26 35
REMARK SMILES IDX 84 36 27 37 83 38 28 39 29 40 30 41 77 42 31 43 82 44 76 45
REMARK SMILES IDX 78 46 32 47 81 48 75 49 74 50 33 52 63 53 44 54 62 55 45 56
REMARK SMILES IDX 48 57 61 58 79 59 46 60 47 61 60 63 80 64 49 65 34 66 35 67
REMARK SMILES IDX 43 68 36 69 42 70 37 71 38 72 39 73 40 74 41 75 64 76 65 77
REMARK SMILES IDX 73 78 66 79 72 80 67 81 68 82 69 83 70 84 71 85 50 86 51 87
REMARK SMILES IDX 59 88 52 89 58 90 53 91 54 92 55 93 56 94 57 95
REMARK H PARENT 15 7 8 16 22 32 78 51 48 62
REMARK Flexibility Score: inf
ROOT
ATOM      1  C   UNL A   1      37.230  32.972  30.204  1.00  0.00     0.002 C 
ENDROOT
BRANCH   1   2
ATOM      2  C   UNL A   1      38.204  34.138  30.005  1.00  0.00     0.021 C 
BRANCH   2   3
ATOM      3  C   UNL A   1      39.098  34.360  31.230  1.00  0.00     0.116 C 
BRANCH   3   4
ATOM      4  N   UNL A   1      38.281  34.671  32.389  1.00  0.00    -0.352 N 
ATOM      5  C   UNL A   1      38.061  34.035  33.583  1.00  0.00     0.251 C 
ATOM      6  O   UNL A   1      37.258  34.557  34.359  1.00  0.00    -0.269 OA
ATOM      7  H   UNL A   1      37.782  35.515  32.299  1.00  0.00     0.163 HD
BRANCH   5   8
ATOM      8  C   UNL A   1      38.774  32.797  34.011  1.00  0.00     0.041 A 
ATOM      9  C   UNL A   1      40.347  30.529  34.775  1.00  0.00     0.053 A 
ATOM     10  C   UNL A   1      40.607  31.820  35.273  1.00  0.00     0.028 A 
ATOM     11  C   UNL A   1      39.287  30.421  33.859  1.00  0.00     0.065 A 
ATOM     12  C   UNL A   1      39.863  32.939  34.874  1.00  0.00     0.016 A 
ATOM     13  C   UNL A   1      38.454  31.515  33.589  1.00  0.00     0.036 A 
ATOM     14  Cl  UNL A   1      38.861  28.994  32.977  1.00  0.00    -0.082 Cl
BRANCH   9  15
ATOM     15  N   UNL A   1      41.176  29.523  35.231  1.00  0.00    -0.377 N 
ATOM     16  H   UNL A   1      40.863  29.041  36.030  1.00  0.00     0.161 HD
BRANCH  15  17
ATOM     17  C   UNL A   1      42.455  29.080  34.686  1.00  0.00     0.106 C 
ATOM     18  C   UNL A   1      43.541  29.762  35.539  1.00  0.00     0.036 C 
BRANCH  17  19
ATOM     19  C   UNL A   1      42.496  27.552  34.611  1.00  0.00    -0.023 A 
ATOM     20  C   UNL A   1      43.337  23.296  34.850  1.00  0.00     0.047 C 
ATOM     21  C   UNL A   1      42.985  24.745  34.727  1.00  0.00    -0.015 A 
ATOM     22  C   UNL A   1      41.964  25.327  35.484  1.00  0.00     0.007 A 
ATOM     23  C   UNL A   1      43.722  25.565  33.884  1.00  0.00     0.126 A 
ATOM     24  C   UNL A   1      41.727  26.711  35.431  1.00  0.00     0.006 A 
ATOM     25  C   UNL A   1      43.464  26.929  33.801  1.00  0.00     0.045 A 
ATOM     26  F   UNL A   1      44.723  25.052  33.154  1.00  0.00    -0.207 F 
ENDBRANCH  17  19
ENDBRANCH  15  17
ENDBRANCH   9  15
ENDBRANCH   5   8
ENDBRANCH   3   4
ENDBRANCH   2   3
ENDBRANCH   1   2
BRANCH   1  27
ATOM     27  C   UNL A   1      35.841  33.393  30.705  1.00  0.00     0.002 C 
BRANCH  27  28
ATOM     28  C   UNL A   1      34.680  32.590  30.113  1.00  0.00     0.021 C 
BRANCH  28  29
ATOM     29  C   UNL A   1      34.659  32.571  28.589  1.00  0.00     0.116 C 
BRANCH  29  30
ATOM     30  N   UNL A   1      34.014  31.366  28.088  1.00  0.00    -0.352 N 
ATOM     31  C   UNL A   1      34.578  30.165  27.736  1.00  0.00     0.251 C 
ATOM     32  H   UNL A   1      33.037  31.420  27.987  1.00  0.00     0.163 HD
ATOM     33  O   UNL A   1      33.941  29.356  27.074  1.00  0.00    -0.269 OA
BRANCH  31  34
ATOM     34  C   UNL A   1      35.960  29.865  28.162  1.00  0.00     0.039 A 
ATOM     35  C   UNL A   1      36.185  29.373  29.450  1.00  0.00     0.014 A 
ATOM     36  C   UNL A   1      37.030  30.076  27.288  1.00  0.00     0.014 A 
ATOM     37  C   UNL A   1      37.484  29.043  29.841  1.00  0.00     0.010 A 
ATOM     38  C   UNL A   1      38.310  29.675  27.652  1.00  0.00     0.010 A 
ATOM     39  C   UNL A   1      38.552  29.162  28.935  1.00  0.00    -0.014 A 
BRANCH  39  40
ATOM     40  C   UNL A   1      39.929  28.758  29.309  1.00  0.00     0.031 A 
ATOM     41  C   UNL A   1      40.829  29.724  30.031  1.00  0.00     0.074 A 
ATOM     42  C   UNL A   1      40.388  27.544  28.946  1.00  0.00     0.049 A 
ATOM     43  N   UNL A   1      42.078  29.574  30.389  1.00  0.00    -0.248 NA
ATOM     44  C   UNL A   1      40.260  31.038  30.372  1.00  0.00     0.031 C 
ATOM     45  C   UNL A   1      39.621  26.533  28.211  1.00  0.00     0.029 A 
ATOM     46  N   UNL A   1      41.611  26.954  29.138  1.00  0.00    -0.354 N 
ATOM     47  C   UNL A   1      42.447  30.775  30.986  1.00  0.00     0.074 A 
ATOM     48  C   UNL A   1      41.308  31.661  30.890  1.00  0.00     0.031 C 
ATOM     49  C   UNL A   1      40.381  25.439  28.046  1.00  0.00     0.029 A 
ATOM     50  C   UNL A   1      41.701  25.684  28.616  1.00  0.00     0.049 A 
ATOM     51  H   UNL A   1      42.355  27.398  29.606  1.00  0.00     0.167 HD
ATOM     52  C   UNL A   1      43.620  31.103  31.577  1.00  0.00     0.031 A 
ATOM     53  C   UNL A   1      42.733  24.819  28.593  1.00  0.00     0.031 A 
ATOM     54  C   UNL A   1      44.748  30.215  31.671  1.00  0.00     0.049 A 
ATOM     55  C   UNL A   1      44.035  25.217  29.233  1.00  0.00     0.074 A 
ATOM     56  C   UNL A   1      45.965  30.435  32.291  1.00  0.00     0.029 A 
ATOM     57  N   UNL A   1      44.799  28.940  31.128  1.00  0.00    -0.354 N 
ATOM     58  N   UNL A   1      44.344  26.335  29.846  1.00  0.00    -0.248 NA
ATOM     59  C   UNL A   1      45.124  24.232  29.187  1.00  0.00     0.031 C 
ATOM     60  C   UNL A   1      46.774  29.315  32.072  1.00  0.00     0.029 A 
ATOM     61  C   UNL A   1      46.037  28.370  31.376  1.00  0.00     0.049 A 
ATOM     62  H   UNL A   1      44.065  28.504  30.639  1.00  0.00     0.167 HD
ATOM     63  C   UNL A   1      45.653  26.175  30.286  1.00  0.00     0.074 A 
ATOM     64  C   UNL A   1      46.070  24.847  29.882  1.00  0.00     0.031 C 
ATOM     65  C   UNL A   1      46.437  27.046  30.968  1.00  0.00     0.031 A 
BRANCH  52  66
ATOM     66  C   UNL A   1      43.744  32.486  32.164  1.00  0.00    -0.014 A 
ATOM     67  C   UNL A   1      44.243  33.558  31.401  1.00  0.00     0.010 A 
ATOM     68  C   UNL A   1      43.317  32.727  33.483  1.00  0.00     0.010 A 
ATOM     69  C   UNL A   1      44.349  34.835  31.959  1.00  0.00     0.020 A 
ATOM     70  C   UNL A   1      43.392  34.011  34.034  1.00  0.00     0.020 A 
ATOM     71  C   UNL A   1      43.925  35.053  33.273  1.00  0.00     0.054 A 
BRANCH  71  72
ATOM     72  S   UNL A   1      44.051  36.726  33.958  1.00  0.00     0.124 S 
ATOM     73  O   UNL A   1      44.510  36.461  35.319  1.00  0.00    -0.237 OA
ATOM     74  O   UNL A   1      45.030  37.359  33.078  1.00  0.00    -0.237 OA
ATOM     75  O   UNL A   1      42.691  37.250  33.852  1.00  0.00    -0.744 OA
ENDBRANCH  71  72
ENDBRANCH  52  66
BRANCH  53  76
ATOM     76  C   UNL A   1      42.569  23.483  27.954  1.00  0.00    -0.014 A 
ATOM     77  C   UNL A   1      43.062  23.246  26.659  1.00  0.00     0.010 A 
ATOM     78  C   UNL A   1      41.929  22.436  28.643  1.00  0.00     0.010 A 
ATOM     79  C   UNL A   1      42.901  21.995  26.056  1.00  0.00     0.020 A 
ATOM     80  C   UNL A   1      41.793  21.176  28.056  1.00  0.00     0.020 A 
ATOM     81  C   UNL A   1      42.268  20.966  26.760  1.00  0.00     0.054 A 
BRANCH  81  82
ATOM     82  S   UNL A   1      42.110  19.338  25.974  1.00  0.00     0.124 S 
ATOM     83  O   UNL A   1      40.669  19.242  25.764  1.00  0.00    -0.237 OA
ATOM     84  O   UNL A   1      42.918  19.492  24.767  1.00  0.00    -0.237 OA
ATOM     85  O   UNL A   1      42.660  18.423  26.971  1.00  0.00    -0.744 OA
ENDBRANCH  81  82
ENDBRANCH  53  76
BRANCH  65  86
ATOM     86  C   UNL A   1      47.816  26.582  31.359  1.00  0.00    -0.014 A 
ATOM     87  C   UNL A   1      48.047  25.916  32.575  1.00  0.00     0.010 A 
ATOM     88  C   UNL A   1      48.886  26.763  30.463  1.00  0.00     0.010 A 
ATOM     89  C   UNL A   1      49.330  25.466  32.902  1.00  0.00     0.020 A 
ATOM     90  C   UNL A   1      50.162  26.287  30.771  1.00  0.00     0.020 A 
ATOM     91  C   UNL A   1      50.378  25.654  31.995  1.00  0.00     0.054 A 
BRANCH  91  92
ATOM     92  S   UNL A   1      52.023  25.016  32.421  1.00  0.00     0.124 S 
ATOM     93  O   UNL A   1      51.836  23.574  32.279  1.00  0.00    -0.237 OA
ATOM     94  O   UNL A   1      52.877  25.641  31.415  1.00  0.00    -0.237 OA
ATOM     95  O   UNL A   1      52.234  25.485  33.789  1.00  0.00    -0.744 OA
ENDBRANCH  91  92
ENDBRANCH  65  86
ENDBRANCH  39  40
ENDBRANCH  31  34
ENDBRANCH  29  30
ENDBRANCH  28  29
ENDBRANCH  27  28
ENDBRANCH   1  27
TORSDOF 19
ENDMDL
MODEL 2
REMARK VINA RESULT:      -8.7      4.709      8.437
REMARK SMILES Cc1ccc([C@H](C)Nc2ccc(C(=O)NCCCCCCNC(=O)c3ccc(-c4c5nc(c(-c6ccc(S(=O)(=O)[O-])cc6)c6ccc([nH]6)c(-c6ccc(S(=O)(=O)[O-])cc6)c6nc(c(-c7ccc(S(=O)(=O)[O-])cc7)c7ccc4[nH]7)C=C6)C=C5)cc3)cc2Cl)cc1F
REMARK SMILES IDX 18 1 17 2 16 3 15 4 13 5 14 6 12 8 9 9 10 10 86 11 11 12
REMARK SMILES IDX 85 13 87 14 8 15 6 17 7 18 5 19 1 20 2 21 3 22 89 23 4 24
REMARK SMILES IDX 88 25 90 26 19 27 20 28 21 29 22 30 23 31 24 33 25 34 26 35
REMARK SMILES IDX 84 36 27 37 83 38 28 39 29 40 30 41 77 42 31 43 82 44 76 45
REMARK SMILES IDX 78 46 32 47 81 48 75 49 74 50 33 52 63 53 44 54 62 55 45 56
REMARK SMILES IDX 48 57 61 58 79 59 46 60 47 61 60 63 80 64 49 65 34 66 35 67
REMARK SMILES IDX 43 68 36 69 42 70 37 71 38 72 39 73 40 74 41 75 64 76 65 77
REMARK SMILES IDX 73 78 66 79 72 80 67 81 68 82 69 83 70 84 71 85 50 86 51 87
REMARK SMILES IDX 59 88 52 89 58 90 53 91 54 92 55 93 56 94 57 95
REMARK H PARENT 15 7 8 16 22 32 78 51 48 62
REMARK Flexibility Score: inf
ROOT
ATOM      1  C   UNL A   1      35.370  31.498  28.514  1.00  0.00     0.002 C 
ENDROOT
BRANCH   1   2
ATOM      2  C   UNL A   1      35.844  30.310  27.669  1.00  0.00     0.021 C 
BRANCH   2   3
ATOM      3  C   UNL A   1      34.683  29.616  26.946  1.00  0.00     0.116 C 
BRANCH   3   4
ATOM      4  N   UNL A   1      33.564  30.532  26.813  1.00  0.00    -0.352 N 
ATOM      5  C   UNL A   1      32.277  30.386  26.366  1.00  0.00     0.251 C 
ATOM      6  O   UNL A   1      31.571  31.397  26.345  1.00  0.00    -0.269 OA
ATOM      7  H   UNL A   1      33.775  31.449  27.103  1.00  0.00     0.163 HD
BRANCH   5   8
ATOM      8  C   UNL A   1      31.677  29.080  25.969  1.00  0.00     0.041 A 
ATOM      9  C   UNL A   1      30.704  26.466  25.321  1.00  0.00     0.053 A 
ATOM     10  C   UNL A   1      31.011  26.841  26.642  1.00  0.00     0.028 A 
ATOM     11  C   UNL A   1      30.927  27.439  24.333  1.00  0.00     0.065 A 
ATOM     12  C   UNL A   1      31.522  28.108  26.959  1.00  0.00     0.016 A 
ATOM     13  C   UNL A   1      31.288  28.748  24.680  1.00  0.00     0.036 A 
ATOM     14  Cl  UNL A   1      30.789  27.191  22.625  1.00  0.00    -0.082 Cl
BRANCH   9  15
ATOM     15  N   UNL A   1      30.236  25.178  25.148  1.00  0.00    -0.377 N 
ATOM     16  H   UNL A   1      29.278  25.044  25.333  1.00  0.00     0.161 HD
BRANCH  15  17
ATOM     17  C   UNL A   1      30.972  23.990  24.728  1.00  0.00     0.106 C 
ATOM     18  C   UNL A   1      30.611  23.768  23.247  1.00  0.00     0.036 C 
BRANCH  17  19
ATOM     19  C   UNL A   1      32.458  24.145  25.059  1.00  0.00    -0.023 A 
ATOM     20  C   UNL A   1      36.703  23.733  25.887  1.00  0.00     0.047 C 
ATOM     21  C   UNL A   1      35.248  23.950  25.614  1.00  0.00    -0.015 A 
ATOM     22  C   UNL A   1      34.793  24.508  24.416  1.00  0.00     0.007 A 
ATOM     23  C   UNL A   1      34.304  23.537  26.544  1.00  0.00     0.126 A 
ATOM     24  C   UNL A   1      33.418  24.598  24.140  1.00  0.00     0.006 A 
ATOM     25  C   UNL A   1      32.942  23.662  26.289  1.00  0.00     0.045 A 
ATOM     26  F   UNL A   1      34.696  22.979  27.698  1.00  0.00    -0.207 F 
ENDBRANCH  17  19
ENDBRANCH  15  17
ENDBRANCH   9  15
ENDBRANCH   5   8
ENDBRANCH   3   4
ENDBRANCH   2   3
ENDBRANCH   1   2
BRANCH   1  27
ATOM     27  C   UNL A   1      35.956  32.849  28.081  1.00  0.00     0.002 C 
BRANCH  27  28
ATOM     28  C   UNL A   1      34.940  33.991  28.007  1.00  0.00     0.021 C 
BRANCH  28  29
ATOM     29  C   UNL A   1      33.531  33.588  28.430  1.00  0.00     0.116 C 
BRANCH  29  30
ATOM     30  N   UNL A   1      32.949  34.575  29.327  1.00  0.00    -0.352 N 
ATOM     31  C   UNL A   1      33.216  34.802  30.654  1.00  0.00     0.251 C 
ATOM     32  H   UNL A   1      32.270  35.164  28.925  1.00  0.00     0.163 HD
ATOM     33  O   UNL A   1      32.448  35.475  31.330  1.00  0.00    -0.269 OA
BRANCH  31  34
ATOM     34  C   UNL A   1      34.433  34.221  31.255  1.00  0.00     0.039 A 
ATOM     35  C   UNL A   1      34.396  32.913  31.742  1.00  0.00     0.014 A 
ATOM     36  C   UNL A   1      35.607  34.976  31.342  1.00  0.00     0.014 A 
ATOM     37  C   UNL A   1      35.557  32.343  32.268  1.00  0.00     0.010 A 
ATOM     38  C   UNL A   1      36.778  34.382  31.794  1.00  0.00     0.010 A 
ATOM     39  C   UNL A   1      36.765  33.062  32.270  1.00  0.00    -0.014 A 
BRANCH  39  40
ATOM     40  C   UNL A   1      38.023  32.455  32.766  1.00  0.00     0.031 A 
ATOM     41  C   UNL A   1      38.498  32.739  34.165  1.00  0.00     0.074 A 
ATOM     42  C   UNL A   1      38.768  31.696  31.937  1.00  0.00     0.049 A 
ATOM     43  N   UNL A   1      39.597  32.348  34.757  1.00  0.00    -0.248 NA
ATOM     44  C   UNL A   1      37.639  33.595  35.001  1.00  0.00     0.031 C 
ATOM     45  C   UNL A   1      38.430  31.378  30.547  1.00  0.00     0.029 A 
ATOM     46  N   UNL A   1      39.966  31.059  32.139  1.00  0.00    -0.354 N 
ATOM     47  C   UNL A   1      39.567  32.917  36.025  1.00  0.00     0.074 A 
ATOM     48  C   UNL A   1      38.371  33.727  36.097  1.00  0.00     0.031 C 
ATOM     49  C   UNL A   1      39.381  30.581  30.034  1.00  0.00     0.029 A 
ATOM     50  C   UNL A   1      40.418  30.370  31.038  1.00  0.00     0.049 A 
ATOM     51  H   UNL A   1      40.456  31.092  32.993  1.00  0.00     0.167 HD
ATOM     52  C   UNL A   1      40.446  32.765  37.044  1.00  0.00     0.031 A 
ATOM     53  C   UNL A   1      41.545  29.655  30.855  1.00  0.00     0.031 A 
ATOM     54  C   UNL A   1      41.633  31.956  36.967  1.00  0.00     0.049 A 
ATOM     55  C   UNL A   1      42.519  29.523  31.994  1.00  0.00     0.074 A 
ATOM     56  C   UNL A   1      42.564  31.699  37.958  1.00  0.00     0.029 A 
ATOM     57  N   UNL A   1      42.056  31.277  35.834  1.00  0.00    -0.354 N 
ATOM     58  N   UNL A   1      42.442  30.019  33.207  1.00  0.00    -0.248 NA
ATOM     59  C   UNL A   1      43.726  28.724  31.745  1.00  0.00     0.031 C 
ATOM     60  C   UNL A   1      43.580  30.912  37.407  1.00  0.00     0.029 A 
ATOM     61  C   UNL A   1      43.248  30.622  36.094  1.00  0.00     0.049 A 
ATOM     62  H   UNL A   1      41.580  31.263  34.973  1.00  0.00     0.167 HD
ATOM     63  C   UNL A   1      43.576  29.567  33.873  1.00  0.00     0.074 A 
ATOM     64  C   UNL A   1      44.312  28.746  32.933  1.00  0.00     0.031 C 
ATOM     65  C   UNL A   1      43.969  29.806  35.148  1.00  0.00     0.031 A 
BRANCH  52  66
ATOM     66  C   UNL A   1      40.157  33.495  38.331  1.00  0.00    -0.014 A 
ATOM     67  C   UNL A   1      40.511  34.848  38.496  1.00  0.00     0.010 A 
ATOM     68  C   UNL A   1      39.484  32.834  39.375  1.00  0.00     0.010 A 
ATOM     69  C   UNL A   1      40.234  35.511  39.694  1.00  0.00     0.020 A 
ATOM     70  C   UNL A   1      39.177  33.505  40.563  1.00  0.00     0.020 A 
ATOM     71  C   UNL A   1      39.570  34.835  40.721  1.00  0.00     0.054 A 
BRANCH  71  72
ATOM     72  S   UNL A   1      39.201  35.732  42.253  1.00  0.00     0.124 S 
ATOM     73  O   UNL A   1      37.772  35.480  42.413  1.00  0.00    -0.237 OA
ATOM     74  O   UNL A   1      40.067  35.070  43.226  1.00  0.00    -0.237 OA
ATOM     75  O   UNL A   1      39.559  37.114  41.943  1.00  0.00    -0.744 OA
ENDBRANCH  71  72
ENDBRANCH  52  66
BRANCH  53  76
ATOM     76  C   UNL A   1      41.803  28.995  29.545  1.00  0.00    -0.014 A 
ATOM     77  C   UNL A   1      41.362  27.682  29.308  1.00  0.00     0.010 A 
ATOM     78  C   UNL A   1      42.484  29.682  28.523  1.00  0.00     0.010 A 
ATOM     79  C   UNL A   1      41.613  27.060  28.081  1.00  0.00     0.020 A 
ATOM     80  C   UNL A   1      42.710  29.075  27.285  1.00  0.00     0.020 A 
ATOM     81  C   UNL A   1      42.284  27.762  27.076  1.00  0.00     0.054 A 
BRANCH  81  82
ATOM     82  S   UNL A   1      42.560  26.950  25.477  1.00  0.00     0.124 S 
ATOM     83  O   UNL A   1      41.425  26.036  25.401  1.00  0.00    -0.237 OA
ATOM     84  O   UNL A   1      42.532  28.074  24.545  1.00  0.00    -0.237 OA
ATOM     85  O   UNL A   1      43.865  26.315  25.637  1.00  0.00    -0.744 OA
ENDBRANCH  81  82
ENDBRANCH  53  76
BRANCH  65  86
ATOM     86  C   UNL A   1      45.235  29.140  35.622  1.00  0.00    -0.014 A 
ATOM     87  C   UNL A   1      45.218  27.853  36.187  1.00  0.00     0.010 A 
ATOM     88  C   UNL A   1      46.468  29.793  35.441  1.00  0.00     0.010 A 
ATOM     89  C   UNL A   1      46.409  27.243  36.591  1.00  0.00     0.020 A 
ATOM     90  C   UNL A   1      47.663  29.175  35.813  1.00  0.00     0.020 A 
ATOM     91  C   UNL A   1      47.625  27.909  36.398  1.00  0.00     0.054 A 
BRANCH  91  92
ATOM     92  S   UNL A   1      49.161  27.075  36.884  1.00  0.00     0.124 S 
ATOM     93  O   UNL A   1      49.970  27.199  35.674  1.00  0.00    -0.237 OA
ATOM     94  O   UNL A   1      49.609  27.870  38.024  1.00  0.00    -0.237 OA
ATOM     95  O   UNL A   1      48.731  25.716  37.210  1.00  0.00    -0.744 OA
ENDBRANCH  91  92
ENDBRANCH  65  86
ENDBRANCH  39  40
ENDBRANCH  31  34
ENDBRANCH  29  30
ENDBRANCH  28  29
ENDBRANCH  27  28
ENDBRANCH   1  27
TORSDOF 19
ENDMDL
MODEL 3
REMARK VINA RESULT:      -8.4      3.433     10.596
REMARK SMILES Cc1ccc([C@H](C)Nc2ccc(C(=O)NCCCCCCNC(=O)c3ccc(-c4c5nc(c(-c6ccc(S(=O)(=O)[O-])cc6)c6ccc([nH]6)c(-c6ccc(S(=O)(=O)[O-])cc6)c6nc(c(-c7ccc(S(=O)(=O)[O-])cc7)c7ccc4[nH]7)C=C6)C=C5)cc3)cc2Cl)cc1F
REMARK SMILES IDX 18 1 17 2 16 3 15 4 13 5 14 6 12 8 9 9 10 10 86 11 11 12
REMARK SMILES IDX 85 13 87 14 8 15 6 17 7 18 5 19 1 20 2 21 3 22 89 23 4 24
REMARK SMILES IDX 88 25 90 26 19 27 20 28 21 29 22 30 23 31 24 33 25 34 26 35
REMARK SMILES IDX 84 36 27 37 83 38 28 39 29 40 30 41 77 42 31 43 82 44 76 45
REMARK SMILES IDX 78 46 32 47 81 48 75 49 74 50 33 52 63 53 44 54 62 55 45 56
REMARK SMILES IDX 48 57 61 58 79 59 46 60 47 61 60 63 80 64 49 65 34 66 35 67
REMARK SMILES IDX 43 68 36 69 42 70 37 71 38 72 39 73 40 74 41 75 64 76 65 77
REMARK SMILES IDX 73 78 66 79 72 80 67 81 68 82 69 83 70 84 71 85 50 86 51 87
REMARK SMILES IDX 59 88 52 89 58 90 53 91 54 92 55 93 56 94 57 95
REMARK H PARENT 15 7 8 16 22 32 78 51 48 62
REMARK Flexibility Score: inf
ROOT
ATOM      1  C   UNL A   1      43.644  23.400  25.063  1.00  0.00     0.002 C 
ENDROOT
BRANCH   1   2
ATOM      2  C   UNL A   1      43.971  24.897  25.009  1.00  0.00     0.021 C 
BRANCH   2   3
ATOM      3  C   UNL A   1      45.481  25.157  24.961  1.00  0.00     0.116 C 
BRANCH   3   4
ATOM      4  N   UNL A   1      46.047  25.044  26.294  1.00  0.00    -0.352 N 
ATOM      5  C   UNL A   1      46.392  25.964  27.250  1.00  0.00     0.251 C 
ATOM      6  O   UNL A   1      46.896  25.532  28.288  1.00  0.00    -0.269 OA
ATOM      7  H   UNL A   1      46.218  24.114  26.567  1.00  0.00     0.163 HD
BRANCH   5   8
ATOM      8  C   UNL A   1      46.138  27.428  27.127  1.00  0.00     0.041 A 
ATOM      9  C   UNL A   1      45.770  30.267  27.095  1.00  0.00     0.053 A 
ATOM     10  C   UNL A   1      47.040  29.681  27.246  1.00  0.00     0.028 A 
ATOM     11  C   UNL A   1      44.687  29.379  26.988  1.00  0.00     0.065 A 
ATOM     12  C   UNL A   1      47.221  28.292  27.299  1.00  0.00     0.016 A 
ATOM     13  C   UNL A   1      44.897  27.997  26.885  1.00  0.00     0.036 A 
ATOM     14  Cl  UNL A   1      43.015  29.827  26.958  1.00  0.00    -0.082 Cl
BRANCH   9  15
ATOM     15  N   UNL A   1      45.734  31.648  27.089  1.00  0.00    -0.377 N 
ATOM     16  H   UNL A   1      45.912  32.075  26.220  1.00  0.00     0.161 HD
BRANCH  15  17
ATOM     17  C   UNL A   1      45.467  32.557  28.198  1.00  0.00     0.106 C 
ATOM     18  C   UNL A   1      46.837  33.112  28.633  1.00  0.00     0.036 C 
BRANCH  17  19
ATOM     19  C   UNL A   1      44.405  33.583  27.796  1.00  0.00    -0.023 A 
ATOM     20  C   UNL A   1      41.913  37.060  27.034  1.00  0.00     0.047 C 
ATOM     21  C   UNL A   1      42.719  35.820  27.262  1.00  0.00    -0.015 A 
ATOM     22  C   UNL A   1      43.448  35.211  26.236  1.00  0.00     0.007 A 
ATOM     23  C   UNL A   1      42.802  35.276  28.536  1.00  0.00     0.126 A 
ATOM     24  C   UNL A   1      44.284  34.113  26.501  1.00  0.00     0.006 A 
ATOM     25  C   UNL A   1      43.598  34.165  28.792  1.00  0.00     0.045 A 
ATOM     26  F   UNL A   1      42.134  35.839  29.552  1.00  0.00    -0.207 F 
ENDBRANCH  17  19
ENDBRANCH  15  17
ENDBRANCH   9  15
ENDBRANCH   5   8
ENDBRANCH   3   4
ENDBRANCH   2   3
ENDBRANCH   1   2
BRANCH   1  27
ATOM     27  C   UNL A   1      42.945  22.956  26.355  1.00  0.00     0.002 C 
BRANCH  27  28
ATOM     28  C   UNL A   1      42.183  21.633  26.246  1.00  0.00     0.021 C 
BRANCH  28  29
ATOM     29  C   UNL A   1      40.856  21.625  26.997  1.00  0.00     0.116 C 
BRANCH  29  30
ATOM     30  N   UNL A   1      39.739  21.859  26.094  1.00  0.00    -0.352 N 
ATOM     31  C   UNL A   1      38.890  22.936  26.028  1.00  0.00     0.251 C 
ATOM     32  H   UNL A   1      39.570  21.146  25.436  1.00  0.00     0.163 HD
ATOM     33  O   UNL A   1      37.840  22.855  25.404  1.00  0.00    -0.269 OA
BRANCH  31  34
ATOM     34  C   UNL A   1      39.257  24.187  26.721  1.00  0.00     0.039 A 
ATOM     35  C   UNL A   1      38.804  24.402  28.025  1.00  0.00     0.014 A 
ATOM     36  C   UNL A   1      40.043  25.147  26.077  1.00  0.00     0.014 A 
ATOM     37  C   UNL A   1      39.186  25.562  28.701  1.00  0.00     0.010 A 
ATOM     38  C   UNL A   1      40.485  26.262  26.779  1.00  0.00     0.010 A 
ATOM     39  C   UNL A   1      40.055  26.486  28.095  1.00  0.00    -0.014 A 
BRANCH  39  40
ATOM     40  C   UNL A   1      40.524  27.693  28.818  1.00  0.00     0.031 A 
ATOM     41  C   UNL A   1      41.888  27.710  29.453  1.00  0.00     0.074 A 
ATOM     42  C   UNL A   1      39.698  28.749  28.955  1.00  0.00     0.049 A 
ATOM     43  N   UNL A   1      42.450  28.646  30.172  1.00  0.00    -0.248 NA
ATOM     44  C   UNL A   1      42.721  26.508  29.277  1.00  0.00     0.031 C 
ATOM     45  C   UNL A   1      38.338  28.838  28.415  1.00  0.00     0.029 A 
ATOM     46  N   UNL A   1      39.878  29.950  29.594  1.00  0.00    -0.354 N 
ATOM     47  C   UNL A   1      43.692  28.144  30.544  1.00  0.00     0.074 A 
ATOM     48  C   UNL A   1      43.779  26.800  30.019  1.00  0.00     0.031 C 
ATOM     49  C   UNL A   1      37.822  30.039  28.718  1.00  0.00     0.029 A 
ATOM     50  C   UNL A   1      38.790  30.787  29.513  1.00  0.00     0.049 A 
ATOM     51  H   UNL A   1      40.708  30.189  30.067  1.00  0.00     0.167 HD
ATOM     52  C   UNL A   1      44.679  28.754  31.241  1.00  0.00     0.031 A 
ATOM     53  C   UNL A   1      38.591  32.017  30.026  1.00  0.00     0.031 A 
ATOM     54  C   UNL A   1      44.588  30.094  31.759  1.00  0.00     0.049 A 
ATOM     55  C   UNL A   1      39.693  32.663  30.822  1.00  0.00     0.074 A 
ATOM     56  C   UNL A   1      45.549  30.820  32.439  1.00  0.00     0.029 A 
ATOM     57  N   UNL A   1      43.469  30.907  31.657  1.00  0.00    -0.354 N 
ATOM     58  N   UNL A   1      40.885  32.195  31.110  1.00  0.00    -0.248 NA
ATOM     59  C   UNL A   1      39.428  34.007  31.351  1.00  0.00     0.031 C 
ATOM     60  C   UNL A   1      44.992  32.051  32.799  1.00  0.00     0.029 A 
ATOM     61  C   UNL A   1      43.707  32.118  32.284  1.00  0.00     0.049 A 
ATOM     62  H   UNL A   1      42.630  30.660  31.206  1.00  0.00     0.167 HD
ATOM     63  C   UNL A   1      41.522  33.201  31.828  1.00  0.00     0.074 A 
ATOM     64  C   UNL A   1      40.589  34.306  31.916  1.00  0.00     0.031 C 
ATOM     65  C   UNL A   1      42.768  33.210  32.363  1.00  0.00     0.031 A 
BRANCH  52  66
ATOM     66  C   UNL A   1      45.944  27.973  31.491  1.00  0.00    -0.014 A 
ATOM     67  C   UNL A   1      46.005  26.987  32.495  1.00  0.00     0.010 A 
ATOM     68  C   UNL A   1      47.075  28.196  30.685  1.00  0.00     0.010 A 
ATOM     69  C   UNL A   1      47.184  26.270  32.713  1.00  0.00     0.020 A 
ATOM     70  C   UNL A   1      48.247  27.457  30.880  1.00  0.00     0.020 A 
ATOM     71  C   UNL A   1      48.298  26.510  31.904  1.00  0.00     0.054 A 
BRANCH  71  72
ATOM     72  S   UNL A   1      49.804  25.544  32.194  1.00  0.00     0.124 S 
ATOM     73  O   UNL A   1      50.725  26.563  32.690  1.00  0.00    -0.237 OA
ATOM     74  O   UNL A   1      49.367  24.560  33.181  1.00  0.00    -0.237 OA
ATOM     75  O   UNL A   1      50.129  25.001  30.878  1.00  0.00    -0.744 OA
ENDBRANCH  71  72
ENDBRANCH  52  66
BRANCH  53  76
ATOM     76  C   UNL A   1      37.302  32.723  29.790  1.00  0.00    -0.014 A 
ATOM     77  C   UNL A   1      37.070  33.401  28.581  1.00  0.00     0.010 A 
ATOM     78  C   UNL A   1      36.292  32.712  30.770  1.00  0.00     0.010 A 
ATOM     79  C   UNL A   1      35.863  34.072  28.363  1.00  0.00     0.020 A 
ATOM     80  C   UNL A   1      35.072  33.354  30.544  1.00  0.00     0.020 A 
ATOM     81  C   UNL A   1      34.870  34.042  29.346  1.00  0.00     0.054 A 
BRANCH  81  82
ATOM     82  S   UNL A   1      33.294  34.883  29.023  1.00  0.00     0.124 S 
ATOM     83  O   UNL A   1      32.691  34.018  28.015  1.00  0.00    -0.237 OA
ATOM     84  O   UNL A   1      32.655  34.867  30.337  1.00  0.00    -0.237 OA
ATOM     85  O   UNL A   1      33.702  36.204  28.552  1.00  0.00    -0.744 OA
ENDBRANCH  81  82
ENDBRANCH  53  76
BRANCH  65  86
ATOM     86  C   UNL A   1      43.217  34.469  33.057  1.00  0.00    -0.014 A 
ATOM     87  C   UNL A   1      43.020  34.655  34.436  1.00  0.00     0.010 A 
ATOM     88  C   UNL A   1      43.904  35.455  32.325  1.00  0.00     0.010 A 
ATOM     89  C   UNL A   1      43.474  35.818  35.065  1.00  0.00     0.020 A 
ATOM     90  C   UNL A   1      44.388  36.603  32.954  1.00  0.00     0.020 A 
ATOM     91  C   UNL A   1      44.157  36.784  34.318  1.00  0.00     0.054 A 
BRANCH  91  92
ATOM     92  S   UNL A   1      44.780  38.262  35.167  1.00  0.00     0.124 S 
ATOM     93  O   UNL A   1      46.154  38.338  34.674  1.00  0.00    -0.237 OA
ATOM     94  O   UNL A   1      43.881  39.308  34.687  1.00  0.00    -0.237 OA
ATOM     95  O   UNL A   1      44.644  37.932  36.584  1.00  0.00    -0.744 OA
ENDBRANCH  91  92
ENDBRANCH  65  86
ENDBRANCH  39  40
ENDBRANCH  31  34
ENDBRANCH  29  30
ENDBRANCH  28  29
ENDBRANCH  27  28
ENDBRANCH   1  27
TORSDOF 19
ENDMDL
