MODEL 1
REMARK VINA RESULT:     -11.1      0.000      0.000
REMARK SMILES N#C[C@H]1CN(c2cc(C(=O)NCCCCCCNC(=O)c3ccc(-c4c5nc(c(-c6ccc(S(=O)(=O)[O-])cc6)c6ccc([nH]6)c(-c6ccc(S(=O)(=O)[O-])cc6)c6nc(c(-c7ccc(S(=O)(=O)[O-])cc7)c7ccc4[nH]7)C=C6)C=C5)cc3)c(N)cc2F)CCO1
REMARK SMILES IDX 15 1 14 2 13 3 12 4 11 5 9 6 10 7 8 9 6 10 7 11 84 12 83 13
REMARK SMILES IDX 85 14 81 15 5 16 3 17 4 18 88 19 87 20 86 21 2 22 1 23 82 24
REMARK SMILES IDX 16 27 17 28 18 29 19 30 20 32 21 33 22 34 80 35 23 36 79 37
REMARK SMILES IDX 24 38 25 39 26 40 73 41 27 42 78 43 72 44 74 45 28 46 77 47
REMARK SMILES IDX 71 48 70 49 29 51 59 52 40 53 58 54 41 55 44 56 57 57 75 58
REMARK SMILES IDX 42 59 43 60 56 62 76 63 45 64 30 65 31 66 39 67 32 68 38 69
REMARK SMILES IDX 33 70 34 71 35 72 36 73 37 74 60 75 61 76 69 77 62 78 68 79
REMARK SMILES IDX 63 80 64 81 65 82 66 83 67 84 46 85 47 86 55 87 48 88 54 89
REMARK SMILES IDX 49 90 50 91 51 92 52 93 53 94
REMARK H PARENT 11 8 82 25 82 26 18 31 74 50 44 61
REMARK Flexibility Score: inf
ROOT
ATOM      1  C   UNL A   1      34.680  31.072  27.785  1.00  0.00     0.002 C 
ENDROOT
BRANCH   1   2
ATOM      2  C   UNL A   1      33.207  31.115  27.365  1.00  0.00     0.002 C 
BRANCH   2   3
ATOM      3  C   UNL A   1      32.773  30.140  26.268  1.00  0.00     0.021 C 
BRANCH   3   4
ATOM      4  C   UNL A   1      33.761  29.036  25.919  1.00  0.00     0.116 C 
BRANCH   4   5
ATOM      5  N   UNL A   1      34.205  29.015  24.540  1.00  0.00    -0.352 N 
ATOM      6  C   UNL A   1      33.514  28.700  23.392  1.00  0.00     0.253 C 
ATOM      7  O   UNL A   1      34.118  28.796  22.322  1.00  0.00    -0.269 OA
ATOM      8  H   UNL A   1      35.148  29.266  24.403  1.00  0.00     0.163 HD
BRANCH   6   9
ATOM      9  C   UNL A   1      32.107  28.178  23.383  1.00  0.00     0.065 A 
ATOM     10  C   UNL A   1      30.690  26.269  24.024  1.00  0.00     0.074 A 
ATOM     11  C   UNL A   1      31.935  26.905  23.985  1.00  0.00     0.045 A 
ATOM     12  C   UNL A   1      29.584  27.018  23.604  1.00  0.00     0.148 A 
ATOM     13  C   UNL A   1      29.725  28.259  23.002  1.00  0.00     0.067 A 
ATOM     14  F   UNL A   1      28.347  26.509  23.721  1.00  0.00    -0.205 F 
ATOM     15  C   UNL A   1      30.996  28.791  22.768  1.00  0.00     0.047 A 
BRANCH  10  16
ATOM     16  N   UNL A   1      30.579  24.936  24.357  1.00  0.00    -0.363 N 
ATOM     17  C   UNL A   1      31.908  22.929  23.832  1.00  0.00     0.240 C 
ATOM     18  C   UNL A   1      30.733  23.842  23.395  1.00  0.00     0.164 C 
ATOM     19  O   UNL A   1      31.756  22.499  25.210  1.00  0.00    -0.360 OA
ATOM     20  C   UNL A   1      31.718  23.632  26.096  1.00  0.00     0.183 C 
ATOM     21  C   UNL A   1      30.530  24.544  25.772  1.00  0.00     0.145 C 
BRANCH  17  22
ATOM     22  C   UNL A   1      31.974  21.747  22.951  1.00  0.00     0.096 C 
ATOM     23  N   UNL A   1      32.040  20.815  22.266  1.00  0.00    -0.195 NA
ENDBRANCH  17  22
ENDBRANCH  10  16
BRANCH  15  24
ATOM     24  N   UNL A   1      31.070  29.879  21.907  1.00  0.00    -0.398 N 
ATOM     25  H   UNL A   1      30.454  30.639  22.019  1.00  0.00     0.156 HD
ATOM     26  H   UNL A   1      31.738  29.890  21.184  1.00  0.00     0.156 HD
ENDBRANCH  15  24
ENDBRANCH   6   9
ENDBRANCH   4   5
ENDBRANCH   3   4
ENDBRANCH   2   3
ENDBRANCH   1   2
BRANCH   1  27
ATOM     27  C   UNL A   1      35.379  32.422  27.967  1.00  0.00     0.021 C 
BRANCH  27  28
ATOM     28  C   UNL A   1      36.444  32.471  29.055  1.00  0.00     0.116 C 
BRANCH  28  29
ATOM     29  N   UNL A   1      36.045  31.774  30.266  1.00  0.00    -0.352 N 
ATOM     30  C   UNL A   1      36.614  30.678  30.868  1.00  0.00     0.251 C 
ATOM     31  H   UNL A   1      35.252  32.140  30.720  1.00  0.00     0.163 HD
ATOM     32  O   UNL A   1      36.043  30.127  31.803  1.00  0.00    -0.269 OA
BRANCH  30  33
ATOM     33  C   UNL A   1      37.903  30.152  30.368  1.00  0.00     0.039 A 
ATOM     34  C   UNL A   1      38.096  30.028  28.989  1.00  0.00     0.014 A 
ATOM     35  C   UNL A   1      38.922  29.790  31.254  1.00  0.00     0.014 A 
ATOM     36  C   UNL A   1      39.332  29.601  28.501  1.00  0.00     0.010 A 
ATOM     37  C   UNL A   1      40.177  29.449  30.763  1.00  0.00     0.010 A 
ATOM     38  C   UNL A   1      40.395  29.342  29.381  1.00  0.00    -0.014 A 
BRANCH  38  39
ATOM     39  C   UNL A   1      41.740  28.956  28.881  1.00  0.00     0.031 A 
ATOM     40  C   UNL A   1      42.839  29.981  28.801  1.00  0.00     0.074 A 
ATOM     41  C   UNL A   1      41.958  27.699  28.445  1.00  0.00     0.049 A 
ATOM     42  N   UNL A   1      44.060  29.849  28.349  1.00  0.00    -0.248 NA
ATOM     43  C   UNL A   1      42.515  31.340  29.266  1.00  0.00     0.031 C 
ATOM     44  C   UNL A   1      40.970  26.619  28.450  1.00  0.00     0.029 A 
ATOM     45  N   UNL A   1      43.082  27.118  27.916  1.00  0.00    -0.354 N 
ATOM     46  C   UNL A   1      44.645  31.105  28.468  1.00  0.00     0.074 A 
ATOM     47  C   UNL A   1      43.623  31.999  28.965  1.00  0.00     0.031 C 
ATOM     48  C   UNL A   1      41.545  25.496  27.989  1.00  0.00     0.029 A 
ATOM     49  C   UNL A   1      42.922  25.789  27.605  1.00  0.00     0.049 A 
ATOM     50  H   UNL A   1      43.924  27.607  27.771  1.00  0.00     0.167 HD
ATOM     51  C   UNL A   1      45.923  31.478  28.211  1.00  0.00     0.031 A 
ATOM     52  C   UNL A   1      43.784  24.903  27.068  1.00  0.00     0.031 A 
ATOM     53  C   UNL A   1      46.931  30.587  27.698  1.00  0.00     0.049 A 
ATOM     54  C   UNL A   1      45.178  25.352  26.728  1.00  0.00     0.074 A 
ATOM     55  C   UNL A   1      48.261  30.855  27.430  1.00  0.00     0.029 A 
ATOM     56  N   UNL A   1      46.718  29.256  27.366  1.00  0.00    -0.354 N 
ATOM     57  N   UNL A   1      45.730  26.530  26.896  1.00  0.00    -0.248 NA
ATOM     58  C   UNL A   1      46.071  24.348  26.133  1.00  0.00     0.031 C 
ATOM     59  C   UNL A   1      48.833  29.709  26.869  1.00  0.00     0.029 A 
ATOM     60  C   UNL A   1      47.883  28.700  26.865  1.00  0.00     0.049 A 
ATOM     61  H   UNL A   1      45.863  28.778  27.471  1.00  0.00     0.167 HD
ATOM     62  C   UNL A   1      47.045  26.399  26.465  1.00  0.00     0.074 A 
ATOM     63  C   UNL A   1      47.207  25.025  26.035  1.00  0.00     0.031 C 
ATOM     64  C   UNL A   1      48.032  27.330  26.434  1.00  0.00     0.031 A 
BRANCH  51  65
ATOM     65  C   UNL A   1      46.284  32.921  28.461  1.00  0.00    -0.014 A 
ATOM     66  C   UNL A   1      46.144  33.894  27.453  1.00  0.00     0.010 A 
ATOM     67  C   UNL A   1      46.774  33.314  29.721  1.00  0.00     0.010 A 
ATOM     68  C   UNL A   1      46.553  35.212  27.675  1.00  0.00     0.020 A 
ATOM     69  C   UNL A   1      47.147  34.640  29.960  1.00  0.00     0.020 A 
ATOM     70  C   UNL A   1      47.060  35.575  28.927  1.00  0.00     0.054 A 
BRANCH  70  71
ATOM     71  S   UNL A   1      47.601  37.286  29.180  1.00  0.00     0.124 S 
ATOM     72  O   UNL A   1      48.404  37.171  30.395  1.00  0.00    -0.237 OA
ATOM     73  O   UNL A   1      48.348  37.570  27.958  1.00  0.00    -0.237 OA
ATOM     74  O   UNL A   1      46.351  38.028  29.331  1.00  0.00    -0.744 OA
ENDBRANCH  70  71
ENDBRANCH  51  65
BRANCH  52  75
ATOM     75  C   UNL A   1      43.359  23.491  26.854  1.00  0.00    -0.014 A 
ATOM     76  C   UNL A   1      43.213  22.982  25.552  1.00  0.00     0.010 A 
ATOM     77  C   UNL A   1      43.126  22.639  27.950  1.00  0.00     0.010 A 
ATOM     78  C   UNL A   1      42.837  21.652  25.347  1.00  0.00     0.020 A 
ATOM     79  C   UNL A   1      42.781  21.299  27.750  1.00  0.00     0.020 A 
ATOM     80  C   UNL A   1      42.633  20.816  26.448  1.00  0.00     0.054 A 
BRANCH  80  81
ATOM     81  S   UNL A   1      42.216  19.075  26.154  1.00  0.00     0.124 S 
ATOM     82  O   UNL A   1      40.801  19.154  25.806  1.00  0.00    -0.237 OA
ATOM     83  O   UNL A   1      43.118  18.719  25.061  1.00  0.00    -0.237 OA
ATOM     84  O   UNL A   1      42.513  18.431  27.431  1.00  0.00    -0.744 OA
ENDBRANCH  80  81
ENDBRANCH  52  75
BRANCH  64  85
ATOM     85  C   UNL A   1      49.394  26.889  25.961  1.00  0.00    -0.014 A 
ATOM     86  C   UNL A   1      49.875  27.225  24.683  1.00  0.00     0.010 A 
ATOM     87  C   UNL A   1      50.230  26.176  26.840  1.00  0.00     0.010 A 
ATOM     88  C   UNL A   1      51.155  26.830  24.283  1.00  0.00     0.020 A 
ATOM     89  C   UNL A   1      51.523  25.809  26.457  1.00  0.00     0.020 A 
ATOM     90  C   UNL A   1      51.972  26.129  25.176  1.00  0.00     0.054 A 
BRANCH  90  91
ATOM     91  S   UNL A   1      53.648  25.677  24.650  1.00  0.00     0.124 S 
ATOM     92  O   UNL A   1      53.509  25.627  23.197  1.00  0.00    -0.237 OA
ATOM     93  O   UNL A   1      54.452  26.781  25.167  1.00  0.00    -0.237 OA
ATOM     94  O   UNL A   1      53.879  24.387  25.296  1.00  0.00    -0.744 OA
ENDBRANCH  90  91
ENDBRANCH  64  85
ENDBRANCH  38  39
ENDBRANCH  30  33
ENDBRANCH  28  29
ENDBRANCH  27  28
ENDBRANCH   1  27
TORSDOF 19
ENDMDL
MODEL 2
REMARK VINA RESULT:     -10.8      6.066     11.888
REMARK SMILES N#C[C@H]1CN(c2cc(C(=O)NCCCCCCNC(=O)c3ccc(-c4c5nc(c(-c6ccc(S(=O)(=O)[O-])cc6)c6ccc([nH]6)c(-c6ccc(S(=O)(=O)[O-])cc6)c6nc(c(-c7ccc(S(=O)(=O)[O-])cc7)c7ccc4[nH]7)C=C6)C=C5)cc3)c(N)cc2F)CCO1
REMARK SMILES IDX 15 1 14 2 13 3 12 4 11 5 9 6 10 7 8 9 6 10 7 11 84 12 83 13
REMARK SMILES IDX 85 14 81 15 5 16 3 17 4 18 88 19 87 20 86 21 2 22 1 23 82 24
REMARK SMILES IDX 16 27 17 28 18 29 19 30 20 32 21 33 22 34 80 35 23 36 79 37
REMARK SMILES IDX 24 38 25 39 26 40 73 41 27 42 78 43 72 44 74 45 28 46 77 47
REMARK SMILES IDX 71 48 70 49 29 51 59 52 40 53 58 54 41 55 44 56 57 57 75 58
REMARK SMILES IDX 42 59 43 60 56 62 76 63 45 64 30 65 31 66 39 67 32 68 38 69
REMARK SMILES IDX 33 70 34 71 35 72 36 73 37 74 60 75 61 76 69 77 62 78 68 79
REMARK SMILES IDX 63 80 64 81 65 82 66 83 67 84 46 85 47 86 55 87 48 88 54 89
REMARK SMILES IDX 49 90 50 91 51 92 52 93 53 94
REMARK H PARENT 11 8 82 25 82 26 18 31 74 50 44 61
REMARK Flexibility Score: inf
ROOT
ATOM      1  C   UNL A   1      38.368  23.357  25.587  1.00  0.00     0.002 C 
ENDROOT
BRANCH   1   2
ATOM      2  C   UNL A   1      37.119  24.022  26.176  1.00  0.00     0.002 C 
BRANCH   2   3
ATOM      3  C   UNL A   1      35.793  23.759  25.458  1.00  0.00     0.021 C 
BRANCH   3   4
ATOM      4  C   UNL A   1      35.212  22.360  25.609  1.00  0.00     0.116 C 
BRANCH   4   5
ATOM      5  N   UNL A   1      34.473  21.870  24.464  1.00  0.00    -0.352 N 
ATOM      6  C   UNL A   1      33.250  22.260  23.966  1.00  0.00     0.253 C 
ATOM      7  O   UNL A   1      32.851  21.702  22.942  1.00  0.00    -0.269 OA
ATOM      8  H   UNL A   1      34.915  21.146  23.963  1.00  0.00     0.163 HD
BRANCH   6   9
ATOM      9  C   UNL A   1      32.357  23.260  24.640  1.00  0.00     0.065 A 
ATOM     10  C   UNL A   1      31.616  25.607  24.605  1.00  0.00     0.074 A 
ATOM     11  C   UNL A   1      32.368  24.557  24.068  1.00  0.00     0.045 A 
ATOM     12  C   UNL A   1      30.712  25.282  25.623  1.00  0.00     0.148 A 
ATOM     13  C   UNL A   1      30.689  24.025  26.208  1.00  0.00     0.067 A 
ATOM     14  F   UNL A   1      29.879  26.219  26.104  1.00  0.00    -0.205 F 
ATOM     15  C   UNL A   1      31.600  23.043  25.810  1.00  0.00     0.047 A 
BRANCH  10  16
ATOM     16  N   UNL A   1      31.837  26.913  24.221  1.00  0.00    -0.363 N 
ATOM     17  C   UNL A   1      30.363  28.761  23.524  1.00  0.00     0.240 C 
ATOM     18  C   UNL A   1      31.199  27.539  23.060  1.00  0.00     0.164 C 
ATOM     19  O   UNL A   1      31.158  29.667  24.331  1.00  0.00    -0.360 OA
ATOM     20  C   UNL A   1      31.660  28.998  25.503  1.00  0.00     0.183 C 
ATOM     21  C   UNL A   1      32.562  27.821  25.121  1.00  0.00     0.145 C 
BRANCH  17  22
ATOM     22  C   UNL A   1      29.838  29.480  22.347  1.00  0.00     0.096 C 
ATOM     23  N   UNL A   1      29.438  30.040  21.414  1.00  0.00    -0.195 NA
ENDBRANCH  17  22
ENDBRANCH  10  16
BRANCH  15  24
ATOM     24  N   UNL A   1      31.716  21.927  26.630  1.00  0.00    -0.398 N 
ATOM     25  H   UNL A   1      32.606  21.572  26.855  1.00  0.00     0.156 HD
ATOM     26  H   UNL A   1      30.909  21.492  26.987  1.00  0.00     0.156 HD
ENDBRANCH  15  24
ENDBRANCH   6   9
ENDBRANCH   4   5
ENDBRANCH   3   4
ENDBRANCH   2   3
ENDBRANCH   1   2
BRANCH   1  27
ATOM     27  C   UNL A   1      39.223  22.533  26.552  1.00  0.00     0.021 C 
BRANCH  27  28
ATOM     28  C   UNL A   1      40.444  23.245  27.123  1.00  0.00     0.116 C 
BRANCH  28  29
ATOM     29  N   UNL A   1      41.273  23.852  26.096  1.00  0.00    -0.352 N 
ATOM     30  C   UNL A   1      41.669  25.160  25.957  1.00  0.00     0.251 C 
ATOM     31  H   UNL A   1      41.597  23.237  25.399  1.00  0.00     0.163 HD
ATOM     32  O   UNL A   1      42.240  25.523  24.933  1.00  0.00    -0.269 OA
BRANCH  30  33
ATOM     33  C   UNL A   1      41.383  26.133  27.034  1.00  0.00     0.039 A 
ATOM     34  C   UNL A   1      40.408  25.823  27.986  1.00  0.00     0.014 A 
ATOM     35  C   UNL A   1      42.079  27.343  27.111  1.00  0.00     0.014 A 
ATOM     36  C   UNL A   1      40.177  26.698  29.049  1.00  0.00     0.010 A 
ATOM     37  C   UNL A   1      41.909  28.170  28.216  1.00  0.00     0.010 A 
ATOM     38  C   UNL A   1      40.951  27.862  29.193  1.00  0.00    -0.014 A 
BRANCH  38  39
ATOM     39  C   UNL A   1      40.772  28.772  30.355  1.00  0.00     0.031 A 
ATOM     40  C   UNL A   1      41.654  28.631  31.567  1.00  0.00     0.074 A 
ATOM     41  C   UNL A   1      39.783  29.687  30.344  1.00  0.00     0.049 A 
ATOM     42  N   UNL A   1      41.621  29.296  32.693  1.00  0.00    -0.248 NA
ATOM     43  C   UNL A   1      42.691  27.587  31.515  1.00  0.00     0.031 C 
ATOM     44  C   UNL A   1      38.848  29.909  29.239  1.00  0.00     0.029 A 
ATOM     45  N   UNL A   1      39.400  30.602  31.292  1.00  0.00    -0.354 N 
ATOM     46  C   UNL A   1      42.624  28.748  33.485  1.00  0.00     0.074 A 
ATOM     47  C   UNL A   1      43.196  27.650  32.737  1.00  0.00     0.031 C 
ATOM     48  C   UNL A   1      38.029  30.926  29.555  1.00  0.00     0.029 A 
ATOM     49  C   UNL A   1      38.344  31.391  30.902  1.00  0.00     0.049 A 
ATOM     50  H   UNL A   1      39.840  30.687  32.168  1.00  0.00     0.167 HD
ATOM     51  C   UNL A   1      43.049  29.136  34.712  1.00  0.00     0.031 A 
ATOM     52  C   UNL A   1      37.696  32.375  31.556  1.00  0.00     0.031 A 
ATOM     53  C   UNL A   1      42.463  30.218  35.459  1.00  0.00     0.049 A 
ATOM     54  C   UNL A   1      38.140  32.749  32.943  1.00  0.00     0.074 A 
ATOM     55  C   UNL A   1      42.835  30.712  36.696  1.00  0.00     0.029 A 
ATOM     56  N   UNL A   1      41.372  30.970  35.042  1.00  0.00    -0.354 N 
ATOM     57  N   UNL A   1      39.125  32.255  33.656  1.00  0.00    -0.248 NA
ATOM     58  C   UNL A   1      37.389  33.820  33.613  1.00  0.00     0.031 C 
ATOM     59  C   UNL A   1      41.927  31.711  37.059  1.00  0.00     0.029 A 
ATOM     60  C   UNL A   1      41.039  31.900  36.012  1.00  0.00     0.049 A 
ATOM     61  H   UNL A   1      40.905  30.857  34.183  1.00  0.00     0.167 HD
ATOM     62  C   UNL A   1      39.137  32.981  34.841  1.00  0.00     0.074 A 
ATOM     63  C   UNL A   1      38.066  33.953  34.746  1.00  0.00     0.031 C 
ATOM     64  C   UNL A   1      39.966  32.860  35.909  1.00  0.00     0.031 A 
BRANCH  51  65
ATOM     65  C   UNL A   1      44.190  28.362  35.325  1.00  0.00    -0.014 A 
ATOM     66  C   UNL A   1      45.529  28.737  35.104  1.00  0.00     0.010 A 
ATOM     67  C   UNL A   1      43.923  27.240  36.131  1.00  0.00     0.010 A 
ATOM     68  C   UNL A   1      46.577  27.966  35.615  1.00  0.00     0.020 A 
ATOM     69  C   UNL A   1      44.969  26.489  36.678  1.00  0.00     0.020 A 
ATOM     70  C   UNL A   1      46.289  26.841  36.394  1.00  0.00     0.054 A 
BRANCH  70  71
ATOM     71  S   UNL A   1      47.668  25.850  37.027  1.00  0.00     0.124 S 
ATOM     72  O   UNL A   1      47.024  25.089  38.096  1.00  0.00    -0.237 OA
ATOM     73  O   UNL A   1      48.068  25.074  35.858  1.00  0.00    -0.237 OA
ATOM     74  O   UNL A   1      48.638  26.848  37.473  1.00  0.00    -0.744 OA
ENDBRANCH  70  71
ENDBRANCH  51  65
BRANCH  52  75
ATOM     75  C   UNL A   1      36.581  33.102  30.886  1.00  0.00    -0.014 A 
ATOM     76  C   UNL A   1      35.258  32.935  31.327  1.00  0.00     0.010 A 
ATOM     77  C   UNL A   1      36.839  33.986  29.821  1.00  0.00     0.010 A 
ATOM     78  C   UNL A   1      34.211  33.631  30.716  1.00  0.00     0.020 A 
ATOM     79  C   UNL A   1      35.800  34.709  29.228  1.00  0.00     0.020 A 
ATOM     80  C   UNL A   1      34.490  34.522  29.676  1.00  0.00     0.054 A 
BRANCH  80  81
ATOM     81  S   UNL A   1      33.124  35.468  28.949  1.00  0.00     0.124 S 
ATOM     82  O   UNL A   1      32.451  34.458  28.139  1.00  0.00    -0.237 OA
ATOM     83  O   UNL A   1      32.395  35.921  30.132  1.00  0.00    -0.237 OA
ATOM     84  O   UNL A   1      33.800  36.524  28.200  1.00  0.00    -0.744 OA
ENDBRANCH  80  81
ENDBRANCH  52  75
BRANCH  64  85
ATOM     85  C   UNL A   1      39.782  33.830  37.049  1.00  0.00    -0.014 A 
ATOM     86  C   UNL A   1      40.381  35.102  37.039  1.00  0.00     0.010 A 
ATOM     87  C   UNL A   1      38.942  33.478  38.123  1.00  0.00     0.010 A 
ATOM     88  C   UNL A   1      40.167  35.992  38.096  1.00  0.00     0.020 A 
ATOM     89  C   UNL A   1      38.698  34.378  39.163  1.00  0.00     0.020 A 
ATOM     90  C   UNL A   1      39.322  35.626  39.148  1.00  0.00     0.054 A 
BRANCH  90  91
ATOM     91  S   UNL A   1      39.019  36.822  40.478  1.00  0.00     0.124 S 
ATOM     92  O   UNL A   1      40.359  37.015  41.025  1.00  0.00    -0.237 OA
ATOM     93  O   UNL A   1      38.463  37.964  39.757  1.00  0.00    -0.237 OA
ATOM     94  O   UNL A   1      38.081  36.131  41.360  1.00  0.00    -0.744 OA
ENDBRANCH  90  91
ENDBRANCH  64  85
ENDBRANCH  38  39
ENDBRANCH  30  33
ENDBRANCH  28  29
ENDBRANCH  27  28
ENDBRANCH   1  27
TORSDOF 19
ENDMDL
MODEL 3
REMARK VINA RESULT:     -10.8      2.985      9.417
REMARK SMILES N#C[C@H]1CN(c2cc(C(=O)NCCCCCCNC(=O)c3ccc(-c4c5nc(c(-c6ccc(S(=O)(=O)[O-])cc6)c6ccc([nH]6)c(-c6ccc(S(=O)(=O)[O-])cc6)c6nc(c(-c7ccc(S(=O)(=O)[O-])cc7)c7ccc4[nH]7)C=C6)C=C5)cc3)c(N)cc2F)CCO1
REMARK SMILES IDX 15 1 14 2 13 3 12 4 11 5 9 6 10 7 8 9 6 10 7 11 84 12 83 13
REMARK SMILES IDX 85 14 81 15 5 16 3 17 4 18 88 19 87 20 86 21 2 22 1 23 82 24
REMARK SMILES IDX 16 27 17 28 18 29 19 30 20 32 21 33 22 34 80 35 23 36 79 37
REMARK SMILES IDX 24 38 25 39 26 40 73 41 27 42 78 43 72 44 74 45 28 46 77 47
REMARK SMILES IDX 71 48 70 49 29 51 59 52 40 53 58 54 41 55 44 56 57 57 75 58
REMARK SMILES IDX 42 59 43 60 56 62 76 63 45 64 30 65 31 66 39 67 32 68 38 69
REMARK SMILES IDX 33 70 34 71 35 72 36 73 37 74 60 75 61 76 69 77 62 78 68 79
REMARK SMILES IDX 63 80 64 81 65 82 66 83 67 84 46 85 47 86 55 87 48 88 54 89
REMARK SMILES IDX 49 90 50 91 51 92 52 93 53 94
REMARK H PARENT 11 8 82 25 82 26 18 31 74 50 44 61
REMARK Flexibility Score: inf
ROOT
ATOM      1  C   UNL A   1      36.068  22.394  24.102  1.00  0.00     0.002 C 
ENDROOT
BRANCH   1   2
ATOM      2  C   UNL A   1      34.802  21.556  24.312  1.00  0.00     0.002 C 
BRANCH   2   3
ATOM      3  C   UNL A   1      34.607  20.935  25.697  1.00  0.00     0.021 C 
BRANCH   3   4
ATOM      4  C   UNL A   1      33.848  21.778  26.712  1.00  0.00     0.116 C 
BRANCH   4   5
ATOM      5  N   UNL A   1      32.404  21.743  26.590  1.00  0.00    -0.352 N 
ATOM      6  C   UNL A   1      31.559  22.536  25.846  1.00  0.00     0.253 C 
ATOM      7  O   UNL A   1      30.355  22.275  25.888  1.00  0.00    -0.269 OA
ATOM      8  H   UNL A   1      31.959  21.044  27.122  1.00  0.00     0.163 HD
BRANCH   6   9
ATOM      9  C   UNL A   1      32.014  23.732  25.062  1.00  0.00     0.065 A 
ATOM     10  C   UNL A   1      32.581  26.122  25.229  1.00  0.00     0.074 A 
ATOM     11  C   UNL A   1      32.194  24.915  25.822  1.00  0.00     0.045 A 
ATOM     12  C   UNL A   1      32.956  26.072  23.881  1.00  0.00     0.148 A 
ATOM     13  C   UNL A   1      32.779  24.932  23.112  1.00  0.00     0.067 A 
ATOM     14  F   UNL A   1      33.445  27.170  23.281  1.00  0.00    -0.205 F 
ATOM     15  C   UNL A   1      32.185  23.793  23.664  1.00  0.00     0.047 A 
BRANCH  10  16
ATOM     16  N   UNL A   1      32.491  27.315  25.913  1.00  0.00    -0.363 N 
ATOM     17  C   UNL A   1      34.051  29.181  26.306  1.00  0.00     0.240 C 
ATOM     18  C   UNL A   1      33.528  27.814  26.819  1.00  0.00     0.164 C 
ATOM     19  O   UNL A   1      32.960  30.109  26.076  1.00  0.00    -0.360 OA
ATOM     20  C   UNL A   1      32.043  29.586  25.098  1.00  0.00     0.183 C 
ATOM     21  C   UNL A   1      31.425  28.267  25.573  1.00  0.00     0.145 C 
BRANCH  17  22
ATOM     22  C   UNL A   1      34.989  29.756  27.289  1.00  0.00     0.096 C 
ATOM     23  N   UNL A   1      35.728  30.194  28.068  1.00  0.00    -0.195 NA
ENDBRANCH  17  22
ENDBRANCH  10  16
BRANCH  15  24
ATOM     24  N   UNL A   1      31.771  22.810  22.773  1.00  0.00    -0.398 N 
ATOM     25  H   UNL A   1      32.290  21.978  22.682  1.00  0.00     0.156 HD
ATOM     26  H   UNL A   1      30.960  22.945  22.233  1.00  0.00     0.156 HD
ENDBRANCH  15  24
ENDBRANCH   6   9
ENDBRANCH   4   5
ENDBRANCH   3   4
ENDBRANCH   2   3
ENDBRANCH   1   2
BRANCH   1  27
ATOM     27  C   UNL A   1      36.125  23.740  24.830  1.00  0.00     0.021 C 
BRANCH  27  28
ATOM     28  C   UNL A   1      37.025  23.787  26.059  1.00  0.00     0.116 C 
BRANCH  28  29
ATOM     29  N   UNL A   1      37.887  22.623  26.170  1.00  0.00    -0.352 N 
ATOM     30  C   UNL A   1      39.232  22.558  26.443  1.00  0.00     0.251 C 
ATOM     31  H   UNL A   1      37.443  21.755  26.029  1.00  0.00     0.163 HD
ATOM     32  O   UNL A   1      39.828  21.490  26.339  1.00  0.00    -0.269 OA
BRANCH  30  33
ATOM     33  C   UNL A   1      39.962  23.782  26.838  1.00  0.00     0.039 A 
ATOM     34  C   UNL A   1      40.019  24.854  25.943  1.00  0.00     0.014 A 
ATOM     35  C   UNL A   1      40.580  23.877  28.088  1.00  0.00     0.014 A 
ATOM     36  C   UNL A   1      40.643  26.043  26.329  1.00  0.00     0.010 A 
ATOM     37  C   UNL A   1      41.123  25.089  28.501  1.00  0.00     0.010 A 
ATOM     38  C   UNL A   1      41.168  26.183  27.624  1.00  0.00    -0.014 A 
BRANCH  38  39
ATOM     39  C   UNL A   1      41.772  27.461  28.081  1.00  0.00     0.031 A 
ATOM     40  C   UNL A   1      43.262  27.661  28.010  1.00  0.00     0.074 A 
ATOM     41  C   UNL A   1      40.989  28.421  28.613  1.00  0.00     0.049 A 
ATOM     42  N   UNL A   1      43.979  28.683  28.402  1.00  0.00    -0.248 NA
ATOM     43  C   UNL A   1      44.053  26.554  27.446  1.00  0.00     0.031 C 
ATOM     44  C   UNL A   1      39.534  28.342  28.758  1.00  0.00     0.029 A 
ATOM     45  N   UNL A   1      41.307  29.652  29.128  1.00  0.00    -0.354 N 
ATOM     46  C   UNL A   1      45.300  28.341  28.141  1.00  0.00     0.074 A 
ATOM     47  C   UNL A   1      45.291  26.990  27.626  1.00  0.00     0.031 C 
ATOM     48  C   UNL A   1      39.082  29.493  29.283  1.00  0.00     0.029 A 
ATOM     49  C   UNL A   1      40.216  30.367  29.563  1.00  0.00     0.049 A 
ATOM     50  H   UNL A   1      42.229  29.992  29.182  1.00  0.00     0.167 HD
ATOM     51  C   UNL A   1      46.421  29.089  28.294  1.00  0.00     0.031 A 
ATOM     52  C   UNL A   1      40.135  31.588  30.127  1.00  0.00     0.031 A 
ATOM     53  C   UNL A   1      46.426  30.427  28.826  1.00  0.00     0.049 A 
ATOM     54  C   UNL A   1      41.397  32.378  30.348  1.00  0.00     0.074 A 
ATOM     55  C   UNL A   1      47.500  31.282  28.995  1.00  0.00     0.029 A 
ATOM     56  N   UNL A   1      45.303  31.101  29.285  1.00  0.00    -0.354 N 
ATOM     57  N   UNL A   1      42.633  32.060  30.047  1.00  0.00    -0.248 NA
ATOM     58  C   UNL A   1      41.250  33.697  30.979  1.00  0.00     0.031 C 
ATOM     59  C   UNL A   1      47.038  32.443  29.622  1.00  0.00     0.029 A 
ATOM     60  C   UNL A   1      45.663  32.348  29.767  1.00  0.00     0.049 A 
ATOM     61  H   UNL A   1      44.385  30.745  29.270  1.00  0.00     0.167 HD
ATOM     62  C   UNL A   1      43.407  33.154  30.414  1.00  0.00     0.074 A 
ATOM     63  C   UNL A   1      42.498  34.145  30.953  1.00  0.00     0.031 C 
ATOM     64  C   UNL A   1      44.749  33.326  30.308  1.00  0.00     0.031 A 
BRANCH  51  65
ATOM     65  C   UNL A   1      47.732  28.456  27.898  1.00  0.00    -0.014 A 
ATOM     66  C   UNL A   1      48.241  28.588  26.592  1.00  0.00     0.010 A 
ATOM     67  C   UNL A   1      48.468  27.717  28.843  1.00  0.00     0.010 A 
ATOM     68  C   UNL A   1      49.419  27.934  26.219  1.00  0.00     0.020 A 
ATOM     69  C   UNL A   1      49.668  27.094  28.484  1.00  0.00     0.020 A 
ATOM     70  C   UNL A   1      50.122  27.184  27.167  1.00  0.00     0.054 A 
BRANCH  70  71
ATOM     71  S   UNL A   1      51.635  26.332  26.650  1.00  0.00     0.124 S 
ATOM     72  O   UNL A   1      51.731  26.718  25.244  1.00  0.00    -0.237 OA
ATOM     73  O   UNL A   1      52.645  26.911  27.530  1.00  0.00    -0.237 OA
ATOM     74  O   UNL A   1      51.339  24.921  26.887  1.00  0.00    -0.744 OA
ENDBRANCH  70  71
ENDBRANCH  51  65
BRANCH  52  75
ATOM     75  C   UNL A   1      38.805  32.152  30.487  1.00  0.00    -0.014 A 
ATOM     76  C   UNL A   1      38.027  32.810  29.519  1.00  0.00     0.010 A 
ATOM     77  C   UNL A   1      38.294  32.011  31.791  1.00  0.00     0.010 A 
ATOM     78  C   UNL A   1      36.768  33.322  29.846  1.00  0.00     0.020 A 
ATOM     79  C   UNL A   1      37.022  32.491  32.115  1.00  0.00     0.020 A 
ATOM     80  C   UNL A   1      36.269  33.150  31.140  1.00  0.00     0.054 A 
BRANCH  80  81
ATOM     81  S   UNL A   1      34.603  33.758  31.520  1.00  0.00     0.124 S 
ATOM     82  O   UNL A   1      34.886  35.012  32.210  1.00  0.00    -0.237 OA
ATOM     83  O   UNL A   1      34.009  33.886  30.191  1.00  0.00    -0.237 OA
ATOM     84  O   UNL A   1      34.033  32.700  32.350  1.00  0.00    -0.744 OA
ENDBRANCH  80  81
ENDBRANCH  52  75
BRANCH  64  85
ATOM     85  C   UNL A   1      45.319  34.653  30.741  1.00  0.00    -0.014 A 
ATOM     86  C   UNL A   1      45.429  35.735  29.850  1.00  0.00     0.010 A 
ATOM     87  C   UNL A   1      45.696  34.834  32.085  1.00  0.00     0.010 A 
ATOM     88  C   UNL A   1      45.933  36.963  30.288  1.00  0.00     0.020 A 
ATOM     89  C   UNL A   1      46.167  36.071  32.535  1.00  0.00     0.020 A 
ATOM     90  C   UNL A   1      46.293  37.124  31.630  1.00  0.00     0.054 A 
BRANCH  90  91
ATOM     91  S   UNL A   1      46.891  38.745  32.183  1.00  0.00     0.124 S 
ATOM     92  O   UNL A   1      46.684  38.670  33.626  1.00  0.00    -0.237 OA
ATOM     93  O   UNL A   1      48.285  38.734  31.746  1.00  0.00    -0.237 OA
ATOM     94  O   UNL A   1      46.030  39.692  31.479  1.00  0.00    -0.744 OA
ENDBRANCH  90  91
ENDBRANCH  64  85
ENDBRANCH  38  39
ENDBRANCH  30  33
ENDBRANCH  28  29
ENDBRANCH  27  28
ENDBRANCH   1  27
TORSDOF 19
ENDMDL
