MODEL 1
REMARK VINA RESULT:     -11.0      0.000      0.000
REMARK SMILES O=C(N[C@@H]1C=C[C@@H](C(=O)NCCCCCCNC(=O)c2ccc(-c3c4nc(c(-c5ccc(S(=O)(=O)[O-])cc5)c5ccc([nH]5)c(-c5ccc(S(=O)(=O)[O-])cc5)c5nc(c(-c6ccc(S(=O)(=O)[O-])cc6)c6ccc3[nH]6)C=C5)C=C4)cc2)C1)Oc1ccccc1
REMARK SMILES IDX 13 1 12 2 11 3 10 4 8 5 9 6 7 8 4 9 5 10 80 11 6 12 3 13
REMARK SMILES IDX 1 14 2 15 81 17 82 18 83 19 87 20 84 21 86 22 85 23 14 24
REMARK SMILES IDX 15 25 16 26 17 27 18 28 19 30 20 31 21 32 79 33 22 34 78 35
REMARK SMILES IDX 23 36 24 37 25 38 72 39 26 40 77 41 71 42 73 43 27 44 76 45
REMARK SMILES IDX 70 46 69 47 28 49 58 50 39 51 57 52 40 53 43 54 56 55 74 56
REMARK SMILES IDX 41 57 42 58 55 60 75 61 44 62 29 63 30 64 38 65 31 66 37 67
REMARK SMILES IDX 32 68 33 69 34 70 35 71 36 72 59 73 60 74 68 75 61 76 67 77
REMARK SMILES IDX 62 78 63 79 64 80 65 81 66 82 45 83 46 84 54 85 47 86 53 87
REMARK SMILES IDX 48 88 49 89 50 90 51 91 52 92
REMARK H PARENT 10 7 3 16 17 29 73 48 43 59
REMARK Flexibility Score: inf
ROOT
ATOM      1  C   UNL A   1      36.210  23.728  24.730  1.00  0.00     0.002 C 
ENDROOT
BRANCH   1   2
ATOM      2  C   UNL A   1      34.824  24.388  24.703  1.00  0.00     0.021 C 
BRANCH   2   3
ATOM      3  C   UNL A   1      34.225  24.492  23.301  1.00  0.00     0.116 C 
BRANCH   3   4
ATOM      4  N   UNL A   1      33.883  25.864  23.047  1.00  0.00    -0.356 N 
ATOM      5  C   UNL A   1      32.642  26.389  22.956  1.00  0.00     0.227 C 
ATOM      6  O   UNL A   1      32.503  27.410  22.278  1.00  0.00    -0.274 OA
ATOM      7  H   UNL A   1      34.635  26.489  22.925  1.00  0.00     0.163 HD
BRANCH   5   8
ATOM      8  C   UNL A   1      31.472  25.755  23.692  1.00  0.00     0.103 C 
ATOM      9  C   UNL A   1      30.008  25.799  25.643  1.00  0.00     0.109 C 
ATOM     10  C   UNL A   1      29.277  26.180  24.403  1.00  0.00    -0.006 C 
ATOM     11  C   UNL A   1      31.485  25.734  25.221  1.00  0.00     0.047 C 
ATOM     12  C   UNL A   1      30.093  26.231  23.341  1.00  0.00    -0.016 C 
BRANCH   9  13
ATOM     13  N   UNL A   1      29.496  24.614  26.303  1.00  0.00    -0.315 N 
ATOM     14  O   UNL A   1      29.275  22.903  27.743  1.00  0.00    -0.224 OA
ATOM     15  C   UNL A   1      30.009  23.732  27.215  1.00  0.00     0.413 C 
ATOM     16  H   UNL A   1      28.575  24.394  26.035  1.00  0.00     0.167 HD
BRANCH  15  17
ATOM     17  O   UNL A   1      31.382  23.719  27.384  1.00  0.00    -0.410 OA
BRANCH  17  18
ATOM     18  C   UNL A   1      32.179  22.633  26.957  1.00  0.00     0.132 A 
ATOM     19  C   UNL A   1      31.838  22.145  25.689  1.00  0.00     0.047 A 
ATOM     20  C   UNL A   1      33.341  22.204  27.602  1.00  0.00     0.047 A 
ATOM     21  C   UNL A   1      32.728  21.317  25.005  1.00  0.00     0.004 A 
ATOM     22  C   UNL A   1      34.233  21.380  26.904  1.00  0.00     0.004 A 
ATOM     23  C   UNL A   1      33.938  20.960  25.602  1.00  0.00     0.000 A 
ENDBRANCH  17  18
ENDBRANCH  15  17
ENDBRANCH   9  13
ENDBRANCH   5   8
ENDBRANCH   3   4
ENDBRANCH   2   3
ENDBRANCH   1   2
BRANCH   1  24
ATOM     24  C   UNL A   1      36.998  23.959  26.023  1.00  0.00     0.002 C 
BRANCH  24  25
ATOM     25  C   UNL A   1      38.251  23.095  26.161  1.00  0.00     0.021 C 
BRANCH  25  26
ATOM     26  C   UNL A   1      39.336  23.735  27.008  1.00  0.00     0.116 C 
BRANCH  26  27
ATOM     27  N   UNL A   1      40.537  23.963  26.229  1.00  0.00    -0.352 N 
ATOM     28  C   UNL A   1      41.374  25.047  26.285  1.00  0.00     0.251 C 
ATOM     29  H   UNL A   1      40.780  23.259  25.585  1.00  0.00     0.163 HD
ATOM     30  O   UNL A   1      42.182  25.262  25.392  1.00  0.00    -0.269 OA
BRANCH  28  31
ATOM     31  C   UNL A   1      41.262  25.955  27.444  1.00  0.00     0.039 A 
ATOM     32  C   UNL A   1      42.267  26.893  27.675  1.00  0.00     0.014 A 
ATOM     33  C   UNL A   1      40.133  25.897  28.270  1.00  0.00     0.014 A 
ATOM     34  C   UNL A   1      42.124  27.798  28.726  1.00  0.00     0.010 A 
ATOM     35  C   UNL A   1      39.951  26.858  29.253  1.00  0.00     0.010 A 
ATOM     36  C   UNL A   1      40.956  27.801  29.509  1.00  0.00    -0.014 A 
BRANCH  36  37
ATOM     37  C   UNL A   1      40.785  28.765  30.622  1.00  0.00     0.031 A 
ATOM     38  C   UNL A   1      41.645  28.649  31.851  1.00  0.00     0.074 A 
ATOM     39  C   UNL A   1      39.821  29.702  30.550  1.00  0.00     0.049 A 
ATOM     40  N   UNL A   1      41.628  29.374  32.939  1.00  0.00    -0.248 NA
ATOM     41  C   UNL A   1      42.631  27.556  31.874  1.00  0.00     0.031 C 
ATOM     42  C   UNL A   1      38.886  29.872  29.435  1.00  0.00     0.029 A 
ATOM     43  N   UNL A   1      39.460  30.683  31.439  1.00  0.00    -0.354 N 
ATOM     44  C   UNL A   1      42.579  28.811  33.781  1.00  0.00     0.074 A 
ATOM     45  C   UNL A   1      43.115  27.652  33.103  1.00  0.00     0.031 C 
ATOM     46  C   UNL A   1      38.077  30.911  29.696  1.00  0.00     0.029 A 
ATOM     47  C   UNL A   1      38.406  31.454  31.010  1.00  0.00     0.049 A 
ATOM     48  H   UNL A   1      39.914  30.821  32.302  1.00  0.00     0.167 HD
ATOM     49  C   UNL A   1      42.985  29.232  35.003  1.00  0.00     0.031 A 
ATOM     50  C   UNL A   1      37.769  32.478  31.611  1.00  0.00     0.031 A 
ATOM     51  C   UNL A   1      42.453  30.393  35.664  1.00  0.00     0.049 A 
ATOM     52  C   UNL A   1      38.245  32.940  32.959  1.00  0.00     0.074 A 
ATOM     53  C   UNL A   1      42.847  30.955  36.866  1.00  0.00     0.029 A 
ATOM     54  N   UNL A   1      41.404  31.165  35.186  1.00  0.00    -0.354 N 
ATOM     55  N   UNL A   1      39.211  32.455  33.702  1.00  0.00    -0.248 NA
ATOM     56  C   UNL A   1      37.556  34.098  33.544  1.00  0.00     0.031 C 
ATOM     57  C   UNL A   1      41.991  32.025  37.147  1.00  0.00     0.029 A 
ATOM     58  C   UNL A   1      41.111  32.175  36.086  1.00  0.00     0.049 A 
ATOM     59  H   UNL A   1      40.936  31.016  34.332  1.00  0.00     0.167 HD
ATOM     60  C   UNL A   1      39.261  33.260  34.834  1.00  0.00     0.074 A 
ATOM     61  C   UNL A   1      38.240  34.275  34.667  1.00  0.00     0.031 C 
ATOM     62  C   UNL A   1      40.080  33.170  35.912  1.00  0.00     0.031 A 
BRANCH  49  63
ATOM     63  C   UNL A   1      44.034  28.412  35.709  1.00  0.00    -0.014 A 
ATOM     64  C   UNL A   1      45.408  28.670  35.540  1.00  0.00     0.010 A 
ATOM     65  C   UNL A   1      43.638  27.371  36.568  1.00  0.00     0.010 A 
ATOM     66  C   UNL A   1      46.364  27.867  36.168  1.00  0.00     0.020 A 
ATOM     67  C   UNL A   1      44.590  26.586  37.226  1.00  0.00     0.020 A 
ATOM     68  C   UNL A   1      45.948  26.825  37.002  1.00  0.00     0.054 A 
BRANCH  68  69
ATOM     69  S   UNL A   1      47.208  25.797  37.805  1.00  0.00     0.124 S 
ATOM     70  O   UNL A   1      46.933  26.038  39.220  1.00  0.00    -0.237 OA
ATOM     71  O   UNL A   1      46.884  24.458  37.322  1.00  0.00    -0.237 OA
ATOM     72  O   UNL A   1      48.469  26.346  37.314  1.00  0.00    -0.744 OA
ENDBRANCH  68  69
ENDBRANCH  49  63
BRANCH  50  73
ATOM     73  C   UNL A   1      36.620  33.127  30.924  1.00  0.00    -0.014 A 
ATOM     74  C   UNL A   1      35.313  32.994  31.422  1.00  0.00     0.010 A 
ATOM     75  C   UNL A   1      36.841  33.932  29.791  1.00  0.00     0.010 A 
ATOM     76  C   UNL A   1      34.248  33.654  30.801  1.00  0.00     0.020 A 
ATOM     77  C   UNL A   1      35.784  34.616  29.184  1.00  0.00     0.020 A 
ATOM     78  C   UNL A   1      34.492  34.469  29.692  1.00  0.00     0.054 A 
BRANCH  78  79
ATOM     79  S   UNL A   1      33.110  35.385  28.954  1.00  0.00     0.124 S 
ATOM     80  O   UNL A   1      32.506  34.377  28.088  1.00  0.00    -0.237 OA
ATOM     81  O   UNL A   1      32.326  35.765  30.127  1.00  0.00    -0.237 OA
ATOM     82  O   UNL A   1      33.764  36.494  28.265  1.00  0.00    -0.744 OA
ENDBRANCH  78  79
ENDBRANCH  50  73
BRANCH  62  83
ATOM     83  C   UNL A   1      39.924  34.208  36.990  1.00  0.00    -0.014 A 
ATOM     84  C   UNL A   1      39.102  33.984  38.109  1.00  0.00     0.010 A 
ATOM     85  C   UNL A   1      40.663  35.404  36.912  1.00  0.00     0.010 A 
ATOM     86  C   UNL A   1      38.997  34.949  39.113  1.00  0.00     0.020 A 
ATOM     87  C   UNL A   1      40.585  36.358  37.929  1.00  0.00     0.020 A 
ATOM     88  C   UNL A   1      39.741  36.130  39.017  1.00  0.00     0.054 A 
BRANCH  88  89
ATOM     89  S   UNL A   1      39.621  37.347  40.356  1.00  0.00     0.124 S 
ATOM     90  O   UNL A   1      38.292  37.911  40.135  1.00  0.00    -0.237 OA
ATOM     91  O   UNL A   1      39.763  36.522  41.552  1.00  0.00    -0.237 OA
ATOM     92  O   UNL A   1      40.735  38.258  40.098  1.00  0.00    -0.744 OA
ENDBRANCH  88  89
ENDBRANCH  62  83
ENDBRANCH  36  37
ENDBRANCH  28  31
ENDBRANCH  26  27
ENDBRANCH  25  26
ENDBRANCH  24  25
ENDBRANCH   1  24
TORSDOF 19
ENDMDL
MODEL 2
REMARK VINA RESULT:     -11.0      4.250      9.986
REMARK SMILES O=C(N[C@@H]1C=C[C@@H](C(=O)NCCCCCCNC(=O)c2ccc(-c3c4nc(c(-c5ccc(S(=O)(=O)[O-])cc5)c5ccc([nH]5)c(-c5ccc(S(=O)(=O)[O-])cc5)c5nc(c(-c6ccc(S(=O)(=O)[O-])cc6)c6ccc3[nH]6)C=C5)C=C4)cc2)C1)Oc1ccccc1
REMARK SMILES IDX 13 1 12 2 11 3 10 4 8 5 9 6 7 8 4 9 5 10 80 11 6 12 3 13
REMARK SMILES IDX 1 14 2 15 81 17 82 18 83 19 87 20 84 21 86 22 85 23 14 24
REMARK SMILES IDX 15 25 16 26 17 27 18 28 19 30 20 31 21 32 79 33 22 34 78 35
REMARK SMILES IDX 23 36 24 37 25 38 72 39 26 40 77 41 71 42 73 43 27 44 76 45
REMARK SMILES IDX 70 46 69 47 28 49 58 50 39 51 57 52 40 53 43 54 56 55 74 56
REMARK SMILES IDX 41 57 42 58 55 60 75 61 44 62 29 63 30 64 38 65 31 66 37 67
REMARK SMILES IDX 32 68 33 69 34 70 35 71 36 72 59 73 60 74 68 75 61 76 67 77
REMARK SMILES IDX 62 78 63 79 64 80 65 81 66 82 45 83 46 84 54 85 47 86 53 87
REMARK SMILES IDX 48 88 49 89 50 90 51 91 52 92
REMARK H PARENT 10 7 3 16 17 29 73 48 43 59
REMARK Flexibility Score: inf
ROOT
ATOM      1  C   UNL A   1      31.454  27.611  23.944  1.00  0.00     0.002 C 
ENDROOT
BRANCH   1   2
ATOM      2  C   UNL A   1      30.913  26.446  23.104  1.00  0.00     0.021 C 
BRANCH   2   3
ATOM      3  C   UNL A   1      31.061  25.084  23.782  1.00  0.00     0.116 C 
BRANCH   3   4
ATOM      4  N   UNL A   1      30.583  25.186  25.133  1.00  0.00    -0.356 N 
ATOM      5  C   UNL A   1      30.813  24.321  26.144  1.00  0.00     0.227 C 
ATOM      6  O   UNL A   1      29.980  24.271  27.052  1.00  0.00    -0.274 OA
ATOM      7  H   UNL A   1      30.026  25.971  25.343  1.00  0.00     0.163 HD
BRANCH   5   8
ATOM      8  C   UNL A   1      32.071  23.467  26.167  1.00  0.00     0.103 C 
ATOM      9  C   UNL A   1      34.383  23.241  26.910  1.00  0.00     0.109 C 
ATOM     10  C   UNL A   1      33.486  22.288  27.620  1.00  0.00    -0.006 C 
ATOM     11  C   UNL A   1      33.434  24.159  26.124  1.00  0.00     0.047 C 
ATOM     12  C   UNL A   1      32.204  22.459  27.270  1.00  0.00    -0.016 C 
BRANCH   9  13
ATOM     13  N   UNL A   1      35.431  22.612  26.130  1.00  0.00    -0.315 N 
ATOM     14  O   UNL A   1      36.501  21.531  24.475  1.00  0.00    -0.224 OA
ATOM     15  C   UNL A   1      35.444  21.771  25.051  1.00  0.00     0.413 C 
ATOM     16  H   UNL A   1      36.335  22.841  26.447  1.00  0.00     0.167 HD
BRANCH  15  17
ATOM     17  O   UNL A   1      34.271  21.100  24.753  1.00  0.00    -0.410 OA
BRANCH  17  18
ATOM     18  C   UNL A   1      34.142  19.703  24.924  1.00  0.00     0.132 A 
ATOM     19  C   UNL A   1      32.944  19.316  25.536  1.00  0.00     0.047 A 
ATOM     20  C   UNL A   1      34.996  18.757  24.353  1.00  0.00     0.047 A 
ATOM     21  C   UNL A   1      32.533  17.985  25.469  1.00  0.00     0.004 A 
ATOM     22  C   UNL A   1      34.571  17.424  24.282  1.00  0.00     0.004 A 
ATOM     23  C   UNL A   1      33.333  17.046  24.815  1.00  0.00     0.000 A 
ENDBRANCH  17  18
ENDBRANCH  15  17
ENDBRANCH   9  13
ENDBRANCH   5   8
ENDBRANCH   3   4
ENDBRANCH   2   3
ENDBRANCH   1   2
BRANCH   1  24
ATOM     24  C   UNL A   1      32.913  27.454  24.382  1.00  0.00     0.002 C 
BRANCH  24  25
ATOM     25  C   UNL A   1      33.136  27.578  25.889  1.00  0.00     0.021 C 
BRANCH  25  26
ATOM     26  C   UNL A   1      34.361  28.398  26.253  1.00  0.00     0.116 C 
BRANCH  26  27
ATOM     27  N   UNL A   1      33.989  29.743  26.644  1.00  0.00    -0.352 N 
ATOM     28  C   UNL A   1      34.602  30.541  27.575  1.00  0.00     0.251 C 
ATOM     29  H   UNL A   1      33.206  30.129  26.188  1.00  0.00     0.163 HD
ATOM     30  O   UNL A   1      34.038  31.530  28.023  1.00  0.00    -0.269 OA
BRANCH  28  31
ATOM     31  C   UNL A   1      35.955  30.164  28.033  1.00  0.00     0.039 A 
ATOM     32  C   UNL A   1      36.117  29.632  29.311  1.00  0.00     0.014 A 
ATOM     33  C   UNL A   1      37.048  30.300  27.169  1.00  0.00     0.014 A 
ATOM     34  C   UNL A   1      37.382  29.207  29.715  1.00  0.00     0.010 A 
ATOM     35  C   UNL A   1      38.284  29.790  27.540  1.00  0.00     0.010 A 
ATOM     36  C   UNL A   1      38.470  29.264  28.826  1.00  0.00    -0.014 A 
BRANCH  36  37
ATOM     37  C   UNL A   1      39.818  28.806  29.237  1.00  0.00     0.031 A 
ATOM     38  C   UNL A   1      40.731  29.740  29.983  1.00  0.00     0.074 A 
ATOM     39  C   UNL A   1      40.239  27.575  28.889  1.00  0.00     0.049 A 
ATOM     40  N   UNL A   1      41.952  29.538  30.402  1.00  0.00    -0.248 NA
ATOM     41  C   UNL A   1      40.215  31.091  30.266  1.00  0.00     0.031 C 
ATOM     42  C   UNL A   1      39.464  26.602  28.114  1.00  0.00     0.029 A 
ATOM     43  N   UNL A   1      41.427  26.934  29.134  1.00  0.00    -0.354 N 
ATOM     44  C   UNL A   1      42.358  30.738  30.974  1.00  0.00     0.074 A 
ATOM     45  C   UNL A   1      41.275  31.679  30.799  1.00  0.00     0.031 C 
ATOM     46  C   UNL A   1      40.188  25.481  27.970  1.00  0.00     0.029 A 
ATOM     47  C   UNL A   1      41.489  25.668  28.605  1.00  0.00     0.049 A 
ATOM     48  H   UNL A   1      42.164  27.343  29.643  1.00  0.00     0.167 HD
ATOM     49  C   UNL A   1      43.521  31.026  31.606  1.00  0.00     0.031 A 
ATOM     50  C   UNL A   1      42.485  24.760  28.619  1.00  0.00     0.031 A 
ATOM     51  C   UNL A   1      44.588  30.077  31.785  1.00  0.00     0.049 A 
ATOM     52  C   UNL A   1      43.761  25.092  29.340  1.00  0.00     0.074 A 
ATOM     53  C   UNL A   1      45.774  30.238  32.478  1.00  0.00     0.029 A 
ATOM     54  N   UNL A   1      44.602  28.794  31.257  1.00  0.00    -0.354 N 
ATOM     55  N   UNL A   1      44.092  26.200  29.959  1.00  0.00    -0.248 NA
ATOM     56  C   UNL A   1      44.791  24.047  29.379  1.00  0.00     0.031 C 
ATOM     57  C   UNL A   1      46.536  29.077  32.311  1.00  0.00     0.029 A 
ATOM     58  C   UNL A   1      45.794  28.166  31.576  1.00  0.00     0.049 A 
ATOM     59  H   UNL A   1      43.874  28.391  30.732  1.00  0.00     0.167 HD
ATOM     60  C   UNL A   1      45.362  25.979  30.480  1.00  0.00     0.074 A 
ATOM     61  C   UNL A   1      45.730  24.625  30.118  1.00  0.00     0.031 C 
ATOM     62  C   UNL A   1      46.151  26.820  31.195  1.00  0.00     0.031 A 
BRANCH  49  63
ATOM     63  C   UNL A   1      43.704  32.429  32.123  1.00  0.00    -0.014 A 
ATOM     64  C   UNL A   1      43.295  32.796  33.419  1.00  0.00     0.010 A 
ATOM     65  C   UNL A   1      44.307  33.397  31.300  1.00  0.00     0.010 A 
ATOM     66  C   UNL A   1      43.433  34.116  33.860  1.00  0.00     0.020 A 
ATOM     67  C   UNL A   1      44.479  34.711  31.748  1.00  0.00     0.020 A 
ATOM     68  C   UNL A   1      44.018  35.066  33.018  1.00  0.00     0.054 A 
BRANCH  68  69
ATOM     69  S   UNL A   1      44.183  36.771  33.613  1.00  0.00     0.124 S 
ATOM     70  O   UNL A   1      42.950  36.942  34.378  1.00  0.00    -0.237 OA
ATOM     71  O   UNL A   1      45.410  36.716  34.404  1.00  0.00    -0.237 OA
ATOM     72  O   UNL A   1      44.270  37.561  32.387  1.00  0.00    -0.744 OA
ENDBRANCH  68  69
ENDBRANCH  49  63
BRANCH  50  73
ATOM     73  C   UNL A   1      42.294  23.455  27.930  1.00  0.00    -0.014 A 
ATOM     74  C   UNL A   1      43.074  23.107  26.815  1.00  0.00     0.010 A 
ATOM     75  C   UNL A   1      41.361  22.526  28.429  1.00  0.00     0.010 A 
ATOM     76  C   UNL A   1      42.925  21.856  26.209  1.00  0.00     0.020 A 
ATOM     77  C   UNL A   1      41.230  21.264  27.845  1.00  0.00     0.020 A 
ATOM     78  C   UNL A   1      42.011  20.938  26.735  1.00  0.00     0.054 A 
BRANCH  78  79
ATOM     79  S   UNL A   1      41.896  19.288  25.987  1.00  0.00     0.124 S 
ATOM     80  O   UNL A   1      42.702  19.444  24.781  1.00  0.00    -0.237 OA
ATOM     81  O   UNL A   1      42.468  18.434  27.026  1.00  0.00    -0.237 OA
ATOM     82  O   UNL A   1      40.463  19.112  25.766  1.00  0.00    -0.744 OA
ENDBRANCH  78  79
ENDBRANCH  50  73
BRANCH  62  83
ATOM     83  C   UNL A   1      47.484  26.296  31.656  1.00  0.00    -0.014 A 
ATOM     84  C   UNL A   1      47.631  25.661  32.902  1.00  0.00     0.010 A 
ATOM     85  C   UNL A   1      48.597  26.388  30.799  1.00  0.00     0.010 A 
ATOM     86  C   UNL A   1      48.872  25.155  33.295  1.00  0.00     0.020 A 
ATOM     87  C   UNL A   1      49.833  25.855  31.175  1.00  0.00     0.020 A 
ATOM     88  C   UNL A   1      49.965  25.255  32.428  1.00  0.00     0.054 A 
BRANCH  88  89
ATOM     89  S   UNL A   1      51.555  24.550  32.944  1.00  0.00     0.124 S 
ATOM     90  O   UNL A   1      51.480  23.200  32.393  1.00  0.00    -0.237 OA
ATOM     91  O   UNL A   1      52.521  25.438  32.303  1.00  0.00    -0.237 OA
ATOM     92  O   UNL A   1      51.514  24.631  34.403  1.00  0.00    -0.744 OA
ENDBRANCH  88  89
ENDBRANCH  62  83
ENDBRANCH  36  37
ENDBRANCH  28  31
ENDBRANCH  26  27
ENDBRANCH  25  26
ENDBRANCH  24  25
ENDBRANCH   1  24
TORSDOF 19
ENDMDL
MODEL 3
REMARK VINA RESULT:     -10.6      4.173      9.907
REMARK SMILES O=C(N[C@@H]1C=C[C@@H](C(=O)NCCCCCCNC(=O)c2ccc(-c3c4nc(c(-c5ccc(S(=O)(=O)[O-])cc5)c5ccc([nH]5)c(-c5ccc(S(=O)(=O)[O-])cc5)c5nc(c(-c6ccc(S(=O)(=O)[O-])cc6)c6ccc3[nH]6)C=C5)C=C4)cc2)C1)Oc1ccccc1
REMARK SMILES IDX 13 1 12 2 11 3 10 4 8 5 9 6 7 8 4 9 5 10 80 11 6 12 3 13
REMARK SMILES IDX 1 14 2 15 81 17 82 18 83 19 87 20 84 21 86 22 85 23 14 24
REMARK SMILES IDX 15 25 16 26 17 27 18 28 19 30 20 31 21 32 79 33 22 34 78 35
REMARK SMILES IDX 23 36 24 37 25 38 72 39 26 40 77 41 71 42 73 43 27 44 76 45
REMARK SMILES IDX 70 46 69 47 28 49 58 50 39 51 57 52 40 53 43 54 56 55 74 56
REMARK SMILES IDX 41 57 42 58 55 60 75 61 44 62 29 63 30 64 38 65 31 66 37 67
REMARK SMILES IDX 32 68 33 69 34 70 35 71 36 72 59 73 60 74 68 75 61 76 67 77
REMARK SMILES IDX 62 78 63 79 64 80 65 81 66 82 45 83 46 84 54 85 47 86 53 87
REMARK SMILES IDX 48 88 49 89 50 90 51 91 52 92
REMARK H PARENT 10 7 3 16 17 29 73 48 43 59
REMARK Flexibility Score: inf
ROOT
ATOM      1  C   UNL A   1      31.547  28.488  24.006  1.00  0.00     0.002 C 
ENDROOT
BRANCH   1   2
ATOM      2  C   UNL A   1      30.489  27.781  23.147  1.00  0.00     0.021 C 
BRANCH   2   3
ATOM      3  C   UNL A   1      30.195  26.350  23.597  1.00  0.00     0.116 C 
BRANCH   3   4
ATOM      4  N   UNL A   1      29.643  26.387  24.923  1.00  0.00    -0.356 N 
ATOM      5  C   UNL A   1      29.647  25.389  25.833  1.00  0.00     0.227 C 
ATOM      6  O   UNL A   1      28.754  25.389  26.684  1.00  0.00    -0.274 OA
ATOM      7  H   UNL A   1      29.216  27.231  25.198  1.00  0.00     0.163 HD
BRANCH   5   8
ATOM      8  C   UNL A   1      30.735  24.326  25.819  1.00  0.00     0.103 C 
ATOM      9  C   UNL A   1      31.295  21.960  26.021  1.00  0.00     0.109 C 
ATOM     10  C   UNL A   1      31.479  22.448  24.626  1.00  0.00    -0.006 C 
ATOM     11  C   UNL A   1      30.603  23.122  26.752  1.00  0.00     0.047 C 
ATOM     12  C   UNL A   1      31.101  23.726  24.493  1.00  0.00    -0.016 C 
BRANCH   9  13
ATOM     13  N   UNL A   1      32.503  21.460  26.647  1.00  0.00    -0.315 N 
ATOM     14  O   UNL A   1      34.490  21.391  27.695  1.00  0.00    -0.224 OA
ATOM     15  C   UNL A   1      33.695  22.026  27.008  1.00  0.00     0.413 C 
ATOM     16  H   UNL A   1      32.456  20.500  26.859  1.00  0.00     0.167 HD
BRANCH  15  17
ATOM     17  O   UNL A   1      34.017  23.248  26.444  1.00  0.00    -0.410 OA
BRANCH  17  18
ATOM     18  C   UNL A   1      34.938  23.361  25.378  1.00  0.00     0.132 A 
ATOM     19  C   UNL A   1      36.120  22.636  25.571  1.00  0.00     0.047 A 
ATOM     20  C   UNL A   1      34.646  23.943  24.142  1.00  0.00     0.047 A 
ATOM     21  C   UNL A   1      36.960  22.383  24.487  1.00  0.00     0.004 A 
ATOM     22  C   UNL A   1      35.491  23.677  23.057  1.00  0.00     0.004 A 
ATOM     23  C   UNL A   1      36.629  22.879  23.225  1.00  0.00     0.000 A 
ENDBRANCH  17  18
ENDBRANCH  15  17
ENDBRANCH   9  13
ENDBRANCH   5   8
ENDBRANCH   3   4
ENDBRANCH   2   3
ENDBRANCH   1   2
BRANCH   1  24
ATOM     24  C   UNL A   1      32.789  27.644  24.304  1.00  0.00     0.002 C 
BRANCH  24  25
ATOM     25  C   UNL A   1      33.030  27.380  25.791  1.00  0.00     0.021 C 
BRANCH  25  26
ATOM     26  C   UNL A   1      34.192  28.172  26.364  1.00  0.00     0.116 C 
BRANCH  26  27
ATOM     27  N   UNL A   1      33.774  29.507  26.743  1.00  0.00    -0.352 N 
ATOM     28  C   UNL A   1      34.379  30.347  27.643  1.00  0.00     0.251 C 
ATOM     29  H   UNL A   1      32.962  29.851  26.305  1.00  0.00     0.163 HD
ATOM     30  O   UNL A   1      33.786  31.318  28.090  1.00  0.00    -0.269 OA
BRANCH  28  31
ATOM     31  C   UNL A   1      35.759  30.035  28.066  1.00  0.00     0.039 A 
ATOM     32  C   UNL A   1      35.987  29.579  29.363  1.00  0.00     0.014 A 
ATOM     33  C   UNL A   1      36.814  30.157  27.154  1.00  0.00     0.014 A 
ATOM     34  C   UNL A   1      37.279  29.215  29.739  1.00  0.00     0.010 A 
ATOM     35  C   UNL A   1      38.078  29.705  27.502  1.00  0.00     0.010 A 
ATOM     36  C   UNL A   1      38.330  29.256  28.806  1.00  0.00    -0.014 A 
BRANCH  36  37
ATOM     37  C   UNL A   1      39.707  28.861  29.187  1.00  0.00     0.031 A 
ATOM     38  C   UNL A   1      40.597  29.844  29.897  1.00  0.00     0.074 A 
ATOM     39  C   UNL A   1      40.171  27.644  28.844  1.00  0.00     0.049 A 
ATOM     40  N   UNL A   1      41.837  29.699  30.287  1.00  0.00    -0.248 NA
ATOM     41  C   UNL A   1      40.032  31.174  30.177  1.00  0.00     0.031 C 
ATOM     42  C   UNL A   1      39.419  26.629  28.101  1.00  0.00     0.029 A 
ATOM     43  N   UNL A   1      41.391  27.058  29.066  1.00  0.00    -0.354 N 
ATOM     44  C   UNL A   1      42.205  30.923  30.833  1.00  0.00     0.074 A 
ATOM     45  C   UNL A   1      41.079  31.815  30.674  1.00  0.00     0.031 C 
ATOM     46  C   UNL A   1      40.186  25.538  27.953  1.00  0.00     0.029 A 
ATOM     47  C   UNL A   1      41.494  25.788  28.551  1.00  0.00     0.049 A 
ATOM     48  H   UNL A   1      42.123  27.505  29.549  1.00  0.00     0.167 HD
ATOM     49  C   UNL A   1      43.371  31.269  31.430  1.00  0.00     0.031 A 
ATOM     50  C   UNL A   1      42.528  24.924  28.550  1.00  0.00     0.031 A 
ATOM     51  C   UNL A   1      44.481  30.369  31.593  1.00  0.00     0.049 A 
ATOM     52  C   UNL A   1      43.807  25.320  29.233  1.00  0.00     0.074 A 
ATOM     53  C   UNL A   1      45.677  30.590  32.252  1.00  0.00     0.029 A 
ATOM     54  N   UNL A   1      44.537  29.081  31.081  1.00  0.00    -0.354 N 
ATOM     55  N   UNL A   1      44.105  26.450  29.830  1.00  0.00    -0.248 NA
ATOM     56  C   UNL A   1      44.882  24.320  29.258  1.00  0.00     0.031 C 
ATOM     57  C   UNL A   1      46.483  29.460  32.080  1.00  0.00     0.029 A 
ATOM     58  C   UNL A   1      45.763  28.508  31.377  1.00  0.00     0.049 A 
ATOM     59  H   UNL A   1      43.814  28.639  30.580  1.00  0.00     0.167 HD
ATOM     60  C   UNL A   1      45.397  26.290  30.320  1.00  0.00     0.074 A 
ATOM     61  C   UNL A   1      45.813  24.948  29.965  1.00  0.00     0.031 C 
ATOM     62  C   UNL A   1      46.167  27.174  31.003  1.00  0.00     0.031 A 
BRANCH  49  63
ATOM     63  C   UNL A   1      43.506  32.686  31.925  1.00  0.00    -0.014 A 
ATOM     64  C   UNL A   1      43.122  33.052  33.228  1.00  0.00     0.010 A 
ATOM     65  C   UNL A   1      44.040  33.669  31.071  1.00  0.00     0.010 A 
ATOM     66  C   UNL A   1      43.214  34.381  33.648  1.00  0.00     0.020 A 
ATOM     67  C   UNL A   1      44.166  34.994  31.499  1.00  0.00     0.020 A 
ATOM     68  C   UNL A   1      43.729  35.346  32.778  1.00  0.00     0.054 A 
BRANCH  68  69
ATOM     69  S   UNL A   1      43.837  37.064  33.347  1.00  0.00     0.124 S 
ATOM     70  O   UNL A   1      43.829  37.799  32.084  1.00  0.00    -0.237 OA
ATOM     71  O   UNL A   1      42.634  37.207  34.163  1.00  0.00    -0.237 OA
ATOM     72  O   UNL A   1      45.097  37.108  34.085  1.00  0.00    -0.744 OA
ENDBRANCH  68  69
ENDBRANCH  49  63
BRANCH  50  73
ATOM     73  C   UNL A   1      42.376  23.603  27.883  1.00  0.00    -0.014 A 
ATOM     74  C   UNL A   1      42.990  23.344  26.646  1.00  0.00     0.010 A 
ATOM     75  C   UNL A   1      41.655  22.574  28.518  1.00  0.00     0.010 A 
ATOM     76  C   UNL A   1      42.887  22.082  26.055  1.00  0.00     0.020 A 
ATOM     77  C   UNL A   1      41.574  21.302  27.944  1.00  0.00     0.020 A 
ATOM     78  C   UNL A   1      42.187  21.065  26.713  1.00  0.00     0.054 A 
BRANCH  78  79
ATOM     79  S   UNL A   1      42.140  19.410  25.970  1.00  0.00     0.124 S 
ATOM     80  O   UNL A   1      42.947  19.593  24.769  1.00  0.00    -0.237 OA
ATOM     81  O   UNL A   1      42.737  18.581  27.015  1.00  0.00    -0.237 OA
ATOM     82  O   UNL A   1      40.716  19.179  25.740  1.00  0.00    -0.744 OA
ENDBRANCH  78  79
ENDBRANCH  50  73
BRANCH  62  83
ATOM     83  C   UNL A   1      47.533  26.714  31.435  1.00  0.00    -0.014 A 
ATOM     84  C   UNL A   1      48.671  26.955  30.645  1.00  0.00     0.010 A 
ATOM     85  C   UNL A   1      47.688  26.083  32.684  1.00  0.00     0.010 A 
ATOM     86  C   UNL A   1      49.934  26.546  31.081  1.00  0.00     0.020 A 
ATOM     87  C   UNL A   1      48.953  25.701  33.138  1.00  0.00     0.020 A 
ATOM     88  C   UNL A   1      50.067  25.923  32.326  1.00  0.00     0.054 A 
BRANCH  88  89
ATOM     89  S   UNL A   1      51.722  25.442  32.888  1.00  0.00     0.124 S 
ATOM     90  O   UNL A   1      51.425  24.331  33.788  1.00  0.00    -0.237 OA
ATOM     91  O   UNL A   1      52.391  25.080  31.642  1.00  0.00    -0.237 OA
ATOM     92  O   UNL A   1      52.233  26.649  33.536  1.00  0.00    -0.744 OA
ENDBRANCH  88  89
ENDBRANCH  62  83
ENDBRANCH  36  37
ENDBRANCH  28  31
ENDBRANCH  26  27
ENDBRANCH  25  26
ENDBRANCH  24  25
ENDBRANCH   1  24
TORSDOF 19
ENDMDL
