MODEL 1
REMARK VINA RESULT:     -12.9      0.000      0.000
REMARK SMILES Cc1ccccc1CNc1ccc(C(=O)NCCCCCCNC(=O)c2ccc(-c3c4nc(c(-c5ccc(S(=O)(=O)[O-])cc5)c5ccc([nH]5)c(-c5ccc(S(=O)(=O)[O-])cc5)c5nc(c(-c6ccc(S(=O)(=O)[O-])cc6)c6ccc3[nH]6)C=C5)C=C4)cc2)c(F)c1F
REMARK SMILES IDX 19 1 18 2 17 3 16 4 14 5 15 6 13 8 10 9 11 10 88 11 12 12
REMARK SMILES IDX 86 13 89 14 87 15 9 16 8 18 7 19 1 20 2 21 3 22 4 23 6 24
REMARK SMILES IDX 5 25 20 26 21 27 22 28 23 29 24 30 25 32 26 33 27 34 85 35
REMARK SMILES IDX 28 36 84 37 29 38 30 39 31 40 78 41 32 42 83 43 77 44 79 45
REMARK SMILES IDX 33 46 82 47 76 48 75 49 34 51 64 52 45 53 63 54 46 55 49 56
REMARK SMILES IDX 62 57 80 58 47 59 48 60 61 62 81 63 50 64 35 65 36 66 44 67
REMARK SMILES IDX 37 68 43 69 38 70 39 71 40 72 41 73 42 74 65 75 66 76 74 77
REMARK SMILES IDX 67 78 73 79 68 80 69 81 70 82 71 83 72 84 51 85 52 86 60 87
REMARK SMILES IDX 53 88 59 89 54 90 55 91 56 92 57 93 58 94
REMARK H PARENT 16 7 9 17 23 31 79 50 49 61
REMARK Flexibility Score: inf
ROOT
ATOM      1  C   UNL A   1      31.194  29.461  24.658  1.00  0.00     0.002 C 
ENDROOT
BRANCH   1   2
ATOM      2  C   UNL A   1      30.262  28.494  23.924  1.00  0.00     0.021 C 
BRANCH   2   3
ATOM      3  C   UNL A   1      30.757  27.862  22.628  1.00  0.00     0.116 C 
BRANCH   3   4
ATOM      4  N   UNL A   1      32.064  28.305  22.177  1.00  0.00    -0.352 N 
ATOM      5  C   UNL A   1      33.281  27.657  22.199  1.00  0.00     0.254 C 
ATOM      6  O   UNL A   1      34.250  28.206  21.678  1.00  0.00    -0.269 OA
ATOM      7  H   UNL A   1      32.084  29.212  21.796  1.00  0.00     0.163 HD
BRANCH   5   8
ATOM      8  C   UNL A   1      33.453  26.318  22.820  1.00  0.00     0.078 A 
ATOM      9  C   UNL A   1      33.730  23.728  23.969  1.00  0.00     0.074 A 
ATOM     10  C   UNL A   1      33.959  24.882  24.720  1.00  0.00     0.030 A 
ATOM     11  C   UNL A   1      33.356  23.906  22.626  1.00  0.00     0.182 A 
ATOM     12  C   UNL A   1      33.778  26.156  24.169  1.00  0.00     0.019 A 
ATOM     13  C   UNL A   1      33.223  25.174  22.056  1.00  0.00     0.173 A 
ATOM     14  F   UNL A   1      33.097  22.820  21.875  1.00  0.00    -0.201 F 
ATOM     15  F   UNL A   1      32.870  25.257  20.764  1.00  0.00    -0.203 F 
BRANCH   9  16
ATOM     16  N   UNL A   1      33.807  22.455  24.500  1.00  0.00    -0.379 N 
ATOM     17  H   UNL A   1      33.381  21.727  23.990  1.00  0.00     0.161 HD
BRANCH  16  18
ATOM     18  C   UNL A   1      34.461  22.096  25.746  1.00  0.00     0.149 C 
BRANCH  18  19
ATOM     19  C   UNL A   1      35.856  21.565  25.474  1.00  0.00    -0.026 A 
ATOM     20  C   UNL A   1      37.036  23.777  26.067  1.00  0.00     0.044 C 
ATOM     21  C   UNL A   1      37.027  22.332  25.647  1.00  0.00    -0.046 A 
ATOM     22  C   UNL A   1      38.276  21.735  25.389  1.00  0.00     0.004 A 
ATOM     23  C   UNL A   1      38.378  20.397  25.005  1.00  0.00     0.000 A 
ATOM     24  C   UNL A   1      35.985  20.206  25.110  1.00  0.00     0.006 A 
ATOM     25  C   UNL A   1      37.230  19.629  24.872  1.00  0.00     0.000 A 
ENDBRANCH  18  19
ENDBRANCH  16  18
ENDBRANCH   9  16
ENDBRANCH   5   8
ENDBRANCH   3   4
ENDBRANCH   2   3
ENDBRANCH   1   2
BRANCH   1  26
ATOM     26  C   UNL A   1      31.936  28.976  25.913  1.00  0.00     0.002 C 
BRANCH  26  27
ATOM     27  C   UNL A   1      32.693  30.004  26.755  1.00  0.00     0.021 C 
BRANCH  27  28
ATOM     28  C   UNL A   1      34.127  29.649  27.097  1.00  0.00     0.116 C 
BRANCH  28  29
ATOM     29  N   UNL A   1      35.095  30.725  26.946  1.00  0.00    -0.352 N 
ATOM     30  C   UNL A   1      36.048  30.911  27.948  1.00  0.00     0.251 C 
ATOM     31  H   UNL A   1      35.079  31.308  26.153  1.00  0.00     0.163 HD
ATOM     32  O   UNL A   1      36.022  31.788  28.791  1.00  0.00    -0.269 OA
BRANCH  30  33
ATOM     33  C   UNL A   1      37.014  29.793  28.045  1.00  0.00     0.039 A 
ATOM     34  C   UNL A   1      37.080  28.995  29.186  1.00  0.00     0.014 A 
ATOM     35  C   UNL A   1      38.009  29.748  27.067  1.00  0.00     0.014 A 
ATOM     36  C   UNL A   1      38.235  28.246  29.418  1.00  0.00     0.010 A 
ATOM     37  C   UNL A   1      39.186  29.098  27.349  1.00  0.00     0.010 A 
ATOM     38  C   UNL A   1      39.312  28.372  28.537  1.00  0.00    -0.014 A 
BRANCH  38  39
ATOM     39  C   UNL A   1      40.638  27.817  28.759  1.00  0.00     0.031 A 
ATOM     40  C   UNL A   1      40.899  26.403  28.408  1.00  0.00     0.074 A 
ATOM     41  C   UNL A   1      41.650  28.636  29.120  1.00  0.00     0.049 A 
ATOM     42  N   UNL A   1      41.893  25.714  28.857  1.00  0.00    -0.248 NA
ATOM     43  C   UNL A   1      40.020  25.633  27.531  1.00  0.00     0.031 C 
ATOM     44  C   UNL A   1      43.081  28.348  29.059  1.00  0.00     0.029 A 
ATOM     45  N   UNL A   1      41.582  29.840  29.824  1.00  0.00    -0.354 N 
ATOM     46  C   UNL A   1      41.956  24.551  28.122  1.00  0.00     0.074 A 
ATOM     47  C   UNL A   1      40.727  24.511  27.366  1.00  0.00     0.031 C 
ATOM     48  C   UNL A   1      43.713  29.140  29.940  1.00  0.00     0.029 A 
ATOM     49  C   UNL A   1      42.685  29.840  30.693  1.00  0.00     0.049 A 
ATOM     50  H   UNL A   1      40.900  30.543  29.730  1.00  0.00     0.167 HD
ATOM     51  C   UNL A   1      43.104  23.818  28.123  1.00  0.00     0.031 A 
ATOM     52  C   UNL A   1      42.575  29.840  32.055  1.00  0.00     0.031 A 
ATOM     53  C   UNL A   1      44.098  24.389  29.027  1.00  0.00     0.049 A 
ATOM     54  C   UNL A   1      43.250  28.643  32.696  1.00  0.00     0.074 A 
ATOM     55  C   UNL A   1      45.195  25.208  28.824  1.00  0.00     0.029 A 
ATOM     56  N   UNL A   1      43.843  24.397  30.390  1.00  0.00    -0.354 N 
ATOM     57  N   UNL A   1      43.579  27.559  32.049  1.00  0.00    -0.248 NA
ATOM     58  C   UNL A   1      43.585  28.562  34.113  1.00  0.00     0.031 C 
ATOM     59  C   UNL A   1      45.552  25.776  30.075  1.00  0.00     0.029 A 
ATOM     60  C   UNL A   1      44.692  25.273  31.036  1.00  0.00     0.049 A 
ATOM     61  H   UNL A   1      43.153  23.854  30.836  1.00  0.00     0.167 HD
ATOM     62  C   UNL A   1      44.163  26.662  32.906  1.00  0.00     0.074 A 
ATOM     63  C   UNL A   1      44.146  27.340  34.189  1.00  0.00     0.031 C 
ATOM     64  C   UNL A   1      44.608  25.441  32.481  1.00  0.00     0.031 A 
BRANCH  51  65
ATOM     65  C   UNL A   1      43.424  22.746  27.107  1.00  0.00    -0.014 A 
ATOM     66  C   UNL A   1      42.694  21.538  27.126  1.00  0.00     0.010 A 
ATOM     67  C   UNL A   1      44.441  22.844  26.140  1.00  0.00     0.010 A 
ATOM     68  C   UNL A   1      43.017  20.457  26.292  1.00  0.00     0.020 A 
ATOM     69  C   UNL A   1      44.797  21.759  25.321  1.00  0.00     0.020 A 
ATOM     70  C   UNL A   1      44.087  20.566  25.409  1.00  0.00     0.054 A 
BRANCH  70  71
ATOM     71  S   UNL A   1      44.530  19.137  24.387  1.00  0.00     0.124 S 
ATOM     72  O   UNL A   1      43.535  18.144  24.787  1.00  0.00    -0.237 OA
ATOM     73  O   UNL A   1      44.388  19.662  23.033  1.00  0.00    -0.237 OA
ATOM     74  O   UNL A   1      45.901  18.831  24.794  1.00  0.00    -0.744 OA
ENDBRANCH  70  71
ENDBRANCH  51  65
BRANCH  52  75
ATOM     75  C   UNL A   1      41.344  30.512  32.567  1.00  0.00    -0.014 A 
ATOM     76  C   UNL A   1      40.233  29.689  32.853  1.00  0.00     0.010 A 
ATOM     77  C   UNL A   1      41.430  31.773  33.182  1.00  0.00     0.010 A 
ATOM     78  C   UNL A   1      39.346  30.025  33.881  1.00  0.00     0.020 A 
ATOM     79  C   UNL A   1      40.533  32.116  34.205  1.00  0.00     0.020 A 
ATOM     80  C   UNL A   1      39.554  31.200  34.601  1.00  0.00     0.054 A 
BRANCH  80  81
ATOM     81  S   UNL A   1      38.665  31.411  36.176  1.00  0.00     0.124 S 
ATOM     82  O   UNL A   1      38.627  30.051  36.703  1.00  0.00    -0.237 OA
ATOM     83  O   UNL A   1      39.532  32.348  36.897  1.00  0.00    -0.237 OA
ATOM     84  O   UNL A   1      37.379  31.965  35.766  1.00  0.00    -0.744 OA
ENDBRANCH  80  81
ENDBRANCH  52  75
BRANCH  64  85
ATOM     85  C   UNL A   1      45.075  24.288  33.345  1.00  0.00    -0.014 A 
ATOM     86  C   UNL A   1      46.333  24.209  33.958  1.00  0.00     0.010 A 
ATOM     87  C   UNL A   1      44.146  23.266  33.672  1.00  0.00     0.010 A 
ATOM     88  C   UNL A   1      46.664  23.144  34.811  1.00  0.00     0.020 A 
ATOM     89  C   UNL A   1      44.447  22.228  34.557  1.00  0.00     0.020 A 
ATOM     90  C   UNL A   1      45.718  22.161  35.106  1.00  0.00     0.054 A 
BRANCH  90  91
ATOM     91  S   UNL A   1      46.133  20.835  36.266  1.00  0.00     0.124 S 
ATOM     92  O   UNL A   1      45.387  19.708  35.713  1.00  0.00    -0.237 OA
ATOM     93  O   UNL A   1      47.587  20.741  36.146  1.00  0.00    -0.237 OA
ATOM     94  O   UNL A   1      45.654  21.338  37.549  1.00  0.00    -0.744 OA
ENDBRANCH  90  91
ENDBRANCH  64  85
ENDBRANCH  38  39
ENDBRANCH  30  33
ENDBRANCH  28  29
ENDBRANCH  27  28
ENDBRANCH  26  27
ENDBRANCH   1  26
TORSDOF 19
ENDMDL
MODEL 2
REMARK VINA RESULT:     -12.2      1.694      2.294
REMARK SMILES Cc1ccccc1CNc1ccc(C(=O)NCCCCCCNC(=O)c2ccc(-c3c4nc(c(-c5ccc(S(=O)(=O)[O-])cc5)c5ccc([nH]5)c(-c5ccc(S(=O)(=O)[O-])cc5)c5nc(c(-c6ccc(S(=O)(=O)[O-])cc6)c6ccc3[nH]6)C=C5)C=C4)cc2)c(F)c1F
REMARK SMILES IDX 19 1 18 2 17 3 16 4 14 5 15 6 13 8 10 9 11 10 88 11 12 12
REMARK SMILES IDX 86 13 89 14 87 15 9 16 8 18 7 19 1 20 2 21 3 22 4 23 6 24
REMARK SMILES IDX 5 25 20 26 21 27 22 28 23 29 24 30 25 32 26 33 27 34 85 35
REMARK SMILES IDX 28 36 84 37 29 38 30 39 31 40 78 41 32 42 83 43 77 44 79 45
REMARK SMILES IDX 33 46 82 47 76 48 75 49 34 51 64 52 45 53 63 54 46 55 49 56
REMARK SMILES IDX 62 57 80 58 47 59 48 60 61 62 81 63 50 64 35 65 36 66 44 67
REMARK SMILES IDX 37 68 43 69 38 70 39 71 40 72 41 73 42 74 65 75 66 76 74 77
REMARK SMILES IDX 67 78 73 79 68 80 69 81 70 82 71 83 72 84 51 85 52 86 60 87
REMARK SMILES IDX 53 88 59 89 54 90 55 91 56 92 57 93 58 94
REMARK H PARENT 16 7 9 17 23 31 79 50 49 61
REMARK Flexibility Score: inf
ROOT
ATOM      1  C   UNL A   1      31.914  29.527  25.256  1.00  0.00     0.002 C 
ENDROOT
BRANCH   1   2
ATOM      2  C   UNL A   1      30.957  28.657  24.438  1.00  0.00     0.021 C 
BRANCH   2   3
ATOM      3  C   UNL A   1      31.098  28.663  22.920  1.00  0.00     0.116 C 
BRANCH   3   4
ATOM      4  N   UNL A   1      32.442  28.889  22.419  1.00  0.00    -0.352 N 
ATOM      5  C   UNL A   1      33.481  28.004  22.224  1.00  0.00     0.254 C 
ATOM      6  O   UNL A   1      34.516  28.416  21.703  1.00  0.00    -0.269 OA
ATOM      7  H   UNL A   1      32.643  29.823  22.181  1.00  0.00     0.163 HD
BRANCH   5   8
ATOM      8  C   UNL A   1      33.385  26.574  22.613  1.00  0.00     0.078 A 
ATOM      9  C   UNL A   1      33.258  23.842  23.405  1.00  0.00     0.074 A 
ATOM     10  C   UNL A   1      32.932  24.235  22.106  1.00  0.00     0.030 A 
ATOM     11  C   UNL A   1      33.651  24.854  24.298  1.00  0.00     0.182 A 
ATOM     12  C   UNL A   1      33.039  25.572  21.703  1.00  0.00     0.019 A 
ATOM     13  C   UNL A   1      33.711  26.195  23.917  1.00  0.00     0.173 A 
ATOM     14  F   UNL A   1      34.001  24.513  25.551  1.00  0.00    -0.201 F 
ATOM     15  F   UNL A   1      34.089  27.101  24.832  1.00  0.00    -0.203 F 
BRANCH   9  16
ATOM     16  N   UNL A   1      33.254  22.522  23.816  1.00  0.00    -0.379 N 
ATOM     17  H   UNL A   1      34.121  22.127  24.066  1.00  0.00     0.161 HD
BRANCH  16  18
ATOM     18  C   UNL A   1      32.084  21.668  23.911  1.00  0.00     0.149 C 
BRANCH  18  19
ATOM     19  C   UNL A   1      32.471  20.218  23.695  1.00  0.00    -0.026 A 
ATOM     20  C   UNL A   1      33.427  19.905  26.067  1.00  0.00     0.044 C 
ATOM     21  C   UNL A   1      33.061  19.414  24.692  1.00  0.00    -0.046 A 
ATOM     22  C   UNL A   1      33.361  18.071  24.394  1.00  0.00     0.004 A 
ATOM     23  C   UNL A   1      33.053  17.514  23.152  1.00  0.00     0.000 A 
ATOM     24  C   UNL A   1      32.145  19.626  22.455  1.00  0.00     0.006 A 
ATOM     25  C   UNL A   1      32.436  18.292  22.183  1.00  0.00     0.000 A 
ENDBRANCH  18  19
ENDBRANCH  16  18
ENDBRANCH   9  16
ENDBRANCH   5   8
ENDBRANCH   3   4
ENDBRANCH   2   3
ENDBRANCH   1   2
BRANCH   1  26
ATOM     26  C   UNL A   1      31.929  29.385  26.787  1.00  0.00     0.002 C 
BRANCH  26  27
ATOM     27  C   UNL A   1      33.029  30.099  27.573  1.00  0.00     0.021 C 
BRANCH  27  28
ATOM     28  C   UNL A   1      34.443  29.611  27.319  1.00  0.00     0.116 C 
BRANCH  28  29
ATOM     29  N   UNL A   1      35.429  30.647  27.057  1.00  0.00    -0.352 N 
ATOM     30  C   UNL A   1      36.413  30.891  28.016  1.00  0.00     0.251 C 
ATOM     31  H   UNL A   1      35.404  31.165  26.220  1.00  0.00     0.163 HD
ATOM     32  O   UNL A   1      36.429  31.834  28.785  1.00  0.00    -0.269 OA
BRANCH  30  33
ATOM     33  C   UNL A   1      37.357  29.762  28.179  1.00  0.00     0.039 A 
ATOM     34  C   UNL A   1      37.379  29.005  29.350  1.00  0.00     0.014 A 
ATOM     35  C   UNL A   1      38.376  29.665  27.231  1.00  0.00     0.014 A 
ATOM     36  C   UNL A   1      38.515  28.247  29.639  1.00  0.00     0.010 A 
ATOM     37  C   UNL A   1      39.534  29.008  27.567  1.00  0.00     0.010 A 
ATOM     38  C   UNL A   1      39.616  28.324  28.783  1.00  0.00    -0.014 A 
BRANCH  38  39
ATOM     39  C   UNL A   1      40.927  27.756  29.060  1.00  0.00     0.031 A 
ATOM     40  C   UNL A   1      41.228  26.377  28.614  1.00  0.00     0.074 A 
ATOM     41  C   UNL A   1      41.900  28.545  29.567  1.00  0.00     0.049 A 
ATOM     42  N   UNL A   1      42.190  25.656  29.080  1.00  0.00    -0.248 NA
ATOM     43  C   UNL A   1      40.427  25.681  27.610  1.00  0.00     0.031 C 
ATOM     44  C   UNL A   1      43.334  28.267  29.593  1.00  0.00     0.029 A 
ATOM     45  N   UNL A   1      41.766  29.685  30.361  1.00  0.00    -0.354 N 
ATOM     46  C   UNL A   1      42.321  24.559  28.258  1.00  0.00     0.074 A 
ATOM     47  C   UNL A   1      41.155  24.579  27.407  1.00  0.00     0.031 C 
ATOM     48  C   UNL A   1      43.889  28.984  30.583  1.00  0.00     0.029 A 
ATOM     49  C   UNL A   1      42.799  29.616  31.311  1.00  0.00     0.049 A 
ATOM     50  H   UNL A   1      41.087  30.392  30.274  1.00  0.00     0.167 HD
ATOM     51  C   UNL A   1      43.472  23.832  28.287  1.00  0.00     0.031 A 
ATOM     52  C   UNL A   1      42.584  29.501  32.655  1.00  0.00     0.031 A 
ATOM     53  C   UNL A   1      44.388  24.328  29.310  1.00  0.00     0.049 A 
ATOM     54  C   UNL A   1      43.219  28.256  33.244  1.00  0.00     0.074 A 
ATOM     55  C   UNL A   1      45.490  25.164  29.261  1.00  0.00     0.029 A 
ATOM     56  N   UNL A   1      44.028  24.220  30.645  1.00  0.00    -0.354 N 
ATOM     57  N   UNL A   1      43.607  27.231  32.536  1.00  0.00    -0.248 NA
ATOM     58  C   UNL A   1      43.444  28.057  34.671  1.00  0.00     0.031 C 
ATOM     59  C   UNL A   1      45.744  25.626  30.580  1.00  0.00     0.029 A 
ATOM     60  C   UNL A   1      44.817  25.042  31.425  1.00  0.00     0.049 A 
ATOM     61  H   UNL A   1      43.311  23.639  30.988  1.00  0.00     0.167 HD
ATOM     62  C   UNL A   1      44.132  26.267  33.358  1.00  0.00     0.074 A 
ATOM     63  C   UNL A   1      44.009  26.835  34.688  1.00  0.00     0.031 C 
ATOM     64  C   UNL A   1      44.620  25.088  32.869  1.00  0.00     0.031 A 
BRANCH  51  65
ATOM     65  C   UNL A   1      43.880  22.850  27.212  1.00  0.00    -0.014 A 
ATOM     66  C   UNL A   1      42.982  21.828  26.836  1.00  0.00     0.010 A 
ATOM     67  C   UNL A   1      45.129  22.851  26.564  1.00  0.00     0.010 A 
ATOM     68  C   UNL A   1      43.340  20.814  25.934  1.00  0.00     0.020 A 
ATOM     69  C   UNL A   1      45.513  21.826  25.685  1.00  0.00     0.020 A 
ATOM     70  C   UNL A   1      44.617  20.805  25.382  1.00  0.00     0.054 A 
BRANCH  70  71
ATOM     71  S   UNL A   1      45.083  19.452  24.271  1.00  0.00     0.124 S 
ATOM     72  O   UNL A   1      44.449  19.844  23.015  1.00  0.00    -0.237 OA
ATOM     73  O   UNL A   1      46.542  19.518  24.289  1.00  0.00    -0.237 OA
ATOM     74  O   UNL A   1      44.507  18.268  24.906  1.00  0.00    -0.744 OA
ENDBRANCH  70  71
ENDBRANCH  51  65
BRANCH  52  75
ATOM     75  C   UNL A   1      41.311  30.123  33.123  1.00  0.00    -0.014 A 
ATOM     76  C   UNL A   1      41.415  31.303  33.892  1.00  0.00     0.010 A 
ATOM     77  C   UNL A   1      40.104  29.856  32.453  1.00  0.00     0.010 A 
ATOM     78  C   UNL A   1      40.423  32.286  33.824  1.00  0.00     0.020 A 
ATOM     79  C   UNL A   1      39.103  30.838  32.394  1.00  0.00     0.020 A 
ATOM     80  C   UNL A   1      39.312  32.076  33.009  1.00  0.00     0.054 A 
BRANCH  80  81
ATOM     81  S   UNL A   1      38.259  33.505  32.604  1.00  0.00     0.124 S 
ATOM     82  O   UNL A   1      37.379  33.588  33.764  1.00  0.00    -0.237 OA
ATOM     83  O   UNL A   1      39.242  34.584  32.472  1.00  0.00    -0.237 OA
ATOM     84  O   UNL A   1      37.619  33.108  31.354  1.00  0.00    -0.744 OA
ENDBRANCH  80  81
ENDBRANCH  52  75
BRANCH  64  85
ATOM     85  C   UNL A   1      45.030  23.868  33.667  1.00  0.00    -0.014 A 
ATOM     86  C   UNL A   1      44.202  22.765  33.922  1.00  0.00     0.010 A 
ATOM     87  C   UNL A   1      46.381  23.754  34.088  1.00  0.00     0.010 A 
ATOM     88  C   UNL A   1      44.679  21.635  34.603  1.00  0.00     0.020 A 
ATOM     89  C   UNL A   1      46.880  22.615  34.722  1.00  0.00     0.020 A 
ATOM     90  C   UNL A   1      46.016  21.566  34.997  1.00  0.00     0.054 A 
BRANCH  90  91
ATOM     91  S   UNL A   1      46.638  20.071  35.807  1.00  0.00     0.124 S 
ATOM     92  O   UNL A   1      46.190  20.267  37.183  1.00  0.00    -0.237 OA
ATOM     93  O   UNL A   1      45.962  19.000  35.076  1.00  0.00    -0.237 OA
ATOM     94  O   UNL A   1      48.081  20.141  35.599  1.00  0.00    -0.744 OA
ENDBRANCH  90  91
ENDBRANCH  64  85
ENDBRANCH  38  39
ENDBRANCH  30  33
ENDBRANCH  28  29
ENDBRANCH  27  28
ENDBRANCH  26  27
ENDBRANCH   1  26
TORSDOF 19
ENDMDL
MODEL 3
REMARK VINA RESULT:     -12.1      4.803     11.307
REMARK SMILES Cc1ccccc1CNc1ccc(C(=O)NCCCCCCNC(=O)c2ccc(-c3c4nc(c(-c5ccc(S(=O)(=O)[O-])cc5)c5ccc([nH]5)c(-c5ccc(S(=O)(=O)[O-])cc5)c5nc(c(-c6ccc(S(=O)(=O)[O-])cc6)c6ccc3[nH]6)C=C5)C=C4)cc2)c(F)c1F
REMARK SMILES IDX 19 1 18 2 17 3 16 4 14 5 15 6 13 8 10 9 11 10 88 11 12 12
REMARK SMILES IDX 86 13 89 14 87 15 9 16 8 18 7 19 1 20 2 21 3 22 4 23 6 24
REMARK SMILES IDX 5 25 20 26 21 27 22 28 23 29 24 30 25 32 26 33 27 34 85 35
REMARK SMILES IDX 28 36 84 37 29 38 30 39 31 40 78 41 32 42 83 43 77 44 79 45
REMARK SMILES IDX 33 46 82 47 76 48 75 49 34 51 64 52 45 53 63 54 46 55 49 56
REMARK SMILES IDX 62 57 80 58 47 59 48 60 61 62 81 63 50 64 35 65 36 66 44 67
REMARK SMILES IDX 37 68 43 69 38 70 39 71 40 72 41 73 42 74 65 75 66 76 74 77
REMARK SMILES IDX 67 78 73 79 68 80 69 81 70 82 71 83 72 84 51 85 52 86 60 87
REMARK SMILES IDX 53 88 59 89 54 90 55 91 56 92 57 93 58 94
REMARK H PARENT 16 7 9 17 23 31 79 50 49 61
REMARK Flexibility Score: inf
ROOT
ATOM      1  C   UNL A   1      35.228  20.663  25.029  1.00  0.00     0.002 C 
ENDROOT
BRANCH   1   2
ATOM      2  C   UNL A   1      33.841  20.414  24.432  1.00  0.00     0.021 C 
BRANCH   2   3
ATOM      3  C   UNL A   1      32.621  20.779  25.270  1.00  0.00     0.116 C 
BRANCH   3   4
ATOM      4  N   UNL A   1      32.899  21.172  26.639  1.00  0.00    -0.352 N 
ATOM      5  C   UNL A   1      32.801  22.404  27.251  1.00  0.00     0.254 C 
ATOM      6  O   UNL A   1      33.013  22.480  28.460  1.00  0.00    -0.269 OA
ATOM      7  H   UNL A   1      33.207  20.442  27.224  1.00  0.00     0.163 HD
BRANCH   5   8
ATOM      8  C   UNL A   1      32.439  23.633  26.499  1.00  0.00     0.078 A 
ATOM      9  C   UNL A   1      31.804  26.023  25.087  1.00  0.00     0.074 A 
ATOM     10  C   UNL A   1      30.804  25.168  25.552  1.00  0.00     0.030 A 
ATOM     11  C   UNL A   1      33.134  25.649  25.350  1.00  0.00     0.182 A 
ATOM     12  C   UNL A   1      31.113  24.018  26.287  1.00  0.00     0.019 A 
ATOM     13  C   UNL A   1      33.451  24.476  26.038  1.00  0.00     0.173 A 
ATOM     14  F   UNL A   1      34.128  26.459  24.945  1.00  0.00    -0.201 F 
ATOM     15  F   UNL A   1      34.746  24.188  26.241  1.00  0.00    -0.203 F 
BRANCH   9  16
ATOM     16  N   UNL A   1      31.538  27.214  24.440  1.00  0.00    -0.379 N 
ATOM     17  H   UNL A   1      31.738  28.046  24.928  1.00  0.00     0.161 HD
BRANCH  16  18
ATOM     18  C   UNL A   1      30.988  27.346  23.102  1.00  0.00     0.149 C 
BRANCH  18  19
ATOM     19  C   UNL A   1      29.551  27.827  23.169  1.00  0.00    -0.026 A 
ATOM     20  C   UNL A   1      30.027  30.065  21.987  1.00  0.00     0.044 C 
ATOM     21  C   UNL A   1      29.117  29.057  22.636  1.00  0.00    -0.046 A 
ATOM     22  C   UNL A   1      27.754  29.398  22.731  1.00  0.00     0.004 A 
ATOM     23  C   UNL A   1      26.825  28.529  23.304  1.00  0.00     0.000 A 
ATOM     24  C   UNL A   1      28.589  26.952  23.722  1.00  0.00     0.006 A 
ATOM     25  C   UNL A   1      27.242  27.300  23.795  1.00  0.00     0.000 A 
ENDBRANCH  18  19
ENDBRANCH  16  18
ENDBRANCH   9  16
ENDBRANCH   5   8
ENDBRANCH   3   4
ENDBRANCH   2   3
ENDBRANCH   1   2
BRANCH   1  26
ATOM     26  C   UNL A   1      36.006  21.920  24.610  1.00  0.00     0.002 C 
BRANCH  26  27
ATOM     27  C   UNL A   1      37.493  22.005  24.957  1.00  0.00     0.021 C 
BRANCH  27  28
ATOM     28  C   UNL A   1      37.910  23.207  25.783  1.00  0.00     0.116 C 
BRANCH  28  29
ATOM     29  N   UNL A   1      38.864  22.939  26.848  1.00  0.00    -0.352 N 
ATOM     30  C   UNL A   1      40.011  23.729  26.931  1.00  0.00     0.251 C 
ATOM     31  H   UNL A   1      38.702  22.217  27.497  1.00  0.00     0.163 HD
ATOM     32  O   UNL A   1      41.128  23.388  26.588  1.00  0.00    -0.269 OA
BRANCH  30  33
ATOM     33  C   UNL A   1      39.721  25.138  27.280  1.00  0.00     0.039 A 
ATOM     34  C   UNL A   1      40.218  26.188  26.508  1.00  0.00     0.014 A 
ATOM     35  C   UNL A   1      39.162  25.362  28.539  1.00  0.00     0.014 A 
ATOM     36  C   UNL A   1      40.285  27.464  27.071  1.00  0.00     0.010 A 
ATOM     37  C   UNL A   1      39.328  26.591  29.129  1.00  0.00     0.010 A 
ATOM     38  C   UNL A   1      39.916  27.634  28.408  1.00  0.00    -0.014 A 
BRANCH  38  39
ATOM     39  C   UNL A   1      40.122  28.850  29.179  1.00  0.00     0.031 A 
ATOM     40  C   UNL A   1      39.116  29.933  29.108  1.00  0.00     0.074 A 
ATOM     41  C   UNL A   1      41.134  28.907  30.074  1.00  0.00     0.049 A 
ATOM     42  N   UNL A   1      39.338  31.155  29.454  1.00  0.00    -0.248 NA
ATOM     43  C   UNL A   1      37.764  29.721  28.594  1.00  0.00     0.031 C 
ATOM     44  C   UNL A   1      41.298  29.872  31.158  1.00  0.00     0.029 A 
ATOM     45  N   UNL A   1      42.347  28.217  30.055  1.00  0.00    -0.354 N 
ATOM     46  C   UNL A   1      38.122  31.801  29.498  1.00  0.00     0.074 A 
ATOM     47  C   UNL A   1      37.186  30.892  28.881  1.00  0.00     0.031 C 
ATOM     48  C   UNL A   1      42.600  29.936  31.479  1.00  0.00     0.029 A 
ATOM     49  C   UNL A   1      43.316  29.130  30.502  1.00  0.00     0.049 A 
ATOM     50  H   UNL A   1      42.493  27.282  29.784  1.00  0.00     0.167 HD
ATOM     51  C   UNL A   1      38.008  32.974  30.180  1.00  0.00     0.031 A 
ATOM     52  C   UNL A   1      44.352  29.573  29.729  1.00  0.00     0.031 A 
ATOM     53  C   UNL A   1      39.299  33.408  30.707  1.00  0.00     0.049 A 
ATOM     54  C   UNL A   1      44.352  31.080  29.561  1.00  0.00     0.074 A 
ATOM     55  C   UNL A   1      39.890  33.303  31.954  1.00  0.00     0.029 A 
ATOM     56  N   UNL A   1      40.302  33.768  29.819  1.00  0.00    -0.354 N 
ATOM     57  N   UNL A   1      43.319  31.840  29.798  1.00  0.00    -0.248 NA
ATOM     58  C   UNL A   1      45.502  31.845  29.090  1.00  0.00     0.031 C 
ATOM     59  C   UNL A   1      41.283  33.526  31.795  1.00  0.00     0.029 A 
ATOM     60  C   UNL A   1      41.525  33.799  30.460  1.00  0.00     0.049 A 
ATOM     61  H   UNL A   1      40.162  33.974  28.867  1.00  0.00     0.167 HD
ATOM     62  C   UNL A   1      43.634  33.151  29.545  1.00  0.00     0.074 A 
ATOM     63  C   UNL A   1      45.016  33.101  29.106  1.00  0.00     0.031 C 
ATOM     64  C   UNL A   1      42.728  34.159  29.720  1.00  0.00     0.031 A 
BRANCH  51  65
ATOM     65  C   UNL A   1      36.691  33.584  30.600  1.00  0.00    -0.014 A 
ATOM     66  C   UNL A   1      35.718  33.867  29.618  1.00  0.00     0.010 A 
ATOM     67  C   UNL A   1      36.361  33.934  31.922  1.00  0.00     0.010 A 
ATOM     68  C   UNL A   1      34.525  34.541  29.921  1.00  0.00     0.020 A 
ATOM     69  C   UNL A   1      35.186  34.637  32.236  1.00  0.00     0.020 A 
ATOM     70  C   UNL A   1      34.278  34.946  31.228  1.00  0.00     0.054 A 
BRANCH  70  71
ATOM     71  S   UNL A   1      32.763  35.873  31.588  1.00  0.00     0.124 S 
ATOM     72  O   UNL A   1      33.274  37.056  32.277  1.00  0.00    -0.237 OA
ATOM     73  O   UNL A   1      32.213  36.107  30.256  1.00  0.00    -0.237 OA
ATOM     74  O   UNL A   1      31.989  34.960  32.428  1.00  0.00    -0.744 OA
ENDBRANCH  70  71
ENDBRANCH  51  65
BRANCH  52  75
ATOM     75  C   UNL A   1      44.809  28.591  28.703  1.00  0.00    -0.014 A 
ATOM     76  C   UNL A   1      44.210  28.666  27.427  1.00  0.00     0.010 A 
ATOM     77  C   UNL A   1      46.067  27.973  28.826  1.00  0.00     0.010 A 
ATOM     78  C   UNL A   1      44.934  28.324  26.280  1.00  0.00     0.020 A 
ATOM     79  C   UNL A   1      46.789  27.619  27.676  1.00  0.00     0.020 A 
ATOM     80  C   UNL A   1      46.248  27.880  26.413  1.00  0.00     0.054 A 
BRANCH  80  81
ATOM     81  S   UNL A   1      47.298  27.845  24.926  1.00  0.00     0.124 S 
ATOM     82  O   UNL A   1      48.593  28.275  25.442  1.00  0.00    -0.237 OA
ATOM     83  O   UNL A   1      47.211  26.439  24.519  1.00  0.00    -0.237 OA
ATOM     84  O   UNL A   1      46.636  28.782  24.025  1.00  0.00    -0.744 OA
ENDBRANCH  80  81
ENDBRANCH  52  75
BRANCH  64  85
ATOM     85  C   UNL A   1      42.873  35.603  29.286  1.00  0.00    -0.014 A 
ATOM     86  C   UNL A   1      43.699  36.546  29.913  1.00  0.00     0.010 A 
ATOM     87  C   UNL A   1      42.233  36.019  28.089  1.00  0.00     0.010 A 
ATOM     88  C   UNL A   1      43.842  37.846  29.404  1.00  0.00     0.020 A 
ATOM     89  C   UNL A   1      42.407  37.294  27.545  1.00  0.00     0.020 A 
ATOM     90  C   UNL A   1      43.195  38.211  28.223  1.00  0.00     0.054 A 
BRANCH  90  91
ATOM     91  S   UNL A   1      43.448  39.867  27.536  1.00  0.00     0.124 S 
ATOM     92  O   UNL A   1      42.686  40.696  28.466  1.00  0.00    -0.237 OA
ATOM     93  O   UNL A   1      44.900  40.027  27.600  1.00  0.00    -0.237 OA
ATOM     94  O   UNL A   1      42.900  39.768  26.187  1.00  0.00    -0.744 OA
ENDBRANCH  90  91
ENDBRANCH  64  85
ENDBRANCH  38  39
ENDBRANCH  30  33
ENDBRANCH  28  29
ENDBRANCH  27  28
ENDBRANCH  26  27
ENDBRANCH   1  26
TORSDOF 19
ENDMDL
