MODEL 1
REMARK VINA RESULT:     -11.5      0.000      0.000
REMARK SMILES COc1c(Cl)cc(C[NH2+][C@@H](Cc2c[nH]c3ccccc23)C(=O)NCCCCCCNC(=O)c2ccc(-c3c4nc(c(-c5ccc(S(=O)(=O)[O-])cc5)c5ccc([nH]5)c(-c5ccc(S(=O)(=O)[O-])cc5)c5nc(c(-c6ccc(S(=O)(=O)[O-])cc6)c6ccc3[nH]6)C=C5)C=C4)cc2)cc1Cl
REMARK SMILES IDX 26 1 25 2 24 3 23 4 21 5 22 6 10 8 9 9 8 12 7 13 3 14 4 15
REMARK SMILES IDX 94 16 5 17 6 18 93 19 95 20 2 21 1 22 11 23 12 24 13 25
REMARK SMILES IDX 20 26 14 27 15 28 19 29 16 31 18 32 17 33 27 34 28 35 29 36
REMARK SMILES IDX 30 37 31 38 32 40 33 41 34 42 92 43 35 44 91 45 36 46 37 47
REMARK SMILES IDX 38 48 85 49 39 50 90 51 84 52 86 53 40 54 89 55 83 56 82 57
REMARK SMILES IDX 41 59 71 60 52 61 70 62 53 63 56 64 69 65 87 66 54 67 55 68
REMARK SMILES IDX 68 70 88 71 57 72 42 73 43 74 51 75 44 76 50 77 45 78 46 79
REMARK SMILES IDX 47 80 48 81 49 82 72 83 73 84 81 85 74 86 80 87 75 88 76 89
REMARK SMILES IDX 77 90 78 91 79 92 58 93 59 94 67 95 60 96 66 97 61 98 62 99
REMARK SMILES IDX 63 100 64 101 65 102
REMARK H PARENT 23 7 9 10 9 11 14 30 30 39 86 58 56 69
REMARK Flexibility Score: inf
ROOT
ATOM      1  C   UNL A   1      35.830  21.744  24.601  1.00  0.00     0.002 C 
ENDROOT
BRANCH   1   2
ATOM      2  C   UNL A   1      35.529  22.977  25.458  1.00  0.00     0.021 C 
BRANCH   2   3
ATOM      3  C   UNL A   1      34.678  24.028  24.759  1.00  0.00     0.116 C 
BRANCH   3   4
ATOM      4  N   UNL A   1      34.520  23.812  23.336  1.00  0.00    -0.351 N 
ATOM      5  C   UNL A   1      33.426  23.433  22.612  1.00  0.00     0.278 C 
ATOM      6  O   UNL A   1      33.462  23.652  21.394  1.00  0.00    -0.268 OA
ATOM      7  H   UNL A   1      35.335  23.964  22.803  1.00  0.00     0.163 HD
BRANCH   5   8
ATOM      8  C   UNL A   1      32.168  22.767  23.234  1.00  0.00     0.277 C 
BRANCH   8   9
ATOM      9  N   UNL A   1      30.968  23.595  22.985  1.00  0.00    -0.332 N 
ATOM     10  H   UNL A   1      31.192  24.261  22.245  1.00  0.00     0.347 HD
ATOM     11  H   UNL A   1      30.222  22.946  22.737  1.00  0.00     0.347 HD
BRANCH   9  12
ATOM     12  C   UNL A   1      30.485  24.345  24.136  1.00  0.00     0.298 C 
BRANCH  12  13
ATOM     13  C   UNL A   1      30.269  25.783  23.714  1.00  0.00     0.009 A 
ATOM     14  C   UNL A   1      29.892  28.533  23.170  1.00  0.00     0.156 A 
ATOM     15  C   UNL A   1      31.181  27.985  23.208  1.00  0.00     0.085 A 
ATOM     16  C   UNL A   1      28.795  27.696  23.421  1.00  0.00     0.085 A 
ATOM     17  Cl  UNL A   1      32.606  28.944  23.021  1.00  0.00    -0.080 Cl
ATOM     18  C   UNL A   1      31.365  26.621  23.464  1.00  0.00     0.034 A 
ATOM     19  C   UNL A   1      28.981  26.334  23.685  1.00  0.00     0.034 A 
ATOM     20  Cl  UNL A   1      27.179  28.311  23.432  1.00  0.00    -0.080 Cl
BRANCH  14  21
ATOM     21  O   UNL A   1      29.664  29.878  23.024  1.00  0.00    -0.494 OA
ATOM     22  C   UNL A   1      29.598  30.289  21.659  1.00  0.00     0.278 C 
ENDBRANCH  14  21
ENDBRANCH  12  13
ENDBRANCH   9  12
ENDBRANCH   8   9
BRANCH   8  23
ATOM     23  C   UNL A   1      32.118  21.243  22.970  1.00  0.00     0.113 C 
BRANCH  23  24
ATOM     24  C   UNL A   1      32.466  20.331  24.108  1.00  0.00    -0.016 A 
ATOM     25  C   UNL A   1      32.445  20.632  25.457  1.00  0.00     0.087 A 
ATOM     26  C   UNL A   1      32.899  18.966  23.999  1.00  0.00     0.003 A 
ATOM     27  N   UNL A   1      32.802  19.510  26.159  1.00  0.00    -0.361 N 
ATOM     28  C   UNL A   1      33.050  18.469  25.295  1.00  0.00     0.046 A 
ATOM     29  C   UNL A   1      33.109  18.086  22.915  1.00  0.00     0.010 A 
ATOM     30  H   UNL A   1      32.870  19.456  27.140  1.00  0.00     0.166 HD
ATOM     31  C   UNL A   1      33.376  17.134  25.560  1.00  0.00     0.026 A 
ATOM     32  C   UNL A   1      33.425  16.746  23.165  1.00  0.00     0.001 A 
ATOM     33  C   UNL A   1      33.547  16.277  24.469  1.00  0.00     0.002 A 
ENDBRANCH  23  24
ENDBRANCH   8  23
ENDBRANCH   5   8
ENDBRANCH   3   4
ENDBRANCH   2   3
ENDBRANCH   1   2
BRANCH   1  34
ATOM     34  C   UNL A   1      37.312  21.475  24.301  1.00  0.00     0.002 C 
BRANCH  34  35
ATOM     35  C   UNL A   1      37.972  20.361  25.120  1.00  0.00     0.021 C 
BRANCH  35  36
ATOM     36  C   UNL A   1      39.189  20.787  25.931  1.00  0.00     0.116 C 
BRANCH  36  37
ATOM     37  N   UNL A   1      40.166  19.720  26.053  1.00  0.00    -0.352 N 
ATOM     38  C   UNL A   1      41.526  19.788  26.223  1.00  0.00     0.251 C 
ATOM     39  H   UNL A   1      39.798  18.809  26.005  1.00  0.00     0.163 HD
ATOM     40  O   UNL A   1      42.203  18.770  26.109  1.00  0.00    -0.269 OA
BRANCH  38  41
ATOM     41  C   UNL A   1      42.181  21.081  26.524  1.00  0.00     0.039 A 
ATOM     42  C   UNL A   1      42.474  21.949  25.468  1.00  0.00     0.014 A 
ATOM     43  C   UNL A   1      42.538  21.428  27.831  1.00  0.00     0.014 A 
ATOM     44  C   UNL A   1      43.079  23.182  25.727  1.00  0.00     0.010 A 
ATOM     45  C   UNL A   1      43.068  22.689  28.096  1.00  0.00     0.010 A 
ATOM     46  C   UNL A   1      43.356  23.574  27.046  1.00  0.00    -0.014 A 
BRANCH  46  47
ATOM     47  C   UNL A   1      43.962  24.897  27.348  1.00  0.00     0.031 A 
ATOM     48  C   UNL A   1      43.110  26.012  27.892  1.00  0.00     0.074 A 
ATOM     49  C   UNL A   1      45.266  25.110  27.082  1.00  0.00     0.049 A 
ATOM     50  N   UNL A   1      43.445  27.247  28.165  1.00  0.00    -0.248 NA
ATOM     51  C   UNL A   1      41.691  25.707  28.137  1.00  0.00     0.031 C 
ATOM     52  C   UNL A   1      46.192  24.121  26.525  1.00  0.00     0.029 A 
ATOM     53  N   UNL A   1      46.038  26.234  27.242  1.00  0.00    -0.354 N 
ATOM     54  C   UNL A   1      42.278  27.869  28.596  1.00  0.00     0.074 A 
ATOM     55  C   UNL A   1      41.218  26.891  28.496  1.00  0.00     0.031 C 
ATOM     56  C   UNL A   1      47.412  24.671  26.422  1.00  0.00     0.029 A 
ATOM     57  C   UNL A   1      47.349  26.061  26.861  1.00  0.00     0.049 A 
ATOM     58  H   UNL A   1      45.688  27.083  27.595  1.00  0.00     0.167 HD
ATOM     59  C   UNL A   1      42.106  29.133  29.055  1.00  0.00     0.031 A 
ATOM     60  C   UNL A   1      48.383  26.924  26.863  1.00  0.00     0.031 A 
ATOM     61  C   UNL A   1      43.164  30.102  29.159  1.00  0.00     0.049 A 
ATOM     62  C   UNL A   1      48.167  28.327  27.358  1.00  0.00     0.074 A 
ATOM     63  C   UNL A   1      43.104  31.393  29.654  1.00  0.00     0.029 A 
ATOM     64  N   UNL A   1      44.476  29.887  28.761  1.00  0.00    -0.354 N 
ATOM     65  N   UNL A   1      47.067  28.881  27.812  1.00  0.00    -0.248 NA
ATOM     66  C   UNL A   1      49.333  29.221  27.349  1.00  0.00     0.031 C 
ATOM     67  C   UNL A   1      44.368  31.976  29.507  1.00  0.00     0.029 A 
ATOM     68  C   UNL A   1      45.229  31.028  28.976  1.00  0.00     0.049 A 
ATOM     69  H   UNL A   1      44.820  29.047  28.380  1.00  0.00     0.167 HD
ATOM     70  C   UNL A   1      47.415  30.178  28.170  1.00  0.00     0.074 A 
ATOM     71  C   UNL A   1      48.830  30.323  27.890  1.00  0.00     0.031 C 
ATOM     72  C   UNL A   1      46.636  31.159  28.688  1.00  0.00     0.031 A 
BRANCH  59  73
ATOM     73  C   UNL A   1      40.713  29.536  29.467  1.00  0.00    -0.014 A 
ATOM     74  C   UNL A   1      39.707  29.761  28.509  1.00  0.00     0.010 A 
ATOM     75  C   UNL A   1      40.400  29.680  30.832  1.00  0.00     0.010 A 
ATOM     76  C   UNL A   1      38.432  30.177  28.903  1.00  0.00     0.020 A 
ATOM     77  C   UNL A   1      39.116  30.065  31.231  1.00  0.00     0.020 A 
ATOM     78  C   UNL A   1      38.147  30.332  30.263  1.00  0.00     0.054 A 
BRANCH  78  79
ATOM     79  S   UNL A   1      36.486  30.875  30.746  1.00  0.00     0.124 S 
ATOM     80  O   UNL A   1      35.971  29.691  31.431  1.00  0.00    -0.237 OA
ATOM     81  O   UNL A   1      36.761  32.025  31.603  1.00  0.00    -0.237 OA
ATOM     82  O   UNL A   1      35.840  31.189  29.475  1.00  0.00    -0.744 OA
ENDBRANCH  78  79
ENDBRANCH  59  73
BRANCH  60  83
ATOM     83  C   UNL A   1      49.725  26.472  26.404  1.00  0.00    -0.014 A 
ATOM     84  C   UNL A   1      50.129  26.682  25.074  1.00  0.00     0.010 A 
ATOM     85  C   UNL A   1      50.617  25.856  27.300  1.00  0.00     0.010 A 
ATOM     86  C   UNL A   1      51.395  26.275  24.645  1.00  0.00     0.020 A 
ATOM     87  C   UNL A   1      51.894  25.472  26.883  1.00  0.00     0.020 A 
ATOM     88  C   UNL A   1      52.272  25.677  25.554  1.00  0.00     0.054 A 
BRANCH  88  89
ATOM     89  S   UNL A   1      53.935  25.217  24.992  1.00  0.00     0.124 S 
ATOM     90  O   UNL A   1      53.818  23.770  24.848  1.00  0.00    -0.237 OA
ATOM     91  O   UNL A   1      54.066  25.970  23.747  1.00  0.00    -0.237 OA
ATOM     92  O   UNL A   1      54.800  25.672  26.079  1.00  0.00    -0.744 OA
ENDBRANCH  88  89
ENDBRANCH  60  83
BRANCH  72  93
ATOM     93  C   UNL A   1      47.300  32.470  29.016  1.00  0.00    -0.014 A 
ATOM     94  C   UNL A   1      47.866  32.705  30.281  1.00  0.00     0.010 A 
ATOM     95  C   UNL A   1      47.406  33.461  28.022  1.00  0.00     0.010 A 
ATOM     96  C   UNL A   1      48.500  33.921  30.555  1.00  0.00     0.020 A 
ATOM     97  C   UNL A   1      48.063  34.664  28.283  1.00  0.00     0.020 A 
ATOM     98  C   UNL A   1      48.594  34.892  29.554  1.00  0.00     0.054 A 
BRANCH  98  99
ATOM     99  S   UNL A   1      49.462  36.442  29.922  1.00  0.00     0.124 S 
ATOM    100  O   UNL A   1      48.409  37.239  30.545  1.00  0.00    -0.237 OA
ATOM    101  O   UNL A   1      50.532  36.007  30.815  1.00  0.00    -0.237 OA
ATOM    102  O   UNL A   1      49.905  36.911  28.611  1.00  0.00    -0.744 OA
ENDBRANCH  98  99
ENDBRANCH  72  93
ENDBRANCH  46  47
ENDBRANCH  38  41
ENDBRANCH  36  37
ENDBRANCH  35  36
ENDBRANCH  34  35
ENDBRANCH   1  34
TORSDOF 22
ENDMDL
MODEL 2
REMARK VINA RESULT:     -11.3      5.189      8.205
REMARK SMILES COc1c(Cl)cc(C[NH2+][C@@H](Cc2c[nH]c3ccccc23)C(=O)NCCCCCCNC(=O)c2ccc(-c3c4nc(c(-c5ccc(S(=O)(=O)[O-])cc5)c5ccc([nH]5)c(-c5ccc(S(=O)(=O)[O-])cc5)c5nc(c(-c6ccc(S(=O)(=O)[O-])cc6)c6ccc3[nH]6)C=C5)C=C4)cc2)cc1Cl
REMARK SMILES IDX 26 1 25 2 24 3 23 4 21 5 22 6 10 8 9 9 8 12 7 13 3 14 4 15
REMARK SMILES IDX 94 16 5 17 6 18 93 19 95 20 2 21 1 22 11 23 12 24 13 25
REMARK SMILES IDX 20 26 14 27 15 28 19 29 16 31 18 32 17 33 27 34 28 35 29 36
REMARK SMILES IDX 30 37 31 38 32 40 33 41 34 42 92 43 35 44 91 45 36 46 37 47
REMARK SMILES IDX 38 48 85 49 39 50 90 51 84 52 86 53 40 54 89 55 83 56 82 57
REMARK SMILES IDX 41 59 71 60 52 61 70 62 53 63 56 64 69 65 87 66 54 67 55 68
REMARK SMILES IDX 68 70 88 71 57 72 42 73 43 74 51 75 44 76 50 77 45 78 46 79
REMARK SMILES IDX 47 80 48 81 49 82 72 83 73 84 81 85 74 86 80 87 75 88 76 89
REMARK SMILES IDX 77 90 78 91 79 92 58 93 59 94 67 95 60 96 66 97 61 98 62 99
REMARK SMILES IDX 63 100 64 101 65 102
REMARK H PARENT 23 7 9 10 9 11 14 30 30 39 86 58 56 69
REMARK Flexibility Score: inf
ROOT
ATOM      1  C   UNL A   1      30.987  27.069  26.021  1.00  0.00     0.002 C 
ENDROOT
BRANCH   1   2
ATOM      2  C   UNL A   1      30.916  27.180  24.495  1.00  0.00     0.021 C 
BRANCH   2   3
ATOM      3  C   UNL A   1      30.808  25.841  23.779  1.00  0.00     0.116 C 
BRANCH   3   4
ATOM      4  N   UNL A   1      31.765  25.665  22.707  1.00  0.00    -0.351 N 
ATOM      5  C   UNL A   1      32.709  24.697  22.509  1.00  0.00     0.278 C 
ATOM      6  O   UNL A   1      33.156  24.582  21.361  1.00  0.00    -0.268 OA
ATOM      7  H   UNL A   1      31.729  26.354  22.004  1.00  0.00     0.163 HD
BRANCH   5   8
ATOM      8  C   UNL A   1      33.223  23.752  23.630  1.00  0.00     0.277 C 
BRANCH   8   9
ATOM      9  N   UNL A   1      33.948  24.522  24.664  1.00  0.00    -0.332 N 
ATOM     10  H   UNL A   1      34.816  24.865  24.252  1.00  0.00     0.347 HD
ATOM     11  H   UNL A   1      33.316  25.264  24.961  1.00  0.00     0.347 HD
BRANCH   9  12
ATOM     12  C   UNL A   1      34.286  23.774  25.867  1.00  0.00     0.298 C 
BRANCH  12  13
ATOM     13  C   UNL A   1      35.666  23.177  25.688  1.00  0.00     0.009 A 
ATOM     14  C   UNL A   1      38.224  21.975  25.590  1.00  0.00     0.156 A 
ATOM     15  C   UNL A   1      37.079  21.236  25.269  1.00  0.00     0.085 A 
ATOM     16  C   UNL A   1      38.077  23.316  25.975  1.00  0.00     0.085 A 
ATOM     17  Cl  UNL A   1      37.133  19.552  24.887  1.00  0.00    -0.080 Cl
ATOM     18  C   UNL A   1      35.814  21.837  25.305  1.00  0.00     0.034 A 
ATOM     19  C   UNL A   1      36.812  23.912  26.018  1.00  0.00     0.034 A 
ATOM     20  Cl  UNL A   1      39.442  24.277  26.426  1.00  0.00    -0.080 Cl
BRANCH  14  21
ATOM     21  O   UNL A   1      39.472  21.410  25.669  1.00  0.00    -0.494 OA
ATOM     22  C   UNL A   1      40.029  21.465  26.982  1.00  0.00     0.278 C 
ENDBRANCH  14  21
ENDBRANCH  12  13
ENDBRANCH   9  12
ENDBRANCH   8   9
BRANCH   8  23
ATOM     23  C   UNL A   1      32.159  22.710  24.053  1.00  0.00     0.113 C 
BRANCH  23  24
ATOM     24  C   UNL A   1      32.138  21.404  23.317  1.00  0.00    -0.016 A 
ATOM     25  C   UNL A   1      31.809  21.198  21.990  1.00  0.00     0.087 A 
ATOM     26  C   UNL A   1      32.448  20.114  23.868  1.00  0.00     0.003 A 
ATOM     27  N   UNL A   1      31.947  19.863  21.711  1.00  0.00    -0.361 N 
ATOM     28  C   UNL A   1      32.369  19.185  22.830  1.00  0.00     0.046 A 
ATOM     29  C   UNL A   1      32.856  19.664  25.142  1.00  0.00     0.010 A 
ATOM     30  H   UNL A   1      31.770  19.449  20.835  1.00  0.00     0.166 HD
ATOM     31  C   UNL A   1      32.702  17.835  22.996  1.00  0.00     0.026 A 
ATOM     32  C   UNL A   1      33.202  18.319  25.321  1.00  0.00     0.001 A 
ATOM     33  C   UNL A   1      33.134  17.422  24.260  1.00  0.00     0.002 A 
ENDBRANCH  23  24
ENDBRANCH   8  23
ENDBRANCH   5   8
ENDBRANCH   3   4
ENDBRANCH   2   3
ENDBRANCH   1   2
BRANCH   1  34
ATOM     34  C   UNL A   1      31.905  28.076  26.729  1.00  0.00     0.002 C 
BRANCH  34  35
ATOM     35  C   UNL A   1      33.407  27.786  26.651  1.00  0.00     0.021 C 
BRANCH  35  36
ATOM     36  C   UNL A   1      34.254  28.901  26.050  1.00  0.00     0.116 C 
BRANCH  36  37
ATOM     37  N   UNL A   1      33.875  30.208  26.555  1.00  0.00    -0.352 N 
ATOM     38  C   UNL A   1      34.397  30.935  27.595  1.00  0.00     0.251 C 
ATOM     39  H   UNL A   1      33.129  30.639  26.080  1.00  0.00     0.163 HD
ATOM     40  O   UNL A   1      33.810  31.939  27.989  1.00  0.00    -0.269 OA
BRANCH  38  41
ATOM     41  C   UNL A   1      35.652  30.506  28.255  1.00  0.00     0.039 A 
ATOM     42  C   UNL A   1      36.861  31.058  27.823  1.00  0.00     0.014 A 
ATOM     43  C   UNL A   1      35.647  29.543  29.269  1.00  0.00     0.014 A 
ATOM     44  C   UNL A   1      38.057  30.681  28.440  1.00  0.00     0.010 A 
ATOM     45  C   UNL A   1      36.829  29.228  29.934  1.00  0.00     0.010 A 
ATOM     46  C   UNL A   1      38.049  29.783  29.519  1.00  0.00    -0.014 A 
BRANCH  46  47
ATOM     47  C   UNL A   1      39.304  29.398  30.215  1.00  0.00     0.031 A 
ATOM     48  C   UNL A   1      39.728  30.122  31.464  1.00  0.00     0.074 A 
ATOM     49  C   UNL A   1      40.089  28.435  29.692  1.00  0.00     0.049 A 
ATOM     50  N   UNL A   1      40.813  29.967  32.180  1.00  0.00    -0.248 NA
ATOM     51  C   UNL A   1      38.827  31.175  31.961  1.00  0.00     0.031 C 
ATOM     52  C   UNL A   1      39.806  27.680  28.470  1.00  0.00     0.029 A 
ATOM     53  N   UNL A   1      41.290  27.929  30.124  1.00  0.00    -0.354 N 
ATOM     54  C   UNL A   1      40.734  30.912  33.197  1.00  0.00     0.074 A 
ATOM     55  C   UNL A   1      39.522  31.670  32.974  1.00  0.00     0.031 C 
ATOM     56  C   UNL A   1      40.787  26.786  28.269  1.00  0.00     0.029 A 
ATOM     57  C   UNL A   1      41.789  26.932  29.319  1.00  0.00     0.049 A 
ATOM     58  H   UNL A   1      41.751  28.250  30.933  1.00  0.00     0.167 HD
ATOM     59  C   UNL A   1      41.579  31.117  34.236  1.00  0.00     0.031 A 
ATOM     60  C   UNL A   1      42.927  26.217  29.414  1.00  0.00     0.031 A 
ATOM     61  C   UNL A   1      42.780  30.356  34.458  1.00  0.00     0.049 A 
ATOM     62  C   UNL A   1      43.862  26.473  30.563  1.00  0.00     0.074 A 
ATOM     63  C   UNL A   1      43.680  30.454  35.505  1.00  0.00     0.029 A 
ATOM     64  N   UNL A   1      43.251  29.357  33.619  1.00  0.00    -0.354 N 
ATOM     65  N   UNL A   1      43.742  27.335  31.546  1.00  0.00    -0.248 NA
ATOM     66  C   UNL A   1      45.081  25.655  30.623  1.00  0.00     0.031 C 
ATOM     67  C   UNL A   1      44.721  29.549  35.271  1.00  0.00     0.029 A 
ATOM     68  C   UNL A   1      44.440  28.847  34.110  1.00  0.00     0.049 A 
ATOM     69  H   UNL A   1      42.804  29.056  32.794  1.00  0.00     0.167 HD
ATOM     70  C   UNL A   1      44.855  27.143  32.356  1.00  0.00     0.074 A 
ATOM     71  C   UNL A   1      45.630  26.075  31.755  1.00  0.00     0.031 C 
ATOM     72  C   UNL A   1      45.203  27.787  33.497  1.00  0.00     0.031 A 
BRANCH  59  73
ATOM     73  C   UNL A   1      41.232  32.219  35.204  1.00  0.00    -0.014 A 
ATOM     74  C   UNL A   1      40.605  31.939  36.432  1.00  0.00     0.010 A 
ATOM     75  C   UNL A   1      41.548  33.554  34.888  1.00  0.00     0.010 A 
ATOM     76  C   UNL A   1      40.250  32.976  37.300  1.00  0.00     0.020 A 
ATOM     77  C   UNL A   1      41.223  34.591  35.769  1.00  0.00     0.020 A 
ATOM     78  C   UNL A   1      40.555  34.296  36.959  1.00  0.00     0.054 A 
BRANCH  78  79
ATOM     79  S   UNL A   1      40.081  35.622  38.102  1.00  0.00     0.124 S 
ATOM     80  O   UNL A   1      39.986  36.772  37.206  1.00  0.00    -0.237 OA
ATOM     81  O   UNL A   1      38.811  35.141  38.641  1.00  0.00    -0.237 OA
ATOM     82  O   UNL A   1      41.183  35.666  39.058  1.00  0.00    -0.744 OA
ENDBRANCH  78  79
ENDBRANCH  59  73
BRANCH  60  83
ATOM     83  C   UNL A   1      43.229  25.169  28.401  1.00  0.00    -0.014 A 
ATOM     84  C   UNL A   1      43.934  25.496  27.229  1.00  0.00     0.010 A 
ATOM     85  C   UNL A   1      42.840  23.835  28.614  1.00  0.00     0.010 A 
ATOM     86  C   UNL A   1      44.235  24.511  26.285  1.00  0.00     0.020 A 
ATOM     87  C   UNL A   1      43.162  22.841  27.686  1.00  0.00     0.020 A 
ATOM     88  C   UNL A   1      43.851  23.188  26.522  1.00  0.00     0.054 A 
BRANCH  88  89
ATOM     89  S   UNL A   1      44.310  21.914  25.314  1.00  0.00     0.124 S 
ATOM     90  O   UNL A   1      43.581  20.750  25.807  1.00  0.00    -0.237 OA
ATOM     91  O   UNL A   1      43.824  22.481  24.058  1.00  0.00    -0.237 OA
ATOM     92  O   UNL A   1      45.765  21.840  25.432  1.00  0.00    -0.744 OA
ENDBRANCH  88  89
ENDBRANCH  60  83
BRANCH  72  93
ATOM     93  C   UNL A   1      46.461  27.338  34.191  1.00  0.00    -0.014 A 
ATOM     94  C   UNL A   1      46.442  26.300  35.138  1.00  0.00     0.010 A 
ATOM     95  C   UNL A   1      47.691  27.930  33.846  1.00  0.00     0.010 A 
ATOM     96  C   UNL A   1      47.627  25.883  35.751  1.00  0.00     0.020 A 
ATOM     97  C   UNL A   1      48.880  27.496  34.435  1.00  0.00     0.020 A 
ATOM     98  C   UNL A   1      48.838  26.484  35.396  1.00  0.00     0.054 A 
BRANCH  98  99
ATOM     99  S   UNL A   1      50.367  25.892  36.172  1.00  0.00     0.124 S 
ATOM    100  O   UNL A   1      49.898  24.728  36.919  1.00  0.00    -0.237 OA
ATOM    101  O   UNL A   1      51.218  25.598  35.022  1.00  0.00    -0.237 OA
ATOM    102  O   UNL A   1      50.802  27.022  36.989  1.00  0.00    -0.744 OA
ENDBRANCH  98  99
ENDBRANCH  72  93
ENDBRANCH  46  47
ENDBRANCH  38  41
ENDBRANCH  36  37
ENDBRANCH  35  36
ENDBRANCH  34  35
ENDBRANCH   1  34
TORSDOF 22
ENDMDL
MODEL 3
REMARK VINA RESULT:     -11.2      5.119     10.213
REMARK SMILES COc1c(Cl)cc(C[NH2+][C@@H](Cc2c[nH]c3ccccc23)C(=O)NCCCCCCNC(=O)c2ccc(-c3c4nc(c(-c5ccc(S(=O)(=O)[O-])cc5)c5ccc([nH]5)c(-c5ccc(S(=O)(=O)[O-])cc5)c5nc(c(-c6ccc(S(=O)(=O)[O-])cc6)c6ccc3[nH]6)C=C5)C=C4)cc2)cc1Cl
REMARK SMILES IDX 26 1 25 2 24 3 23 4 21 5 22 6 10 8 9 9 8 12 7 13 3 14 4 15
REMARK SMILES IDX 94 16 5 17 6 18 93 19 95 20 2 21 1 22 11 23 12 24 13 25
REMARK SMILES IDX 20 26 14 27 15 28 19 29 16 31 18 32 17 33 27 34 28 35 29 36
REMARK SMILES IDX 30 37 31 38 32 40 33 41 34 42 92 43 35 44 91 45 36 46 37 47
REMARK SMILES IDX 38 48 85 49 39 50 90 51 84 52 86 53 40 54 89 55 83 56 82 57
REMARK SMILES IDX 41 59 71 60 52 61 70 62 53 63 56 64 69 65 87 66 54 67 55 68
REMARK SMILES IDX 68 70 88 71 57 72 42 73 43 74 51 75 44 76 50 77 45 78 46 79
REMARK SMILES IDX 47 80 48 81 49 82 72 83 73 84 81 85 74 86 80 87 75 88 76 89
REMARK SMILES IDX 77 90 78 91 79 92 58 93 59 94 67 95 60 96 66 97 61 98 62 99
REMARK SMILES IDX 63 100 64 101 65 102
REMARK H PARENT 23 7 9 10 9 11 14 30 30 39 86 58 56 69
REMARK Flexibility Score: inf
ROOT
ATOM      1  C   UNL A   1      31.090  27.012  26.034  1.00  0.00     0.002 C 
ENDROOT
BRANCH   1   2
ATOM      2  C   UNL A   1      31.099  27.101  24.505  1.00  0.00     0.021 C 
BRANCH   2   3
ATOM      3  C   UNL A   1      30.966  25.757  23.802  1.00  0.00     0.116 C 
BRANCH   3   4
ATOM      4  N   UNL A   1      32.004  25.492  22.830  1.00  0.00    -0.351 N 
ATOM      5  C   UNL A   1      32.908  24.470  22.752  1.00  0.00     0.278 C 
ATOM      6  O   UNL A   1      33.450  24.290  21.653  1.00  0.00    -0.268 OA
ATOM      7  H   UNL A   1      32.071  26.156  22.105  1.00  0.00     0.163 HD
BRANCH   5   8
ATOM      8  C   UNL A   1      33.264  23.541  23.945  1.00  0.00     0.277 C 
BRANCH   8   9
ATOM      9  N   UNL A   1      33.854  24.324  25.052  1.00  0.00    -0.332 N 
ATOM     10  H   UNL A   1      34.654  24.839  24.683  1.00  0.00     0.347 HD
ATOM     11  H   UNL A   1      33.109  24.925  25.403  1.00  0.00     0.347 HD
BRANCH   9  12
ATOM     12  C   UNL A   1      34.310  23.538  26.190  1.00  0.00     0.298 C 
BRANCH  12  13
ATOM     13  C   UNL A   1      35.726  23.077  25.917  1.00  0.00     0.009 A 
ATOM     14  C   UNL A   1      38.374  22.122  25.642  1.00  0.00     0.156 A 
ATOM     15  C   UNL A   1      37.284  21.289  25.358  1.00  0.00     0.085 A 
ATOM     16  C   UNL A   1      38.128  23.432  26.079  1.00  0.00     0.085 A 
ATOM     17  Cl  UNL A   1      37.471  19.629  24.918  1.00  0.00    -0.080 Cl
ATOM     18  C   UNL A   1      35.974  21.768  25.481  1.00  0.00     0.034 A 
ATOM     19  C   UNL A   1      36.817  23.906  26.210  1.00  0.00     0.034 A 
ATOM     20  Cl  UNL A   1      39.422  24.502  26.488  1.00  0.00    -0.080 Cl
BRANCH  14  21
ATOM     21  O   UNL A   1      39.671  21.673  25.635  1.00  0.00    -0.494 OA
ATOM     22  C   UNL A   1      40.125  21.258  26.922  1.00  0.00     0.278 C 
ENDBRANCH  14  21
ENDBRANCH  12  13
ENDBRANCH   9  12
ENDBRANCH   8   9
BRANCH   8  23
ATOM     23  C   UNL A   1      32.148  22.512  24.242  1.00  0.00     0.113 C 
BRANCH  23  24
ATOM     24  C   UNL A   1      32.140  21.246  23.439  1.00  0.00    -0.016 A 
ATOM     25  C   UNL A   1      31.796  21.103  22.108  1.00  0.00     0.087 A 
ATOM     26  C   UNL A   1      32.483  19.935  23.917  1.00  0.00     0.003 A 
ATOM     27  N   UNL A   1      31.956  19.787  21.756  1.00  0.00    -0.361 N 
ATOM     28  C   UNL A   1      32.407  19.060  22.832  1.00  0.00     0.046 A 
ATOM     29  C   UNL A   1      32.919  19.427  25.159  1.00  0.00     0.010 A 
ATOM     30  H   UNL A   1      31.774  19.416  20.862  1.00  0.00     0.166 HD
ATOM     31  C   UNL A   1      32.768  17.710  22.922  1.00  0.00     0.026 A 
ATOM     32  C   UNL A   1      33.294  18.082  25.262  1.00  0.00     0.001 A 
ATOM     33  C   UNL A   1      33.227  17.241  24.156  1.00  0.00     0.002 A 
ENDBRANCH  23  24
ENDBRANCH   8  23
ENDBRANCH   5   8
ENDBRANCH   3   4
ENDBRANCH   2   3
ENDBRANCH   1   2
BRANCH   1  34
ATOM     34  C   UNL A   1      32.017  27.988  26.773  1.00  0.00     0.002 C 
BRANCH  34  35
ATOM     35  C   UNL A   1      33.513  27.660  26.725  1.00  0.00     0.021 C 
BRANCH  35  36
ATOM     36  C   UNL A   1      34.406  28.777  26.202  1.00  0.00     0.116 C 
BRANCH  36  37
ATOM     37  N   UNL A   1      33.892  30.093  26.538  1.00  0.00    -0.352 N 
ATOM     38  C   UNL A   1      34.296  30.974  27.510  1.00  0.00     0.251 C 
ATOM     39  H   UNL A   1      33.137  30.400  25.986  1.00  0.00     0.163 HD
ATOM     40  O   UNL A   1      33.606  31.957  27.761  1.00  0.00    -0.269 OA
BRANCH  38  41
ATOM     41  C   UNL A   1      35.547  30.735  28.266  1.00  0.00     0.039 A 
ATOM     42  C   UNL A   1      35.583  29.690  29.194  1.00  0.00     0.014 A 
ATOM     43  C   UNL A   1      36.669  31.551  28.091  1.00  0.00     0.014 A 
ATOM     44  C   UNL A   1      36.755  29.435  29.910  1.00  0.00     0.010 A 
ATOM     45  C   UNL A   1      37.859  31.246  28.746  1.00  0.00     0.010 A 
ATOM     46  C   UNL A   1      37.913  30.193  29.672  1.00  0.00    -0.014 A 
BRANCH  46  47
ATOM     47  C   UNL A   1      39.182  29.914  30.392  1.00  0.00     0.031 A 
ATOM     48  C   UNL A   1      40.122  28.855  29.883  1.00  0.00     0.074 A 
ATOM     49  C   UNL A   1      39.462  30.574  31.534  1.00  0.00     0.049 A 
ATOM     50  N   UNL A   1      41.247  28.431  30.402  1.00  0.00    -0.248 NA
ATOM     51  C   UNL A   1      39.737  28.163  28.642  1.00  0.00     0.031 C 
ATOM     52  C   UNL A   1      38.618  31.602  32.148  1.00  0.00     0.029 A 
ATOM     53  N   UNL A   1      40.536  30.476  32.382  1.00  0.00    -0.354 N 
ATOM     54  C   UNL A   1      41.692  27.416  29.564  1.00  0.00     0.074 A 
ATOM     55  C   UNL A   1      40.690  27.250  28.534  1.00  0.00     0.031 C 
ATOM     56  C   UNL A   1      39.221  32.061  33.255  1.00  0.00     0.029 A 
ATOM     57  C   UNL A   1      40.471  31.334  33.455  1.00  0.00     0.049 A 
ATOM     58  H   UNL A   1      41.282  29.851  32.237  1.00  0.00     0.167 HD
ATOM     59  C   UNL A   1      42.841  26.699  29.630  1.00  0.00     0.031 A 
ATOM     60  C   UNL A   1      41.319  31.515  34.486  1.00  0.00     0.031 A 
ATOM     61  C   UNL A   1      43.838  26.871  30.652  1.00  0.00     0.049 A 
ATOM     62  C   UNL A   1      42.579  30.696  34.551  1.00  0.00     0.074 A 
ATOM     63  C   UNL A   1      45.057  26.228  30.783  1.00  0.00     0.029 A 
ATOM     64  N   UNL A   1      43.732  27.748  31.722  1.00  0.00    -0.354 N 
ATOM     65  N   UNL A   1      43.008  29.777  33.719  1.00  0.00    -0.248 NA
ATOM     66  C   UNL A   1      43.473  30.943  35.690  1.00  0.00     0.031 C 
ATOM     67  C   UNL A   1      45.665  26.680  31.959  1.00  0.00     0.029 A 
ATOM     68  C   UNL A   1      44.852  27.647  32.529  1.00  0.00     0.049 A 
ATOM     69  H   UNL A   1      42.972  28.353  31.883  1.00  0.00     0.167 HD
ATOM     70  C   UNL A   1      44.236  29.358  34.217  1.00  0.00     0.074 A 
ATOM     71  C   UNL A   1      44.486  30.131  35.418  1.00  0.00     0.031 C 
ATOM     72  C   UNL A   1      45.084  28.421  33.724  1.00  0.00     0.031 A 
BRANCH  59  73
ATOM     73  C   UNL A   1      43.068  25.655  28.566  1.00  0.00    -0.014 A 
ATOM     74  C   UNL A   1      42.646  24.325  28.750  1.00  0.00     0.010 A 
ATOM     75  C   UNL A   1      43.700  26.010  27.360  1.00  0.00     0.010 A 
ATOM     76  C   UNL A   1      42.901  23.358  27.774  1.00  0.00     0.020 A 
ATOM     77  C   UNL A   1      43.928  25.051  26.367  1.00  0.00     0.020 A 
ATOM     78  C   UNL A   1      43.548  23.727  26.591  1.00  0.00     0.054 A 
BRANCH  78  79
ATOM     79  S   UNL A   1      43.869  22.452  25.342  1.00  0.00     0.124 S 
ATOM     80  O   UNL A   1      43.448  21.238  26.037  1.00  0.00    -0.237 OA
ATOM     81  O   UNL A   1      43.014  22.867  24.232  1.00  0.00    -0.237 OA
ATOM     82  O   UNL A   1      45.304  22.562  25.094  1.00  0.00    -0.744 OA
ENDBRANCH  78  79
ENDBRANCH  59  73
BRANCH  60  83
ATOM     83  C   UNL A   1      41.015  32.535  35.525  1.00  0.00    -0.014 A 
ATOM     84  C   UNL A   1      41.380  33.879  35.330  1.00  0.00     0.010 A 
ATOM     85  C   UNL A   1      40.332  32.177  36.701  1.00  0.00     0.010 A 
ATOM     86  C   UNL A   1      41.078  34.843  36.296  1.00  0.00     0.020 A 
ATOM     87  C   UNL A   1      40.004  33.142  37.657  1.00  0.00     0.020 A 
ATOM     88  C   UNL A   1      40.388  34.468  37.452  1.00  0.00     0.054 A 
BRANCH  88  89
ATOM     89  S   UNL A   1      39.948  35.748  38.662  1.00  0.00     0.124 S 
ATOM     90  O   UNL A   1      39.757  36.918  37.811  1.00  0.00    -0.237 OA
ATOM     91  O   UNL A   1      38.737  35.202  39.271  1.00  0.00    -0.237 OA
ATOM     92  O   UNL A   1      41.112  35.797  39.545  1.00  0.00    -0.744 OA
ENDBRANCH  88  89
ENDBRANCH  60  83
BRANCH  72  93
ATOM     93  C   UNL A   1      46.376  28.198  34.463  1.00  0.00    -0.014 A 
ATOM     94  C   UNL A   1      47.522  28.960  34.176  1.00  0.00     0.010 A 
ATOM     95  C   UNL A   1      46.426  27.248  35.501  1.00  0.00     0.010 A 
ATOM     96  C   UNL A   1      48.704  28.753  34.893  1.00  0.00     0.020 A 
ATOM     97  C   UNL A   1      47.597  27.059  36.238  1.00  0.00     0.020 A 
ATOM     98  C   UNL A   1      48.734  27.804  35.919  1.00  0.00     0.054 A 
BRANCH  98  99
ATOM     99  S   UNL A   1      50.267  27.588  36.864  1.00  0.00     0.124 S 
ATOM    100  O   UNL A   1      50.206  28.707  37.801  1.00  0.00    -0.237 OA
ATOM    101  O   UNL A   1      50.096  26.264  37.455  1.00  0.00    -0.237 OA
ATOM    102  O   UNL A   1      51.315  27.682  35.851  1.00  0.00    -0.744 OA
ENDBRANCH  98  99
ENDBRANCH  72  93
ENDBRANCH  46  47
ENDBRANCH  38  41
ENDBRANCH  36  37
ENDBRANCH  35  36
ENDBRANCH  34  35
ENDBRANCH   1  34
TORSDOF 22
ENDMDL
