MODEL 1
REMARK VINA RESULT:      -6.0      0.000      0.000
REMARK SMILES C#CCN(CC(=O)NCCCCCCNC(=O)c1ccc(-c2c3nc(c(-c4ccc(S(=O)(=O)[O-])cc4)c4ccc([nH]4)c(-c4ccc(S(=O)(=O)[O-])cc4)c4nc(c(-c5ccc(S(=O)(=O)[O-])cc5)c5ccc2[nH]5)C=C4)C=C3)cc1)C(=O)C(C)(C)[NH2+]CC
REMARK SMILES IDX 10 1 9 2 8 3 6 4 7 5 5 7 4 8 3 9 2 10 1 11 78 12 79 13 80 14
REMARK SMILES IDX 81 15 82 16 83 17 84 20 85 21 11 22 12 23 13 24 14 25 15 26
REMARK SMILES IDX 16 27 17 29 18 30 19 31 77 32 20 33 76 34 21 35 22 36 23 37
REMARK SMILES IDX 70 38 24 39 75 40 69 41 71 42 25 43 74 44 68 45 67 46 26 48
REMARK SMILES IDX 56 49 37 50 55 51 38 52 41 53 54 54 72 55 39 56 40 57 53 59
REMARK SMILES IDX 73 60 42 61 27 62 28 63 36 64 29 65 35 66 30 67 31 68 32 69
REMARK SMILES IDX 33 70 34 71 57 72 58 73 66 74 59 75 65 76 60 77 61 78 62 79
REMARK SMILES IDX 63 80 64 81 43 82 44 83 52 84 45 85 51 86 46 87 47 88 48 89
REMARK SMILES IDX 49 90 50 91
REMARK H PARENT 8 6 83 18 83 19 15 28 71 47 41 58
REMARK Flexibility Score: inf
ROOT
ATOM      1  C   UNL A   1      48.232  25.426  27.487  1.00  0.00     0.021 C 
ENDROOT
BRANCH   1   2
ATOM      2  C   UNL A   1      46.980  24.590  27.747  1.00  0.00     0.116 C 
BRANCH   2   3
ATOM      3  N   UNL A   1      46.052  25.219  28.659  1.00  0.00    -0.355 N 
ATOM      4  C   UNL A   1      44.690  25.219  28.667  1.00  0.00     0.239 C 
ATOM      5  O   UNL A   1      44.128  25.621  29.692  1.00  0.00    -0.273 OA
ATOM      6  H   UNL A   1      46.470  25.729  29.390  1.00  0.00     0.163 HD
BRANCH   4   7
ATOM      7  C   UNL A   1      43.859  24.623  27.518  1.00  0.00     0.220 C 
BRANCH   7   8
ATOM      8  N   UNL A   1      43.612  25.484  26.360  1.00  0.00    -0.317 N 
BRANCH   8   9
ATOM      9  C   UNL A   1      44.545  25.339  25.241  1.00  0.00     0.210 C 
BRANCH   9  10
ATOM     10  C   UNL A   1      45.400  26.580  25.043  1.00  0.00    -0.085 C 
ATOM     11  C   UNL A   1      46.133  27.645  24.872  1.00  0.00     0.006 C 
ENDBRANCH   9  10
ENDBRANCH   8   9
BRANCH   8  12
ATOM     12  C   UNL A   1      42.583  26.415  26.198  1.00  0.00     0.284 C 
ATOM     13  O   UNL A   1      41.857  26.303  25.197  1.00  0.00    -0.268 OA
BRANCH  12  14
ATOM     14  C   UNL A   1      42.353  27.648  27.176  1.00  0.00     0.170 C 
ATOM     15  C   UNL A   1      43.580  28.488  27.540  1.00  0.00     0.090 C 
ATOM     16  C   UNL A   1      41.277  28.550  26.543  1.00  0.00     0.090 C 
BRANCH  14  17
ATOM     17  N   UNL A   1      41.712  27.189  28.449  1.00  0.00    -0.334 N 
ATOM     18  H   UNL A   1      41.345  28.018  28.915  1.00  0.00     0.347 HD
ATOM     19  H   UNL A   1      42.456  26.688  28.933  1.00  0.00     0.347 HD
BRANCH  17  20
ATOM     20  C   UNL A   1      40.621  26.221  28.376  1.00  0.00     0.257 C 
ATOM     21  C   UNL A   1      39.364  26.617  29.137  1.00  0.00     0.071 C 
ENDBRANCH  17  20
ENDBRANCH  14  17
ENDBRANCH  12  14
ENDBRANCH   8  12
ENDBRANCH   7   8
ENDBRANCH   4   7
ENDBRANCH   2   3
ENDBRANCH   1   2
BRANCH   1  22
ATOM     22  C   UNL A   1      49.528  24.852  28.072  1.00  0.00     0.002 C 
BRANCH  22  23
ATOM     23  C   UNL A   1      50.577  25.881  28.501  1.00  0.00     0.002 C 
BRANCH  23  24
ATOM     24  C   UNL A   1      51.610  26.265  27.438  1.00  0.00     0.021 C 
BRANCH  24  25
ATOM     25  C   UNL A   1      52.391  27.549  27.714  1.00  0.00     0.116 C 
BRANCH  25  26
ATOM     26  N   UNL A   1      52.236  28.525  26.650  1.00  0.00    -0.352 N 
ATOM     27  C   UNL A   1      51.179  29.339  26.342  1.00  0.00     0.251 C 
ATOM     28  H   UNL A   1      53.014  28.615  26.054  1.00  0.00     0.163 HD
ATOM     29  O   UNL A   1      51.191  29.953  25.270  1.00  0.00    -0.269 OA
BRANCH  27  30
ATOM     30  C   UNL A   1      50.023  29.488  27.255  1.00  0.00     0.039 A 
ATOM     31  C   UNL A   1      50.206  30.186  28.454  1.00  0.00     0.014 A 
ATOM     32  C   UNL A   1      48.781  28.906  26.979  1.00  0.00     0.014 A 
ATOM     33  C   UNL A   1      49.144  30.335  29.348  1.00  0.00     0.010 A 
ATOM     34  C   UNL A   1      47.703  29.108  27.843  1.00  0.00     0.010 A 
ATOM     35  C   UNL A   1      47.875  29.817  29.041  1.00  0.00    -0.014 A 
BRANCH  35  36
ATOM     36  C   UNL A   1      46.732  30.037  29.965  1.00  0.00     0.031 A 
ATOM     37  C   UNL A   1      46.340  28.999  30.982  1.00  0.00     0.074 A 
ATOM     38  C   UNL A   1      46.014  31.172  29.863  1.00  0.00     0.049 A 
ATOM     39  N   UNL A   1      45.416  29.061  31.907  1.00  0.00    -0.248 NA
ATOM     40  C   UNL A   1      47.061  27.718  30.938  1.00  0.00     0.031 C 
ATOM     41  C   UNL A   1      46.234  32.224  28.867  1.00  0.00     0.029 A 
ATOM     42  N   UNL A   1      44.954  31.632  30.604  1.00  0.00    -0.354 N 
ATOM     43  C   UNL A   1      45.431  27.826  32.545  1.00  0.00     0.074 A 
ATOM     44  C   UNL A   1      46.428  27.021  31.870  1.00  0.00     0.031 C 
ATOM     45  C   UNL A   1      45.355  33.215  29.076  1.00  0.00     0.029 A 
ATOM     46  C   UNL A   1      44.502  32.866  30.207  1.00  0.00     0.049 A 
ATOM     47  H   UNL A   1      44.556  31.125  31.348  1.00  0.00     0.167 HD
ATOM     48  C   UNL A   1      44.697  27.403  33.602  1.00  0.00     0.031 A 
ATOM     49  C   UNL A   1      43.520  33.644  30.704  1.00  0.00     0.031 A 
ATOM     50  C   UNL A   1      43.708  28.205  34.276  1.00  0.00     0.049 A 
ATOM     51  C   UNL A   1      42.767  33.191  31.920  1.00  0.00     0.074 A 
ATOM     52  C   UNL A   1      42.969  27.898  35.405  1.00  0.00     0.029 A 
ATOM     53  N   UNL A   1      43.312  29.473  33.875  1.00  0.00    -0.354 N 
ATOM     54  N   UNL A   1      42.871  32.061  32.578  1.00  0.00    -0.248 NA
ATOM     55  C   UNL A   1      41.787  34.131  32.480  1.00  0.00     0.031 C 
ATOM     56  C   UNL A   1      42.095  28.962  35.662  1.00  0.00     0.029 A 
ATOM     57  C   UNL A   1      42.324  29.953  34.720  1.00  0.00     0.049 A 
ATOM     58  H   UNL A   1      43.679  29.960  33.102  1.00  0.00     0.167 HD
ATOM     59  C   UNL A   1      41.977  32.158  33.638  1.00  0.00     0.074 A 
ATOM     60  C   UNL A   1      41.360  33.466  33.544  1.00  0.00     0.031 C 
ATOM     61  C   UNL A   1      41.696  31.246  34.603  1.00  0.00     0.031 A 
BRANCH  48  62
ATOM     62  C   UNL A   1      44.934  25.994  34.082  1.00  0.00    -0.014 A 
ATOM     63  C   UNL A   1      45.973  25.695  34.983  1.00  0.00     0.010 A 
ATOM     64  C   UNL A   1      44.108  24.952  33.623  1.00  0.00     0.010 A 
ATOM     65  C   UNL A   1      46.224  24.373  35.362  1.00  0.00     0.020 A 
ATOM     66  C   UNL A   1      44.338  23.632  34.022  1.00  0.00     0.020 A 
ATOM     67  C   UNL A   1      45.412  23.348  34.868  1.00  0.00     0.054 A 
BRANCH  67  68
ATOM     68  S   UNL A   1      45.770  21.638  35.356  1.00  0.00     0.124 S 
ATOM     69  O   UNL A   1      44.707  20.903  34.674  1.00  0.00    -0.237 OA
ATOM     70  O   UNL A   1      47.116  21.425  34.831  1.00  0.00    -0.237 OA
ATOM     71  O   UNL A   1      45.672  21.667  36.814  1.00  0.00    -0.744 OA
ENDBRANCH  67  68
ENDBRANCH  48  62
BRANCH  49  72
ATOM     72  C   UNL A   1      43.242  34.955  30.062  1.00  0.00    -0.014 A 
ATOM     73  C   UNL A   1      44.030  36.079  30.364  1.00  0.00     0.010 A 
ATOM     74  C   UNL A   1      42.238  35.062  29.083  1.00  0.00     0.010 A 
ATOM     75  C   UNL A   1      43.824  37.288  29.693  1.00  0.00     0.020 A 
ATOM     76  C   UNL A   1      42.044  36.263  28.395  1.00  0.00     0.020 A 
ATOM     77  C   UNL A   1      42.838  37.368  28.705  1.00  0.00     0.054 A 
BRANCH  77  78
ATOM     78  S   UNL A   1      42.662  38.912  27.766  1.00  0.00     0.124 S 
ATOM     79  O   UNL A   1      43.912  39.598  28.070  1.00  0.00    -0.237 OA
ATOM     80  O   UNL A   1      42.519  38.433  26.392  1.00  0.00    -0.237 OA
ATOM     81  O   UNL A   1      41.458  39.517  28.331  1.00  0.00    -0.744 OA
ENDBRANCH  77  78
ENDBRANCH  49  72
BRANCH  61  82
ATOM     82  C   UNL A   1      40.677  31.640  35.637  1.00  0.00    -0.014 A 
ATOM     83  C   UNL A   1      41.044  32.383  36.774  1.00  0.00     0.010 A 
ATOM     84  C   UNL A   1      39.332  31.266  35.468  1.00  0.00     0.010 A 
ATOM     85  C   UNL A   1      40.094  32.699  37.749  1.00  0.00     0.020 A 
ATOM     86  C   UNL A   1      38.373  31.602  36.428  1.00  0.00     0.020 A 
ATOM     87  C   UNL A   1      38.766  32.297  37.574  1.00  0.00     0.054 A 
BRANCH  87  88
ATOM     88  S   UNL A   1      37.547  32.715  38.851  1.00  0.00     0.124 S 
ATOM     89  O   UNL A   1      37.648  31.570  39.752  1.00  0.00    -0.237 OA
ATOM     90  O   UNL A   1      38.053  33.978  39.382  1.00  0.00    -0.237 OA
ATOM     91  O   UNL A   1      36.293  32.817  38.109  1.00  0.00    -0.744 OA
ENDBRANCH  87  88
ENDBRANCH  61  82
ENDBRANCH  35  36
ENDBRANCH  27  30
ENDBRANCH  25  26
ENDBRANCH  24  25
ENDBRANCH  23  24
ENDBRANCH  22  23
ENDBRANCH   1  22
TORSDOF 23
ENDMDL
MODEL 2
REMARK VINA RESULT:      -5.8      4.935     11.436
REMARK SMILES C#CCN(CC(=O)NCCCCCCNC(=O)c1ccc(-c2c3nc(c(-c4ccc(S(=O)(=O)[O-])cc4)c4ccc([nH]4)c(-c4ccc(S(=O)(=O)[O-])cc4)c4nc(c(-c5ccc(S(=O)(=O)[O-])cc5)c5ccc2[nH]5)C=C4)C=C3)cc1)C(=O)C(C)(C)[NH2+]CC
REMARK SMILES IDX 10 1 9 2 8 3 6 4 7 5 5 7 4 8 3 9 2 10 1 11 78 12 79 13 80 14
REMARK SMILES IDX 81 15 82 16 83 17 84 20 85 21 11 22 12 23 13 24 14 25 15 26
REMARK SMILES IDX 16 27 17 29 18 30 19 31 77 32 20 33 76 34 21 35 22 36 23 37
REMARK SMILES IDX 70 38 24 39 75 40 69 41 71 42 25 43 74 44 68 45 67 46 26 48
REMARK SMILES IDX 56 49 37 50 55 51 38 52 41 53 54 54 72 55 39 56 40 57 53 59
REMARK SMILES IDX 73 60 42 61 27 62 28 63 36 64 29 65 35 66 30 67 31 68 32 69
REMARK SMILES IDX 33 70 34 71 57 72 58 73 66 74 59 75 65 76 60 77 61 78 62 79
REMARK SMILES IDX 63 80 64 81 43 82 44 83 52 84 45 85 51 86 46 87 47 88 48 89
REMARK SMILES IDX 49 90 50 91
REMARK H PARENT 8 6 83 18 83 19 15 28 71 47 41 58
REMARK Flexibility Score: inf
ROOT
ATOM      1  C   UNL A   1      45.436  19.362  36.073  1.00  0.00     0.021 C 
ENDROOT
BRANCH   1   2
ATOM      2  C   UNL A   1      46.112  18.956  37.382  1.00  0.00     0.116 C 
BRANCH   2   3
ATOM      3  N   UNL A   1      46.179  20.031  38.347  1.00  0.00    -0.355 N 
ATOM      4  C   UNL A   1      46.645  20.036  39.627  1.00  0.00     0.239 C 
ATOM      5  O   UNL A   1      46.825  21.136  40.162  1.00  0.00    -0.273 OA
ATOM      6  H   UNL A   1      45.834  20.896  38.029  1.00  0.00     0.163 HD
BRANCH   4   7
ATOM      7  C   UNL A   1      47.067  18.749  40.356  1.00  0.00     0.220 C 
BRANCH   7   8
ATOM      8  N   UNL A   1      45.996  17.854  40.798  1.00  0.00    -0.317 N 
BRANCH   8   9
ATOM      9  C   UNL A   1      45.980  16.522  40.191  1.00  0.00     0.210 C 
BRANCH   9  10
ATOM     10  C   UNL A   1      44.712  16.270  39.392  1.00  0.00    -0.085 C 
ATOM     11  C   UNL A   1      43.624  16.054  38.706  1.00  0.00     0.006 C 
ENDBRANCH   9  10
ENDBRANCH   8   9
BRANCH   8  12
ATOM     12  C   UNL A   1      44.999  18.123  41.739  1.00  0.00     0.284 C 
ATOM     13  O   UNL A   1      44.099  18.914  41.413  1.00  0.00    -0.268 OA
BRANCH  12  14
ATOM     14  C   UNL A   1      45.008  17.542  43.220  1.00  0.00     0.170 C 
ATOM     15  C   UNL A   1      46.229  16.721  43.640  1.00  0.00     0.090 C 
ATOM     16  C   UNL A   1      44.823  18.728  44.186  1.00  0.00     0.090 C 
BRANCH  14  17
ATOM     17  N   UNL A   1      43.786  16.710  43.459  1.00  0.00    -0.334 N 
ATOM     18  H   UNL A   1      43.003  17.196  43.024  1.00  0.00     0.347 HD
ATOM     19  H   UNL A   1      43.751  16.608  44.473  1.00  0.00     0.347 HD
BRANCH  17  20
ATOM     20  C   UNL A   1      43.765  15.336  42.965  1.00  0.00     0.257 C 
ATOM     21  C   UNL A   1      42.480  14.932  42.256  1.00  0.00     0.071 C 
ENDBRANCH  17  20
ENDBRANCH  14  17
ENDBRANCH  12  14
ENDBRANCH   8  12
ENDBRANCH   7   8
ENDBRANCH   4   7
ENDBRANCH   2   3
ENDBRANCH   1   2
BRANCH   1  22
ATOM     22  C   UNL A   1      46.389  19.574  34.891  1.00  0.00     0.002 C 
BRANCH  22  23
ATOM     23  C   UNL A   1      47.810  20.018  35.254  1.00  0.00     0.002 C 
BRANCH  23  24
ATOM     24  C   UNL A   1      48.343  21.236  34.494  1.00  0.00     0.021 C 
BRANCH  24  25
ATOM     25  C   UNL A   1      47.946  22.595  35.070  1.00  0.00     0.116 C 
BRANCH  25  26
ATOM     26  N   UNL A   1      47.104  22.466  36.246  1.00  0.00    -0.352 N 
ATOM     27  C   UNL A   1      46.172  23.325  36.767  1.00  0.00     0.251 C 
ATOM     28  H   UNL A   1      47.221  21.628  36.750  1.00  0.00     0.163 HD
ATOM     29  O   UNL A   1      45.712  23.096  37.890  1.00  0.00    -0.269 OA
BRANCH  27  30
ATOM     30  C   UNL A   1      45.717  24.521  36.021  1.00  0.00     0.039 A 
ATOM     31  C   UNL A   1      46.499  25.679  36.080  1.00  0.00     0.014 A 
ATOM     32  C   UNL A   1      44.509  24.538  35.315  1.00  0.00     0.014 A 
ATOM     33  C   UNL A   1      46.096  26.832  35.402  1.00  0.00     0.010 A 
ATOM     34  C   UNL A   1      44.138  25.670  34.588  1.00  0.00     0.010 A 
ATOM     35  C   UNL A   1      44.922  26.832  34.631  1.00  0.00    -0.014 A 
BRANCH  35  36
ATOM     36  C   UNL A   1      44.534  28.041  33.857  1.00  0.00     0.031 A 
ATOM     37  C   UNL A   1      43.763  29.162  34.499  1.00  0.00     0.074 A 
ATOM     38  C   UNL A   1      44.849  28.113  32.549  1.00  0.00     0.049 A 
ATOM     39  N   UNL A   1      43.406  30.313  33.987  1.00  0.00    -0.248 NA
ATOM     40  C   UNL A   1      43.313  28.954  35.883  1.00  0.00     0.031 C 
ATOM     41  C   UNL A   1      45.522  27.061  31.784  1.00  0.00     0.029 A 
ATOM     42  N   UNL A   1      44.646  29.114  31.633  1.00  0.00    -0.354 N 
ATOM     43  C   UNL A   1      42.677  30.961  34.979  1.00  0.00     0.074 A 
ATOM     44  C   UNL A   1      42.606  30.054  36.104  1.00  0.00     0.031 C 
ATOM     45  C   UNL A   1      45.698  27.482  30.522  1.00  0.00     0.029 A 
ATOM     46  C   UNL A   1      45.140  28.824  30.385  1.00  0.00     0.049 A 
ATOM     47  H   UNL A   1      44.189  29.959  31.849  1.00  0.00     0.167 HD
ATOM     48  C   UNL A   1      42.129  32.200  34.961  1.00  0.00     0.031 A 
ATOM     49  C   UNL A   1      45.161  29.558  29.255  1.00  0.00     0.031 A 
ATOM     50  C   UNL A   1      42.203  33.105  33.842  1.00  0.00     0.049 A 
ATOM     51  C   UNL A   1      44.614  30.955  29.275  1.00  0.00     0.074 A 
ATOM     52  C   UNL A   1      41.750  34.410  33.754  1.00  0.00     0.029 A 
ATOM     53  N   UNL A   1      42.756  32.793  32.609  1.00  0.00    -0.354 N 
ATOM     54  N   UNL A   1      44.023  31.593  30.258  1.00  0.00    -0.248 NA
ATOM     55  C   UNL A   1      44.766  31.743  28.046  1.00  0.00     0.031 C 
ATOM     56  C   UNL A   1      41.992  34.873  32.456  1.00  0.00     0.029 A 
ATOM     57  C   UNL A   1      42.639  33.872  31.748  1.00  0.00     0.049 A 
ATOM     58  H   UNL A   1      43.173  31.931  32.380  1.00  0.00     0.167 HD
ATOM     59  C   UNL A   1      43.742  32.863  29.769  1.00  0.00     0.074 A 
ATOM     60  C   UNL A   1      44.250  32.908  28.411  1.00  0.00     0.031 C 
ATOM     61  C   UNL A   1      43.123  33.898  30.390  1.00  0.00     0.031 A 
BRANCH  48  62
ATOM     62  C   UNL A   1      41.385  32.639  36.197  1.00  0.00    -0.014 A 
ATOM     63  C   UNL A   1      40.010  32.383  36.350  1.00  0.00     0.010 A 
ATOM     64  C   UNL A   1      42.071  33.320  37.219  1.00  0.00     0.010 A 
ATOM     65  C   UNL A   1      39.321  32.860  37.469  1.00  0.00     0.020 A 
ATOM     66  C   UNL A   1      41.391  33.773  38.354  1.00  0.00     0.020 A 
ATOM     67  C   UNL A   1      40.014  33.563  38.458  1.00  0.00     0.054 A 
BRANCH  67  68
ATOM     68  S   UNL A   1      39.096  34.191  39.891  1.00  0.00     0.124 S 
ATOM     69  O   UNL A   1      37.730  33.784  39.574  1.00  0.00    -0.237 OA
ATOM     70  O   UNL A   1      39.717  33.485  41.009  1.00  0.00    -0.237 OA
ATOM     71  O   UNL A   1      39.343  35.631  39.856  1.00  0.00    -0.744 OA
ENDBRANCH  67  68
ENDBRANCH  48  62
BRANCH  49  72
ATOM     72  C   UNL A   1      45.770  28.980  28.029  1.00  0.00    -0.014 A 
ATOM     73  C   UNL A   1      44.975  28.302  27.089  1.00  0.00     0.010 A 
ATOM     74  C   UNL A   1      47.135  29.179  27.759  1.00  0.00     0.010 A 
ATOM     75  C   UNL A   1      45.534  27.838  25.895  1.00  0.00     0.020 A 
ATOM     76  C   UNL A   1      47.693  28.735  26.556  1.00  0.00     0.020 A 
ATOM     77  C   UNL A   1      46.888  28.067  25.632  1.00  0.00     0.054 A 
BRANCH  77  78
ATOM     78  S   UNL A   1      47.569  27.559  24.028  1.00  0.00     0.124 S 
ATOM     79  O   UNL A   1      47.296  26.126  24.021  1.00  0.00    -0.237 OA
ATOM     80  O   UNL A   1      46.789  28.358  23.085  1.00  0.00    -0.237 OA
ATOM     81  O   UNL A   1      48.979  27.931  24.125  1.00  0.00    -0.744 OA
ENDBRANCH  77  78
ENDBRANCH  49  72
BRANCH  61  82
ATOM     82  C   UNL A   1      42.966  35.170  29.601  1.00  0.00    -0.014 A 
ATOM     83  C   UNL A   1      43.982  36.142  29.579  1.00  0.00     0.010 A 
ATOM     84  C   UNL A   1      41.787  35.394  28.868  1.00  0.00     0.010 A 
ATOM     85  C   UNL A   1      43.801  37.340  28.881  1.00  0.00     0.020 A 
ATOM     86  C   UNL A   1      41.612  36.580  28.148  1.00  0.00     0.020 A 
ATOM     87  C   UNL A   1      42.611  37.555  28.178  1.00  0.00     0.054 A 
BRANCH  87  88
ATOM     88  S   UNL A   1      42.392  39.115  27.279  1.00  0.00     0.124 S 
ATOM     89  O   UNL A   1      43.696  39.282  26.643  1.00  0.00    -0.237 OA
ATOM     90  O   UNL A   1      41.286  38.816  26.373  1.00  0.00    -0.237 OA
ATOM     91  O   UNL A   1      42.082  40.079  28.332  1.00  0.00    -0.744 OA
ENDBRANCH  87  88
ENDBRANCH  61  82
ENDBRANCH  35  36
ENDBRANCH  27  30
ENDBRANCH  25  26
ENDBRANCH  24  25
ENDBRANCH  23  24
ENDBRANCH  22  23
ENDBRANCH   1  22
TORSDOF 23
ENDMDL
MODEL 3
REMARK VINA RESULT:      -5.4      8.274     17.001
REMARK SMILES C#CCN(CC(=O)NCCCCCCNC(=O)c1ccc(-c2c3nc(c(-c4ccc(S(=O)(=O)[O-])cc4)c4ccc([nH]4)c(-c4ccc(S(=O)(=O)[O-])cc4)c4nc(c(-c5ccc(S(=O)(=O)[O-])cc5)c5ccc2[nH]5)C=C4)C=C3)cc1)C(=O)C(C)(C)[NH2+]CC
REMARK SMILES IDX 10 1 9 2 8 3 6 4 7 5 5 7 4 8 3 9 2 10 1 11 78 12 79 13 80 14
REMARK SMILES IDX 81 15 82 16 83 17 84 20 85 21 11 22 12 23 13 24 14 25 15 26
REMARK SMILES IDX 16 27 17 29 18 30 19 31 77 32 20 33 76 34 21 35 22 36 23 37
REMARK SMILES IDX 70 38 24 39 75 40 69 41 71 42 25 43 74 44 68 45 67 46 26 48
REMARK SMILES IDX 56 49 37 50 55 51 38 52 41 53 54 54 72 55 39 56 40 57 53 59
REMARK SMILES IDX 73 60 42 61 27 62 28 63 36 64 29 65 35 66 30 67 31 68 32 69
REMARK SMILES IDX 33 70 34 71 57 72 58 73 66 74 59 75 65 76 60 77 61 78 62 79
REMARK SMILES IDX 63 80 64 81 43 82 44 83 52 84 45 85 51 86 46 87 47 88 48 89
REMARK SMILES IDX 49 90 50 91
REMARK H PARENT 8 6 83 18 83 19 15 28 71 47 41 58
REMARK Flexibility Score: inf
ROOT
ATOM      1  C   UNL A   1      40.731  42.446  40.047  1.00  0.00     0.021 C 
ENDROOT
BRANCH   1   2
ATOM      2  C   UNL A   1      40.398  43.515  41.087  1.00  0.00     0.116 C 
BRANCH   2   3
ATOM      3  N   UNL A   1      39.307  43.142  41.960  1.00  0.00    -0.355 N 
ATOM      4  C   UNL A   1      38.312  43.901  42.497  1.00  0.00     0.239 C 
ATOM      5  O   UNL A   1      37.357  43.306  43.008  1.00  0.00    -0.273 OA
ATOM      6  H   UNL A   1      39.280  42.189  42.206  1.00  0.00     0.163 HD
BRANCH   4   7
ATOM      7  C   UNL A   1      38.282  45.433  42.367  1.00  0.00     0.220 C 
BRANCH   7   8
ATOM      8  N   UNL A   1      38.631  46.209  43.558  1.00  0.00    -0.317 N 
BRANCH   8   9
ATOM      9  C   UNL A   1      40.024  46.652  43.651  1.00  0.00     0.210 C 
BRANCH   9  10
ATOM     10  C   UNL A   1      40.605  47.006  42.292  1.00  0.00    -0.085 C 
ATOM     11  C   UNL A   1      41.104  47.310  41.126  1.00  0.00     0.006 C 
ENDBRANCH   9  10
ENDBRANCH   8   9
BRANCH   8  12
ATOM     12  C   UNL A   1      37.786  46.582  44.606  1.00  0.00     0.284 C 
ATOM     13  O   UNL A   1      37.808  45.889  45.637  1.00  0.00    -0.268 OA
BRANCH  12  14
ATOM     14  C   UNL A   1      36.748  47.783  44.512  1.00  0.00     0.170 C 
ATOM     15  C   UNL A   1      36.444  48.545  45.804  1.00  0.00     0.090 C 
ATOM     16  C   UNL A   1      37.264  48.762  43.441  1.00  0.00     0.090 C 
BRANCH  14  17
ATOM     17  N   UNL A   1      35.449  47.302  43.942  1.00  0.00    -0.334 N 
ATOM     18  H   UNL A   1      35.439  46.287  44.033  1.00  0.00     0.347 HD
ATOM     19  H   UNL A   1      35.445  47.673  42.992  1.00  0.00     0.347 HD
BRANCH  17  20
ATOM     20  C   UNL A   1      34.203  47.798  44.519  1.00  0.00     0.257 C 
ATOM     21  C   UNL A   1      33.492  48.859  43.691  1.00  0.00     0.071 C 
ENDBRANCH  17  20
ENDBRANCH  14  17
ENDBRANCH  12  14
ENDBRANCH   8  12
ENDBRANCH   7   8
ENDBRANCH   4   7
ENDBRANCH   2   3
ENDBRANCH   1   2
BRANCH   1  22
ATOM     22  C   UNL A   1      40.182  41.048  40.356  1.00  0.00     0.002 C 
BRANCH  22  23
ATOM     23  C   UNL A   1      41.165  40.079  41.018  1.00  0.00     0.002 C 
BRANCH  23  24
ATOM     24  C   UNL A   1      41.759  39.002  40.105  1.00  0.00     0.021 C 
BRANCH  24  25
ATOM     25  C   UNL A   1      41.485  37.560  40.527  1.00  0.00     0.116 C 
BRANCH  25  26
ATOM     26  N   UNL A   1      40.100  37.356  40.915  1.00  0.00    -0.352 N 
ATOM     27  C   UNL A   1      39.111  36.622  40.315  1.00  0.00     0.251 C 
ATOM     28  H   UNL A   1      39.828  37.820  41.740  1.00  0.00     0.163 HD
ATOM     29  O   UNL A   1      37.949  36.749  40.714  1.00  0.00    -0.269 OA
BRANCH  27  30
ATOM     30  C   UNL A   1      39.402  35.696  39.197  1.00  0.00     0.039 A 
ATOM     31  C   UNL A   1      39.059  34.348  39.344  1.00  0.00     0.014 A 
ATOM     32  C   UNL A   1      40.056  36.119  38.035  1.00  0.00     0.014 A 
ATOM     33  C   UNL A   1      39.331  33.440  38.317  1.00  0.00     0.010 A 
ATOM     34  C   UNL A   1      40.271  35.225  36.985  1.00  0.00     0.010 A 
ATOM     35  C   UNL A   1      39.920  33.874  37.118  1.00  0.00    -0.014 A 
BRANCH  35  36
ATOM     36  C   UNL A   1      40.144  32.916  36.004  1.00  0.00     0.031 A 
ATOM     37  C   UNL A   1      39.326  32.982  34.743  1.00  0.00     0.074 A 
ATOM     38  C   UNL A   1      41.075  31.952  36.144  1.00  0.00     0.049 A 
ATOM     39  N   UNL A   1      39.439  32.269  33.651  1.00  0.00    -0.248 NA
ATOM     40  C   UNL A   1      38.222  33.954  34.715  1.00  0.00     0.031 C 
ATOM     41  C   UNL A   1      41.880  31.724  37.346  1.00  0.00     0.029 A 
ATOM     42  N   UNL A   1      41.499  30.983  35.270  1.00  0.00    -0.354 N 
ATOM     43  C   UNL A   1      38.414  32.693  32.812  1.00  0.00     0.074 A 
ATOM     44  C   UNL A   1      37.664  33.694  33.541  1.00  0.00     0.031 C 
ATOM     45  C   UNL A   1      42.719  30.700  37.124  1.00  0.00     0.029 A 
ATOM     46  C   UNL A   1      42.502  30.191  35.773  1.00  0.00     0.049 A 
ATOM     47  H   UNL A   1      41.121  30.867  34.368  1.00  0.00     0.167 HD
ATOM     48  C   UNL A   1      38.131  32.299  31.546  1.00  0.00     0.031 A 
ATOM     49  C   UNL A   1      43.185  29.176  35.211  1.00  0.00     0.031 A 
ATOM     50  C   UNL A   1      38.879  31.306  30.819  1.00  0.00     0.049 A 
ATOM     51  C   UNL A   1      42.907  28.801  33.784  1.00  0.00     0.074 A 
ATOM     52  C   UNL A   1      38.722  30.895  29.506  1.00  0.00     0.029 A 
ATOM     53  N   UNL A   1      39.922  30.559  31.347  1.00  0.00    -0.354 N 
ATOM     54  N   UNL A   1      42.004  29.289  32.967  1.00  0.00    -0.248 NA
ATOM     55  C   UNL A   1      43.761  27.763  33.194  1.00  0.00     0.031 C 
ATOM     56  C   UNL A   1      39.641  29.870  29.253  1.00  0.00     0.029 A 
ATOM     57  C   UNL A   1      40.404  29.675  30.395  1.00  0.00     0.049 A 
ATOM     58  H   UNL A   1      40.269  30.644  32.264  1.00  0.00     0.167 HD
ATOM     59  C   UNL A   1      42.188  28.625  31.761  1.00  0.00     0.074 A 
ATOM     60  C   UNL A   1      43.304  27.719  31.950  1.00  0.00     0.031 C 
ATOM     61  C   UNL A   1      41.497  28.757  30.601  1.00  0.00     0.031 A 
BRANCH  48  62
ATOM     62  C   UNL A   1      36.943  32.942  30.877  1.00  0.00    -0.014 A 
ATOM     63  C   UNL A   1      37.109  33.941  29.901  1.00  0.00     0.010 A 
ATOM     64  C   UNL A   1      35.641  32.545  31.234  1.00  0.00     0.010 A 
ATOM     65  C   UNL A   1      35.996  34.579  29.343  1.00  0.00     0.020 A 
ATOM     66  C   UNL A   1      34.526  33.160  30.657  1.00  0.00     0.020 A 
ATOM     67  C   UNL A   1      34.712  34.192  29.735  1.00  0.00     0.054 A 
BRANCH  67  68
ATOM     68  S   UNL A   1      33.282  35.047  29.014  1.00  0.00     0.124 S 
ATOM     69  O   UNL A   1      32.759  34.036  28.098  1.00  0.00    -0.237 OA
ATOM     70  O   UNL A   1      32.450  35.327  30.181  1.00  0.00    -0.237 OA
ATOM     71  O   UNL A   1      33.870  36.223  28.376  1.00  0.00    -0.744 OA
ENDBRANCH  67  68
ENDBRANCH  48  62
BRANCH  49  72
ATOM     72  C   UNL A   1      44.234  28.484  36.005  1.00  0.00    -0.014 A 
ATOM     73  C   UNL A   1      45.550  28.976  36.032  1.00  0.00     0.010 A 
ATOM     74  C   UNL A   1      43.898  27.375  36.802  1.00  0.00     0.010 A 
ATOM     75  C   UNL A   1      46.512  28.376  36.850  1.00  0.00     0.020 A 
ATOM     76  C   UNL A   1      44.853  26.786  37.636  1.00  0.00     0.020 A 
ATOM     77  C   UNL A   1      46.153  27.290  37.654  1.00  0.00     0.054 A 
BRANCH  77  78
ATOM     78  S   UNL A   1      47.386  26.598  38.793  1.00  0.00     0.124 S 
ATOM     79  O   UNL A   1      47.694  27.744  39.641  1.00  0.00    -0.237 OA
ATOM     80  O   UNL A   1      46.650  25.512  39.436  1.00  0.00    -0.237 OA
ATOM     81  O   UNL A   1      48.462  26.165  37.904  1.00  0.00    -0.744 OA
ENDBRANCH  77  78
ENDBRANCH  49  72
BRANCH  61  82
ATOM     82  C   UNL A   1      41.936  27.900  29.445  1.00  0.00    -0.014 A 
ATOM     83  C   UNL A   1      43.000  28.291  28.611  1.00  0.00     0.010 A 
ATOM     84  C   UNL A   1      41.279  26.683  29.191  1.00  0.00     0.010 A 
ATOM     85  C   UNL A   1      43.364  27.508  27.513  1.00  0.00     0.020 A 
ATOM     86  C   UNL A   1      41.657  25.883  28.108  1.00  0.00     0.020 A 
ATOM     87  C   UNL A   1      42.682  26.313  27.262  1.00  0.00     0.054 A 
BRANCH  87  88
ATOM     88  S   UNL A   1      43.167  25.308  25.832  1.00  0.00     0.124 S 
ATOM     89  O   UNL A   1      44.379  25.988  25.383  1.00  0.00    -0.237 OA
ATOM     90  O   UNL A   1      43.368  23.985  26.417  1.00  0.00    -0.237 OA
ATOM     91  O   UNL A   1      42.021  25.415  24.931  1.00  0.00    -0.744 OA
ENDBRANCH  87  88
ENDBRANCH  61  82
ENDBRANCH  35  36
ENDBRANCH  27  30
ENDBRANCH  25  26
ENDBRANCH  24  25
ENDBRANCH  23  24
ENDBRANCH  22  23
ENDBRANCH   1  22
TORSDOF 23
ENDMDL
