MODEL 1
REMARK VINA RESULT:     -10.2      0.000      0.000
REMARK SMILES Cc1ccc(S(=O)(=O)Nc2ccc(C(=O)CCC(=O)NCCCCCCNC(=O)c3ccc(-c4c5nc(c(-c6ccc(S(=O)(=O)[O-])cc6)c6ccc([nH]6)c(-c6ccc(S(=O)(=O)[O-])cc6)c6nc(c(-c7ccc(S(=O)(=O)[O-])cc7)c7ccc4[nH]7)C=C6)C=C5)cc3)cc2)c(C)c1
REMARK SMILES IDX 22 1 21 2 20 3 18 4 19 5 17 7 16 8 14 9 15 10 13 11 10 12
REMARK SMILES IDX 11 13 91 14 12 15 90 16 9 17 6 19 7 20 8 21 5 22 1 23 2 24
REMARK SMILES IDX 3 25 94 26 4 27 92 28 93 29 23 30 24 31 25 32 26 33 27 34
REMARK SMILES IDX 28 35 29 37 30 38 31 39 89 40 32 41 88 42 33 43 34 44 35 45
REMARK SMILES IDX 82 46 36 47 87 48 81 49 83 50 37 51 86 52 80 53 79 54 38 56
REMARK SMILES IDX 68 57 49 58 67 59 50 60 53 61 66 62 84 63 51 64 52 65 65 67
REMARK SMILES IDX 85 68 54 69 39 70 40 71 48 72 41 73 47 74 42 75 43 76 44 77
REMARK SMILES IDX 45 78 46 79 69 80 70 81 78 82 71 83 77 84 72 85 73 86 74 87
REMARK SMILES IDX 75 88 76 89 55 90 56 91 64 92 57 93 63 94 58 95 59 96 60 97
REMARK SMILES IDX 61 98 62 99
REMARK H PARENT 20 6 9 18 27 36 83 55 53 66
REMARK Flexibility Score: inf
ROOT
ATOM      1  C   UNL A   1      34.533  28.400  26.029  1.00  0.00     0.021 C 
ENDROOT
BRANCH   1   2
ATOM      2  C   UNL A   1      33.345  27.271  25.928  1.00  0.00     0.116 C 
BRANCH   2   3
ATOM      3  N   UNL A   1      33.422  26.714  24.557  1.00  0.00    -0.356 N 
ATOM      4  C   UNL A   1      33.287  25.393  24.185  1.00  0.00     0.220 C 
ATOM      5  O   UNL A   1      33.807  25.029  23.128  1.00  0.00    -0.275 OA
ATOM      6  H   UNL A   1      33.589  27.358  23.831  1.00  0.00     0.163 HD
BRANCH   4   7
ATOM      7  C   UNL A   1      32.522  24.396  25.076  1.00  0.00     0.108 C 
BRANCH   7   8
ATOM      8  C   UNL A   1      32.896  22.897  24.895  1.00  0.00     0.091 C 
BRANCH   8   9
ATOM      9  C   UNL A   1      34.126  22.375  25.695  1.00  0.00     0.163 C 
ATOM     10  O   UNL A   1      34.029  21.862  26.803  1.00  0.00    -0.294 OA
BRANCH   9  11
ATOM     11  C   UNL A   1      35.503  22.680  25.158  1.00  0.00     0.018 A 
ATOM     12  C   UNL A   1      39.041  22.537  26.038  1.00  0.00     0.049 A 
ATOM     13  C   UNL A   1      38.224  21.094  25.272  1.00  0.00     0.027 A 
ATOM     14  C   UNL A   1      38.104  24.035  26.313  1.00  0.00     0.027 A 
ATOM     15  C   UNL A   1      36.468  21.170  24.811  1.00  0.00     0.014 A 
ATOM     16  C   UNL A   1      36.338  24.104  25.866  1.00  0.00     0.014 A 
BRANCH  12  17
ATOM     17  N   UNL A   1      40.482  22.523  26.029  1.00  0.00    -0.280 N 
ATOM     18  H   UNL A   1      40.926  23.244  25.526  1.00  0.00     0.180 HD
BRANCH  17  19
ATOM     19  S   UNL A   1      41.478  21.415  26.780  1.00  0.00     0.262 S 
ATOM     20  O   UNL A   1      42.044  20.551  25.767  1.00  0.00    -0.201 OA
ATOM     21  O   UNL A   1      40.684  20.876  27.864  1.00  0.00    -0.201 OA
BRANCH  19  22
ATOM     22  C   UNL A   1      42.775  22.360  27.513  1.00  0.00     0.090 A 
ATOM     23  C   UNL A   1      44.458  25.884  29.188  1.00  0.00     0.044 C 
ATOM     24  C   UNL A   1      44.000  24.579  28.615  1.00  0.00    -0.051 A 
ATOM     25  C   UNL A   1      43.406  23.632  29.448  1.00  0.00     0.005 A 
ATOM     26  C   UNL A   1      44.179  24.280  27.257  1.00  0.00     0.008 A 
ATOM     27  C   UNL A   1      42.815  22.503  28.897  1.00  0.00     0.023 A 
ATOM     28  C   UNL A   1      43.576  23.153  26.688  1.00  0.00    -0.030 A 
ATOM     29  C   UNL A   1      43.909  22.742  25.281  1.00  0.00     0.046 C 
ENDBRANCH  19  22
ENDBRANCH  17  19
ENDBRANCH  12  17
ENDBRANCH   9  11
ENDBRANCH   8   9
ENDBRANCH   7   8
ENDBRANCH   4   7
ENDBRANCH   2   3
ENDBRANCH   1   2
BRANCH   1  30
ATOM     30  C   UNL A   1      35.600  29.629  27.463  1.00  0.00     0.002 C 
BRANCH  30  31
ATOM     31  C   UNL A   1      37.247  29.878  27.879  1.00  0.00     0.002 C 
BRANCH  31  32
ATOM     32  C   UNL A   1      38.272  28.769  27.679  1.00  0.00     0.021 C 
BRANCH  32  33
ATOM     33  C   UNL A   1      39.413  29.258  26.823  1.00  0.00     0.116 C 
BRANCH  33  34
ATOM     34  N   UNL A   1      40.356  28.176  26.514  1.00  0.00    -0.352 N 
ATOM     35  C   UNL A   1      41.467  27.790  27.227  1.00  0.00     0.251 C 
ATOM     36  H   UNL A   1      40.171  27.664  25.694  1.00  0.00     0.163 HD
ATOM     37  O   UNL A   1      42.306  27.038  26.749  1.00  0.00    -0.269 OA
BRANCH  35  38
ATOM     38  C   UNL A   1      41.609  28.339  28.584  1.00  0.00     0.039 A 
ATOM     39  C   UNL A   1      42.027  29.657  28.766  1.00  0.00     0.014 A 
ATOM     40  C   UNL A   1      41.153  27.565  29.652  1.00  0.00     0.014 A 
ATOM     41  C   UNL A   1      41.911  30.226  30.032  1.00  0.00     0.010 A 
ATOM     42  C   UNL A   1      40.894  28.178  30.859  1.00  0.00     0.010 A 
ATOM     43  C   UNL A   1      41.304  29.502  31.071  1.00  0.00    -0.014 A 
BRANCH  43  44
ATOM     44  C   UNL A   1      41.129  30.063  32.426  1.00  0.00     0.031 A 
ATOM     45  C   UNL A   1      39.916  30.910  32.700  1.00  0.00     0.074 A 
ATOM     46  C   UNL A   1      42.095  29.907  33.350  1.00  0.00     0.049 A 
ATOM     47  N   UNL A   1      39.615  31.597  33.768  1.00  0.00    -0.248 NA
ATOM     48  C   UNL A   1      38.934  31.042  31.606  1.00  0.00     0.031 C 
ATOM     49  C   UNL A   1      43.345  29.165  33.158  1.00  0.00     0.029 A 
ATOM     50  N   UNL A   1      42.185  30.382  34.632  1.00  0.00    -0.354 N 
ATOM     51  C   UNL A   1      38.438  32.268  33.457  1.00  0.00     0.074 A 
ATOM     52  C   UNL A   1      38.118  31.964  32.083  1.00  0.00     0.031 C 
ATOM     53  C   UNL A   1      44.064  29.216  34.290  1.00  0.00     0.029 A 
ATOM     54  C   UNL A   1      43.351  30.031  35.269  1.00  0.00     0.049 A 
ATOM     55  H   UNL A   1      41.482  30.925  35.056  1.00  0.00     0.167 HD
ATOM     56  C   UNL A   1      37.676  33.047  34.257  1.00  0.00     0.031 A 
ATOM     57  C   UNL A   1      43.800  30.347  36.499  1.00  0.00     0.031 A 
ATOM     58  C   UNL A   1      38.001  33.315  35.630  1.00  0.00     0.049 A 
ATOM     59  C   UNL A   1      42.931  31.200  37.382  1.00  0.00     0.074 A 
ATOM     60  C   UNL A   1      37.261  34.005  36.569  1.00  0.00     0.029 A 
ATOM     61  N   UNL A   1      39.173  32.907  36.254  1.00  0.00    -0.354 N 
ATOM     62  N   UNL A   1      41.762  31.733  37.114  1.00  0.00    -0.248 NA
ATOM     63  C   UNL A   1      43.436  31.491  38.729  1.00  0.00     0.031 C 
ATOM     64  C   UNL A   1      38.018  34.079  37.741  1.00  0.00     0.029 A 
ATOM     65  C   UNL A   1      39.199  33.376  37.554  1.00  0.00     0.049 A 
ATOM     66  H   UNL A   1      39.879  32.366  35.832  1.00  0.00     0.167 HD
ATOM     67  C   UNL A   1      41.386  32.421  38.262  1.00  0.00     0.074 A 
ATOM     68  C   UNL A   1      42.441  32.210  39.234  1.00  0.00     0.031 C 
ATOM     69  C   UNL A   1      40.275  33.163  38.491  1.00  0.00     0.031 A 
BRANCH  56  70
ATOM     70  C   UNL A   1      36.444  33.668  33.655  1.00  0.00    -0.014 A 
ATOM     71  C   UNL A   1      36.488  34.924  33.019  1.00  0.00     0.010 A 
ATOM     72  C   UNL A   1      35.216  32.986  33.732  1.00  0.00     0.010 A 
ATOM     73  C   UNL A   1      35.320  35.508  32.522  1.00  0.00     0.020 A 
ATOM     74  C   UNL A   1      34.052  33.551  33.204  1.00  0.00     0.020 A 
ATOM     75  C   UNL A   1      34.109  34.818  32.621  1.00  0.00     0.054 A 
BRANCH  75  76
ATOM     76  S   UNL A   1      32.612  35.596  31.958  1.00  0.00     0.124 S 
ATOM     77  O   UNL A   1      32.695  35.249  30.541  1.00  0.00    -0.237 OA
ATOM     78  O   UNL A   1      31.548  34.931  32.705  1.00  0.00    -0.237 OA
ATOM     79  O   UNL A   1      32.791  37.013  32.263  1.00  0.00    -0.744 OA
ENDBRANCH  75  76
ENDBRANCH  56  70
BRANCH  57  80
ATOM     80  C   UNL A   1      45.130  29.850  36.947  1.00  0.00    -0.014 A 
ATOM     81  C   UNL A   1      46.291  30.613  36.741  1.00  0.00     0.010 A 
ATOM     82  C   UNL A   1      45.229  28.630  37.645  1.00  0.00     0.010 A 
ATOM     83  C   UNL A   1      47.526  30.170  37.227  1.00  0.00     0.020 A 
ATOM     84  C   UNL A   1      46.456  28.198  38.156  1.00  0.00     0.020 A 
ATOM     85  C   UNL A   1      47.599  28.970  37.941  1.00  0.00     0.054 A 
BRANCH  85  86
ATOM     86  S   UNL A   1      49.194  28.462  38.641  1.00  0.00     0.124 S 
ATOM     87  O   UNL A   1      49.081  27.008  38.635  1.00  0.00    -0.237 OA
ATOM     88  O   UNL A   1      50.147  29.028  37.689  1.00  0.00    -0.237 OA
ATOM     89  O   UNL A   1      49.202  29.087  39.962  1.00  0.00    -0.744 OA
ENDBRANCH  85  86
ENDBRANCH  57  80
BRANCH  69  90
ATOM     90  C   UNL A   1      40.146  33.814  39.841  1.00  0.00    -0.014 A 
ATOM     91  C   UNL A   1      40.610  35.123  40.054  1.00  0.00     0.010 A 
ATOM     92  C   UNL A   1      39.469  33.144  40.875  1.00  0.00     0.010 A 
ATOM     93  C   UNL A   1      40.414  35.746  41.287  1.00  0.00     0.020 A 
ATOM     94  C   UNL A   1      39.244  33.776  42.100  1.00  0.00     0.020 A 
ATOM     95  C   UNL A   1      39.725  35.071  42.300  1.00  0.00     0.054 A 
BRANCH  95  96
ATOM     96  S   UNL A   1      39.422  35.933  43.866  1.00  0.00     0.124 S 
ATOM     97  O   UNL A   1      39.596  37.330  43.482  1.00  0.00    -0.237 OA
ATOM     98  O   UNL A   1      38.054  35.534  44.189  1.00  0.00    -0.237 OA
ATOM     99  O   UNL A   1      40.449  35.401  44.759  1.00  0.00    -0.744 OA
ENDBRANCH  95  96
ENDBRANCH  69  90
ENDBRANCH  43  44
ENDBRANCH  35  38
ENDBRANCH  33  34
ENDBRANCH  32  33
ENDBRANCH  31  32
ENDBRANCH  30  31
ENDBRANCH   1  30
TORSDOF 22
ENDMDL
MODEL 2
REMARK VINA RESULT:      -9.8      4.790     11.644
REMARK SMILES Cc1ccc(S(=O)(=O)Nc2ccc(C(=O)CCC(=O)NCCCCCCNC(=O)c3ccc(-c4c5nc(c(-c6ccc(S(=O)(=O)[O-])cc6)c6ccc([nH]6)c(-c6ccc(S(=O)(=O)[O-])cc6)c6nc(c(-c7ccc(S(=O)(=O)[O-])cc7)c7ccc4[nH]7)C=C6)C=C5)cc3)cc2)c(C)c1
REMARK SMILES IDX 22 1 21 2 20 3 18 4 19 5 17 7 16 8 14 9 15 10 13 11 10 12
REMARK SMILES IDX 11 13 91 14 12 15 90 16 9 17 6 19 7 20 8 21 5 22 1 23 2 24
REMARK SMILES IDX 3 25 94 26 4 27 92 28 93 29 23 30 24 31 25 32 26 33 27 34
REMARK SMILES IDX 28 35 29 37 30 38 31 39 89 40 32 41 88 42 33 43 34 44 35 45
REMARK SMILES IDX 82 46 36 47 87 48 81 49 83 50 37 51 86 52 80 53 79 54 38 56
REMARK SMILES IDX 68 57 49 58 67 59 50 60 53 61 66 62 84 63 51 64 52 65 65 67
REMARK SMILES IDX 85 68 54 69 39 70 40 71 48 72 41 73 47 74 42 75 43 76 44 77
REMARK SMILES IDX 45 78 46 79 69 80 70 81 78 82 71 83 77 84 72 85 73 86 74 87
REMARK SMILES IDX 75 88 76 89 55 90 56 91 64 92 57 93 63 94 58 95 59 96 60 97
REMARK SMILES IDX 61 98 62 99
REMARK H PARENT 20 6 9 18 27 36 83 55 53 66
REMARK Flexibility Score: inf
ROOT
ATOM      1  C   UNL A   1      40.894  26.449  26.503  1.00  0.00     0.021 C 
ENDROOT
BRANCH   1   2
ATOM      2  C   UNL A   1      42.417  26.098  26.000  1.00  0.00     0.116 C 
BRANCH   2   3
ATOM      3  N   UNL A   1      42.320  24.820  25.255  1.00  0.00    -0.356 N 
ATOM      4  C   UNL A   1      42.529  23.550  25.748  1.00  0.00     0.220 C 
ATOM      5  O   UNL A   1      42.852  22.662  24.955  1.00  0.00    -0.275 OA
ATOM      6  H   UNL A   1      42.080  24.886  24.303  1.00  0.00     0.163 HD
BRANCH   4   7
ATOM      7  C   UNL A   1      42.379  23.251  27.252  1.00  0.00     0.108 C 
BRANCH   7   8
ATOM      8  C   UNL A   1      40.926  23.023  27.757  1.00  0.00     0.091 C 
BRANCH   8   9
ATOM      9  C   UNL A   1      40.137  21.838  27.126  1.00  0.00     0.163 C 
ATOM     10  O   UNL A   1      40.405  20.665  27.353  1.00  0.00    -0.294 OA
BRANCH   9  11
ATOM     11  C   UNL A   1      39.123  22.152  26.052  1.00  0.00     0.018 A 
ATOM     12  C   UNL A   1      35.532  22.250  25.412  1.00  0.00     0.049 A 
ATOM     13  C   UNL A   1      36.383  23.707  26.112  1.00  0.00     0.027 A 
ATOM     14  C   UNL A   1      36.482  20.791  25.002  1.00  0.00     0.027 A 
ATOM     15  C   UNL A   1      38.175  23.671  26.410  1.00  0.00     0.014 A 
ATOM     16  C   UNL A   1      38.277  20.748  25.318  1.00  0.00     0.014 A 
BRANCH  12  17
ATOM     17  N   UNL A   1      34.217  22.486  24.874  1.00  0.00    -0.280 N 
ATOM     18  H   UNL A   1      33.460  22.126  25.389  1.00  0.00     0.180 HD
BRANCH  17  19
ATOM     19  S   UNL A   1      33.841  23.307  23.469  1.00  0.00     0.262 S 
ATOM     20  O   UNL A   1      32.839  22.548  22.753  1.00  0.00    -0.201 OA
ATOM     21  O   UNL A   1      35.120  23.614  22.866  1.00  0.00    -0.201 OA
BRANCH  19  22
ATOM     22  C   UNL A   1      33.135  24.838  23.987  1.00  0.00     0.090 A 
ATOM     23  C   UNL A   1      31.829  27.658  26.886  1.00  0.00     0.044 C 
ATOM     24  C   UNL A   1      32.238  26.759  25.760  1.00  0.00    -0.051 A 
ATOM     25  C   UNL A   1      33.533  26.840  25.251  1.00  0.00     0.005 A 
ATOM     26  C   UNL A   1      31.334  25.852  25.191  1.00  0.00     0.008 A 
ATOM     27  C   UNL A   1      33.975  25.890  24.339  1.00  0.00     0.023 A 
ATOM     28  C   UNL A   1      31.770  24.882  24.282  1.00  0.00    -0.030 A 
ATOM     29  C   UNL A   1      30.777  24.029  23.545  1.00  0.00     0.046 C 
ENDBRANCH  19  22
ENDBRANCH  17  19
ENDBRANCH  12  17
ENDBRANCH   9  11
ENDBRANCH   8   9
ENDBRANCH   7   8
ENDBRANCH   4   7
ENDBRANCH   2   3
ENDBRANCH   1   2
BRANCH   1  30
ATOM     30  C   UNL A   1      39.682  26.595  28.297  1.00  0.00     0.002 C 
BRANCH  30  31
ATOM     31  C   UNL A   1      38.965  27.872  29.191  1.00  0.00     0.002 C 
BRANCH  31  32
ATOM     32  C   UNL A   1      38.801  29.254  28.572  1.00  0.00     0.021 C 
BRANCH  32  33
ATOM     33  C   UNL A   1      39.541  30.285  29.386  1.00  0.00     0.116 C 
BRANCH  33  34
ATOM     34  N   UNL A   1      38.684  30.865  30.427  1.00  0.00    -0.352 N 
ATOM     35  C   UNL A   1      38.726  30.643  31.783  1.00  0.00     0.251 C 
ATOM     36  H   UNL A   1      37.991  31.492  30.115  1.00  0.00     0.163 HD
ATOM     37  O   UNL A   1      37.815  30.993  32.520  1.00  0.00    -0.269 OA
BRANCH  35  38
ATOM     38  C   UNL A   1      39.912  29.944  32.304  1.00  0.00     0.039 A 
ATOM     39  C   UNL A   1      39.850  28.582  32.596  1.00  0.00     0.014 A 
ATOM     40  C   UNL A   1      41.121  30.641  32.329  1.00  0.00     0.014 A 
ATOM     41  C   UNL A   1      41.037  27.897  32.843  1.00  0.00     0.010 A 
ATOM     42  C   UNL A   1      42.299  29.931  32.417  1.00  0.00     0.010 A 
ATOM     43  C   UNL A   1      42.268  28.561  32.711  1.00  0.00    -0.014 A 
BRANCH  43  44
ATOM     44  C   UNL A   1      43.559  27.879  32.933  1.00  0.00     0.031 A 
ATOM     45  C   UNL A   1      44.055  27.726  34.345  1.00  0.00     0.074 A 
ATOM     46  C   UNL A   1      44.316  27.510  31.883  1.00  0.00     0.049 A 
ATOM     47  N   UNL A   1      45.204  27.273  34.770  1.00  0.00    -0.248 NA
ATOM     48  C   UNL A   1      43.160  28.194  35.421  1.00  0.00     0.031 C 
ATOM     49  C   UNL A   1      43.955  27.683  30.472  1.00  0.00     0.029 A 
ATOM     50  N   UNL A   1      45.556  26.931  31.839  1.00  0.00    -0.354 N 
ATOM     51  C   UNL A   1      45.179  27.439  36.149  1.00  0.00     0.074 A 
ATOM     52  C   UNL A   1      43.939  28.097  36.484  1.00  0.00     0.031 C 
ATOM     53  C   UNL A   1      44.943  27.196  29.704  1.00  0.00     0.029 A 
ATOM     54  C   UNL A   1      46.024  26.723  30.564  1.00  0.00     0.049 A 
ATOM     55  H   UNL A   1      46.066  26.687  32.646  1.00  0.00     0.167 HD
ATOM     56  C   UNL A   1      46.099  27.051  37.061  1.00  0.00     0.031 A 
ATOM     57  C   UNL A   1      47.200  26.223  30.139  1.00  0.00     0.031 A 
ATOM     58  C   UNL A   1      47.315  26.374  36.708  1.00  0.00     0.049 A 
ATOM     59  C   UNL A   1      48.204  25.781  31.166  1.00  0.00     0.074 A 
ATOM     60  C   UNL A   1      48.277  25.844  37.544  1.00  0.00     0.029 A 
ATOM     61  N   UNL A   1      47.736  26.145  35.405  1.00  0.00    -0.354 N 
ATOM     62  N   UNL A   1      48.118  25.836  32.475  1.00  0.00    -0.248 NA
ATOM     63  C   UNL A   1      49.458  25.205  30.665  1.00  0.00     0.031 C 
ATOM     64  C   UNL A   1      49.318  25.358  36.747  1.00  0.00     0.029 A 
ATOM     65  C   UNL A   1      48.972  25.523  35.413  1.00  0.00     0.049 A 
ATOM     66  H   UNL A   1      47.231  26.388  34.596  1.00  0.00     0.167 HD
ATOM     67  C   UNL A   1      49.306  25.299  32.957  1.00  0.00     0.074 A 
ATOM     68  C   UNL A   1      50.079  24.898  31.798  1.00  0.00     0.031 C 
ATOM     69  C   UNL A   1      49.723  25.154  34.239  1.00  0.00     0.031 A 
BRANCH  56  70
ATOM     70  C   UNL A   1      45.825  27.370  38.506  1.00  0.00    -0.014 A 
ATOM     71  C   UNL A   1      46.225  28.592  39.080  1.00  0.00     0.010 A 
ATOM     72  C   UNL A   1      45.158  26.427  39.309  1.00  0.00     0.010 A 
ATOM     73  C   UNL A   1      46.013  28.841  40.438  1.00  0.00     0.020 A 
ATOM     74  C   UNL A   1      44.913  26.686  40.661  1.00  0.00     0.020 A 
ATOM     75  C   UNL A   1      45.361  27.883  41.221  1.00  0.00     0.054 A 
BRANCH  75  76
ATOM     76  S   UNL A   1      45.092  28.238  42.978  1.00  0.00     0.124 S 
ATOM     77  O   UNL A   1      45.098  29.699  42.995  1.00  0.00    -0.237 OA
ATOM     78  O   UNL A   1      43.798  27.613  43.235  1.00  0.00    -0.237 OA
ATOM     79  O   UNL A   1      46.229  27.604  43.640  1.00  0.00    -0.744 OA
ENDBRANCH  75  76
ENDBRANCH  56  70
BRANCH  57  80
ATOM     80  C   UNL A   1      47.472  26.125  28.678  1.00  0.00    -0.014 A 
ATOM     81  C   UNL A   1      47.066  24.997  27.944  1.00  0.00     0.010 A 
ATOM     82  C   UNL A   1      48.085  27.196  28.001  1.00  0.00     0.010 A 
ATOM     83  C   UNL A   1      47.264  24.944  26.560  1.00  0.00     0.020 A 
ATOM     84  C   UNL A   1      48.259  27.158  26.615  1.00  0.00     0.020 A 
ATOM     85  C   UNL A   1      47.850  26.030  25.902  1.00  0.00     0.054 A 
BRANCH  85  86
ATOM     86  S   UNL A   1      48.012  25.976  24.096  1.00  0.00     0.124 S 
ATOM     87  O   UNL A   1      47.530  24.635  23.786  1.00  0.00    -0.237 OA
ATOM     88  O   UNL A   1      47.147  27.075  23.672  1.00  0.00    -0.237 OA
ATOM     89  O   UNL A   1      49.439  26.198  23.874  1.00  0.00    -0.744 OA
ENDBRANCH  85  86
ENDBRANCH  57  80
BRANCH  69  90
ATOM     90  C   UNL A   1      51.082  24.548  34.459  1.00  0.00    -0.014 A 
ATOM     91  C   UNL A   1      52.225  25.361  34.552  1.00  0.00     0.010 A 
ATOM     92  C   UNL A   1      51.201  23.163  34.668  1.00  0.00     0.010 A 
ATOM     93  C   UNL A   1      53.468  24.795  34.835  1.00  0.00     0.020 A 
ATOM     94  C   UNL A   1      52.439  22.598  34.981  1.00  0.00     0.020 A 
ATOM     95  C   UNL A   1      53.566  23.418  35.055  1.00  0.00     0.054 A 
BRANCH  95  96
ATOM     96  S   UNL A   1      55.182  22.722  35.493  1.00  0.00     0.124 S 
ATOM     97  O   UNL A   1      54.901  21.289  35.510  1.00  0.00    -0.237 OA
ATOM     98  O   UNL A   1      56.034  23.183  34.400  1.00  0.00    -0.237 OA
ATOM     99  O   UNL A   1      55.473  23.315  36.797  1.00  0.00    -0.744 OA
ENDBRANCH  95  96
ENDBRANCH  69  90
ENDBRANCH  43  44
ENDBRANCH  35  38
ENDBRANCH  33  34
ENDBRANCH  32  33
ENDBRANCH  31  32
ENDBRANCH  30  31
ENDBRANCH   1  30
TORSDOF 22
ENDMDL
MODEL 3
REMARK VINA RESULT:      -9.5      6.097      8.080
REMARK SMILES Cc1ccc(S(=O)(=O)Nc2ccc(C(=O)CCC(=O)NCCCCCCNC(=O)c3ccc(-c4c5nc(c(-c6ccc(S(=O)(=O)[O-])cc6)c6ccc([nH]6)c(-c6ccc(S(=O)(=O)[O-])cc6)c6nc(c(-c7ccc(S(=O)(=O)[O-])cc7)c7ccc4[nH]7)C=C6)C=C5)cc3)cc2)c(C)c1
REMARK SMILES IDX 22 1 21 2 20 3 18 4 19 5 17 7 16 8 14 9 15 10 13 11 10 12
REMARK SMILES IDX 11 13 91 14 12 15 90 16 9 17 6 19 7 20 8 21 5 22 1 23 2 24
REMARK SMILES IDX 3 25 94 26 4 27 92 28 93 29 23 30 24 31 25 32 26 33 27 34
REMARK SMILES IDX 28 35 29 37 30 38 31 39 89 40 32 41 88 42 33 43 34 44 35 45
REMARK SMILES IDX 82 46 36 47 87 48 81 49 83 50 37 51 86 52 80 53 79 54 38 56
REMARK SMILES IDX 68 57 49 58 67 59 50 60 53 61 66 62 84 63 51 64 52 65 65 67
REMARK SMILES IDX 85 68 54 69 39 70 40 71 48 72 41 73 47 74 42 75 43 76 44 77
REMARK SMILES IDX 45 78 46 79 69 80 70 81 78 82 71 83 77 84 72 85 73 86 74 87
REMARK SMILES IDX 75 88 76 89 55 90 56 91 64 92 57 93 63 94 58 95 59 96 60 97
REMARK SMILES IDX 61 98 62 99
REMARK H PARENT 20 6 9 18 27 36 83 55 53 66
REMARK Flexibility Score: inf
ROOT
ATOM      1  C   UNL A   1      33.247  27.118  25.435  1.00  0.00     0.021 C 
ENDROOT
BRANCH   1   2
ATOM      2  C   UNL A   1      32.910  25.523  25.636  1.00  0.00     0.116 C 
BRANCH   2   3
ATOM      3  N   UNL A   1      32.740  24.964  24.273  1.00  0.00    -0.356 N 
ATOM      4  C   UNL A   1      32.520  23.646  23.935  1.00  0.00     0.220 C 
ATOM      5  O   UNL A   1      32.843  23.273  22.805  1.00  0.00    -0.275 OA
ATOM      6  H   UNL A   1      32.790  25.605  23.528  1.00  0.00     0.163 HD
BRANCH   4   7
ATOM      7  C   UNL A   1      31.903  22.663  24.948  1.00  0.00     0.108 C 
BRANCH   7   8
ATOM      8  C   UNL A   1      32.714  21.362  25.212  1.00  0.00     0.091 C 
BRANCH   8   9
ATOM      9  C   UNL A   1      34.002  21.497  26.076  1.00  0.00     0.163 C 
ATOM     10  O   UNL A   1      33.996  21.409  27.297  1.00  0.00    -0.294 OA
BRANCH   9  11
ATOM     11  C   UNL A   1      35.274  21.934  25.390  1.00  0.00     0.018 A 
ATOM     12  C   UNL A   1      38.868  22.276  25.917  1.00  0.00     0.049 A 
ATOM     13  C   UNL A   1      38.173  20.700  25.309  1.00  0.00     0.027 A 
ATOM     14  C   UNL A   1      37.778  23.662  26.210  1.00  0.00     0.027 A 
ATOM     15  C   UNL A   1      36.386  20.533  25.022  1.00  0.00     0.014 A 
ATOM     16  C   UNL A   1      35.984  23.489  25.940  1.00  0.00     0.014 A 
BRANCH  12  17
ATOM     17  N   UNL A   1      40.292  22.437  25.764  1.00  0.00    -0.280 N 
ATOM     18  H   UNL A   1      40.637  22.444  24.842  1.00  0.00     0.180 HD
BRANCH  17  19
ATOM     19  S   UNL A   1      41.417  22.611  26.985  1.00  0.00     0.262 S 
ATOM     20  O   UNL A   1      40.823  22.150  28.221  1.00  0.00    -0.201 OA
ATOM     21  O   UNL A   1      41.904  23.967  26.849  1.00  0.00    -0.201 OA
BRANCH  19  22
ATOM     22  C   UNL A   1      42.751  21.539  26.559  1.00  0.00     0.090 A 
ATOM     23  C   UNL A   1      45.164  19.334  23.844  1.00  0.00     0.044 C 
ATOM     24  C   UNL A   1      44.398  20.053  24.910  1.00  0.00    -0.051 A 
ATOM     25  C   UNL A   1      44.763  21.351  25.263  1.00  0.00     0.005 A 
ATOM     26  C   UNL A   1      43.332  19.436  25.580  1.00  0.00     0.008 A 
ATOM     27  C   UNL A   1      43.950  22.088  26.114  1.00  0.00     0.023 A 
ATOM     28  C   UNL A   1      42.498  20.172  26.428  1.00  0.00    -0.030 A 
ATOM     29  C   UNL A   1      41.469  19.476  27.274  1.00  0.00     0.046 C 
ENDBRANCH  19  22
ENDBRANCH  17  19
ENDBRANCH  12  17
ENDBRANCH   9  11
ENDBRANCH   8   9
ENDBRANCH   7   8
ENDBRANCH   4   7
ENDBRANCH   2   3
ENDBRANCH   1   2
BRANCH   1  30
ATOM     30  C   UNL A   1      34.332  28.759  26.349  1.00  0.00     0.002 C 
BRANCH  30  31
ATOM     31  C   UNL A   1      34.364  29.495  27.899  1.00  0.00     0.002 C 
BRANCH  31  32
ATOM     32  C   UNL A   1      35.074  30.825  28.111  1.00  0.00     0.021 C 
BRANCH  32  33
ATOM     33  C   UNL A   1      36.330  30.627  28.922  1.00  0.00     0.116 C 
BRANCH  33  34
ATOM     34  N   UNL A   1      37.270  29.725  28.246  1.00  0.00    -0.352 N 
ATOM     35  C   UNL A   1      38.644  29.774  28.250  1.00  0.00     0.251 C 
ATOM     36  H   UNL A   1      36.867  28.995  27.724  1.00  0.00     0.163 HD
ATOM     37  O   UNL A   1      39.312  29.120  27.460  1.00  0.00    -0.269 OA
BRANCH  35  38
ATOM     38  C   UNL A   1      39.274  30.667  29.235  1.00  0.00     0.039 A 
ATOM     39  C   UNL A   1      40.480  30.308  29.835  1.00  0.00     0.014 A 
ATOM     40  C   UNL A   1      38.721  31.936  29.412  1.00  0.00     0.014 A 
ATOM     41  C   UNL A   1      41.177  31.269  30.563  1.00  0.00     0.010 A 
ATOM     42  C   UNL A   1      39.487  32.922  29.997  1.00  0.00     0.010 A 
ATOM     43  C   UNL A   1      40.703  32.590  30.609  1.00  0.00    -0.014 A 
BRANCH  43  44
ATOM     44  C   UNL A   1      41.413  33.658  31.342  1.00  0.00     0.031 A 
ATOM     45  C   UNL A   1      41.232  33.747  32.833  1.00  0.00     0.074 A 
ATOM     46  C   UNL A   1      42.111  34.590  30.666  1.00  0.00     0.049 A 
ATOM     47  N   UNL A   1      41.658  34.662  33.662  1.00  0.00    -0.248 NA
ATOM     48  C   UNL A   1      40.421  32.692  33.470  1.00  0.00     0.031 C 
ATOM     49  C   UNL A   1      42.285  34.633  29.211  1.00  0.00     0.029 A 
ATOM     50  N   UNL A   1      42.789  35.693  31.114  1.00  0.00    -0.354 N 
ATOM     51  C   UNL A   1      41.133  34.312  34.900  1.00  0.00     0.074 A 
ATOM     52  C   UNL A   1      40.303  33.148  34.705  1.00  0.00     0.031 C 
ATOM     53  C   UNL A   1      43.042  35.695  28.891  1.00  0.00     0.029 A 
ATOM     54  C   UNL A   1      43.365  36.432  30.109  1.00  0.00     0.049 A 
ATOM     55  H   UNL A   1      42.855  35.934  32.066  1.00  0.00     0.167 HD
ATOM     56  C   UNL A   1      41.347  34.896  36.100  1.00  0.00     0.031 A 
ATOM     57  C   UNL A   1      44.062  37.583  30.165  1.00  0.00     0.031 A 
ATOM     58  C   UNL A   1      42.198  36.039  36.275  1.00  0.00     0.049 A 
ATOM     59  C   UNL A   1      44.305  38.209  31.510  1.00  0.00     0.074 A 
ATOM     60  C   UNL A   1      42.572  36.660  37.450  1.00  0.00     0.029 A 
ATOM     61  N   UNL A   1      42.798  36.738  35.236  1.00  0.00    -0.354 N 
ATOM     62  N   UNL A   1      43.900  37.801  32.691  1.00  0.00    -0.248 NA
ATOM     63  C   UNL A   1      45.100  39.442  31.535  1.00  0.00     0.031 C 
ATOM     64  C   UNL A   1      43.341  37.779  37.118  1.00  0.00     0.029 A 
ATOM     65  C   UNL A   1      43.502  37.816  35.740  1.00  0.00     0.049 A 
ATOM     66  H   UNL A   1      42.733  36.500  34.283  1.00  0.00     0.167 HD
ATOM     67  C   UNL A   1      44.394  38.726  33.602  1.00  0.00     0.074 A 
ATOM     68  C   UNL A   1      45.153  39.697  32.837  1.00  0.00     0.031 C 
ATOM     69  C   UNL A   1      44.232  38.774  34.948  1.00  0.00     0.031 A 
BRANCH  56  70
ATOM     70  C   UNL A   1      40.636  34.315  37.293  1.00  0.00    -0.014 A 
ATOM     71  C   UNL A   1      41.242  33.340  38.108  1.00  0.00     0.010 A 
ATOM     72  C   UNL A   1      39.335  34.750  37.604  1.00  0.00     0.010 A 
ATOM     73  C   UNL A   1      40.541  32.772  39.175  1.00  0.00     0.020 A 
ATOM     74  C   UNL A   1      38.643  34.210  38.692  1.00  0.00     0.020 A 
ATOM     75  C   UNL A   1      39.244  33.209  39.458  1.00  0.00     0.054 A 
BRANCH  75  76
ATOM     76  S   UNL A   1      38.362  32.462  40.854  1.00  0.00     0.124 S 
ATOM     77  O   UNL A   1      39.314  31.449  41.304  1.00  0.00    -0.237 OA
ATOM     78  O   UNL A   1      38.177  33.594  41.758  1.00  0.00    -0.237 OA
ATOM     79  O   UNL A   1      37.136  31.941  40.254  1.00  0.00    -0.744 OA
ENDBRANCH  75  76
ENDBRANCH  56  70
BRANCH  57  80
ATOM     80  C   UNL A   1      44.565  38.200  28.907  1.00  0.00    -0.014 A 
ATOM     81  C   UNL A   1      43.881  39.270  28.305  1.00  0.00     0.010 A 
ATOM     82  C   UNL A   1      45.775  37.757  28.339  1.00  0.00     0.010 A 
ATOM     83  C   UNL A   1      44.399  39.889  27.162  1.00  0.00     0.020 A 
ATOM     84  C   UNL A   1      46.309  38.391  27.214  1.00  0.00     0.020 A 
ATOM     85  C   UNL A   1      45.616  39.452  26.630  1.00  0.00     0.054 A 
BRANCH  85  86
ATOM     86  S   UNL A   1      46.313  40.329  25.203  1.00  0.00     0.124 S 
ATOM     87  O   UNL A   1      47.269  41.231  25.836  1.00  0.00    -0.237 OA
ATOM     88  O   UNL A   1      46.890  39.241  24.418  1.00  0.00    -0.237 OA
ATOM     89  O   UNL A   1      45.149  40.973  24.596  1.00  0.00    -0.744 OA
ENDBRANCH  85  86
ENDBRANCH  57  80
BRANCH  69  90
ATOM     90  C   UNL A   1      44.877  39.919  35.681  1.00  0.00    -0.014 A 
ATOM     91  C   UNL A   1      46.189  39.809  36.172  1.00  0.00     0.010 A 
ATOM     92  C   UNL A   1      44.196  41.144  35.795  1.00  0.00     0.010 A 
ATOM     93  C   UNL A   1      46.805  40.903  36.781  1.00  0.00     0.020 A 
ATOM     94  C   UNL A   1      44.821  42.249  36.375  1.00  0.00     0.020 A 
ATOM     95  C   UNL A   1      46.119  42.119  36.872  1.00  0.00     0.054 A 
BRANCH  95  96
ATOM     96  S   UNL A   1      46.971  43.543  37.602  1.00  0.00     0.124 S 
ATOM     97  O   UNL A   1      46.430  44.653  36.823  1.00  0.00    -0.237 OA
ATOM     98  O   UNL A   1      46.547  43.487  38.998  1.00  0.00    -0.237 OA
ATOM     99  O   UNL A   1      48.386  43.255  37.373  1.00  0.00    -0.744 OA
ENDBRANCH  95  96
ENDBRANCH  69  90
ENDBRANCH  43  44
ENDBRANCH  35  38
ENDBRANCH  33  34
ENDBRANCH  32  33
ENDBRANCH  31  32
ENDBRANCH  30  31
ENDBRANCH   1  30
TORSDOF 22
ENDMDL
