MODEL 1
REMARK VINA RESULT:     -11.2      0.000      0.000
REMARK SMILES Cc1cc(F)cc(NC(=O)N[C@@H]2COC[C@H]2C(=O)NCCCCCCNC(=O)c2ccc(-c3c4nc(c(-c5ccc(S(=O)(=O)[O-])cc5)c5ccc([nH]5)c(-c5ccc(S(=O)(=O)[O-])cc5)c5nc(c(-c6ccc(S(=O)(=O)[O-])cc6)c6ccc3[nH]6)C=C5)C=C4)cc2)c1
REMARK SMILES IDX 23 1 22 2 21 3 20 4 19 5 17 6 18 7 16 9 12 10 13 11 14 12
REMARK SMILES IDX 15 13 11 14 8 15 9 16 10 18 7 20 1 21 2 22 3 23 89 24 4 25
REMARK SMILES IDX 5 26 6 27 24 28 25 29 26 30 27 31 28 33 29 34 30 35 88 36
REMARK SMILES IDX 31 37 87 38 32 39 33 40 34 41 81 42 35 43 86 44 80 45 82 46
REMARK SMILES IDX 36 47 85 48 79 49 78 50 37 52 67 53 48 54 66 55 49 56 52 57
REMARK SMILES IDX 65 58 83 59 50 60 51 61 64 63 84 64 53 65 38 66 39 67 47 68
REMARK SMILES IDX 40 69 46 70 41 71 42 72 43 73 44 74 45 75 68 76 69 77 77 78
REMARK SMILES IDX 70 79 76 80 71 81 72 82 73 83 74 84 75 85 54 86 55 87 63 88
REMARK SMILES IDX 56 89 62 90 57 91 58 92 59 93 60 94 61 95
REMARK H PARENT 19 8 8 17 11 19 26 32 82 51 52 62
REMARK Flexibility Score: inf
ROOT
ATOM      1  C   UNL A   1      31.966  28.804  24.854  1.00  0.00     0.002 C 
ENDROOT
BRANCH   1   2
ATOM      2  C   UNL A   1      31.493  28.411  23.451  1.00  0.00     0.002 C 
BRANCH   2   3
ATOM      3  C   UNL A   1      30.034  27.965  23.384  1.00  0.00     0.021 C 
BRANCH   3   4
ATOM      4  C   UNL A   1      29.871  26.465  23.555  1.00  0.00     0.116 C 
BRANCH   4   5
ATOM      5  N   UNL A   1      29.465  26.136  24.907  1.00  0.00    -0.356 N 
ATOM      6  C   UNL A   1      29.921  25.179  25.757  1.00  0.00     0.227 C 
ATOM      7  O   UNL A   1      29.346  25.060  26.843  1.00  0.00    -0.275 OA
ATOM      8  H   UNL A   1      28.740  26.698  25.267  1.00  0.00     0.163 HD
BRANCH   6   9
ATOM      9  C   UNL A   1      31.094  24.281  25.400  1.00  0.00     0.129 C 
ATOM     10  C   UNL A   1      32.425  25.006  25.375  1.00  0.00     0.124 C 
ATOM     11  C   UNL A   1      33.343  24.277  26.348  1.00  0.00     0.186 C 
ATOM     12  O   UNL A   1      32.579  23.234  26.978  1.00  0.00    -0.378 OA
ATOM     13  C   UNL A   1      31.251  23.171  26.427  1.00  0.00     0.176 C 
BRANCH  10  14
ATOM     14  N   UNL A   1      32.992  25.343  24.058  1.00  0.00    -0.332 N 
ATOM     15  N   UNL A   1      34.509  23.854  22.897  1.00  0.00    -0.308 N 
ATOM     16  C   UNL A   1      33.763  24.943  23.060  1.00  0.00     0.319 C 
ATOM     17  H   UNL A   1      34.828  23.813  21.966  1.00  0.00     0.171 HD
ATOM     18  O   UNL A   1      33.762  25.721  22.090  1.00  0.00    -0.248 OA
ATOM     19  H   UNL A   1      32.659  26.239  23.822  1.00  0.00     0.165 HD
BRANCH  15  20
ATOM     20  C   UNL A   1      34.993  22.747  23.605  1.00  0.00     0.046 A 
ATOM     21  C   UNL A   1      33.553  19.574  25.203  1.00  0.00     0.044 C 
ATOM     22  C   UNL A   1      34.511  20.630  24.747  1.00  0.00    -0.046 A 
ATOM     23  C   UNL A   1      35.864  20.475  25.047  1.00  0.00     0.042 A 
ATOM     24  C   UNL A   1      34.080  21.774  24.041  1.00  0.00     0.029 A 
ATOM     25  C   UNL A   1      36.757  21.419  24.594  1.00  0.00     0.125 A 
ATOM     26  F   UNL A   1      38.062  21.282  24.857  1.00  0.00    -0.207 F 
ATOM     27  C   UNL A   1      36.318  22.514  23.864  1.00  0.00     0.065 A 
ENDBRANCH  15  20
ENDBRANCH  10  14
ENDBRANCH   6   9
ENDBRANCH   4   5
ENDBRANCH   3   4
ENDBRANCH   2   3
ENDBRANCH   1   2
BRANCH   1  28
ATOM     28  C   UNL A   1      33.458  28.571  25.116  1.00  0.00     0.021 C 
BRANCH  28  29
ATOM     29  C   UNL A   1      33.855  28.686  26.581  1.00  0.00     0.116 C 
BRANCH  29  30
ATOM     30  N   UNL A   1      33.723  30.053  27.060  1.00  0.00    -0.352 N 
ATOM     31  C   UNL A   1      34.537  30.729  27.927  1.00  0.00     0.251 C 
ATOM     32  H   UNL A   1      32.949  30.554  26.717  1.00  0.00     0.163 HD
ATOM     33  O   UNL A   1      34.174  31.784  28.437  1.00  0.00    -0.269 OA
BRANCH  31  34
ATOM     34  C   UNL A   1      35.855  30.152  28.244  1.00  0.00     0.039 A 
ATOM     35  C   UNL A   1      36.868  30.200  27.287  1.00  0.00     0.014 A 
ATOM     36  C   UNL A   1      36.092  29.618  29.516  1.00  0.00     0.014 A 
ATOM     37  C   UNL A   1      38.146  29.756  27.625  1.00  0.00     0.010 A 
ATOM     38  C   UNL A   1      37.381  29.246  29.871  1.00  0.00     0.010 A 
ATOM     39  C   UNL A   1      38.419  29.309  28.929  1.00  0.00    -0.014 A 
BRANCH  39  40
ATOM     40  C   UNL A   1      39.787  28.914  29.338  1.00  0.00     0.031 A 
ATOM     41  C   UNL A   1      40.676  29.911  30.029  1.00  0.00     0.074 A 
ATOM     42  C   UNL A   1      40.252  27.693  29.009  1.00  0.00     0.049 A 
ATOM     43  N   UNL A   1      41.930  29.791  30.376  1.00  0.00    -0.248 NA
ATOM     44  C   UNL A   1      40.089  31.225  30.346  1.00  0.00     0.031 C 
ATOM     45  C   UNL A   1      39.493  26.659  28.300  1.00  0.00     0.029 A 
ATOM     46  N   UNL A   1      41.482  27.119  29.208  1.00  0.00    -0.354 N 
ATOM     47  C   UNL A   1      42.290  31.015  30.924  1.00  0.00     0.074 A 
ATOM     48  C   UNL A   1      41.133  31.878  30.835  1.00  0.00     0.031 C 
ATOM     49  C   UNL A   1      40.270  25.577  28.135  1.00  0.00     0.029 A 
ATOM     50  C   UNL A   1      41.595  25.854  28.680  1.00  0.00     0.049 A 
ATOM     51  H   UNL A   1      42.217  27.572  29.685  1.00  0.00     0.167 HD
ATOM     52  C   UNL A   1      43.477  31.383  31.461  1.00  0.00     0.031 A 
ATOM     53  C   UNL A   1      42.652  25.021  28.620  1.00  0.00     0.031 A 
ATOM     54  C   UNL A   1      44.615  30.509  31.565  1.00  0.00     0.049 A 
ATOM     55  C   UNL A   1      43.961  25.461  29.220  1.00  0.00     0.074 A 
ATOM     56  C   UNL A   1      45.832  30.757  32.174  1.00  0.00     0.029 A 
ATOM     57  N   UNL A   1      44.682  29.228  31.042  1.00  0.00    -0.354 N 
ATOM     58  N   UNL A   1      44.252  26.588  29.826  1.00  0.00    -0.248 NA
ATOM     59  C   UNL A   1      45.083  24.516  29.134  1.00  0.00     0.031 C 
ATOM     60  C   UNL A   1      46.660  29.652  31.957  1.00  0.00     0.029 A 
ATOM     61  C   UNL A   1      45.935  28.689  31.274  1.00  0.00     0.049 A 
ATOM     62  H   UNL A   1      43.947  28.768  30.573  1.00  0.00     0.167 HD
ATOM     63  C   UNL A   1      45.582  26.477  30.213  1.00  0.00     0.074 A 
ATOM     64  C   UNL A   1      46.032  25.166  29.794  1.00  0.00     0.031 C 
ATOM     65  C   UNL A   1      46.364  27.380  30.854  1.00  0.00     0.031 A 
BRANCH  52  66
ATOM     66  C   UNL A   1      43.621  32.793  31.967  1.00  0.00    -0.014 A 
ATOM     67  C   UNL A   1      44.011  33.841  31.115  1.00  0.00     0.010 A 
ATOM     68  C   UNL A   1      43.275  33.087  33.299  1.00  0.00     0.010 A 
ATOM     69  C   UNL A   1      44.070  35.153  31.591  1.00  0.00     0.020 A 
ATOM     70  C   UNL A   1      43.307  34.400  33.772  1.00  0.00     0.020 A 
ATOM     71  C   UNL A   1      43.713  35.426  32.915  1.00  0.00     0.054 A 
BRANCH  71  72
ATOM     72  S   UNL A   1      43.739  37.147  33.486  1.00  0.00     0.124 S 
ATOM     73  O   UNL A   1      43.759  37.883  32.224  1.00  0.00    -0.237 OA
ATOM     74  O   UNL A   1      42.500  37.247  34.252  1.00  0.00    -0.237 OA
ATOM     75  O   UNL A   1      44.966  37.234  34.275  1.00  0.00    -0.744 OA
ENDBRANCH  71  72
ENDBRANCH  52  66
BRANCH  53  76
ATOM     76  C   UNL A   1      42.529  23.698  27.947  1.00  0.00    -0.014 A 
ATOM     77  C   UNL A   1      42.213  22.543  28.681  1.00  0.00     0.010 A 
ATOM     78  C   UNL A   1      42.752  23.586  26.561  1.00  0.00     0.010 A 
ATOM     79  C   UNL A   1      42.160  21.295  28.052  1.00  0.00     0.020 A 
ATOM     80  C   UNL A   1      42.667  22.346  25.923  1.00  0.00     0.020 A 
ATOM     81  C   UNL A   1      42.390  21.205  26.677  1.00  0.00     0.054 A 
BRANCH  81  82
ATOM     82  S   UNL A   1      42.301  19.578  25.878  1.00  0.00     0.124 S 
ATOM     83  O   UNL A   1      43.320  19.695  24.840  1.00  0.00    -0.237 OA
ATOM     84  O   UNL A   1      42.616  18.669  26.977  1.00  0.00    -0.237 OA
ATOM     85  O   UNL A   1      40.922  19.509  25.397  1.00  0.00    -0.744 OA
ENDBRANCH  81  82
ENDBRANCH  53  76
BRANCH  65  86
ATOM     86  C   UNL A   1      47.779  26.975  31.169  1.00  0.00    -0.014 A 
ATOM     87  C   UNL A   1      48.100  26.326  32.374  1.00  0.00     0.010 A 
ATOM     88  C   UNL A   1      48.789  27.183  30.211  1.00  0.00     0.010 A 
ATOM     89  C   UNL A   1      49.411  25.917  32.627  1.00  0.00     0.020 A 
ATOM     90  C   UNL A   1      50.094  26.746  30.447  1.00  0.00     0.020 A 
ATOM     91  C   UNL A   1      50.399  26.125  31.659  1.00  0.00     0.054 A 
BRANCH  91  92
ATOM     92  S   UNL A   1      52.080  25.531  31.988  1.00  0.00     0.124 S 
ATOM     93  O   UNL A   1      51.868  24.097  32.160  1.00  0.00    -0.237 OA
ATOM     94  O   UNL A   1      52.799  25.920  30.777  1.00  0.00    -0.237 OA
ATOM     95  O   UNL A   1      52.473  26.252  33.197  1.00  0.00    -0.744 OA
ENDBRANCH  91  92
ENDBRANCH  65  86
ENDBRANCH  39  40
ENDBRANCH  31  34
ENDBRANCH  29  30
ENDBRANCH  28  29
ENDBRANCH   1  28
TORSDOF 18
ENDMDL
MODEL 2
REMARK VINA RESULT:     -11.1      3.886      9.386
REMARK SMILES Cc1cc(F)cc(NC(=O)N[C@@H]2COC[C@H]2C(=O)NCCCCCCNC(=O)c2ccc(-c3c4nc(c(-c5ccc(S(=O)(=O)[O-])cc5)c5ccc([nH]5)c(-c5ccc(S(=O)(=O)[O-])cc5)c5nc(c(-c6ccc(S(=O)(=O)[O-])cc6)c6ccc3[nH]6)C=C5)C=C4)cc2)c1
REMARK SMILES IDX 23 1 22 2 21 3 20 4 19 5 17 6 18 7 16 9 12 10 13 11 14 12
REMARK SMILES IDX 15 13 11 14 8 15 9 16 10 18 7 20 1 21 2 22 3 23 89 24 4 25
REMARK SMILES IDX 5 26 6 27 24 28 25 29 26 30 27 31 28 33 29 34 30 35 88 36
REMARK SMILES IDX 31 37 87 38 32 39 33 40 34 41 81 42 35 43 86 44 80 45 82 46
REMARK SMILES IDX 36 47 85 48 79 49 78 50 37 52 67 53 48 54 66 55 49 56 52 57
REMARK SMILES IDX 65 58 83 59 50 60 51 61 64 63 84 64 53 65 38 66 39 67 47 68
REMARK SMILES IDX 40 69 46 70 41 71 42 72 43 73 44 74 45 75 68 76 69 77 77 78
REMARK SMILES IDX 70 79 76 80 71 81 72 82 73 83 74 84 75 85 54 86 55 87 63 88
REMARK SMILES IDX 56 89 62 90 57 91 58 92 59 93 60 94 61 95
REMARK H PARENT 19 8 8 17 11 19 26 32 82 51 52 62
REMARK Flexibility Score: inf
ROOT
ATOM      1  C   UNL A   1      31.765  30.380  25.808  1.00  0.00     0.002 C 
ENDROOT
BRANCH   1   2
ATOM      2  C   UNL A   1      32.086  28.991  26.370  1.00  0.00     0.002 C 
BRANCH   2   3
ATOM      3  C   UNL A   1      33.322  28.338  25.757  1.00  0.00     0.021 C 
BRANCH   3   4
ATOM      4  C   UNL A   1      33.478  26.882  26.161  1.00  0.00     0.116 C 
BRANCH   4   5
ATOM      5  N   UNL A   1      34.064  26.103  25.089  1.00  0.00    -0.356 N 
ATOM      6  C   UNL A   1      34.409  24.789  25.038  1.00  0.00     0.227 C 
ATOM      7  O   UNL A   1      34.966  24.385  24.015  1.00  0.00    -0.275 OA
ATOM      8  H   UNL A   1      34.243  26.609  24.262  1.00  0.00     0.163 HD
BRANCH   6   9
ATOM      9  C   UNL A   1      34.123  23.841  26.191  1.00  0.00     0.129 C 
ATOM     10  C   UNL A   1      32.971  22.892  25.922  1.00  0.00     0.124 C 
ATOM     11  C   UNL A   1      33.515  21.479  26.094  1.00  0.00     0.186 C 
ATOM     12  O   UNL A   1      34.924  21.578  26.365  1.00  0.00    -0.378 OA
ATOM     13  C   UNL A   1      35.328  22.956  26.467  1.00  0.00     0.176 C 
BRANCH  10  14
ATOM     14  N   UNL A   1      31.681  23.188  26.568  1.00  0.00    -0.332 N 
ATOM     15  N   UNL A   1      30.041  24.648  25.544  1.00  0.00    -0.308 N 
ATOM     16  C   UNL A   1      30.523  23.820  26.468  1.00  0.00     0.319 C 
ATOM     17  H   UNL A   1      29.085  24.808  25.717  1.00  0.00     0.171 HD
ATOM     18  O   UNL A   1      29.739  23.569  27.399  1.00  0.00    -0.248 OA
ATOM     19  H   UNL A   1      31.679  22.721  27.434  1.00  0.00     0.165 HD
BRANCH  15  20
ATOM     20  C   UNL A   1      30.437  25.366  24.410  1.00  0.00     0.046 A 
ATOM     21  C   UNL A   1      29.874  28.866  22.951  1.00  0.00     0.044 C 
ATOM     22  C   UNL A   1      30.347  27.458  23.130  1.00  0.00    -0.046 A 
ATOM     23  C   UNL A   1      31.172  26.903  22.152  1.00  0.00     0.042 A 
ATOM     24  C   UNL A   1      29.970  26.680  24.247  1.00  0.00     0.029 A 
ATOM     25  C   UNL A   1      31.647  25.624  22.330  1.00  0.00     0.125 A 
ATOM     26  F   UNL A   1      32.452  25.078  21.411  1.00  0.00    -0.207 F 
ATOM     27  C   UNL A   1      31.299  24.892  23.457  1.00  0.00     0.065 A 
ENDBRANCH  15  20
ENDBRANCH  10  14
ENDBRANCH   6   9
ENDBRANCH   4   5
ENDBRANCH   3   4
ENDBRANCH   2   3
ENDBRANCH   1   2
BRANCH   1  28
ATOM     28  C   UNL A   1      31.617  31.480  26.863  1.00  0.00     0.021 C 
BRANCH  28  29
ATOM     29  C   UNL A   1      32.911  32.222  27.170  1.00  0.00     0.116 C 
BRANCH  29  30
ATOM     30  N   UNL A   1      32.650  33.581  27.615  1.00  0.00    -0.352 N 
ATOM     31  C   UNL A   1      33.270  34.279  28.616  1.00  0.00     0.251 C 
ATOM     32  H   UNL A   1      31.936  34.059  27.136  1.00  0.00     0.163 HD
ATOM     33  O   UNL A   1      32.787  35.319  29.049  1.00  0.00    -0.269 OA
BRANCH  31  34
ATOM     34  C   UNL A   1      34.527  33.742  29.168  1.00  0.00     0.039 A 
ATOM     35  C   UNL A   1      35.742  34.269  28.732  1.00  0.00     0.014 A 
ATOM     36  C   UNL A   1      34.484  32.757  30.161  1.00  0.00     0.014 A 
ATOM     37  C   UNL A   1      36.924  33.842  29.335  1.00  0.00     0.010 A 
ATOM     38  C   UNL A   1      35.656  32.389  30.807  1.00  0.00     0.010 A 
ATOM     39  C   UNL A   1      36.886  32.925  30.400  1.00  0.00    -0.014 A 
BRANCH  39  40
ATOM     40  C   UNL A   1      38.120  32.521  31.114  1.00  0.00     0.031 A 
ATOM     41  C   UNL A   1      38.974  31.414  30.561  1.00  0.00     0.074 A 
ATOM     42  C   UNL A   1      38.417  33.091  32.299  1.00  0.00     0.049 A 
ATOM     43  N   UNL A   1      40.031  30.852  31.086  1.00  0.00    -0.248 NA
ATOM     44  C   UNL A   1      38.572  30.843  29.264  1.00  0.00     0.031 C 
ATOM     45  C   UNL A   1      37.637  34.145  32.953  1.00  0.00     0.029 A 
ATOM     46  N   UNL A   1      39.445  32.851  33.175  1.00  0.00    -0.354 N 
ATOM     47  C   UNL A   1      40.403  29.848  30.201  1.00  0.00     0.074 A 
ATOM     48  C   UNL A   1      39.442  29.853  29.121  1.00  0.00     0.031 C 
ATOM     49  C   UNL A   1      38.221  34.466  34.119  1.00  0.00     0.029 A 
ATOM     50  C   UNL A   1      39.386  33.611  34.319  1.00  0.00     0.049 A 
ATOM     51  H   UNL A   1      40.160  32.194  33.000  1.00  0.00     0.167 HD
ATOM     52  C   UNL A   1      41.459  29.004  30.280  1.00  0.00     0.031 A 
ATOM     53  C   UNL A   1      40.167  33.604  35.417  1.00  0.00     0.031 A 
ATOM     54  C   UNL A   1      42.423  29.023  31.347  1.00  0.00     0.049 A 
ATOM     55  C   UNL A   1      41.329  32.649  35.478  1.00  0.00     0.074 A 
ATOM     56  C   UNL A   1      43.577  28.270  31.471  1.00  0.00     0.029 A 
ATOM     57  N   UNL A   1      42.342  29.823  32.475  1.00  0.00    -0.354 N 
ATOM     58  N   UNL A   1      41.724  31.775  34.583  1.00  0.00    -0.248 NA
ATOM     59  C   UNL A   1      42.154  32.681  36.694  1.00  0.00     0.031 C 
ATOM     60  C   UNL A   1      44.157  28.565  32.708  1.00  0.00     0.029 A 
ATOM     61  C   UNL A   1      43.402  29.552  33.322  1.00  0.00     0.049 A 
ATOM     62  H   UNL A   1      41.635  30.488  32.649  1.00  0.00     0.167 HD
ATOM     63  C   UNL A   1      42.857  31.171  35.118  1.00  0.00     0.074 A 
ATOM     64  C   UNL A   1      43.096  31.795  36.402  1.00  0.00     0.031 C 
ATOM     65  C   UNL A   1      43.627  30.186  34.595  1.00  0.00     0.031 A 
BRANCH  52  66
ATOM     66  C   UNL A   1      41.627  27.975  29.194  1.00  0.00    -0.014 A 
ATOM     67  C   UNL A   1      42.573  28.142  28.167  1.00  0.00     0.010 A 
ATOM     68  C   UNL A   1      40.885  26.780  29.254  1.00  0.00     0.010 A 
ATOM     69  C   UNL A   1      42.760  27.142  27.210  1.00  0.00     0.020 A 
ATOM     70  C   UNL A   1      41.088  25.767  28.315  1.00  0.00     0.020 A 
ATOM     71  C   UNL A   1      42.020  25.958  27.293  1.00  0.00     0.054 A 
BRANCH  71  72
ATOM     72  S   UNL A   1      42.330  24.652  26.073  1.00  0.00     0.124 S 
ATOM     73  O   UNL A   1      43.637  24.153  26.491  1.00  0.00    -0.237 OA
ATOM     74  O   UNL A   1      41.210  23.741  26.291  1.00  0.00    -0.237 OA
ATOM     75  O   UNL A   1      42.316  25.359  24.794  1.00  0.00    -0.744 OA
ENDBRANCH  71  72
ENDBRANCH  52  66
BRANCH  53  76
ATOM     76  C   UNL A   1      39.865  34.510  36.560  1.00  0.00    -0.014 A 
ATOM     77  C   UNL A   1      40.416  35.801  36.621  1.00  0.00     0.010 A 
ATOM     78  C   UNL A   1      39.037  34.072  37.611  1.00  0.00     0.010 A 
ATOM     79  C   UNL A   1      40.178  36.623  37.727  1.00  0.00     0.020 A 
ATOM     80  C   UNL A   1      38.769  34.902  38.702  1.00  0.00     0.020 A 
ATOM     81  C   UNL A   1      39.357  36.167  38.762  1.00  0.00     0.054 A 
BRANCH  81  82
ATOM     82  S   UNL A   1      39.048  37.255  40.180  1.00  0.00     0.124 S 
ATOM     83  O   UNL A   1      40.402  37.646  40.562  1.00  0.00    -0.237 OA
ATOM     84  O   UNL A   1      38.225  38.310  39.595  1.00  0.00    -0.237 OA
ATOM     85  O   UNL A   1      38.354  36.389  41.130  1.00  0.00    -0.744 OA
ENDBRANCH  81  82
ENDBRANCH  53  76
BRANCH  65  86
ATOM     86  C   UNL A   1      44.820  29.738  35.396  1.00  0.00    -0.014 A 
ATOM     87  C   UNL A   1      46.074  30.356  35.245  1.00  0.00     0.010 A 
ATOM     88  C   UNL A   1      44.664  28.730  36.366  1.00  0.00     0.010 A 
ATOM     89  C   UNL A   1      47.157  29.956  36.032  1.00  0.00     0.020 A 
ATOM     90  C   UNL A   1      45.736  28.351  37.177  1.00  0.00     0.020 A 
ATOM     91  C   UNL A   1      46.979  28.959  36.997  1.00  0.00     0.054 A 
BRANCH  91  92
ATOM     92  S   UNL A   1      48.387  28.501  38.044  1.00  0.00     0.124 S 
ATOM     93  O   UNL A   1      47.736  27.765  39.124  1.00  0.00    -0.237 OA
ATOM     94  O   UNL A   1      49.208  27.698  37.142  1.00  0.00    -0.237 OA
ATOM     95  O   UNL A   1      48.967  29.786  38.428  1.00  0.00    -0.744 OA
ENDBRANCH  91  92
ENDBRANCH  65  86
ENDBRANCH  39  40
ENDBRANCH  31  34
ENDBRANCH  29  30
ENDBRANCH  28  29
ENDBRANCH   1  28
TORSDOF 18
ENDMDL
MODEL 3
REMARK VINA RESULT:     -11.0      4.429      9.416
REMARK SMILES Cc1cc(F)cc(NC(=O)N[C@@H]2COC[C@H]2C(=O)NCCCCCCNC(=O)c2ccc(-c3c4nc(c(-c5ccc(S(=O)(=O)[O-])cc5)c5ccc([nH]5)c(-c5ccc(S(=O)(=O)[O-])cc5)c5nc(c(-c6ccc(S(=O)(=O)[O-])cc6)c6ccc3[nH]6)C=C5)C=C4)cc2)c1
REMARK SMILES IDX 23 1 22 2 21 3 20 4 19 5 17 6 18 7 16 9 12 10 13 11 14 12
REMARK SMILES IDX 15 13 11 14 8 15 9 16 10 18 7 20 1 21 2 22 3 23 89 24 4 25
REMARK SMILES IDX 5 26 6 27 24 28 25 29 26 30 27 31 28 33 29 34 30 35 88 36
REMARK SMILES IDX 31 37 87 38 32 39 33 40 34 41 81 42 35 43 86 44 80 45 82 46
REMARK SMILES IDX 36 47 85 48 79 49 78 50 37 52 67 53 48 54 66 55 49 56 52 57
REMARK SMILES IDX 65 58 83 59 50 60 51 61 64 63 84 64 53 65 38 66 39 67 47 68
REMARK SMILES IDX 40 69 46 70 41 71 42 72 43 73 44 74 45 75 68 76 69 77 77 78
REMARK SMILES IDX 70 79 76 80 71 81 72 82 73 83 74 84 75 85 54 86 55 87 63 88
REMARK SMILES IDX 56 89 62 90 57 91 58 92 59 93 60 94 61 95
REMARK H PARENT 19 8 8 17 11 19 26 32 82 51 52 62
REMARK Flexibility Score: inf
ROOT
ATOM      1  C   UNL A   1      38.197  23.590  26.506  1.00  0.00     0.002 C 
ENDROOT
BRANCH   1   2
ATOM      2  C   UNL A   1      37.357  23.130  25.310  1.00  0.00     0.002 C 
BRANCH   2   3
ATOM      3  C   UNL A   1      35.849  23.232  25.528  1.00  0.00     0.021 C 
BRANCH   3   4
ATOM      4  C   UNL A   1      35.248  24.476  24.898  1.00  0.00     0.116 C 
BRANCH   4   5
ATOM      5  N   UNL A   1      34.139  24.976  25.685  1.00  0.00    -0.356 N 
ATOM      6  C   UNL A   1      33.434  26.133  25.582  1.00  0.00     0.227 C 
ATOM      7  O   UNL A   1      32.571  26.353  26.436  1.00  0.00    -0.275 OA
ATOM      8  H   UNL A   1      33.850  24.379  26.414  1.00  0.00     0.163 HD
BRANCH   6   9
ATOM      9  C   UNL A   1      33.686  27.129  24.462  1.00  0.00     0.129 C 
ATOM     10  C   UNL A   1      32.575  27.175  23.432  1.00  0.00     0.124 C 
ATOM     11  C   UNL A   1      32.090  28.618  23.370  1.00  0.00     0.186 C 
ATOM     12  O   UNL A   1      32.809  29.368  24.365  1.00  0.00    -0.378 OA
ATOM     13  C   UNL A   1      33.791  28.541  25.015  1.00  0.00     0.176 C 
BRANCH  10  14
ATOM     14  N   UNL A   1      32.814  26.502  22.143  1.00  0.00    -0.332 N 
ATOM     15  N   UNL A   1      32.466  24.121  21.858  1.00  0.00    -0.308 N 
ATOM     16  C   UNL A   1      32.769  25.360  21.477  1.00  0.00     0.319 C 
ATOM     17  H   UNL A   1      32.388  23.545  21.063  1.00  0.00     0.171 HD
ATOM     18  O   UNL A   1      33.032  25.480  20.268  1.00  0.00    -0.248 OA
ATOM     19  H   UNL A   1      33.145  27.186  21.518  1.00  0.00     0.165 HD
BRANCH  15  20
ATOM     20  C   UNL A   1      32.224  23.363  23.010  1.00  0.00     0.046 A 
ATOM     21  C   UNL A   1      33.575  20.150  24.606  1.00  0.00     0.044 C 
ATOM     22  C   UNL A   1      32.776  21.393  24.364  1.00  0.00    -0.046 A 
ATOM     23  C   UNL A   1      31.809  21.756  25.300  1.00  0.00     0.042 A 
ATOM     24  C   UNL A   1      32.968  22.190  23.214  1.00  0.00     0.029 A 
ATOM     25  C   UNL A   1      31.100  22.920  25.107  1.00  0.00     0.125 A 
ATOM     26  F   UNL A   1      30.178  23.295  26.000  1.00  0.00    -0.207 F 
ATOM     27  C   UNL A   1      31.335  23.712  23.992  1.00  0.00     0.065 A 
ENDBRANCH  15  20
ENDBRANCH  10  14
ENDBRANCH   6   9
ENDBRANCH   4   5
ENDBRANCH   3   4
ENDBRANCH   2   3
ENDBRANCH   1   2
BRANCH   1  28
ATOM     28  C   UNL A   1      39.505  22.816  26.705  1.00  0.00     0.021 C 
BRANCH  28  29
ATOM     29  C   UNL A   1      40.644  23.658  27.262  1.00  0.00     0.116 C 
BRANCH  29  30
ATOM     30  N   UNL A   1      41.337  24.378  26.206  1.00  0.00    -0.352 N 
ATOM     31  C   UNL A   1      41.467  25.731  26.046  1.00  0.00     0.251 C 
ATOM     32  H   UNL A   1      41.768  23.820  25.520  1.00  0.00     0.163 HD
ATOM     33  O   UNL A   1      41.860  26.202  24.984  1.00  0.00    -0.269 OA
BRANCH  31  34
ATOM     34  C   UNL A   1      41.109  26.607  27.175  1.00  0.00     0.039 A 
ATOM     35  C   UNL A   1      40.116  26.200  28.065  1.00  0.00     0.014 A 
ATOM     36  C   UNL A   1      41.808  27.803  27.375  1.00  0.00     0.014 A 
ATOM     37  C   UNL A   1      39.855  26.973  29.195  1.00  0.00     0.010 A 
ATOM     38  C   UNL A   1      41.596  28.531  28.538  1.00  0.00     0.010 A 
ATOM     39  C   UNL A   1      40.617  28.125  29.457  1.00  0.00    -0.014 A 
BRANCH  39  40
ATOM     40  C   UNL A   1      40.419  28.916  30.694  1.00  0.00     0.031 A 
ATOM     41  C   UNL A   1      39.341  29.963  30.746  1.00  0.00     0.074 A 
ATOM     42  C   UNL A   1      41.264  28.749  31.730  1.00  0.00     0.049 A 
ATOM     43  N   UNL A   1      39.075  30.821  31.695  1.00  0.00    -0.248 NA
ATOM     44  C   UNL A   1      38.466  30.082  29.567  1.00  0.00     0.031 C 
ATOM     45  C   UNL A   1      42.374  27.793  31.775  1.00  0.00     0.029 A 
ATOM     46  N   UNL A   1      41.336  29.393  32.940  1.00  0.00    -0.354 N 
ATOM     47  C   UNL A   1      38.025  31.597  31.219  1.00  0.00     0.074 A 
ATOM     48  C   UNL A   1      37.723  31.132  29.884  1.00  0.00     0.031 C 
ATOM     49  C   UNL A   1      43.006  27.906  32.954  1.00  0.00     0.029 A 
ATOM     50  C   UNL A   1      42.381  28.973  33.729  1.00  0.00     0.049 A 
ATOM     51  H   UNL A   1      40.698  30.091  33.217  1.00  0.00     0.167 HD
ATOM     52  C   UNL A   1      37.368  32.601  31.845  1.00  0.00     0.031 A 
ATOM     53  C   UNL A   1      42.803  29.413  34.930  1.00  0.00     0.031 A 
ATOM     54  C   UNL A   1      37.663  33.040  33.183  1.00  0.00     0.049 A 
ATOM     55  C   UNL A   1      42.057  30.536  35.598  1.00  0.00     0.074 A 
ATOM     56  C   UNL A   1      36.995  33.987  33.939  1.00  0.00     0.029 A 
ATOM     57  N   UNL A   1      38.711  32.574  33.959  1.00  0.00    -0.354 N 
ATOM     58  N   UNL A   1      41.001  31.190  35.174  1.00  0.00    -0.248 NA
ATOM     59  C   UNL A   1      42.552  30.979  36.909  1.00  0.00     0.031 C 
ATOM     60  C   UNL A   1      37.684  34.144  35.145  1.00  0.00     0.029 A 
ATOM     61  C   UNL A   1      38.737  33.245  35.168  1.00  0.00     0.049 A 
ATOM     62  H   UNL A   1      39.345  31.869  33.690  1.00  0.00     0.167 HD
ATOM     63  C   UNL A   1      40.694  32.104  36.176  1.00  0.00     0.074 A 
ATOM     64  C   UNL A   1      41.660  31.903  37.236  1.00  0.00     0.031 C 
ATOM     65  C   UNL A   1      39.704  33.029  36.214  1.00  0.00     0.031 A 
BRANCH  52  66
ATOM     66  C   UNL A   1      36.274  33.310  31.094  1.00  0.00    -0.014 A 
ATOM     67  C   UNL A   1      34.982  33.441  31.632  1.00  0.00     0.010 A 
ATOM     68  C   UNL A   1      36.570  33.931  29.866  1.00  0.00     0.010 A 
ATOM     69  C   UNL A   1      34.001  34.164  30.947  1.00  0.00     0.020 A 
ATOM     70  C   UNL A   1      35.601  34.676  29.191  1.00  0.00     0.020 A 
ATOM     71  C   UNL A   1      34.319  34.781  29.734  1.00  0.00     0.054 A 
BRANCH  71  72
ATOM     72  S   UNL A   1      33.043  35.765  28.900  1.00  0.00     0.124 S 
ATOM     73  O   UNL A   1      32.277  36.285  30.029  1.00  0.00    -0.237 OA
ATOM     74  O   UNL A   1      33.831  36.753  28.168  1.00  0.00    -0.237 OA
ATOM     75  O   UNL A   1      32.341  34.791  28.068  1.00  0.00    -0.744 OA
ENDBRANCH  71  72
ENDBRANCH  52  66
BRANCH  53  76
ATOM     76  C   UNL A   1      44.007  28.813  35.570  1.00  0.00    -0.014 A 
ATOM     77  C   UNL A   1      45.295  29.287  35.269  1.00  0.00     0.010 A 
ATOM     78  C   UNL A   1      43.869  27.742  36.474  1.00  0.00     0.010 A 
ATOM     79  C   UNL A   1      46.423  28.679  35.827  1.00  0.00     0.020 A 
ATOM     80  C   UNL A   1      44.992  27.153  37.060  1.00  0.00     0.020 A 
ATOM     81  C   UNL A   1      46.264  27.614  36.718  1.00  0.00     0.054 A 
BRANCH  81  82
ATOM     82  S   UNL A   1      47.741  26.849  37.443  1.00  0.00     0.124 S 
ATOM     83  O   UNL A   1      48.726  27.024  36.379  1.00  0.00    -0.237 OA
ATOM     84  O   UNL A   1      47.956  27.654  38.643  1.00  0.00    -0.237 OA
ATOM     85  O   UNL A   1      47.325  25.471  37.692  1.00  0.00    -0.744 OA
ENDBRANCH  81  82
ENDBRANCH  53  76
BRANCH  65  86
ATOM     86  C   UNL A   1      39.594  33.878  37.452  1.00  0.00    -0.014 A 
ATOM     87  C   UNL A   1      38.721  33.531  38.498  1.00  0.00     0.010 A 
ATOM     88  C   UNL A   1      40.431  35.000  37.599  1.00  0.00     0.010 A 
ATOM     89  C   UNL A   1      38.668  34.307  39.659  1.00  0.00     0.020 A 
ATOM     90  C   UNL A   1      40.404  35.759  38.771  1.00  0.00     0.020 A 
ATOM     91  C   UNL A   1      39.514  35.414  39.790  1.00  0.00     0.054 A 
BRANCH  91  92
ATOM     92  S   UNL A   1      39.467  36.368  41.330  1.00  0.00     0.124 S 
ATOM     93  O   UNL A   1      38.545  35.584  42.147  1.00  0.00    -0.237 OA
ATOM     94  O   UNL A   1      40.863  36.347  41.762  1.00  0.00    -0.237 OA
ATOM     95  O   UNL A   1      38.970  37.677  40.913  1.00  0.00    -0.744 OA
ENDBRANCH  91  92
ENDBRANCH  65  86
ENDBRANCH  39  40
ENDBRANCH  31  34
ENDBRANCH  29  30
ENDBRANCH  28  29
ENDBRANCH   1  28
TORSDOF 18
ENDMDL
