MODEL 1
REMARK VINA RESULT:     -10.7      0.000      0.000
REMARK SMILES C[C@H](C(=O)NCCCCCCNC(=O)c1ccc(-c2c3nc(c(-c4ccc(S(=O)(=O)[O-])cc4)c4ccc([nH]4)c(-c4ccc(S(=O)(=O)[O-])cc4)c4nc(c(-c5ccc(S(=O)(=O)[O-])cc5)c5ccc2[nH]5)C=C4)C=C3)cc1)c1ccc2c(c1)OCCO2
REMARK SMILES IDX 9 1 8 2 7 3 6 4 5 5 3 6 4 7 2 9 1 10 75 11 76 12 80 13 77 14
REMARK SMILES IDX 79 15 78 16 81 17 84 18 82 19 83 20 10 21 11 22 12 23 13 24
REMARK SMILES IDX 14 26 15 27 16 28 74 29 17 30 73 31 18 32 19 33 20 34 67 35
REMARK SMILES IDX 21 36 72 37 66 38 68 39 22 40 71 41 65 42 64 43 23 45 53 46
REMARK SMILES IDX 34 47 52 48 35 49 38 50 51 51 69 52 36 53 37 54 50 56 70 57
REMARK SMILES IDX 39 58 24 59 25 60 33 61 26 62 32 63 27 64 28 65 29 66 30 67
REMARK SMILES IDX 31 68 54 69 55 70 63 71 56 72 62 73 57 74 58 75 59 76 60 77
REMARK SMILES IDX 61 78 40 79 41 80 49 81 42 82 48 83 43 84 44 85 45 86 46 87
REMARK SMILES IDX 47 88
REMARK H PARENT 5 8 12 25 68 44 38 55
REMARK Flexibility Score: inf
ROOT
ATOM      1  C   UNL A   1      32.889  29.208  24.707  1.00  0.00     0.002 C 
ENDROOT
BRANCH   1   2
ATOM      2  C   UNL A   1      31.435  29.423  25.129  1.00  0.00     0.002 C 
BRANCH   2   3
ATOM      3  C   UNL A   1      30.512  29.960  24.032  1.00  0.00     0.021 C 
BRANCH   3   4
ATOM      4  C   UNL A   1      30.296  29.011  22.857  1.00  0.00     0.116 C 
BRANCH   4   5
ATOM      5  N   UNL A   1      29.145  28.152  23.046  1.00  0.00    -0.356 N 
ATOM      6  C   UNL A   1      29.033  26.983  23.727  1.00  0.00     0.227 C 
ATOM      7  O   UNL A   1      27.921  26.447  23.767  1.00  0.00    -0.274 OA
ATOM      8  H   UNL A   1      28.318  28.463  22.614  1.00  0.00     0.163 HD
BRANCH   6   9
ATOM      9  C   UNL A   1      30.235  26.328  24.394  1.00  0.00     0.105 C 
ATOM     10  C   UNL A   1      29.871  25.760  25.767  1.00  0.00     0.023 C 
BRANCH   9  11
ATOM     11  C   UNL A   1      31.103  25.434  23.515  1.00  0.00    -0.032 A 
ATOM     12  C   UNL A   1      32.093  25.974  22.668  1.00  0.00     0.008 A 
ATOM     13  C   UNL A   1      31.088  24.048  23.730  1.00  0.00     0.055 A 
ATOM     14  C   UNL A   1      33.122  25.172  22.168  1.00  0.00     0.051 A 
ATOM     15  C   UNL A   1      32.161  23.276  23.322  1.00  0.00     0.161 A 
ATOM     16  C   UNL A   1      33.197  23.853  22.590  1.00  0.00     0.161 A 
ATOM     17  O   UNL A   1      32.219  22.007  23.829  1.00  0.00    -0.486 OA
ATOM     18  O   UNL A   1      34.396  23.192  22.453  1.00  0.00    -0.486 OA
ATOM     19  C   UNL A   1      33.561  21.549  24.031  1.00  0.00     0.271 C 
ATOM     20  C   UNL A   1      34.638  22.591  23.734  1.00  0.00     0.271 C 
ENDBRANCH   9  11
ENDBRANCH   6   9
ENDBRANCH   4   5
ENDBRANCH   3   4
ENDBRANCH   2   3
ENDBRANCH   1   2
BRANCH   1  21
ATOM     21  C   UNL A   1      33.666  28.207  25.560  1.00  0.00     0.021 C 
BRANCH  21  22
ATOM     22  C   UNL A   1      33.693  28.525  27.050  1.00  0.00     0.116 C 
BRANCH  22  23
ATOM     23  N   UNL A   1      33.690  29.956  27.309  1.00  0.00    -0.352 N 
ATOM     24  C   UNL A   1      34.659  30.723  27.909  1.00  0.00     0.251 C 
ATOM     25  H   UNL A   1      32.885  30.441  27.015  1.00  0.00     0.163 HD
ATOM     26  O   UNL A   1      34.427  31.890  28.213  1.00  0.00    -0.269 OA
BRANCH  24  27
ATOM     27  C   UNL A   1      35.974  30.121  28.209  1.00  0.00     0.039 A 
ATOM     28  C   UNL A   1      36.982  30.167  27.243  1.00  0.00     0.014 A 
ATOM     29  C   UNL A   1      36.217  29.540  29.457  1.00  0.00     0.014 A 
ATOM     30  C   UNL A   1      38.257  29.692  27.554  1.00  0.00     0.010 A 
ATOM     31  C   UNL A   1      37.506  29.138  29.789  1.00  0.00     0.010 A 
ATOM     32  C   UNL A   1      38.540  29.208  28.841  1.00  0.00    -0.014 A 
BRANCH  32  33
ATOM     33  C   UNL A   1      39.904  28.771  29.230  1.00  0.00     0.031 A 
ATOM     34  C   UNL A   1      40.848  29.746  29.878  1.00  0.00     0.074 A 
ATOM     35  C   UNL A   1      40.330  27.534  28.908  1.00  0.00     0.049 A 
ATOM     36  N   UNL A   1      42.112  29.597  30.178  1.00  0.00    -0.248 NA
ATOM     37  C   UNL A   1      40.304  31.076  30.200  1.00  0.00     0.031 C 
ATOM     38  C   UNL A   1      39.526  26.508  28.239  1.00  0.00     0.029 A 
ATOM     39  N   UNL A   1      41.555  26.936  29.077  1.00  0.00    -0.354 N 
ATOM     40  C   UNL A   1      42.523  30.820  30.695  1.00  0.00     0.074 A 
ATOM     41  C   UNL A   1      41.385  31.712  30.625  1.00  0.00     0.031 C 
ATOM     42  C   UNL A   1      40.276  25.410  28.058  1.00  0.00     0.029 A 
ATOM     43  C   UNL A   1      41.626  25.667  28.553  1.00  0.00     0.049 A 
ATOM     44  H   UNL A   1      42.310  27.375  29.531  1.00  0.00     0.167 HD
ATOM     45  C   UNL A   1      43.734  31.166  31.196  1.00  0.00     0.031 A 
ATOM     46  C   UNL A   1      42.663  24.812  28.455  1.00  0.00     0.031 A 
ATOM     47  C   UNL A   1      44.859  30.274  31.264  1.00  0.00     0.049 A 
ATOM     48  C   UNL A   1      44.002  25.213  29.010  1.00  0.00     0.074 A 
ATOM     49  C   UNL A   1      46.108  30.505  31.813  1.00  0.00     0.029 A 
ATOM     50  N   UNL A   1      44.878  28.983  30.755  1.00  0.00    -0.354 N 
ATOM     51  N   UNL A   1      44.351  26.346  29.570  1.00  0.00    -0.248 NA
ATOM     52  C   UNL A   1      45.081  24.220  28.933  1.00  0.00     0.031 C 
ATOM     53  C   UNL A   1      46.901  29.378  31.580  1.00  0.00     0.029 A 
ATOM     54  C   UNL A   1      46.126  28.416  30.949  1.00  0.00     0.049 A 
ATOM     55  H   UNL A   1      44.116  28.535  30.320  1.00  0.00     0.167 HD
ATOM     56  C   UNL A   1      45.685  26.194  29.936  1.00  0.00     0.074 A 
ATOM     57  C   UNL A   1      46.077  24.857  29.540  1.00  0.00     0.031 C 
ATOM     58  C   UNL A   1      46.505  27.082  30.550  1.00  0.00     0.031 A 
BRANCH  45  59
ATOM     59  C   UNL A   1      43.902  32.585  31.677  1.00  0.00    -0.014 A 
ATOM     60  C   UNL A   1      43.627  32.946  33.010  1.00  0.00     0.010 A 
ATOM     61  C   UNL A   1      44.343  33.576  30.781  1.00  0.00     0.010 A 
ATOM     62  C   UNL A   1      43.718  34.279  33.416  1.00  0.00     0.020 A 
ATOM     63  C   UNL A   1      44.470  34.905  31.193  1.00  0.00     0.020 A 
ATOM     64  C   UNL A   1      44.129  35.253  32.501  1.00  0.00     0.054 A 
BRANCH  64  65
ATOM     65  S   UNL A   1      44.215  36.980  33.048  1.00  0.00     0.124 S 
ATOM     66  O   UNL A   1      45.349  36.945  33.969  1.00  0.00    -0.237 OA
ATOM     67  O   UNL A   1      44.446  37.701  31.799  1.00  0.00    -0.237 OA
ATOM     68  O   UNL A   1      42.915  37.213  33.669  1.00  0.00    -0.744 OA
ENDBRANCH  64  65
ENDBRANCH  45  59
BRANCH  46  69
ATOM     69  C   UNL A   1      42.459  23.493  27.797  1.00  0.00    -0.014 A 
ATOM     70  C   UNL A   1      42.907  23.267  26.484  1.00  0.00     0.010 A 
ATOM     71  C   UNL A   1      41.872  22.431  28.511  1.00  0.00     0.010 A 
ATOM     72  C   UNL A   1      42.780  22.003  25.900  1.00  0.00     0.020 A 
ATOM     73  C   UNL A   1      41.767  21.159  27.940  1.00  0.00     0.020 A 
ATOM     74  C   UNL A   1      42.220  20.954  26.636  1.00  0.00     0.054 A 
BRANCH  74  75
ATOM     75  S   UNL A   1      42.156  19.300  25.891  1.00  0.00     0.124 S 
ATOM     76  O   UNL A   1      43.003  19.463  24.714  1.00  0.00    -0.237 OA
ATOM     77  O   UNL A   1      42.699  18.457  26.953  1.00  0.00    -0.237 OA
ATOM     78  O   UNL A   1      40.733  19.104  25.618  1.00  0.00    -0.744 OA
ENDBRANCH  74  75
ENDBRANCH  46  69
BRANCH  58  79
ATOM     79  C   UNL A   1      47.907  26.639  30.875  1.00  0.00    -0.014 A 
ATOM     80  C   UNL A   1      48.979  26.909  30.007  1.00  0.00     0.010 A 
ATOM     81  C   UNL A   1      48.168  26.038  32.120  1.00  0.00     0.010 A 
ATOM     82  C   UNL A   1      50.286  26.579  30.377  1.00  0.00     0.020 A 
ATOM     83  C   UNL A   1      49.475  25.732  32.506  1.00  0.00     0.020 A 
ATOM     84  C   UNL A   1      50.527  26.001  31.628  1.00  0.00     0.054 A 
BRANCH  84  85
ATOM     85  S   UNL A   1      52.241  25.666  32.121  1.00  0.00     0.124 S 
ATOM     86  O   UNL A   1      52.268  24.207  32.157  1.00  0.00    -0.237 OA
ATOM     87  O   UNL A   1      53.009  26.283  31.043  1.00  0.00    -0.237 OA
ATOM     88  O   UNL A   1      52.363  26.323  33.421  1.00  0.00    -0.744 OA
ENDBRANCH  84  85
ENDBRANCH  58  79
ENDBRANCH  32  33
ENDBRANCH  24  27
ENDBRANCH  22  23
ENDBRANCH  21  22
ENDBRANCH   1  21
TORSDOF 17
ENDMDL
MODEL 2
REMARK VINA RESULT:     -10.4      1.660      2.747
REMARK SMILES C[C@H](C(=O)NCCCCCCNC(=O)c1ccc(-c2c3nc(c(-c4ccc(S(=O)(=O)[O-])cc4)c4ccc([nH]4)c(-c4ccc(S(=O)(=O)[O-])cc4)c4nc(c(-c5ccc(S(=O)(=O)[O-])cc5)c5ccc2[nH]5)C=C4)C=C3)cc1)c1ccc2c(c1)OCCO2
REMARK SMILES IDX 9 1 8 2 7 3 6 4 5 5 3 6 4 7 2 9 1 10 75 11 76 12 80 13 77 14
REMARK SMILES IDX 79 15 78 16 81 17 84 18 82 19 83 20 10 21 11 22 12 23 13 24
REMARK SMILES IDX 14 26 15 27 16 28 74 29 17 30 73 31 18 32 19 33 20 34 67 35
REMARK SMILES IDX 21 36 72 37 66 38 68 39 22 40 71 41 65 42 64 43 23 45 53 46
REMARK SMILES IDX 34 47 52 48 35 49 38 50 51 51 69 52 36 53 37 54 50 56 70 57
REMARK SMILES IDX 39 58 24 59 25 60 33 61 26 62 32 63 27 64 28 65 29 66 30 67
REMARK SMILES IDX 31 68 54 69 55 70 63 71 56 72 62 73 57 74 58 75 59 76 60 77
REMARK SMILES IDX 61 78 40 79 41 80 49 81 42 82 48 83 43 84 44 85 45 86 46 87
REMARK SMILES IDX 47 88
REMARK H PARENT 5 8 12 25 68 44 38 55
REMARK Flexibility Score: inf
ROOT
ATOM      1  C   UNL A   1      33.146  28.577  24.730  1.00  0.00     0.002 C 
ENDROOT
BRANCH   1   2
ATOM      2  C   UNL A   1      32.527  27.380  24.007  1.00  0.00     0.002 C 
BRANCH   2   3
ATOM      3  C   UNL A   1      33.398  26.760  22.911  1.00  0.00     0.021 C 
BRANCH   3   4
ATOM      4  C   UNL A   1      33.766  25.297  23.138  1.00  0.00     0.116 C 
BRANCH   4   5
ATOM      5  N   UNL A   1      34.471  25.092  24.387  1.00  0.00    -0.356 N 
ATOM      6  C   UNL A   1      35.142  24.002  24.840  1.00  0.00     0.227 C 
ATOM      7  O   UNL A   1      35.693  24.086  25.941  1.00  0.00    -0.274 OA
ATOM      8  H   UNL A   1      34.462  25.860  25.001  1.00  0.00     0.163 HD
BRANCH   6   9
ATOM      9  C   UNL A   1      35.193  22.706  24.042  1.00  0.00     0.105 C 
ATOM     10  C   UNL A   1      36.623  22.369  23.615  1.00  0.00     0.023 C 
BRANCH   9  11
ATOM     11  C   UNL A   1      34.368  21.540  24.576  1.00  0.00    -0.032 A 
ATOM     12  C   UNL A   1      32.965  21.623  24.690  1.00  0.00     0.008 A 
ATOM     13  C   UNL A   1      34.980  20.287  24.726  1.00  0.00     0.055 A 
ATOM     14  C   UNL A   1      32.187  20.469  24.806  1.00  0.00     0.051 A 
ATOM     15  C   UNL A   1      34.207  19.140  24.735  1.00  0.00     0.161 A 
ATOM     16  C   UNL A   1      32.816  19.236  24.721  1.00  0.00     0.161 A 
ATOM     17  O   UNL A   1      34.877  17.958  24.576  1.00  0.00    -0.486 OA
ATOM     18  O   UNL A   1      32.052  18.134  24.415  1.00  0.00    -0.486 OA
ATOM     19  C   UNL A   1      34.112  16.976  23.867  1.00  0.00     0.271 C 
ATOM     20  C   UNL A   1      32.761  17.472  23.357  1.00  0.00     0.271 C 
ENDBRANCH   9  11
ENDBRANCH   6   9
ENDBRANCH   4   5
ENDBRANCH   3   4
ENDBRANCH   2   3
ENDBRANCH   1   2
BRANCH   1  21
ATOM     21  C   UNL A   1      34.131  28.218  25.842  1.00  0.00     0.021 C 
BRANCH  21  22
ATOM     22  C   UNL A   1      33.655  28.558  27.249  1.00  0.00     0.116 C 
BRANCH  22  23
ATOM     23  N   UNL A   1      33.652  29.991  27.499  1.00  0.00    -0.352 N 
ATOM     24  C   UNL A   1      34.630  30.764  28.077  1.00  0.00     0.251 C 
ATOM     25  H   UNL A   1      32.841  30.471  27.217  1.00  0.00     0.163 HD
ATOM     26  O   UNL A   1      34.401  31.932  28.379  1.00  0.00    -0.269 OA
BRANCH  24  27
ATOM     27  C   UNL A   1      35.952  30.167  28.356  1.00  0.00     0.039 A 
ATOM     28  C   UNL A   1      36.931  30.182  27.360  1.00  0.00     0.014 A 
ATOM     29  C   UNL A   1      36.231  29.622  29.614  1.00  0.00     0.014 A 
ATOM     30  C   UNL A   1      38.214  29.712  27.648  1.00  0.00     0.010 A 
ATOM     31  C   UNL A   1      37.528  29.226  29.920  1.00  0.00     0.010 A 
ATOM     32  C   UNL A   1      38.533  29.265  28.940  1.00  0.00    -0.014 A 
BRANCH  32  33
ATOM     33  C   UNL A   1      39.908  28.836  29.302  1.00  0.00     0.031 A 
ATOM     34  C   UNL A   1      40.863  29.819  29.921  1.00  0.00     0.074 A 
ATOM     35  C   UNL A   1      40.331  27.597  28.981  1.00  0.00     0.049 A 
ATOM     36  N   UNL A   1      42.133  29.677  30.194  1.00  0.00    -0.248 NA
ATOM     37  C   UNL A   1      40.322  31.149  30.244  1.00  0.00     0.031 C 
ATOM     38  C   UNL A   1      39.515  26.564  28.338  1.00  0.00     0.029 A 
ATOM     39  N   UNL A   1      41.562  27.005  29.127  1.00  0.00    -0.354 N 
ATOM     40  C   UNL A   1      42.552  30.905  30.692  1.00  0.00     0.074 A 
ATOM     41  C   UNL A   1      41.409  31.793  30.639  1.00  0.00     0.031 C 
ATOM     42  C   UNL A   1      40.265  25.467  28.149  1.00  0.00     0.029 A 
ATOM     43  C   UNL A   1      41.625  25.732  28.611  1.00  0.00     0.049 A 
ATOM     44  H   UNL A   1      42.325  27.450  29.560  1.00  0.00     0.167 HD
ATOM     45  C   UNL A   1      43.772  31.259  31.162  1.00  0.00     0.031 A 
ATOM     46  C   UNL A   1      42.662  24.880  28.497  1.00  0.00     0.031 A 
ATOM     47  C   UNL A   1      44.901  30.371  31.212  1.00  0.00     0.049 A 
ATOM     48  C   UNL A   1      44.012  25.289  29.018  1.00  0.00     0.074 A 
ATOM     49  C   UNL A   1      46.162  30.611  31.731  1.00  0.00     0.029 A 
ATOM     50  N   UNL A   1      44.914  29.077  30.713  1.00  0.00    -0.354 N 
ATOM     51  N   UNL A   1      44.370  26.429  29.562  1.00  0.00    -0.248 NA
ATOM     52  C   UNL A   1      45.093  24.299  28.925  1.00  0.00     0.031 C 
ATOM     53  C   UNL A   1      46.953  29.484  31.490  1.00  0.00     0.029 A 
ATOM     54  C   UNL A   1      46.168  28.515  30.884  1.00  0.00     0.049 A 
ATOM     55  H   UNL A   1      44.144  28.623  30.299  1.00  0.00     0.167 HD
ATOM     56  C   UNL A   1      45.712  26.284  29.898  1.00  0.00     0.074 A 
ATOM     57  C   UNL A   1      46.099  24.944  29.504  1.00  0.00     0.031 C 
ATOM     58  C   UNL A   1      46.542  27.179  30.487  1.00  0.00     0.031 A 
BRANCH  45  59
ATOM     59  C   UNL A   1      43.946  32.683  31.628  1.00  0.00    -0.014 A 
ATOM     60  C   UNL A   1      44.340  33.702  30.741  1.00  0.00     0.010 A 
ATOM     61  C   UNL A   1      43.713  33.007  32.977  1.00  0.00     0.010 A 
ATOM     62  C   UNL A   1      44.567  35.000  31.207  1.00  0.00     0.020 A 
ATOM     63  C   UNL A   1      43.904  34.312  33.440  1.00  0.00     0.020 A 
ATOM     64  C   UNL A   1      44.358  35.293  32.558  1.00  0.00     0.054 A 
BRANCH  64  65
ATOM     65  S   UNL A   1      44.685  36.978  33.143  1.00  0.00     0.124 S 
ATOM     66  O   UNL A   1      46.047  37.202  32.664  1.00  0.00    -0.237 OA
ATOM     67  O   UNL A   1      43.649  37.758  32.470  1.00  0.00    -0.237 OA
ATOM     68  O   UNL A   1      44.543  36.876  34.593  1.00  0.00    -0.744 OA
ENDBRANCH  64  65
ENDBRANCH  45  59
BRANCH  46  69
ATOM     69  C   UNL A   1      42.448  23.555  27.854  1.00  0.00    -0.014 A 
ATOM     70  C   UNL A   1      42.761  23.354  26.498  1.00  0.00     0.010 A 
ATOM     71  C   UNL A   1      41.992  22.465  28.619  1.00  0.00     0.010 A 
ATOM     72  C   UNL A   1      42.628  22.088  25.921  1.00  0.00     0.020 A 
ATOM     73  C   UNL A   1      41.883  21.191  28.052  1.00  0.00     0.020 A 
ATOM     74  C   UNL A   1      42.200  21.011  26.705  1.00  0.00     0.054 A 
BRANCH  74  75
ATOM     75  S   UNL A   1      42.130  19.359  25.958  1.00  0.00     0.124 S 
ATOM     76  O   UNL A   1      40.701  19.193  25.718  1.00  0.00    -0.237 OA
ATOM     77  O   UNL A   1      42.960  19.518  24.766  1.00  0.00    -0.237 OA
ATOM     78  O   UNL A   1      42.698  18.494  26.990  1.00  0.00    -0.744 OA
ENDBRANCH  74  75
ENDBRANCH  46  69
BRANCH  58  79
ATOM     79  C   UNL A   1      47.953  26.744  30.784  1.00  0.00    -0.014 A 
ATOM     80  C   UNL A   1      48.850  26.418  29.752  1.00  0.00     0.010 A 
ATOM     81  C   UNL A   1      48.414  26.764  32.113  1.00  0.00     0.010 A 
ATOM     82  C   UNL A   1      50.183  26.116  30.046  1.00  0.00     0.020 A 
ATOM     83  C   UNL A   1      49.751  26.491  32.409  1.00  0.00     0.020 A 
ATOM     84  C   UNL A   1      50.628  26.163  31.372  1.00  0.00     0.054 A 
BRANCH  84  85
ATOM     85  S   UNL A   1      52.383  25.855  31.718  1.00  0.00     0.124 S 
ATOM     86  O   UNL A   1      52.400  24.413  31.943  1.00  0.00    -0.237 OA
ATOM     87  O   UNL A   1      53.033  26.308  30.491  1.00  0.00    -0.237 OA
ATOM     88  O   UNL A   1      52.653  26.673  32.898  1.00  0.00    -0.744 OA
ENDBRANCH  84  85
ENDBRANCH  58  79
ENDBRANCH  32  33
ENDBRANCH  24  27
ENDBRANCH  22  23
ENDBRANCH  21  22
ENDBRANCH   1  21
TORSDOF 17
ENDMDL
MODEL 3
REMARK VINA RESULT:     -10.4      5.147     10.466
REMARK SMILES C[C@H](C(=O)NCCCCCCNC(=O)c1ccc(-c2c3nc(c(-c4ccc(S(=O)(=O)[O-])cc4)c4ccc([nH]4)c(-c4ccc(S(=O)(=O)[O-])cc4)c4nc(c(-c5ccc(S(=O)(=O)[O-])cc5)c5ccc2[nH]5)C=C4)C=C3)cc1)c1ccc2c(c1)OCCO2
REMARK SMILES IDX 9 1 8 2 7 3 6 4 5 5 3 6 4 7 2 9 1 10 75 11 76 12 80 13 77 14
REMARK SMILES IDX 79 15 78 16 81 17 84 18 82 19 83 20 10 21 11 22 12 23 13 24
REMARK SMILES IDX 14 26 15 27 16 28 74 29 17 30 73 31 18 32 19 33 20 34 67 35
REMARK SMILES IDX 21 36 72 37 66 38 68 39 22 40 71 41 65 42 64 43 23 45 53 46
REMARK SMILES IDX 34 47 52 48 35 49 38 50 51 51 69 52 36 53 37 54 50 56 70 57
REMARK SMILES IDX 39 58 24 59 25 60 33 61 26 62 32 63 27 64 28 65 29 66 30 67
REMARK SMILES IDX 31 68 54 69 55 70 63 71 56 72 62 73 57 74 58 75 59 76 60 77
REMARK SMILES IDX 61 78 40 79 41 80 49 81 42 82 48 83 43 84 44 85 45 86 46 87
REMARK SMILES IDX 47 88
REMARK H PARENT 5 8 12 25 68 44 38 55
REMARK Flexibility Score: inf
ROOT
ATOM      1  C   UNL A   1      38.018  23.744  26.089  1.00  0.00     0.002 C 
ENDROOT
BRANCH   1   2
ATOM      2  C   UNL A   1      37.982  22.334  25.498  1.00  0.00     0.002 C 
BRANCH   2   3
ATOM      3  C   UNL A   1      36.783  22.040  24.593  1.00  0.00     0.021 C 
BRANCH   3   4
ATOM      4  C   UNL A   1      35.861  20.931  25.093  1.00  0.00     0.116 C 
BRANCH   4   5
ATOM      5  N   UNL A   1      35.293  21.229  26.391  1.00  0.00    -0.356 N 
ATOM      6  C   UNL A   1      34.030  21.599  26.725  1.00  0.00     0.227 C 
ATOM      7  O   UNL A   1      33.781  21.769  27.922  1.00  0.00    -0.274 OA
ATOM      8  H   UNL A   1      35.918  21.153  27.147  1.00  0.00     0.163 HD
BRANCH   6   9
ATOM      9  C   UNL A   1      32.959  21.829  25.668  1.00  0.00     0.105 C 
ATOM     10  C   UNL A   1      33.239  23.095  24.855  1.00  0.00     0.023 C 
BRANCH   9  11
ATOM     11  C   UNL A   1      32.515  20.610  24.866  1.00  0.00    -0.032 A 
ATOM     12  C   UNL A   1      32.328  20.676  23.470  1.00  0.00     0.008 A 
ATOM     13  C   UNL A   1      32.528  19.350  25.483  1.00  0.00     0.055 A 
ATOM     14  C   UNL A   1      32.302  19.513  22.696  1.00  0.00     0.051 A 
ATOM     15  C   UNL A   1      32.607  18.206  24.709  1.00  0.00     0.161 A 
ATOM     16  C   UNL A   1      32.547  18.298  23.319  1.00  0.00     0.161 A 
ATOM     17  O   UNL A   1      32.922  17.051  25.370  1.00  0.00    -0.486 OA
ATOM     18  O   UNL A   1      32.934  17.233  22.540  1.00  0.00    -0.486 OA
ATOM     19  C   UNL A   1      33.696  16.147  24.572  1.00  0.00     0.271 C 
ATOM     20  C   UNL A   1      34.088  16.691  23.199  1.00  0.00     0.271 C 
ENDBRANCH   9  11
ENDBRANCH   6   9
ENDBRANCH   4   5
ENDBRANCH   3   4
ENDBRANCH   2   3
ENDBRANCH   1   2
BRANCH   1  21
ATOM     21  C   UNL A   1      39.335  24.125  26.765  1.00  0.00     0.021 C 
BRANCH  21  22
ATOM     22  C   UNL A   1      40.156  25.169  26.018  1.00  0.00     0.116 C 
BRANCH  22  23
ATOM     23  N   UNL A   1      41.536  24.750  25.824  1.00  0.00    -0.352 N 
ATOM     24  C   UNL A   1      42.670  25.214  26.445  1.00  0.00     0.251 C 
ATOM     25  H   UNL A   1      41.676  24.038  25.158  1.00  0.00     0.163 HD
ATOM     26  O   UNL A   1      43.780  24.881  26.040  1.00  0.00    -0.269 OA
BRANCH  24  27
ATOM     27  C   UNL A   1      42.539  26.141  27.588  1.00  0.00     0.039 A 
ATOM     28  C   UNL A   1      43.049  27.437  27.476  1.00  0.00     0.014 A 
ATOM     29  C   UNL A   1      41.885  25.736  28.755  1.00  0.00     0.014 A 
ATOM     30  C   UNL A   1      42.841  28.351  28.511  1.00  0.00     0.010 A 
ATOM     31  C   UNL A   1      41.614  26.669  29.750  1.00  0.00     0.010 A 
ATOM     32  C   UNL A   1      42.090  27.986  29.640  1.00  0.00    -0.014 A 
BRANCH  32  33
ATOM     33  C   UNL A   1      41.781  28.955  30.721  1.00  0.00     0.031 A 
ATOM     34  C   UNL A   1      42.549  28.908  32.013  1.00  0.00     0.074 A 
ATOM     35  C   UNL A   1      40.746  29.807  30.585  1.00  0.00     0.049 A 
ATOM     36  N   UNL A   1      42.352  29.580  33.117  1.00  0.00    -0.248 NA
ATOM     37  C   UNL A   1      43.668  27.953  32.081  1.00  0.00     0.031 C 
ATOM     38  C   UNL A   1      39.894  29.920  29.398  1.00  0.00     0.029 A 
ATOM     39  N   UNL A   1      40.216  30.720  31.462  1.00  0.00    -0.354 N 
ATOM     40  C   UNL A   1      43.299  29.110  34.020  1.00  0.00     0.074 A 
ATOM     41  C   UNL A   1      44.039  28.063  33.347  1.00  0.00     0.031 C 
ATOM     42  C   UNL A   1      38.953  30.851  29.621  1.00  0.00     0.029 A 
ATOM     43  C   UNL A   1      39.102  31.366  30.979  1.00  0.00     0.049 A 
ATOM     44  H   UNL A   1      40.597  30.896  32.352  1.00  0.00     0.167 HD
ATOM     45  C   UNL A   1      43.539  29.520  35.288  1.00  0.00     0.031 A 
ATOM     46  C   UNL A   1      38.275  32.254  31.567  1.00  0.00     0.031 A 
ATOM     47  C   UNL A   1      42.800  30.561  35.949  1.00  0.00     0.049 A 
ATOM     48  C   UNL A   1      38.552  32.695  32.978  1.00  0.00     0.074 A 
ATOM     49  C   UNL A   1      43.008  31.097  37.208  1.00  0.00     0.029 A 
ATOM     50  N   UNL A   1      41.703  31.217  35.410  1.00  0.00    -0.354 N 
ATOM     51  N   UNL A   1      39.504  32.298  33.789  1.00  0.00    -0.248 NA
ATOM     52  C   UNL A   1      37.657  33.710  33.548  1.00  0.00     0.031 C 
ATOM     53  C   UNL A   1      41.998  32.032  37.455  1.00  0.00     0.029 A 
ATOM     54  C   UNL A   1      41.202  32.130  36.323  1.00  0.00     0.049 A 
ATOM     55  H   UNL A   1      41.333  31.057  34.512  1.00  0.00     0.167 HD
ATOM     56  C   UNL A   1      39.336  33.033  34.958  1.00  0.00     0.074 A 
ATOM     57  C   UNL A   1      38.198  33.903  34.745  1.00  0.00     0.031 C 
ATOM     58  C   UNL A   1      40.067  32.992  36.100  1.00  0.00     0.031 A 
BRANCH  45  59
ATOM     59  C   UNL A   1      44.630  28.809  36.049  1.00  0.00    -0.014 A 
ATOM     60  C   UNL A   1      44.358  27.672  36.833  1.00  0.00     0.010 A 
ATOM     61  C   UNL A   1      45.952  29.286  35.978  1.00  0.00     0.010 A 
ATOM     62  C   UNL A   1      45.369  27.073  37.588  1.00  0.00     0.020 A 
ATOM     63  C   UNL A   1      46.973  28.667  36.704  1.00  0.00     0.020 A 
ATOM     64  C   UNL A   1      46.669  27.582  37.527  1.00  0.00     0.054 A 
BRANCH  64  65
ATOM     65  S   UNL A   1      47.958  26.801  38.536  1.00  0.00     0.124 S 
ATOM     66  O   UNL A   1      48.363  27.903  39.407  1.00  0.00    -0.237 OA
ATOM     67  O   UNL A   1      47.236  25.715  39.195  1.00  0.00    -0.237 OA
ATOM     68  O   UNL A   1      48.957  26.380  37.559  1.00  0.00    -0.744 OA
ENDBRANCH  64  65
ENDBRANCH  45  59
BRANCH  46  69
ATOM     69  C   UNL A   1      37.107  32.773  30.806  1.00  0.00    -0.014 A 
ATOM     70  C   UNL A   1      35.814  32.277  31.047  1.00  0.00     0.010 A 
ATOM     71  C   UNL A   1      37.275  33.821  29.881  1.00  0.00     0.010 A 
ATOM     72  C   UNL A   1      34.711  32.822  30.384  1.00  0.00     0.020 A 
ATOM     73  C   UNL A   1      36.171  34.387  29.235  1.00  0.00     0.020 A 
ATOM     74  C   UNL A   1      34.895  33.882  29.489  1.00  0.00     0.054 A 
BRANCH  74  75
ATOM     75  S   UNL A   1      33.438  34.637  28.715  1.00  0.00     0.124 S 
ATOM     76  O   UNL A   1      32.572  34.874  29.865  1.00  0.00    -0.237 OA
ATOM     77  O   UNL A   1      34.000  35.830  28.086  1.00  0.00    -0.237 OA
ATOM     78  O   UNL A   1      32.977  33.611  27.782  1.00  0.00    -0.744 OA
ENDBRANCH  74  75
ENDBRANCH  46  69
BRANCH  58  79
ATOM     79  C   UNL A   1      39.693  33.939  37.210  1.00  0.00    -0.014 A 
ATOM     80  C   UNL A   1      38.914  33.516  38.301  1.00  0.00     0.010 A 
ATOM     81  C   UNL A   1      40.222  35.243  37.209  1.00  0.00     0.010 A 
ATOM     82  C   UNL A   1      38.667  34.384  39.369  1.00  0.00     0.020 A 
ATOM     83  C   UNL A   1      40.000  36.104  38.286  1.00  0.00     0.020 A 
ATOM     84  C   UNL A   1      39.219  35.669  39.359  1.00  0.00     0.054 A 
BRANCH  84  85
ATOM     85  S   UNL A   1      38.958  36.744  40.798  1.00  0.00     0.124 S 
ATOM     86  O   UNL A   1      38.335  37.917  40.193  1.00  0.00    -0.237 OA
ATOM     87  O   UNL A   1      38.085  35.935  41.646  1.00  0.00    -0.237 OA
ATOM     88  O   UNL A   1      40.306  36.955  41.323  1.00  0.00    -0.744 OA
ENDBRANCH  84  85
ENDBRANCH  58  79
ENDBRANCH  32  33
ENDBRANCH  24  27
ENDBRANCH  22  23
ENDBRANCH  21  22
ENDBRANCH   1  21
TORSDOF 17
ENDMDL
