MODEL 1
REMARK VINA RESULT:     -10.8      0.000      0.000
REMARK SMILES [NH3+][C@@]1(C(=O)NCCCCCCNC(=O)c2ccc(-c3c4nc(c(-c5ccc(S(=O)(=O)[O-])cc5)c5ccc([nH]5)c(-c5ccc(S(=O)(=O)[O-])cc5)c5nc(c(-c6ccc(S(=O)(=O)[O-])cc6)c6ccc3[nH]6)C=C5)C=C4)cc2)CCC[C@@H](Oc2ccccc2[N+](=O)[O-])C1
REMARK SMILES IDX 8 1 7 2 6 3 5 4 3 5 4 6 2 8 75 9 89 10 76 11 78 12 77 13
REMARK SMILES IDX 1 14 79 18 80 19 81 20 85 21 82 22 84 23 83 24 86 25 87 26
REMARK SMILES IDX 88 27 9 28 10 29 11 30 12 31 13 32 14 34 15 35 16 36 74 37
REMARK SMILES IDX 17 38 73 39 18 40 19 41 20 42 67 43 21 44 72 45 66 46 68 47
REMARK SMILES IDX 22 48 71 49 65 50 64 51 23 53 53 54 34 55 52 56 35 57 38 58
REMARK SMILES IDX 51 59 69 60 36 61 37 62 50 64 70 65 39 66 24 67 25 68 33 69
REMARK SMILES IDX 26 70 32 71 27 72 28 73 29 74 30 75 31 76 54 77 55 78 63 79
REMARK SMILES IDX 56 80 62 81 57 82 58 83 59 84 60 85 61 86 40 87 41 88 49 89
REMARK SMILES IDX 42 90 48 91 43 92 44 93 45 94 46 95 47 96
REMARK H PARENT 5 7 1 15 1 16 1 17 12 33 68 52 38 63
REMARK Flexibility Score: inf
ROOT
ATOM      1  C   UNL A   1      38.441  21.617  26.131  1.00  0.00     0.002 C 
ENDROOT
BRANCH   1   2
ATOM      2  C   UNL A   1      37.722  21.775  24.785  1.00  0.00     0.021 C 
BRANCH   2   3
ATOM      3  C   UNL A   1      36.286  22.304  24.911  1.00  0.00     0.116 C 
BRANCH   3   4
ATOM      4  N   UNL A   1      35.616  21.801  26.097  1.00  0.00    -0.351 N 
ATOM      5  C   UNL A   1      34.318  21.852  26.516  1.00  0.00     0.281 C 
ATOM      6  O   UNL A   1      34.082  21.296  27.597  1.00  0.00    -0.268 OA
ATOM      7  H   UNL A   1      36.215  21.331  26.720  1.00  0.00     0.163 HD
BRANCH   5   8
ATOM      8  C   UNL A   1      33.148  22.451  25.652  1.00  0.00     0.177 C 
ATOM      9  C   UNL A   1      33.312  21.962  24.193  1.00  0.00     0.079 C 
ATOM     10  C   UNL A   1      33.295  23.990  25.674  1.00  0.00     0.124 C 
ATOM     11  C   UNL A   1      32.316  22.602  23.226  1.00  0.00     0.011 C 
ATOM     12  C   UNL A   1      32.544  24.794  24.591  1.00  0.00     0.180 C 
ATOM     13  C   UNL A   1      32.413  24.123  23.215  1.00  0.00     0.046 C 
BRANCH   8  14
ATOM     14  N   UNL A   1      31.851  21.945  26.136  1.00  0.00    -0.345 N 
ATOM     15  H   UNL A   1      31.695  21.005  25.773  1.00  0.00     0.345 HD
ATOM     16  H   UNL A   1      31.104  22.562  25.814  1.00  0.00     0.345 HD
ATOM     17  H   UNL A   1      31.854  21.919  27.155  1.00  0.00     0.345 HD
ENDBRANCH   8  14
BRANCH  12  18
ATOM     18  O   UNL A   1      31.357  25.502  25.008  1.00  0.00    -0.483 OA
BRANCH  18  19
ATOM     19  C   UNL A   1      31.501  26.787  25.425  1.00  0.00     0.197 A 
ATOM     20  C   UNL A   1      31.502  27.052  26.795  1.00  0.00     0.054 A 
ATOM     21  C   UNL A   1      31.561  27.862  24.531  1.00  0.00     0.310 A 
ATOM     22  C   UNL A   1      31.709  28.354  27.260  1.00  0.00     0.004 A 
ATOM     23  C   UNL A   1      31.793  29.168  24.987  1.00  0.00     0.090 A 
ATOM     24  C   UNL A   1      31.884  29.405  26.358  1.00  0.00     0.007 A 
BRANCH  21  25
ATOM     25  N   UNL A   1      31.445  27.651  23.096  1.00  0.00     0.066 N 
ATOM     26  O   UNL A   1      32.502  27.665  22.445  1.00  0.00    -0.258 OA
ATOM     27  O   UNL A   1      30.318  27.471  22.618  1.00  0.00    -0.258 OA
ENDBRANCH  21  25
ENDBRANCH  18  19
ENDBRANCH  12  18
ENDBRANCH   5   8
ENDBRANCH   3   4
ENDBRANCH   2   3
ENDBRANCH   1   2
BRANCH   1  28
ATOM     28  C   UNL A   1      39.949  21.904  26.102  1.00  0.00     0.002 C 
BRANCH  28  29
ATOM     29  C   UNL A   1      40.584  22.268  27.447  1.00  0.00     0.021 C 
BRANCH  29  30
ATOM     30  C   UNL A   1      41.910  23.025  27.368  1.00  0.00     0.116 C 
BRANCH  30  31
ATOM     31  N   UNL A   1      41.967  23.922  26.224  1.00  0.00    -0.352 N 
ATOM     32  C   UNL A   1      41.664  25.251  26.111  1.00  0.00     0.251 C 
ATOM     33  H   UNL A   1      42.276  23.501  25.390  1.00  0.00     0.163 HD
ATOM     34  O   UNL A   1      41.598  25.751  24.983  1.00  0.00    -0.269 OA
BRANCH  32  35
ATOM     35  C   UNL A   1      41.413  26.097  27.297  1.00  0.00     0.039 A 
ATOM     36  C   UNL A   1      42.340  27.098  27.608  1.00  0.00     0.014 A 
ATOM     37  C   UNL A   1      40.324  25.875  28.147  1.00  0.00     0.014 A 
ATOM     38  C   UNL A   1      42.155  27.896  28.738  1.00  0.00     0.010 A 
ATOM     39  C   UNL A   1      40.105  26.716  29.240  1.00  0.00     0.010 A 
ATOM     40  C   UNL A   1      41.022  27.729  29.552  1.00  0.00    -0.014 A 
BRANCH  40  41
ATOM     41  C   UNL A   1      40.798  28.627  30.715  1.00  0.00     0.031 A 
ATOM     42  C   UNL A   1      41.647  28.519  31.954  1.00  0.00     0.074 A 
ATOM     43  C   UNL A   1      39.810  29.542  30.655  1.00  0.00     0.049 A 
ATOM     44  N   UNL A   1      41.625  29.260  33.033  1.00  0.00    -0.248 NA
ATOM     45  C   UNL A   1      42.631  27.426  31.999  1.00  0.00     0.031 C 
ATOM     46  C   UNL A   1      38.882  29.710  29.533  1.00  0.00     0.029 A 
ATOM     47  N   UNL A   1      39.425  30.508  31.550  1.00  0.00    -0.354 N 
ATOM     48  C   UNL A   1      42.585  28.724  33.884  1.00  0.00     0.074 A 
ATOM     49  C   UNL A   1      43.134  27.563  33.218  1.00  0.00     0.031 C 
ATOM     50  C   UNL A   1      38.068  30.746  29.788  1.00  0.00     0.029 A 
ATOM     51  C   UNL A   1      38.393  31.296  31.099  1.00  0.00     0.049 A 
ATOM     52  H   UNL A   1      39.849  30.626  32.431  1.00  0.00     0.167 HD
ATOM     53  C   UNL A   1      42.989  29.169  35.099  1.00  0.00     0.031 A 
ATOM     54  C   UNL A   1      37.782  32.352  31.670  1.00  0.00     0.031 A 
ATOM     55  C   UNL A   1      42.443  30.328  35.758  1.00  0.00     0.049 A 
ATOM     56  C   UNL A   1      38.257  32.836  33.011  1.00  0.00     0.074 A 
ATOM     57  C   UNL A   1      42.823  30.892  36.963  1.00  0.00     0.029 A 
ATOM     58  N   UNL A   1      41.398  31.097  35.270  1.00  0.00    -0.354 N 
ATOM     59  N   UNL A   1      39.221  32.361  33.764  1.00  0.00    -0.248 NA
ATOM     60  C   UNL A   1      37.573  34.009  33.570  1.00  0.00     0.031 C 
ATOM     61  C   UNL A   1      41.974  31.974  37.228  1.00  0.00     0.029 A 
ATOM     62  C   UNL A   1      41.103  32.116  36.162  1.00  0.00     0.049 A 
ATOM     63  H   UNL A   1      40.934  30.943  34.416  1.00  0.00     0.167 HD
ATOM     64  C   UNL A   1      39.270  33.189  34.880  1.00  0.00     0.074 A 
ATOM     65  C   UNL A   1      38.257  34.208  34.688  1.00  0.00     0.031 C 
ATOM     66  C   UNL A   1      40.077  33.110  35.968  1.00  0.00     0.031 A 
BRANCH  53  67
ATOM     67  C   UNL A   1      44.076  28.394  35.800  1.00  0.00    -0.014 A 
ATOM     68  C   UNL A   1      43.766  27.320  36.655  1.00  0.00     0.010 A 
ATOM     69  C   UNL A   1      45.426  28.715  35.571  1.00  0.00     0.010 A 
ATOM     70  C   UNL A   1      44.783  26.610  37.300  1.00  0.00     0.020 A 
ATOM     71  C   UNL A   1      46.448  27.990  36.193  1.00  0.00     0.020 A 
ATOM     72  C   UNL A   1      46.118  26.953  37.068  1.00  0.00     0.054 A 
BRANCH  72  73
ATOM     73  S   UNL A   1      47.419  26.004  37.904  1.00  0.00     0.124 S 
ATOM     74  O   UNL A   1      48.620  26.744  37.526  1.00  0.00    -0.237 OA
ATOM     75  O   UNL A   1      47.036  26.105  39.310  1.00  0.00    -0.237 OA
ATOM     76  O   UNL A   1      47.303  24.669  37.324  1.00  0.00    -0.744 OA
ENDBRANCH  72  73
ENDBRANCH  53  67
BRANCH  54  77
ATOM     77  C   UNL A   1      36.673  33.041  30.955  1.00  0.00    -0.014 A 
ATOM     78  C   UNL A   1      35.333  32.766  31.281  1.00  0.00     0.010 A 
ATOM     79  C   UNL A   1      36.954  33.993  29.959  1.00  0.00     0.010 A 
ATOM     80  C   UNL A   1      34.294  33.417  30.611  1.00  0.00     0.020 A 
ATOM     81  C   UNL A   1      35.918  34.666  29.306  1.00  0.00     0.020 A 
ATOM     82  C   UNL A   1      34.593  34.365  29.628  1.00  0.00     0.054 A 
BRANCH  82  83
ATOM     83  S   UNL A   1      33.231  35.239  28.810  1.00  0.00     0.124 S 
ATOM     84  O   UNL A   1      32.587  34.165  28.062  1.00  0.00    -0.237 OA
ATOM     85  O   UNL A   1      32.471  35.771  29.939  1.00  0.00    -0.237 OA
ATOM     86  O   UNL A   1      33.912  36.247  27.999  1.00  0.00    -0.744 OA
ENDBRANCH  82  83
ENDBRANCH  54  77
BRANCH  66  87
ATOM     87  C   UNL A   1      39.896  34.164  37.027  1.00  0.00    -0.014 A 
ATOM     88  C   UNL A   1      39.080  33.935  38.149  1.00  0.00     0.010 A 
ATOM     89  C   UNL A   1      40.562  35.398  36.904  1.00  0.00     0.010 A 
ATOM     90  C   UNL A   1      38.889  34.938  39.102  1.00  0.00     0.020 A 
ATOM     91  C   UNL A   1      40.397  36.394  37.870  1.00  0.00     0.020 A 
ATOM     92  C   UNL A   1      39.543  36.165  38.952  1.00  0.00     0.054 A 
BRANCH  92  93
ATOM     93  S   UNL A   1      39.286  37.452  40.204  1.00  0.00     0.124 S 
ATOM     94  O   UNL A   1      38.830  36.671  41.351  1.00  0.00    -0.237 OA
ATOM     95  O   UNL A   1      40.616  38.042  40.337  1.00  0.00    -0.237 OA
ATOM     96  O   UNL A   1      38.281  38.325  39.602  1.00  0.00    -0.744 OA
ENDBRANCH  92  93
ENDBRANCH  66  87
ENDBRANCH  40  41
ENDBRANCH  32  35
ENDBRANCH  30  31
ENDBRANCH  29  30
ENDBRANCH  28  29
ENDBRANCH   1  28
TORSDOF 20
ENDMDL
MODEL 2
REMARK VINA RESULT:     -10.6      5.878      8.103
REMARK SMILES [NH3+][C@@]1(C(=O)NCCCCCCNC(=O)c2ccc(-c3c4nc(c(-c5ccc(S(=O)(=O)[O-])cc5)c5ccc([nH]5)c(-c5ccc(S(=O)(=O)[O-])cc5)c5nc(c(-c6ccc(S(=O)(=O)[O-])cc6)c6ccc3[nH]6)C=C5)C=C4)cc2)CCC[C@@H](Oc2ccccc2[N+](=O)[O-])C1
REMARK SMILES IDX 8 1 7 2 6 3 5 4 3 5 4 6 2 8 75 9 89 10 76 11 78 12 77 13
REMARK SMILES IDX 1 14 79 18 80 19 81 20 85 21 82 22 84 23 83 24 86 25 87 26
REMARK SMILES IDX 88 27 9 28 10 29 11 30 12 31 13 32 14 34 15 35 16 36 74 37
REMARK SMILES IDX 17 38 73 39 18 40 19 41 20 42 67 43 21 44 72 45 66 46 68 47
REMARK SMILES IDX 22 48 71 49 65 50 64 51 23 53 53 54 34 55 52 56 35 57 38 58
REMARK SMILES IDX 51 59 69 60 36 61 37 62 50 64 70 65 39 66 24 67 25 68 33 69
REMARK SMILES IDX 26 70 32 71 27 72 28 73 29 74 30 75 31 76 54 77 55 78 63 79
REMARK SMILES IDX 56 80 62 81 57 82 58 83 59 84 60 85 61 86 40 87 41 88 49 89
REMARK SMILES IDX 42 90 48 91 43 92 44 93 45 94 46 95 47 96
REMARK H PARENT 5 7 1 15 1 16 1 17 12 33 68 52 38 63
REMARK Flexibility Score: inf
ROOT
ATOM      1  C   UNL A   1      36.907  22.073  23.865  1.00  0.00     0.002 C 
ENDROOT
BRANCH   1   2
ATOM      2  C   UNL A   1      35.821  23.147  24.017  1.00  0.00     0.021 C 
BRANCH   2   3
ATOM      3  C   UNL A   1      34.564  22.876  23.179  1.00  0.00     0.116 C 
BRANCH   3   4
ATOM      4  N   UNL A   1      33.556  22.139  23.920  1.00  0.00    -0.351 N 
ATOM      5  C   UNL A   1      32.482  22.535  24.664  1.00  0.00     0.281 C 
ATOM      6  O   UNL A   1      31.807  21.623  25.158  1.00  0.00    -0.268 OA
ATOM      7  H   UNL A   1      33.668  21.162  23.876  1.00  0.00     0.163 HD
BRANCH   5   8
ATOM      8  C   UNL A   1      32.024  24.034  24.799  1.00  0.00     0.177 C 
ATOM      9  C   UNL A   1      30.707  24.076  25.610  1.00  0.00     0.079 C 
ATOM     10  C   UNL A   1      31.741  24.562  23.373  1.00  0.00     0.124 C 
ATOM     11  C   UNL A   1      30.084  25.470  25.677  1.00  0.00     0.011 C 
ATOM     12  C   UNL A   1      30.895  25.847  23.244  1.00  0.00     0.180 C 
ATOM     13  C   UNL A   1      29.792  26.043  24.295  1.00  0.00     0.046 C 
BRANCH   8  14
ATOM     14  N   UNL A   1      33.026  24.804  25.558  1.00  0.00    -0.345 N 
ATOM     15  H   UNL A   1      33.407  24.223  26.305  1.00  0.00     0.345 HD
ATOM     16  H   UNL A   1      32.585  25.631  25.962  1.00  0.00     0.345 HD
ATOM     17  H   UNL A   1      33.780  25.091  24.934  1.00  0.00     0.345 HD
ENDBRANCH   8  14
BRANCH  12  18
ATOM     18  O   UNL A   1      31.599  27.062  22.906  1.00  0.00    -0.483 OA
BRANCH  18  19
ATOM     19  C   UNL A   1      31.644  28.047  23.841  1.00  0.00     0.197 A 
ATOM     20  C   UNL A   1      32.521  27.912  24.918  1.00  0.00     0.054 A 
ATOM     21  C   UNL A   1      30.783  29.151  23.807  1.00  0.00     0.310 A 
ATOM     22  C   UNL A   1      32.636  28.934  25.864  1.00  0.00     0.004 A 
ATOM     23  C   UNL A   1      30.909  30.193  24.738  1.00  0.00     0.090 A 
ATOM     24  C   UNL A   1      31.854  30.085  25.757  1.00  0.00     0.007 A 
BRANCH  21  25
ATOM     25  N   UNL A   1      29.771  29.280  22.771  1.00  0.00     0.066 N 
ATOM     26  O   UNL A   1      28.595  29.077  23.115  1.00  0.00    -0.258 OA
ATOM     27  O   UNL A   1      30.136  29.578  21.627  1.00  0.00    -0.258 OA
ENDBRANCH  21  25
ENDBRANCH  18  19
ENDBRANCH  12  18
ENDBRANCH   5   8
ENDBRANCH   3   4
ENDBRANCH   2   3
ENDBRANCH   1   2
BRANCH   1  28
ATOM     28  C   UNL A   1      36.969  21.044  25.001  1.00  0.00     0.002 C 
BRANCH  28  29
ATOM     29  C   UNL A   1      38.193  20.123  25.001  1.00  0.00     0.021 C 
BRANCH  29  30
ATOM     30  C   UNL A   1      39.215  20.383  26.108  1.00  0.00     0.116 C 
BRANCH  30  31
ATOM     31  N   UNL A   1      40.346  19.471  26.041  1.00  0.00    -0.352 N 
ATOM     32  C   UNL A   1      41.693  19.708  26.069  1.00  0.00     0.251 C 
ATOM     33  H   UNL A   1      40.101  18.521  25.963  1.00  0.00     0.163 HD
ATOM     34  O   UNL A   1      42.464  18.784  25.793  1.00  0.00    -0.269 OA
BRANCH  32  35
ATOM     35  C   UNL A   1      42.244  21.036  26.418  1.00  0.00     0.039 A 
ATOM     36  C   UNL A   1      42.525  21.931  25.381  1.00  0.00     0.014 A 
ATOM     37  C   UNL A   1      42.554  21.385  27.736  1.00  0.00     0.014 A 
ATOM     38  C   UNL A   1      43.076  23.181  25.666  1.00  0.00     0.010 A 
ATOM     39  C   UNL A   1      43.044  22.661  28.026  1.00  0.00     0.010 A 
ATOM     40  C   UNL A   1      43.318  23.569  26.994  1.00  0.00    -0.014 A 
BRANCH  40  41
ATOM     41  C   UNL A   1      43.841  24.927  27.294  1.00  0.00     0.031 A 
ATOM     42  C   UNL A   1      45.294  25.263  27.085  1.00  0.00     0.074 A 
ATOM     43  C   UNL A   1      42.996  25.863  27.772  1.00  0.00     0.049 A 
ATOM     44  N   UNL A   1      45.903  26.412  27.239  1.00  0.00    -0.248 NA
ATOM     45  C   UNL A   1      46.182  24.165  26.671  1.00  0.00     0.031 C 
ATOM     46  C   UNL A   1      41.578  25.647  28.071  1.00  0.00     0.029 A 
ATOM     47  N   UNL A   1      43.202  27.184  28.081  1.00  0.00    -0.354 N 
ATOM     48  C   UNL A   1      47.241  26.176  26.946  1.00  0.00     0.074 A 
ATOM     49  C   UNL A   1      47.365  24.764  26.656  1.00  0.00     0.031 C 
ATOM     50  C   UNL A   1      41.033  26.805  28.475  1.00  0.00     0.029 A 
ATOM     51  C   UNL A   1      42.064  27.836  28.495  1.00  0.00     0.049 A 
ATOM     52  H   UNL A   1      44.081  27.623  28.013  1.00  0.00     0.167 HD
ATOM     53  C   UNL A   1      48.270  27.058  26.901  1.00  0.00     0.031 A 
ATOM     54  C   UNL A   1      41.868  29.123  28.839  1.00  0.00     0.031 A 
ATOM     55  C   UNL A   1      48.143  28.464  27.185  1.00  0.00     0.049 A 
ATOM     56  C   UNL A   1      43.021  30.084  28.767  1.00  0.00     0.074 A 
ATOM     57  C   UNL A   1      49.112  29.449  27.112  1.00  0.00     0.029 A 
ATOM     58  N   UNL A   1      46.975  29.085  27.603  1.00  0.00    -0.354 N 
ATOM     59  N   UNL A   1      44.263  29.856  28.411  1.00  0.00    -0.248 NA
ATOM     60  C   UNL A   1      42.739  31.481  29.126  1.00  0.00     0.031 C 
ATOM     61  C   UNL A   1      48.543  30.657  27.534  1.00  0.00     0.029 A 
ATOM     62  C   UNL A   1      47.205  30.435  27.816  1.00  0.00     0.049 A 
ATOM     63  H   UNL A   1      46.110  28.634  27.729  1.00  0.00     0.167 HD
ATOM     64  C   UNL A   1      44.908  31.085  28.488  1.00  0.00     0.074 A 
ATOM     65  C   UNL A   1      43.912  32.055  28.897  1.00  0.00     0.031 C 
ATOM     66  C   UNL A   1      46.209  31.384  28.245  1.00  0.00     0.031 A 
BRANCH  53  67
ATOM     67  C   UNL A   1      49.630  26.524  26.531  1.00  0.00    -0.014 A 
ATOM     68  C   UNL A   1      50.510  26.034  27.515  1.00  0.00     0.010 A 
ATOM     69  C   UNL A   1      50.021  26.472  25.180  1.00  0.00     0.010 A 
ATOM     70  C   UNL A   1      51.770  25.543  27.159  1.00  0.00     0.020 A 
ATOM     71  C   UNL A   1      51.269  25.956  24.818  1.00  0.00     0.020 A 
ATOM     72  C   UNL A   1      52.143  25.511  25.812  1.00  0.00     0.054 A 
BRANCH  72  73
ATOM     73  S   UNL A   1      53.776  24.852  25.377  1.00  0.00     0.124 S 
ATOM     74  O   UNL A   1      53.462  23.463  25.051  1.00  0.00    -0.237 OA
ATOM     75  O   UNL A   1      54.168  25.688  24.246  1.00  0.00    -0.237 OA
ATOM     76  O   UNL A   1      54.563  25.043  26.592  1.00  0.00    -0.744 OA
ENDBRANCH  72  73
ENDBRANCH  53  67
BRANCH  54  77
ATOM     77  C   UNL A   1      40.514  29.579  29.254  1.00  0.00    -0.014 A 
ATOM     78  C   UNL A   1      40.219  29.802  30.611  1.00  0.00     0.010 A 
ATOM     79  C   UNL A   1      39.518  29.815  28.290  1.00  0.00     0.010 A 
ATOM     80  C   UNL A   1      38.948  30.234  30.997  1.00  0.00     0.020 A 
ATOM     81  C   UNL A   1      38.253  30.273  28.670  1.00  0.00     0.020 A 
ATOM     82  C   UNL A   1      37.972  30.469  30.023  1.00  0.00     0.054 A 
BRANCH  82  83
ATOM     83  S   UNL A   1      36.346  31.083  30.541  1.00  0.00     0.124 S 
ATOM     84  O   UNL A   1      35.965  30.111  31.560  1.00  0.00    -0.237 OA
ATOM     85  O   UNL A   1      36.654  32.426  31.028  1.00  0.00    -0.237 OA
ATOM     86  O   UNL A   1      35.560  31.043  29.310  1.00  0.00    -0.744 OA
ENDBRANCH  82  83
ENDBRANCH  54  77
BRANCH  66  87
ATOM     87  C   UNL A   1      46.620  32.823  28.411  1.00  0.00    -0.014 A 
ATOM     88  C   UNL A   1      46.531  33.731  27.342  1.00  0.00     0.010 A 
ATOM     89  C   UNL A   1      47.090  33.275  29.658  1.00  0.00     0.010 A 
ATOM     90  C   UNL A   1      46.956  35.053  27.500  1.00  0.00     0.020 A 
ATOM     91  C   UNL A   1      47.488  34.603  29.829  1.00  0.00     0.020 A 
ATOM     92  C   UNL A   1      47.439  35.479  28.741  1.00  0.00     0.054 A 
BRANCH  92  93
ATOM     93  S   UNL A   1      47.979  37.200  28.925  1.00  0.00     0.124 S 
ATOM     94  O   UNL A   1      46.926  37.925  28.219  1.00  0.00    -0.237 OA
ATOM     95  O   UNL A   1      47.999  37.378  30.375  1.00  0.00    -0.237 OA
ATOM     96  O   UNL A   1      49.291  37.222  28.283  1.00  0.00    -0.744 OA
ENDBRANCH  92  93
ENDBRANCH  66  87
ENDBRANCH  40  41
ENDBRANCH  32  35
ENDBRANCH  30  31
ENDBRANCH  29  30
ENDBRANCH  28  29
ENDBRANCH   1  28
TORSDOF 20
ENDMDL
MODEL 3
REMARK VINA RESULT:     -10.6      6.117     10.546
REMARK SMILES [NH3+][C@@]1(C(=O)NCCCCCCNC(=O)c2ccc(-c3c4nc(c(-c5ccc(S(=O)(=O)[O-])cc5)c5ccc([nH]5)c(-c5ccc(S(=O)(=O)[O-])cc5)c5nc(c(-c6ccc(S(=O)(=O)[O-])cc6)c6ccc3[nH]6)C=C5)C=C4)cc2)CCC[C@@H](Oc2ccccc2[N+](=O)[O-])C1
REMARK SMILES IDX 8 1 7 2 6 3 5 4 3 5 4 6 2 8 75 9 89 10 76 11 78 12 77 13
REMARK SMILES IDX 1 14 79 18 80 19 81 20 85 21 82 22 84 23 83 24 86 25 87 26
REMARK SMILES IDX 88 27 9 28 10 29 11 30 12 31 13 32 14 34 15 35 16 36 74 37
REMARK SMILES IDX 17 38 73 39 18 40 19 41 20 42 67 43 21 44 72 45 66 46 68 47
REMARK SMILES IDX 22 48 71 49 65 50 64 51 23 53 53 54 34 55 52 56 35 57 38 58
REMARK SMILES IDX 51 59 69 60 36 61 37 62 50 64 70 65 39 66 24 67 25 68 33 69
REMARK SMILES IDX 26 70 32 71 27 72 28 73 29 74 30 75 31 76 54 77 55 78 63 79
REMARK SMILES IDX 56 80 62 81 57 82 58 83 59 84 60 85 61 86 40 87 41 88 49 89
REMARK SMILES IDX 42 90 48 91 43 92 44 93 45 94 46 95 47 96
REMARK H PARENT 5 7 1 15 1 16 1 17 12 33 68 52 38 63
REMARK Flexibility Score: inf
ROOT
ATOM      1  C   UNL A   1      39.146  23.409  26.576  1.00  0.00     0.002 C 
ENDROOT
BRANCH   1   2
ATOM      2  C   UNL A   1      37.967  22.903  25.732  1.00  0.00     0.021 C 
BRANCH   2   3
ATOM      3  C   UNL A   1      36.621  23.535  26.112  1.00  0.00     0.116 C 
BRANCH   3   4
ATOM      4  N   UNL A   1      35.689  22.563  26.656  1.00  0.00    -0.351 N 
ATOM      5  C   UNL A   1      34.379  22.289  26.390  1.00  0.00     0.281 C 
ATOM      6  O   UNL A   1      33.881  21.363  27.044  1.00  0.00    -0.268 OA
ATOM      7  H   UNL A   1      36.080  21.989  27.354  1.00  0.00     0.163 HD
BRANCH   5   8
ATOM      8  C   UNL A   1      33.561  22.989  25.243  1.00  0.00     0.177 C 
ATOM      9  C   UNL A   1      33.983  22.374  23.888  1.00  0.00     0.079 C 
ATOM     10  C   UNL A   1      33.947  24.487  25.245  1.00  0.00     0.124 C 
ATOM     11  C   UNL A   1      33.362  23.081  22.684  1.00  0.00     0.011 C 
ATOM     12  C   UNL A   1      33.614  25.310  23.983  1.00  0.00     0.180 C 
ATOM     13  C   UNL A   1      33.706  24.565  22.642  1.00  0.00     0.046 C 
BRANCH   8  14
ATOM     14  N   UNL A   1      32.121  22.720  25.412  1.00  0.00    -0.345 N 
ATOM     15  H   UNL A   1      31.655  22.782  24.507  1.00  0.00     0.345 HD
ATOM     16  H   UNL A   1      31.719  23.409  26.048  1.00  0.00     0.345 HD
ATOM     17  H   UNL A   1      31.992  21.785  25.798  1.00  0.00     0.345 HD
ENDBRANCH   8  14
BRANCH  12  18
ATOM     18  O   UNL A   1      32.494  26.217  24.069  1.00  0.00    -0.483 OA
BRANCH  18  19
ATOM     19  C   UNL A   1      32.449  27.067  25.127  1.00  0.00     0.197 A 
ATOM     20  C   UNL A   1      33.429  28.053  25.240  1.00  0.00     0.054 A 
ATOM     21  C   UNL A   1      31.505  26.936  26.153  1.00  0.00     0.310 A 
ATOM     22  C   UNL A   1      33.378  28.982  26.283  1.00  0.00     0.004 A 
ATOM     23  C   UNL A   1      31.430  27.878  27.190  1.00  0.00     0.090 A 
ATOM     24  C   UNL A   1      32.363  28.913  27.238  1.00  0.00     0.007 A 
BRANCH  21  25
ATOM     25  N   UNL A   1      30.534  25.853  26.144  1.00  0.00     0.066 N 
ATOM     26  O   UNL A   1      29.554  25.992  25.394  1.00  0.00    -0.258 OA
ATOM     27  O   UNL A   1      30.740  24.873  26.871  1.00  0.00    -0.258 OA
ENDBRANCH  21  25
ENDBRANCH  18  19
ENDBRANCH  12  18
ENDBRANCH   5   8
ENDBRANCH   3   4
ENDBRANCH   2   3
ENDBRANCH   1   2
BRANCH   1  28
ATOM     28  C   UNL A   1      40.158  22.333  26.992  1.00  0.00     0.002 C 
BRANCH  28  29
ATOM     29  C   UNL A   1      40.032  20.986  26.275  1.00  0.00     0.021 C 
BRANCH  29  30
ATOM     30  C   UNL A   1      40.708  19.803  26.968  1.00  0.00     0.116 C 
BRANCH  30  31
ATOM     31  N   UNL A   1      41.747  19.201  26.146  1.00  0.00    -0.352 N 
ATOM     32  C   UNL A   1      42.845  19.751  25.544  1.00  0.00     0.251 C 
ATOM     33  H   UNL A   1      41.641  18.234  25.998  1.00  0.00     0.163 HD
ATOM     34  O   UNL A   1      43.474  19.074  24.725  1.00  0.00    -0.269 OA
BRANCH  32  35
ATOM     35  C   UNL A   1      43.293  21.127  25.847  1.00  0.00     0.039 A 
ATOM     36  C   UNL A   1      43.278  22.073  24.817  1.00  0.00     0.014 A 
ATOM     37  C   UNL A   1      43.796  21.482  27.104  1.00  0.00     0.014 A 
ATOM     38  C   UNL A   1      43.724  23.374  25.055  1.00  0.00     0.010 A 
ATOM     39  C   UNL A   1      44.180  22.800  27.358  1.00  0.00     0.010 A 
ATOM     40  C   UNL A   1      44.156  23.758  26.335  1.00  0.00    -0.014 A 
BRANCH  40  41
ATOM     41  C   UNL A   1      44.565  25.163  26.596  1.00  0.00     0.031 A 
ATOM     42  C   UNL A   1      43.586  26.167  27.143  1.00  0.00     0.074 A 
ATOM     43  C   UNL A   1      45.831  25.537  26.325  1.00  0.00     0.049 A 
ATOM     44  N   UNL A   1      43.792  27.415  27.484  1.00  0.00    -0.248 NA
ATOM     45  C   UNL A   1      42.192  25.723  27.309  1.00  0.00     0.031 C 
ATOM     46  C   UNL A   1      46.860  24.672  25.741  1.00  0.00     0.029 A 
ATOM     47  N   UNL A   1      46.473  26.734  26.512  1.00  0.00    -0.354 N 
ATOM     48  C   UNL A   1      42.558  27.905  27.900  1.00  0.00     0.074 A 
ATOM     49  C   UNL A   1      41.600  26.836  27.718  1.00  0.00     0.031 C 
ATOM     50  C   UNL A   1      48.013  25.354  25.661  1.00  0.00     0.029 A 
ATOM     51  C   UNL A   1      47.801  26.708  26.158  1.00  0.00     0.049 A 
ATOM     52  H   UNL A   1      46.025  27.536  26.868  1.00  0.00     0.167 HD
ATOM     53  C   UNL A   1      42.256  29.125  28.406  1.00  0.00     0.031 A 
ATOM     54  C   UNL A   1      48.748  27.663  26.234  1.00  0.00     0.031 A 
ATOM     55  C   UNL A   1      43.213  30.185  28.590  1.00  0.00     0.049 A 
ATOM     56  C   UNL A   1      48.391  29.004  26.813  1.00  0.00     0.074 A 
ATOM     57  C   UNL A   1      43.017  31.437  29.147  1.00  0.00     0.029 A 
ATOM     58  N   UNL A   1      44.547  30.120  28.216  1.00  0.00    -0.354 N 
ATOM     59  N   UNL A   1      47.235  29.421  27.274  1.00  0.00    -0.248 NA
ATOM     60  C   UNL A   1      49.472  29.995  26.899  1.00  0.00     0.031 C 
ATOM     61  C   UNL A   1      44.220  32.147  29.064  1.00  0.00     0.029 A 
ATOM     62  C   UNL A   1      45.180  31.319  28.507  1.00  0.00     0.049 A 
ATOM     63  H   UNL A   1      44.981  29.339  27.805  1.00  0.00     0.167 HD
ATOM     64  C   UNL A   1      47.454  30.720  27.719  1.00  0.00     0.074 A 
ATOM     65  C   UNL A   1      48.857  31.006  27.497  1.00  0.00     0.031 C 
ATOM     66  C   UNL A   1      46.572  31.598  28.259  1.00  0.00     0.031 A 
BRANCH  53  67
ATOM     67  C   UNL A   1      40.822  29.381  28.796  1.00  0.00    -0.014 A 
ATOM     68  C   UNL A   1      40.441  29.468  30.149  1.00  0.00     0.010 A 
ATOM     69  C   UNL A   1      39.848  29.577  27.800  1.00  0.00     0.010 A 
ATOM     70  C   UNL A   1      39.108  29.704  30.497  1.00  0.00     0.020 A 
ATOM     71  C   UNL A   1      38.518  29.840  28.144  1.00  0.00     0.020 A 
ATOM     72  C   UNL A   1      38.154  29.884  29.491  1.00  0.00     0.054 A 
BRANCH  72  73
ATOM     73  S   UNL A   1      36.434  30.206  29.971  1.00  0.00     0.124 S 
ATOM     74  O   UNL A   1      36.305  29.399  31.182  1.00  0.00    -0.237 OA
ATOM     75  O   UNL A   1      36.424  31.652  30.177  1.00  0.00    -0.237 OA
ATOM     76  O   UNL A   1      35.660  29.737  28.825  1.00  0.00    -0.744 OA
ENDBRANCH  72  73
ENDBRANCH  53  67
BRANCH  54  77
ATOM     77  C   UNL A   1      50.133  27.370  25.777  1.00  0.00    -0.014 A 
ATOM     78  C   UNL A   1      51.101  26.902  26.683  1.00  0.00     0.010 A 
ATOM     79  C   UNL A   1      50.485  27.539  24.426  1.00  0.00     0.010 A 
ATOM     80  C   UNL A   1      52.400  26.624  26.250  1.00  0.00     0.020 A 
ATOM     81  C   UNL A   1      51.776  27.237  23.983  1.00  0.00     0.020 A 
ATOM     82  C   UNL A   1      52.729  26.791  24.901  1.00  0.00     0.054 A 
BRANCH  82  83
ATOM     83  S   UNL A   1      54.406  26.372  24.349  1.00  0.00     0.124 S 
ATOM     84  O   UNL A   1      54.325  26.626  22.915  1.00  0.00    -0.237 OA
ATOM     85  O   UNL A   1      55.233  27.303  25.113  1.00  0.00    -0.237 OA
ATOM     86  O   UNL A   1      54.548  24.969  24.731  1.00  0.00    -0.744 OA
ENDBRANCH  82  83
ENDBRANCH  54  77
BRANCH  66  87
ATOM     87  C   UNL A   1      47.110  32.947  28.653  1.00  0.00    -0.014 A 
ATOM     88  C   UNL A   1      47.646  33.170  29.934  1.00  0.00     0.010 A 
ATOM     89  C   UNL A   1      47.090  34.005  27.724  1.00  0.00     0.010 A 
ATOM     90  C   UNL A   1      48.102  34.439  30.298  1.00  0.00     0.020 A 
ATOM     91  C   UNL A   1      47.572  35.268  28.075  1.00  0.00     0.020 A 
ATOM     92  C   UNL A   1      48.055  35.482  29.368  1.00  0.00     0.054 A 
BRANCH  92  93
ATOM     93  S   UNL A   1      48.659  37.120  29.861  1.00  0.00     0.124 S 
ATOM     94  O   UNL A   1      48.401  37.118  31.298  1.00  0.00    -0.237 OA
ATOM     95  O   UNL A   1      50.068  37.074  29.476  1.00  0.00    -0.237 OA
ATOM     96  O   UNL A   1      47.836  38.042  29.079  1.00  0.00    -0.744 OA
ENDBRANCH  92  93
ENDBRANCH  66  87
ENDBRANCH  40  41
ENDBRANCH  32  35
ENDBRANCH  30  31
ENDBRANCH  29  30
ENDBRANCH  28  29
ENDBRANCH   1  28
TORSDOF 20
ENDMDL
