MODEL 1
REMARK VINA RESULT:     -10.3      0.000      0.000
REMARK SMILES CC(C)[C@H](C(=O)NCCCCCCNC(=O)c1ccc(-c2c3nc(c(-c4ccc(S(=O)(=O)[O-])cc4)c4ccc([nH]4)c(-c4ccc(S(=O)(=O)[O-])cc4)c4nc(c(-c5ccc(S(=O)(=O)[O-])cc5)c5ccc2[nH]5)C=C4)C=C3)cc1)c1ccc(Cl)cc1F
REMARK SMILES IDX 11 1 10 2 9 3 8 4 7 5 5 6 6 7 4 9 2 10 1 11 3 12 77 13 78 14
REMARK SMILES IDX 83 15 79 16 82 17 84 18 80 19 81 20 12 21 13 22 14 23 15 24
REMARK SMILES IDX 16 26 17 27 18 28 76 29 19 30 75 31 20 32 21 33 22 34 69 35
REMARK SMILES IDX 23 36 74 37 68 38 70 39 24 40 73 41 67 42 66 43 25 45 55 46
REMARK SMILES IDX 36 47 54 48 37 49 40 50 53 51 71 52 38 53 39 54 52 56 72 57
REMARK SMILES IDX 41 58 26 59 27 60 35 61 28 62 34 63 29 64 30 65 31 66 32 67
REMARK SMILES IDX 33 68 56 69 57 70 65 71 58 72 64 73 59 74 60 75 61 76 62 77
REMARK SMILES IDX 63 78 42 79 43 80 51 81 44 82 50 83 45 84 46 85 47 86 48 87
REMARK SMILES IDX 49 88
REMARK H PARENT 7 8 14 25 70 44 40 55
REMARK Flexibility Score: inf
ROOT
ATOM      1  C   UNL A   1      34.439  22.728  25.112  1.00  0.00     0.002 C 
ENDROOT
BRANCH   1   2
ATOM      2  C   UNL A   1      34.555  22.836  26.635  1.00  0.00     0.002 C 
BRANCH   2   3
ATOM      3  C   UNL A   1      33.235  22.909  27.413  1.00  0.00     0.021 C 
BRANCH   3   4
ATOM      4  C   UNL A   1      31.970  22.641  26.599  1.00  0.00     0.116 C 
BRANCH   4   5
ATOM      5  N   UNL A   1      30.900  23.577  26.884  1.00  0.00    -0.356 N 
ATOM      6  C   UNL A   1      30.665  24.812  26.354  1.00  0.00     0.227 C 
ATOM      7  O   UNL A   1      29.603  25.358  26.663  1.00  0.00    -0.274 OA
ATOM      8  H   UNL A   1      30.249  23.277  27.558  1.00  0.00     0.163 HD
BRANCH   6   9
ATOM      9  C   UNL A   1      31.706  25.478  25.430  1.00  0.00     0.114 C 
BRANCH   9  10
ATOM     10  C   UNL A   1      31.252  25.617  23.939  1.00  0.00    -0.000 C 
ATOM     11  C   UNL A   1      30.662  24.348  23.314  1.00  0.00     0.008 C 
ATOM     12  C   UNL A   1      30.313  26.806  23.686  1.00  0.00     0.008 C 
ENDBRANCH   9  10
BRANCH   9  13
ATOM     13  C   UNL A   1      32.261  26.758  26.060  1.00  0.00     0.001 A 
ATOM     14  C   UNL A   1      31.465  27.628  26.821  1.00  0.00     0.009 A 
ATOM     15  C   UNL A   1      33.614  27.089  25.890  1.00  0.00     0.128 A 
ATOM     16  C   UNL A   1      31.992  28.819  27.327  1.00  0.00     0.021 A 
ATOM     17  C   UNL A   1      34.152  28.267  26.401  1.00  0.00     0.060 A 
ATOM     18  F   UNL A   1      34.423  26.270  25.204  1.00  0.00    -0.207 F 
ATOM     19  C   UNL A   1      33.330  29.138  27.107  1.00  0.00     0.043 A 
ATOM     20  Cl  UNL A   1      33.969  30.617  27.712  1.00  0.00    -0.084 Cl
ENDBRANCH   9  13
ENDBRANCH   6   9
ENDBRANCH   4   5
ENDBRANCH   3   4
ENDBRANCH   2   3
ENDBRANCH   1   2
BRANCH   1  21
ATOM     21  C   UNL A   1      35.660  23.187  24.313  1.00  0.00     0.021 C 
BRANCH  21  22
ATOM     22  C   UNL A   1      36.818  23.745  25.134  1.00  0.00     0.116 C 
BRANCH  22  23
ATOM     23  N   UNL A   1      37.866  22.772  25.387  1.00  0.00    -0.352 N 
ATOM     24  C   UNL A   1      39.053  22.929  26.067  1.00  0.00     0.251 C 
ATOM     25  H   UNL A   1      37.705  21.872  25.020  1.00  0.00     0.163 HD
ATOM     26  O   UNL A   1      39.869  22.019  26.090  1.00  0.00    -0.269 OA
BRANCH  24  27
ATOM     27  C   UNL A   1      39.351  24.217  26.739  1.00  0.00     0.039 A 
ATOM     28  C   UNL A   1      38.876  24.421  28.037  1.00  0.00     0.014 A 
ATOM     29  C   UNL A   1      40.098  25.211  26.102  1.00  0.00     0.014 A 
ATOM     30  C   UNL A   1      39.210  25.594  28.720  1.00  0.00     0.010 A 
ATOM     31  C   UNL A   1      40.487  26.346  26.808  1.00  0.00     0.010 A 
ATOM     32  C   UNL A   1      40.048  26.550  28.126  1.00  0.00    -0.014 A 
BRANCH  32  33
ATOM     33  C   UNL A   1      40.485  27.761  28.868  1.00  0.00     0.031 A 
ATOM     34  C   UNL A   1      41.831  27.794  29.540  1.00  0.00     0.074 A 
ATOM     35  C   UNL A   1      39.645  28.809  28.991  1.00  0.00     0.049 A 
ATOM     36  N   UNL A   1      42.362  28.737  30.278  1.00  0.00    -0.248 NA
ATOM     37  C   UNL A   1      42.684  26.605  29.384  1.00  0.00     0.031 C 
ATOM     38  C   UNL A   1      38.298  28.886  28.421  1.00  0.00     0.029 A 
ATOM     39  N   UNL A   1      39.797  30.009  29.642  1.00  0.00    -0.354 N 
ATOM     40  C   UNL A   1      43.599  28.250  30.684  1.00  0.00     0.074 A 
ATOM     41  C   UNL A   1      43.718  26.910  30.154  1.00  0.00     0.031 C 
ATOM     42  C   UNL A   1      37.759  30.078  28.725  1.00  0.00     0.029 A 
ATOM     43  C   UNL A   1      38.701  30.833  29.545  1.00  0.00     0.049 A 
ATOM     44  H   UNL A   1      40.615  30.255  30.132  1.00  0.00     0.167 HD
ATOM     45  C   UNL A   1      44.555  28.868  31.418  1.00  0.00     0.031 A 
ATOM     46  C   UNL A   1      38.474  32.057  30.061  1.00  0.00     0.031 A 
ATOM     47  C   UNL A   1      44.437  30.205  31.936  1.00  0.00     0.049 A 
ATOM     48  C   UNL A   1      39.548  32.719  30.881  1.00  0.00     0.074 A 
ATOM     49  C   UNL A   1      45.374  30.938  32.644  1.00  0.00     0.029 A 
ATOM     50  N   UNL A   1      43.315  31.010  31.808  1.00  0.00    -0.354 N 
ATOM     51  N   UNL A   1      40.736  32.266  31.201  1.00  0.00    -0.248 NA
ATOM     52  C   UNL A   1      39.254  34.063  31.399  1.00  0.00     0.031 C 
ATOM     53  C   UNL A   1      44.799  32.166  32.989  1.00  0.00     0.029 A 
ATOM     54  C   UNL A   1      43.527  32.222  32.442  1.00  0.00     0.049 A 
ATOM     55  H   UNL A   1      42.491  30.756  31.334  1.00  0.00     0.167 HD
ATOM     56  C   UNL A   1      41.343  33.279  31.933  1.00  0.00     0.074 A 
ATOM     57  C   UNL A   1      40.396  34.374  31.998  1.00  0.00     0.031 C 
ATOM     58  C   UNL A   1      42.575  33.303  32.499  1.00  0.00     0.031 A 
BRANCH  45  59
ATOM     59  C   UNL A   1      45.816  28.096  31.709  1.00  0.00    -0.014 A 
ATOM     60  C   UNL A   1      46.904  28.116  30.817  1.00  0.00     0.010 A 
ATOM     61  C   UNL A   1      45.932  27.372  32.910  1.00  0.00     0.010 A 
ATOM     62  C   UNL A   1      48.066  27.392  31.099  1.00  0.00     0.020 A 
ATOM     63  C   UNL A   1      47.104  26.670  33.210  1.00  0.00     0.020 A 
ATOM     64  C   UNL A   1      48.157  26.671  32.292  1.00  0.00     0.054 A 
BRANCH  64  65
ATOM     65  S   UNL A   1      49.684  25.755  32.640  1.00  0.00     0.124 S 
ATOM     66  O   UNL A   1      50.513  26.782  33.265  1.00  0.00    -0.237 OA
ATOM     67  O   UNL A   1      49.224  24.692  33.529  1.00  0.00    -0.237 OA
ATOM     68  O   UNL A   1      50.130  25.311  31.321  1.00  0.00    -0.744 OA
ENDBRANCH  64  65
ENDBRANCH  45  59
BRANCH  46  69
ATOM     69  C   UNL A   1      37.177  32.743  29.805  1.00  0.00    -0.014 A 
ATOM     70  C   UNL A   1      36.130  32.665  30.740  1.00  0.00     0.010 A 
ATOM     71  C   UNL A   1      36.988  33.491  28.629  1.00  0.00     0.010 A 
ATOM     72  C   UNL A   1      34.912  33.307  30.496  1.00  0.00     0.020 A 
ATOM     73  C   UNL A   1      35.782  34.158  28.395  1.00  0.00     0.020 A 
ATOM     74  C   UNL A   1      34.746  34.052  29.325  1.00  0.00     0.054 A 
BRANCH  74  75
ATOM     75  S   UNL A   1      33.176  34.920  29.053  1.00  0.00     0.124 S 
ATOM     76  O   UNL A   1      32.539  34.083  28.042  1.00  0.00    -0.237 OA
ATOM     77  O   UNL A   1      32.565  34.888  30.380  1.00  0.00    -0.237 OA
ATOM     78  O   UNL A   1      33.594  36.245  28.600  1.00  0.00    -0.744 OA
ENDBRANCH  74  75
ENDBRANCH  46  69
BRANCH  58  79
ATOM     79  C   UNL A   1      42.990  34.564  33.208  1.00  0.00    -0.014 A 
ATOM     80  C   UNL A   1      42.750  34.745  34.581  1.00  0.00     0.010 A 
ATOM     81  C   UNL A   1      43.684  35.562  32.498  1.00  0.00     0.010 A 
ATOM     82  C   UNL A   1      43.169  35.912  35.225  1.00  0.00     0.020 A 
ATOM     83  C   UNL A   1      44.129  36.717  33.142  1.00  0.00     0.020 A 
ATOM     84  C   UNL A   1      43.857  36.891  34.501  1.00  0.00     0.054 A 
BRANCH  84  85
ATOM     85  S   UNL A   1      44.432  38.377  35.370  1.00  0.00     0.124 S 
ATOM     86  O   UNL A   1      43.913  38.159  36.717  1.00  0.00    -0.237 OA
ATOM     87  O   UNL A   1      45.883  38.286  35.233  1.00  0.00    -0.237 OA
ATOM     88  O   UNL A   1      43.810  39.473  34.632  1.00  0.00    -0.744 OA
ENDBRANCH  84  85
ENDBRANCH  58  79
ENDBRANCH  32  33
ENDBRANCH  24  27
ENDBRANCH  22  23
ENDBRANCH  21  22
ENDBRANCH   1  21
TORSDOF 18
ENDMDL
MODEL 2
REMARK VINA RESULT:     -10.0      2.797      9.154
REMARK SMILES CC(C)[C@H](C(=O)NCCCCCCNC(=O)c1ccc(-c2c3nc(c(-c4ccc(S(=O)(=O)[O-])cc4)c4ccc([nH]4)c(-c4ccc(S(=O)(=O)[O-])cc4)c4nc(c(-c5ccc(S(=O)(=O)[O-])cc5)c5ccc2[nH]5)C=C4)C=C3)cc1)c1ccc(Cl)cc1F
REMARK SMILES IDX 11 1 10 2 9 3 8 4 7 5 5 6 6 7 4 9 2 10 1 11 3 12 77 13 78 14
REMARK SMILES IDX 83 15 79 16 82 17 84 18 80 19 81 20 12 21 13 22 14 23 15 24
REMARK SMILES IDX 16 26 17 27 18 28 76 29 19 30 75 31 20 32 21 33 22 34 69 35
REMARK SMILES IDX 23 36 74 37 68 38 70 39 24 40 73 41 67 42 66 43 25 45 55 46
REMARK SMILES IDX 36 47 54 48 37 49 40 50 53 51 71 52 38 53 39 54 52 56 72 57
REMARK SMILES IDX 41 58 26 59 27 60 35 61 28 62 34 63 29 64 30 65 31 66 32 67
REMARK SMILES IDX 33 68 56 69 57 70 65 71 58 72 64 73 59 74 60 75 61 76 62 77
REMARK SMILES IDX 63 78 42 79 43 80 51 81 44 82 50 83 45 84 46 85 47 86 48 87
REMARK SMILES IDX 49 88
REMARK H PARENT 7 8 14 25 70 44 40 55
REMARK Flexibility Score: inf
ROOT
ATOM      1  C   UNL A   1      31.900  27.444  25.694  1.00  0.00     0.002 C 
ENDROOT
BRANCH   1   2
ATOM      2  C   UNL A   1      31.768  25.989  25.235  1.00  0.00     0.002 C 
BRANCH   2   3
ATOM      3  C   UNL A   1      30.483  25.630  24.479  1.00  0.00     0.021 C 
BRANCH   3   4
ATOM      4  C   UNL A   1      30.560  24.389  23.591  1.00  0.00     0.116 C 
BRANCH   4   5
ATOM      5  N   UNL A   1      31.633  24.453  22.617  1.00  0.00    -0.356 N 
ATOM      6  C   UNL A   1      32.752  23.678  22.508  1.00  0.00     0.227 C 
ATOM      7  O   UNL A   1      33.448  23.844  21.504  1.00  0.00    -0.274 OA
ATOM      8  H   UNL A   1      31.540  25.157  21.935  1.00  0.00     0.163 HD
BRANCH   6   9
ATOM      9  C   UNL A   1      33.113  22.667  23.616  1.00  0.00     0.114 C 
BRANCH   9  10
ATOM     10  C   UNL A   1      32.861  21.171  23.231  1.00  0.00    -0.000 C 
ATOM     11  C   UNL A   1      32.544  20.238  24.404  1.00  0.00     0.008 C 
ATOM     12  C   UNL A   1      31.817  20.984  22.121  1.00  0.00     0.008 C 
ENDBRANCH   9  10
BRANCH   9  13
ATOM     13  C   UNL A   1      34.497  22.961  24.198  1.00  0.00     0.001 A 
ATOM     14  C   UNL A   1      35.682  22.708  23.489  1.00  0.00     0.009 A 
ATOM     15  C   UNL A   1      34.611  23.511  25.484  1.00  0.00     0.128 A 
ATOM     16  C   UNL A   1      36.929  22.931  24.078  1.00  0.00     0.021 A 
ATOM     17  C   UNL A   1      35.848  23.750  26.075  1.00  0.00     0.060 A 
ATOM     18  F   UNL A   1      33.507  23.808  26.185  1.00  0.00    -0.207 F 
ATOM     19  C   UNL A   1      37.006  23.442  25.372  1.00  0.00     0.043 A 
ATOM     20  Cl  UNL A   1      38.544  23.693  26.103  1.00  0.00    -0.084 Cl
ENDBRANCH   9  13
ENDBRANCH   6   9
ENDBRANCH   4   5
ENDBRANCH   3   4
ENDBRANCH   2   3
ENDBRANCH   1   2
BRANCH   1  21
ATOM     21  C   UNL A   1      33.289  27.872  26.171  1.00  0.00     0.021 C 
BRANCH  21  22
ATOM     22  C   UNL A   1      33.361  28.428  27.589  1.00  0.00     0.116 C 
BRANCH  22  23
ATOM     23  N   UNL A   1      33.331  29.880  27.640  1.00  0.00    -0.352 N 
ATOM     24  C   UNL A   1      34.332  30.759  27.988  1.00  0.00     0.251 C 
ATOM     25  H   UNL A   1      32.473  30.294  27.391  1.00  0.00     0.163 HD
ATOM     26  O   UNL A   1      34.093  31.954  28.077  1.00  0.00    -0.269 OA
BRANCH  24  27
ATOM     27  C   UNL A   1      35.690  30.245  28.290  1.00  0.00     0.039 A 
ATOM     28  C   UNL A   1      36.650  30.251  27.275  1.00  0.00     0.014 A 
ATOM     29  C   UNL A   1      36.019  29.769  29.562  1.00  0.00     0.014 A 
ATOM     30  C   UNL A   1      37.958  29.846  27.555  1.00  0.00     0.010 A 
ATOM     31  C   UNL A   1      37.337  29.432  29.858  1.00  0.00     0.010 A 
ATOM     32  C   UNL A   1      38.322  29.467  28.858  1.00  0.00    -0.014 A 
BRANCH  32  33
ATOM     33  C   UNL A   1      39.727  29.117  29.194  1.00  0.00     0.031 A 
ATOM     34  C   UNL A   1      40.629  30.135  29.839  1.00  0.00     0.074 A 
ATOM     35  C   UNL A   1      40.210  27.902  28.865  1.00  0.00     0.049 A 
ATOM     36  N   UNL A   1      41.895  30.033  30.155  1.00  0.00    -0.248 NA
ATOM     37  C   UNL A   1      40.039  31.448  30.147  1.00  0.00     0.031 C 
ATOM     38  C   UNL A   1      39.450  26.840  28.201  1.00  0.00     0.029 A 
ATOM     39  N   UNL A   1      41.459  27.358  29.035  1.00  0.00    -0.354 N 
ATOM     40  C   UNL A   1      42.256  31.267  30.682  1.00  0.00     0.074 A 
ATOM     41  C   UNL A   1      41.090  32.118  30.598  1.00  0.00     0.031 C 
ATOM     42  C   UNL A   1      40.240  25.765  28.046  1.00  0.00     0.029 A 
ATOM     43  C   UNL A   1      41.572  26.073  28.557  1.00  0.00     0.049 A 
ATOM     44  H   UNL A   1      42.204  27.842  29.460  1.00  0.00     0.167 HD
ATOM     45  C   UNL A   1      43.444  31.652  31.205  1.00  0.00     0.031 A 
ATOM     46  C   UNL A   1      42.628  25.237  28.528  1.00  0.00     0.031 A 
ATOM     47  C   UNL A   1      44.601  30.800  31.296  1.00  0.00     0.049 A 
ATOM     48  C   UNL A   1      43.940  25.691  29.107  1.00  0.00     0.074 A 
ATOM     49  C   UNL A   1      45.833  31.081  31.859  1.00  0.00     0.029 A 
ATOM     50  N   UNL A   1      44.670  29.503  30.810  1.00  0.00    -0.354 N 
ATOM     51  N   UNL A   1      44.243  26.841  29.659  1.00  0.00    -0.248 NA
ATOM     52  C   UNL A   1      45.051  24.728  29.068  1.00  0.00     0.031 C 
ATOM     53  C   UNL A   1      46.665  29.974  31.667  1.00  0.00     0.029 A 
ATOM     54  C   UNL A   1      45.931  28.979  31.040  1.00  0.00     0.049 A 
ATOM     55  H   UNL A   1      43.932  29.026  30.369  1.00  0.00     0.167 HD
ATOM     56  C   UNL A   1      45.569  26.731  30.059  1.00  0.00     0.074 A 
ATOM     57  C   UNL A   1      46.007  25.398  29.698  1.00  0.00     0.031 C 
ATOM     58  C   UNL A   1      46.354  27.650  30.674  1.00  0.00     0.031 A 
BRANCH  45  59
ATOM     59  C   UNL A   1      43.555  33.066  31.716  1.00  0.00    -0.014 A 
ATOM     60  C   UNL A   1      43.924  34.121  30.862  1.00  0.00     0.010 A 
ATOM     61  C   UNL A   1      43.248  33.351  33.059  1.00  0.00     0.010 A 
ATOM     62  C   UNL A   1      44.027  35.426  31.351  1.00  0.00     0.020 A 
ATOM     63  C   UNL A   1      43.321  34.660  33.545  1.00  0.00     0.020 A 
ATOM     64  C   UNL A   1      43.728  35.687  32.691  1.00  0.00     0.054 A 
BRANCH  64  65
ATOM     65  S   UNL A   1      43.852  37.393  33.293  1.00  0.00     0.124 S 
ATOM     66  O   UNL A   1      43.744  38.157  32.053  1.00  0.00    -0.237 OA
ATOM     67  O   UNL A   1      42.710  37.498  34.197  1.00  0.00    -0.237 OA
ATOM     68  O   UNL A   1      45.162  37.438  33.940  1.00  0.00    -0.744 OA
ENDBRANCH  64  65
ENDBRANCH  45  59
BRANCH  46  69
ATOM     69  C   UNL A   1      42.483  23.876  27.941  1.00  0.00    -0.014 A 
ATOM     70  C   UNL A   1      42.751  23.652  26.579  1.00  0.00     0.010 A 
ATOM     71  C   UNL A   1      42.089  22.792  28.746  1.00  0.00     0.010 A 
ATOM     72  C   UNL A   1      42.609  22.374  26.029  1.00  0.00     0.020 A 
ATOM     73  C   UNL A   1      41.974  21.508  28.207  1.00  0.00     0.020 A 
ATOM     74  C   UNL A   1      42.224  21.309  26.847  1.00  0.00     0.054 A 
BRANCH  74  75
ATOM     75  S   UNL A   1      42.099  19.650  26.123  1.00  0.00     0.124 S 
ATOM     76  O   UNL A   1      42.558  18.806  27.221  1.00  0.00    -0.237 OA
ATOM     77  O   UNL A   1      40.677  19.554  25.800  1.00  0.00    -0.237 OA
ATOM     78  O   UNL A   1      42.989  19.714  24.967  1.00  0.00    -0.744 OA
ENDBRANCH  74  75
ENDBRANCH  46  69
BRANCH  58  79
ATOM     79  C   UNL A   1      47.757  27.240  31.032  1.00  0.00    -0.014 A 
ATOM     80  C   UNL A   1      48.033  26.527  32.212  1.00  0.00     0.010 A 
ATOM     81  C   UNL A   1      48.810  27.524  30.142  1.00  0.00     0.010 A 
ATOM     82  C   UNL A   1      49.340  26.132  32.510  1.00  0.00     0.020 A 
ATOM     83  C   UNL A   1      50.113  27.107  30.421  1.00  0.00     0.020 A 
ATOM     84  C   UNL A   1      50.372  26.425  31.612  1.00  0.00     0.054 A 
BRANCH  84  85
ATOM     85  S   UNL A   1      52.053  25.860  31.999  1.00  0.00     0.124 S 
ATOM     86  O   UNL A   1      51.803  24.543  32.579  1.00  0.00    -0.237 OA
ATOM     87  O   UNL A   1      52.699  25.858  30.689  1.00  0.00    -0.237 OA
ATOM     88  O   UNL A   1      52.551  26.868  32.932  1.00  0.00    -0.744 OA
ENDBRANCH  84  85
ENDBRANCH  58  79
ENDBRANCH  32  33
ENDBRANCH  24  27
ENDBRANCH  22  23
ENDBRANCH  21  22
ENDBRANCH   1  21
TORSDOF 18
ENDMDL
MODEL 3
REMARK VINA RESULT:      -9.7      3.268      9.396
REMARK SMILES CC(C)[C@H](C(=O)NCCCCCCNC(=O)c1ccc(-c2c3nc(c(-c4ccc(S(=O)(=O)[O-])cc4)c4ccc([nH]4)c(-c4ccc(S(=O)(=O)[O-])cc4)c4nc(c(-c5ccc(S(=O)(=O)[O-])cc5)c5ccc2[nH]5)C=C4)C=C3)cc1)c1ccc(Cl)cc1F
REMARK SMILES IDX 11 1 10 2 9 3 8 4 7 5 5 6 6 7 4 9 2 10 1 11 3 12 77 13 78 14
REMARK SMILES IDX 83 15 79 16 82 17 84 18 80 19 81 20 12 21 13 22 14 23 15 24
REMARK SMILES IDX 16 26 17 27 18 28 76 29 19 30 75 31 20 32 21 33 22 34 69 35
REMARK SMILES IDX 23 36 74 37 68 38 70 39 24 40 73 41 67 42 66 43 25 45 55 46
REMARK SMILES IDX 36 47 54 48 37 49 40 50 53 51 71 52 38 53 39 54 52 56 72 57
REMARK SMILES IDX 41 58 26 59 27 60 35 61 28 62 34 63 29 64 30 65 31 66 32 67
REMARK SMILES IDX 33 68 56 69 57 70 65 71 58 72 64 73 59 74 60 75 61 76 62 77
REMARK SMILES IDX 63 78 42 79 43 80 51 81 44 82 50 83 45 84 46 85 47 86 48 87
REMARK SMILES IDX 49 88
REMARK H PARENT 7 8 14 25 70 44 40 55
REMARK Flexibility Score: inf
ROOT
ATOM      1  C   UNL A   1      32.177  27.271  25.335  1.00  0.00     0.002 C 
ENDROOT
BRANCH   1   2
ATOM      2  C   UNL A   1      31.710  26.167  26.289  1.00  0.00     0.002 C 
BRANCH   2   3
ATOM      3  C   UNL A   1      30.573  25.269  25.783  1.00  0.00     0.021 C 
BRANCH   3   4
ATOM      4  C   UNL A   1      30.763  23.770  26.008  1.00  0.00     0.116 C 
BRANCH   4   5
ATOM      5  N   UNL A   1      32.083  23.431  26.502  1.00  0.00    -0.356 N 
ATOM      6  C   UNL A   1      33.168  22.959  25.821  1.00  0.00     0.227 C 
ATOM      7  O   UNL A   1      34.227  22.877  26.449  1.00  0.00    -0.274 OA
ATOM      8  H   UNL A   1      32.216  23.560  27.469  1.00  0.00     0.163 HD
BRANCH   6   9
ATOM      9  C   UNL A   1      33.041  22.536  24.343  1.00  0.00     0.114 C 
BRANCH   9  10
ATOM     10  C   UNL A   1      33.906  23.384  23.353  1.00  0.00    -0.000 C 
ATOM     11  C   UNL A   1      33.292  23.599  21.965  1.00  0.00     0.008 C 
ATOM     12  C   UNL A   1      34.369  24.730  23.930  1.00  0.00     0.008 C 
ENDBRANCH   9  10
BRANCH   9  13
ATOM     13  C   UNL A   1      33.182  21.020  24.191  1.00  0.00     0.001 A 
ATOM     14  C   UNL A   1      34.118  20.274  24.924  1.00  0.00     0.009 A 
ATOM     15  C   UNL A   1      32.350  20.328  23.298  1.00  0.00     0.128 A 
ATOM     16  C   UNL A   1      34.260  18.900  24.712  1.00  0.00     0.021 A 
ATOM     17  C   UNL A   1      32.475  18.958  23.088  1.00  0.00     0.060 A 
ATOM     18  F   UNL A   1      31.414  20.991  22.604  1.00  0.00    -0.207 F 
ATOM     19  C   UNL A   1      33.445  18.250  23.788  1.00  0.00     0.043 A 
ATOM     20  Cl  UNL A   1      33.639  16.562  23.514  1.00  0.00    -0.084 Cl
ENDBRANCH   9  13
ENDBRANCH   6   9
ENDBRANCH   4   5
ENDBRANCH   3   4
ENDBRANCH   2   3
ENDBRANCH   1   2
BRANCH   1  21
ATOM     21  C   UNL A   1      33.414  28.055  25.774  1.00  0.00     0.021 C 
BRANCH  21  22
ATOM     22  C   UNL A   1      33.516  28.353  27.266  1.00  0.00     0.116 C 
BRANCH  22  23
ATOM     23  N   UNL A   1      33.421  29.768  27.579  1.00  0.00    -0.352 N 
ATOM     24  C   UNL A   1      34.372  30.606  28.116  1.00  0.00     0.251 C 
ATOM     25  H   UNL A   1      32.552  30.187  27.380  1.00  0.00     0.163 HD
ATOM     26  O   UNL A   1      34.077  31.755  28.412  1.00  0.00    -0.269 OA
BRANCH  24  27
ATOM     27  C   UNL A   1      35.742  30.099  28.368  1.00  0.00     0.039 A 
ATOM     28  C   UNL A   1      36.659  30.093  27.313  1.00  0.00     0.014 A 
ATOM     29  C   UNL A   1      36.125  29.641  29.631  1.00  0.00     0.014 A 
ATOM     30  C   UNL A   1      37.978  29.693  27.544  1.00  0.00     0.010 A 
ATOM     31  C   UNL A   1      37.455  29.309  29.875  1.00  0.00     0.010 A 
ATOM     32  C   UNL A   1      38.397  29.333  28.834  1.00  0.00    -0.014 A 
BRANCH  32  33
ATOM     33  C   UNL A   1      39.815  28.989  29.116  1.00  0.00     0.031 A 
ATOM     34  C   UNL A   1      40.741  30.016  29.712  1.00  0.00     0.074 A 
ATOM     35  C   UNL A   1      40.288  27.772  28.780  1.00  0.00     0.049 A 
ATOM     36  N   UNL A   1      42.020  29.920  29.976  1.00  0.00    -0.248 NA
ATOM     37  C   UNL A   1      40.161  31.331  30.031  1.00  0.00     0.031 C 
ATOM     38  C   UNL A   1      39.504  26.701  28.160  1.00  0.00     0.029 A 
ATOM     39  N   UNL A   1      41.544  27.232  28.905  1.00  0.00    -0.354 N 
ATOM     40  C   UNL A   1      42.399  31.160  30.475  1.00  0.00     0.074 A 
ATOM     41  C   UNL A   1      41.228  32.008  30.430  1.00  0.00     0.031 C 
ATOM     42  C   UNL A   1      40.290  25.626  27.984  1.00  0.00     0.029 A 
ATOM     43  C   UNL A   1      41.640  25.942  28.437  1.00  0.00     0.049 A 
ATOM     44  H   UNL A   1      42.305  27.722  29.293  1.00  0.00     0.167 HD
ATOM     45  C   UNL A   1      43.607  31.554  30.944  1.00  0.00     0.031 A 
ATOM     46  C   UNL A   1      42.697  25.108  28.372  1.00  0.00     0.031 A 
ATOM     47  C   UNL A   1      44.768  30.705  30.996  1.00  0.00     0.049 A 
ATOM     48  C   UNL A   1      44.031  25.571  28.891  1.00  0.00     0.074 A 
ATOM     49  C   UNL A   1      46.022  30.995  31.505  1.00  0.00     0.029 A 
ATOM     50  N   UNL A   1      44.821  29.403  30.522  1.00  0.00    -0.354 N 
ATOM     51  N   UNL A   1      44.353  26.728  29.418  1.00  0.00    -0.248 NA
ATOM     52  C   UNL A   1      45.141  24.611  28.817  1.00  0.00     0.031 C 
ATOM     53  C   UNL A   1      46.848  29.887  31.290  1.00  0.00     0.029 A 
ATOM     54  C   UNL A   1      46.091  28.885  30.704  1.00  0.00     0.049 A 
ATOM     55  H   UNL A   1      44.066  28.920  30.117  1.00  0.00     0.167 HD
ATOM     56  C   UNL A   1      45.695  26.625  29.764  1.00  0.00     0.074 A 
ATOM     57  C   UNL A   1      46.121  25.289  29.399  1.00  0.00     0.031 C 
ATOM     58  C   UNL A   1      46.502  27.552  30.336  1.00  0.00     0.031 A 
BRANCH  45  59
ATOM     59  C   UNL A   1      43.735  32.973  31.435  1.00  0.00    -0.014 A 
ATOM     60  C   UNL A   1      44.079  34.017  30.557  1.00  0.00     0.010 A 
ATOM     61  C   UNL A   1      43.469  33.274  32.783  1.00  0.00     0.010 A 
ATOM     62  C   UNL A   1      44.199  35.328  31.027  1.00  0.00     0.020 A 
ATOM     63  C   UNL A   1      43.559  34.589  33.251  1.00  0.00     0.020 A 
ATOM     64  C   UNL A   1      43.941  35.605  32.373  1.00  0.00     0.054 A 
BRANCH  64  65
ATOM     65  S   UNL A   1      44.086  37.318  32.951  1.00  0.00     0.124 S 
ATOM     66  O   UNL A   1      42.934  37.432  33.842  1.00  0.00    -0.237 OA
ATOM     67  O   UNL A   1      45.390  37.325  33.608  1.00  0.00    -0.237 OA
ATOM     68  O   UNL A   1      44.005  38.107  31.724  1.00  0.00    -0.744 OA
ENDBRANCH  64  65
ENDBRANCH  45  59
BRANCH  46  69
ATOM     69  C   UNL A   1      42.531  23.741  27.806  1.00  0.00    -0.014 A 
ATOM     70  C   UNL A   1      42.402  22.627  28.654  1.00  0.00     0.010 A 
ATOM     71  C   UNL A   1      42.486  23.547  26.413  1.00  0.00     0.010 A 
ATOM     72  C   UNL A   1      42.251  21.343  28.121  1.00  0.00     0.020 A 
ATOM     73  C   UNL A   1      42.306  22.270  25.877  1.00  0.00     0.020 A 
ATOM     74  C   UNL A   1      42.201  21.172  26.735  1.00  0.00     0.054 A 
BRANCH  74  75
ATOM     75  S   UNL A   1      41.950  19.504  26.065  1.00  0.00     0.124 S 
ATOM     76  O   UNL A   1      40.533  19.526  25.721  1.00  0.00    -0.237 OA
ATOM     77  O   UNL A   1      42.878  19.476  24.937  1.00  0.00    -0.237 OA
ATOM     78  O   UNL A   1      42.312  18.632  27.181  1.00  0.00    -0.744 OA
ENDBRANCH  74  75
ENDBRANCH  46  69
BRANCH  58  79
ATOM     79  C   UNL A   1      47.920  27.149  30.639  1.00  0.00    -0.014 A 
ATOM     80  C   UNL A   1      48.967  27.423  29.742  1.00  0.00     0.010 A 
ATOM     81  C   UNL A   1      48.217  26.535  31.870  1.00  0.00     0.010 A 
ATOM     82  C   UNL A   1      50.280  27.063  30.056  1.00  0.00     0.020 A 
ATOM     83  C   UNL A   1      49.532  26.199  32.201  1.00  0.00     0.020 A 
ATOM     84  C   UNL A   1      50.554  26.454  31.285  1.00  0.00     0.054 A 
BRANCH  84  85
ATOM     85  S   UNL A   1      52.274  26.040  31.690  1.00  0.00     0.124 S 
ATOM     86  O   UNL A   1      52.621  27.092  32.642  1.00  0.00    -0.237 OA
ATOM     87  O   UNL A   1      52.156  24.697  32.253  1.00  0.00    -0.237 OA
ATOM     88  O   UNL A   1      52.960  26.112  30.403  1.00  0.00    -0.744 OA
ENDBRANCH  84  85
ENDBRANCH  58  79
ENDBRANCH  32  33
ENDBRANCH  24  27
ENDBRANCH  22  23
ENDBRANCH  21  22
ENDBRANCH   1  21
TORSDOF 18
ENDMDL
