MODEL 1
REMARK VINA RESULT:      -9.2      0.000      0.000
REMARK SMILES Cc1ccsc1CNS(=O)(=O)c1ccc(C(=O)NCCCCCCNC(=O)c2ccc(-c3c4nc(c(-c5ccc(S(=O)(=O)[O-])cc5)c5ccc([nH]5)c(-c5ccc(S(=O)(=O)[O-])cc5)c5nc(c(-c6ccc(S(=O)(=O)[O-])cc6)c6ccc3[nH]6)C=C5)C=C4)cc2)s1
REMARK SMILES IDX 21 1 20 2 19 3 18 4 16 5 17 6 15 8 12 9 13 10 88 11 14 12
REMARK SMILES IDX 9 13 10 14 11 15 8 16 7 18 6 19 1 20 2 21 3 22 4 23 5 24
REMARK SMILES IDX 22 25 23 26 24 27 25 28 26 29 27 31 28 32 29 33 87 34 30 35
REMARK SMILES IDX 86 36 31 37 32 38 33 39 80 40 34 41 85 42 79 43 81 44 35 45
REMARK SMILES IDX 84 46 78 47 77 48 36 50 66 51 47 52 65 53 48 54 51 55 64 56
REMARK SMILES IDX 82 57 49 58 50 59 63 61 83 62 52 63 37 64 38 65 46 66 39 67
REMARK SMILES IDX 45 68 40 69 41 70 42 71 43 72 44 73 67 74 68 75 76 76 69 77
REMARK SMILES IDX 75 78 70 79 71 80 72 81 73 82 74 83 53 84 54 85 62 86 55 87
REMARK SMILES IDX 61 88 56 89 57 90 58 91 59 92 60 93
REMARK H PARENT 18 7 8 17 25 30 81 49 51 60
REMARK Flexibility Score: inf
ROOT
ATOM      1  C   UNL A   1      36.830  30.902  28.007  1.00  0.00     0.002 C 
ENDROOT
BRANCH   1   2
ATOM      2  C   UNL A   1      36.016  29.624  28.261  1.00  0.00     0.021 C 
BRANCH   2   3
ATOM      3  C   UNL A   1      35.030  29.309  27.137  1.00  0.00     0.116 C 
BRANCH   3   4
ATOM      4  N   UNL A   1      33.968  30.292  27.113  1.00  0.00    -0.351 N 
ATOM      5  C   UNL A   1      32.652  30.222  26.735  1.00  0.00     0.261 C 
ATOM      6  O   UNL A   1      32.032  31.287  26.831  1.00  0.00    -0.268 OA
ATOM      7  H   UNL A   1      34.245  31.182  27.429  1.00  0.00     0.163 HD
BRANCH   5   8
ATOM      8  C   UNL A   1      32.029  28.972  26.315  1.00  0.00     0.093 A 
ATOM      9  C   UNL A   1      30.942  27.321  24.796  1.00  0.00     0.135 A 
ATOM     10  C   UNL A   1      30.855  26.953  26.123  1.00  0.00     0.034 A 
ATOM     11  S   UNL A   1      31.894  28.716  24.617  1.00  0.00    -0.117 S 
ATOM     12  C   UNL A   1      31.521  27.875  26.990  1.00  0.00     0.027 A 
BRANCH   9  13
ATOM     13  S   UNL A   1      30.262  26.590  23.328  1.00  0.00     0.250 S 
ATOM     14  O   UNL A   1      30.436  27.593  22.300  1.00  0.00    -0.206 OA
ATOM     15  O   UNL A   1      28.945  26.142  23.719  1.00  0.00    -0.206 OA
BRANCH  13  16
ATOM     16  N   UNL A   1      31.106  25.217  22.850  1.00  0.00    -0.205 NA
ATOM     17  H   UNL A   1      30.634  24.837  22.029  1.00  0.00     0.141 HD
BRANCH  16  18
ATOM     18  C   UNL A   1      31.225  24.133  23.834  1.00  0.00     0.145 C 
BRANCH  18  19
ATOM     19  C   UNL A   1      32.602  24.164  24.443  1.00  0.00     0.022 A 
ATOM     20  C   UNL A   1      32.081  23.551  26.891  1.00  0.00     0.045 C 
ATOM     21  C   UNL A   1      32.983  23.917  25.757  1.00  0.00    -0.036 A 
ATOM     22  C   UNL A   1      34.405  24.043  25.915  1.00  0.00     0.015 A 
ATOM     23  C   UNL A   1      35.049  24.353  24.741  1.00  0.00     0.065 A 
ATOM     24  S   UNL A   1      33.964  24.479  23.436  1.00  0.00    -0.147 S 
ENDBRANCH  18  19
ENDBRANCH  16  18
ENDBRANCH  13  16
ENDBRANCH   9  13
ENDBRANCH   5   8
ENDBRANCH   3   4
ENDBRANCH   2   3
ENDBRANCH   1   2
BRANCH   1  25
ATOM     25  C   UNL A   1      36.750  31.951  29.125  1.00  0.00     0.002 C 
BRANCH  25  26
ATOM     26  C   UNL A   1      35.760  31.630  30.250  1.00  0.00     0.021 C 
BRANCH  26  27
ATOM     27  C   UNL A   1      36.373  30.933  31.461  1.00  0.00     0.116 C 
BRANCH  27  28
ATOM     28  N   UNL A   1      36.810  31.887  32.466  1.00  0.00    -0.352 N 
ATOM     29  C   UNL A   1      38.068  32.138  32.951  1.00  0.00     0.251 C 
ATOM     30  H   UNL A   1      36.094  32.437  32.858  1.00  0.00     0.163 HD
ATOM     31  O   UNL A   1      38.194  32.825  33.962  1.00  0.00    -0.269 OA
BRANCH  29  32
ATOM     32  C   UNL A   1      39.265  31.590  32.276  1.00  0.00     0.039 A 
ATOM     33  C   UNL A   1      39.574  32.050  30.992  1.00  0.00     0.014 A 
ATOM     34  C   UNL A   1      40.048  30.592  32.865  1.00  0.00     0.014 A 
ATOM     35  C   UNL A   1      40.683  31.536  30.318  1.00  0.00     0.010 A 
ATOM     36  C   UNL A   1      41.194  30.127  32.217  1.00  0.00     0.010 A 
ATOM     37  C   UNL A   1      41.516  30.585  30.932  1.00  0.00    -0.014 A 
BRANCH  37  38
ATOM     38  C   UNL A   1      42.722  30.081  30.228  1.00  0.00     0.031 A 
ATOM     39  C   UNL A   1      43.972  30.914  30.147  1.00  0.00     0.074 A 
ATOM     40  C   UNL A   1      42.684  28.865  29.648  1.00  0.00     0.049 A 
ATOM     41  N   UNL A   1      45.136  30.603  29.632  1.00  0.00    -0.248 NA
ATOM     42  C   UNL A   1      43.906  32.278  30.696  1.00  0.00     0.031 C 
ATOM     43  C   UNL A   1      41.513  27.986  29.605  1.00  0.00     0.029 A 
ATOM     44  N   UNL A   1      43.657  28.155  28.991  1.00  0.00    -0.354 N 
ATOM     45  C   UNL A   1      45.935  31.731  29.787  1.00  0.00     0.074 A 
ATOM     46  C   UNL A   1      45.108  32.750  30.398  1.00  0.00     0.031 C 
ATOM     47  C   UNL A   1      41.848  26.837  28.996  1.00  0.00     0.029 A 
ATOM     48  C   UNL A   1      43.246  26.909  28.583  1.00  0.00     0.049 A 
ATOM     49  H   UNL A   1      44.563  28.504  28.829  1.00  0.00     0.167 HD
ATOM     50  C   UNL A   1      47.241  31.897  29.470  1.00  0.00     0.031 A 
ATOM     51  C   UNL A   1      43.922  25.925  27.959  1.00  0.00     0.031 A 
ATOM     52  C   UNL A   1      48.064  30.879  28.868  1.00  0.00     0.049 A 
ATOM     53  C   UNL A   1      45.377  26.121  27.642  1.00  0.00     0.074 A 
ATOM     54  C   UNL A   1      49.413  30.929  28.562  1.00  0.00     0.029 A 
ATOM     55  N   UNL A   1      47.612  29.628  28.476  1.00  0.00    -0.354 N 
ATOM     56  N   UNL A   1      46.135  27.167  27.871  1.00  0.00    -0.248 NA
ATOM     57  C   UNL A   1      46.072  24.997  27.002  1.00  0.00     0.031 C 
ATOM     58  C   UNL A   1      49.767  29.725  27.944  1.00  0.00     0.029 A 
ATOM     59  C   UNL A   1      48.651  28.905  27.912  1.00  0.00     0.049 A 
ATOM     60  H   UNL A   1      46.690  29.302  28.583  1.00  0.00     0.167 HD
ATOM     61  C   UNL A   1      47.402  26.820  27.418  1.00  0.00     0.074 A 
ATOM     62  C   UNL A   1      47.312  25.459  26.927  1.00  0.00     0.031 C 
ATOM     63  C   UNL A   1      48.540  27.560  27.408  1.00  0.00     0.031 A 
BRANCH  50  64
ATOM     64  C   UNL A   1      47.864  33.237  29.771  1.00  0.00    -0.014 A 
ATOM     65  C   UNL A   1      47.851  34.273  28.821  1.00  0.00     0.010 A 
ATOM     66  C   UNL A   1      48.441  33.474  31.032  1.00  0.00     0.010 A 
ATOM     67  C   UNL A   1      48.439  35.508  29.108  1.00  0.00     0.020 A 
ATOM     68  C   UNL A   1      49.007  34.717  31.334  1.00  0.00     0.020 A 
ATOM     69  C   UNL A   1      49.019  35.720  30.362  1.00  0.00     0.054 A 
BRANCH  69  70
ATOM     70  S   UNL A   1      49.763  37.336  30.716  1.00  0.00     0.124 S 
ATOM     71  O   UNL A   1      50.353  37.114  32.033  1.00  0.00    -0.237 OA
ATOM     72  O   UNL A   1      50.717  37.497  29.621  1.00  0.00    -0.237 OA
ATOM     73  O   UNL A   1      48.628  38.255  30.688  1.00  0.00    -0.744 OA
ENDBRANCH  69  70
ENDBRANCH  50  64
BRANCH  51  74
ATOM     74  C   UNL A   1      43.230  24.648  27.629  1.00  0.00    -0.014 A 
ATOM     75  C   UNL A   1      43.120  23.627  28.589  1.00  0.00     0.010 A 
ATOM     76  C   UNL A   1      42.657  24.460  26.359  1.00  0.00     0.010 A 
ATOM     77  C   UNL A   1      42.462  22.434  28.280  1.00  0.00     0.020 A 
ATOM     78  C   UNL A   1      41.976  23.278  26.054  1.00  0.00     0.020 A 
ATOM     79  C   UNL A   1      41.892  22.268  27.014  1.00  0.00     0.054 A 
BRANCH  79  80
ATOM     80  S   UNL A   1      40.988  20.736  26.653  1.00  0.00     0.124 S 
ATOM     81  O   UNL A   1      39.726  21.245  26.130  1.00  0.00    -0.237 OA
ATOM     82  O   UNL A   1      41.858  20.077  25.682  1.00  0.00    -0.237 OA
ATOM     83  O   UNL A   1      40.908  20.074  27.954  1.00  0.00    -0.744 OA
ENDBRANCH  79  80
ENDBRANCH  51  74
BRANCH  63  84
ATOM     84  C   UNL A   1      49.776  26.902  26.857  1.00  0.00    -0.014 A 
ATOM     85  C   UNL A   1      50.659  26.198  27.694  1.00  0.00     0.010 A 
ATOM     86  C   UNL A   1      50.052  26.981  25.480  1.00  0.00     0.010 A 
ATOM     87  C   UNL A   1      51.826  25.630  27.173  1.00  0.00     0.020 A 
ATOM     88  C   UNL A   1      51.203  26.391  24.951  1.00  0.00     0.020 A 
ATOM     89  C   UNL A   1      52.094  25.739  25.805  1.00  0.00     0.054 A 
BRANCH  89  90
ATOM     90  S   UNL A   1      53.612  24.993  25.149  1.00  0.00     0.124 S 
ATOM     91  O   UNL A   1      54.611  25.446  26.113  1.00  0.00    -0.237 OA
ATOM     92  O   UNL A   1      53.310  23.563  25.180  1.00  0.00    -0.237 OA
ATOM     93  O   UNL A   1      53.729  25.569  23.812  1.00  0.00    -0.744 OA
ENDBRANCH  89  90
ENDBRANCH  63  84
ENDBRANCH  37  38
ENDBRANCH  29  32
ENDBRANCH  27  28
ENDBRANCH  26  27
ENDBRANCH  25  26
ENDBRANCH   1  25
TORSDOF 20
ENDMDL
MODEL 2
REMARK VINA RESULT:      -9.1      4.712      9.206
REMARK SMILES Cc1ccsc1CNS(=O)(=O)c1ccc(C(=O)NCCCCCCNC(=O)c2ccc(-c3c4nc(c(-c5ccc(S(=O)(=O)[O-])cc5)c5ccc([nH]5)c(-c5ccc(S(=O)(=O)[O-])cc5)c5nc(c(-c6ccc(S(=O)(=O)[O-])cc6)c6ccc3[nH]6)C=C5)C=C4)cc2)s1
REMARK SMILES IDX 21 1 20 2 19 3 18 4 16 5 17 6 15 8 12 9 13 10 88 11 14 12
REMARK SMILES IDX 9 13 10 14 11 15 8 16 7 18 6 19 1 20 2 21 3 22 4 23 5 24
REMARK SMILES IDX 22 25 23 26 24 27 25 28 26 29 27 31 28 32 29 33 87 34 30 35
REMARK SMILES IDX 86 36 31 37 32 38 33 39 80 40 34 41 85 42 79 43 81 44 35 45
REMARK SMILES IDX 84 46 78 47 77 48 36 50 66 51 47 52 65 53 48 54 51 55 64 56
REMARK SMILES IDX 82 57 49 58 50 59 63 61 83 62 52 63 37 64 38 65 46 66 39 67
REMARK SMILES IDX 45 68 40 69 41 70 42 71 43 72 44 73 67 74 68 75 76 76 69 77
REMARK SMILES IDX 75 78 70 79 71 80 72 81 73 82 74 83 53 84 54 85 62 86 55 87
REMARK SMILES IDX 61 88 56 89 57 90 58 91 59 92 60 93
REMARK H PARENT 18 7 8 17 25 30 81 49 51 60
REMARK Flexibility Score: inf
ROOT
ATOM      1  C   UNL A   1      40.498  34.203  30.981  1.00  0.00     0.002 C 
ENDROOT
BRANCH   1   2
ATOM      2  C   UNL A   1      41.798  34.724  30.348  1.00  0.00     0.021 C 
BRANCH   2   3
ATOM      3  C   UNL A   1      41.559  35.782  29.272  1.00  0.00     0.116 C 
BRANCH   3   4
ATOM      4  N   UNL A   1      42.193  35.386  28.032  1.00  0.00    -0.351 N 
ATOM      5  C   UNL A   1      42.646  36.104  26.955  1.00  0.00     0.261 C 
ATOM      6  O   UNL A   1      43.124  35.419  26.045  1.00  0.00    -0.268 OA
ATOM      7  H   UNL A   1      42.324  34.414  27.946  1.00  0.00     0.163 HD
BRANCH   5   8
ATOM      8  C   UNL A   1      42.617  37.562  26.925  1.00  0.00     0.093 A 
ATOM      9  C   UNL A   1      43.403  39.903  27.265  1.00  0.00     0.135 A 
ATOM     10  C   UNL A   1      42.063  39.839  26.938  1.00  0.00     0.034 A 
ATOM     11  S   UNL A   1      44.118  38.365  27.185  1.00  0.00    -0.117 S 
ATOM     12  C   UNL A   1      41.624  38.500  26.696  1.00  0.00     0.027 A 
BRANCH   9  13
ATOM     13  S   UNL A   1      44.437  41.275  27.712  1.00  0.00     0.250 S 
ATOM     14  O   UNL A   1      44.366  42.175  26.581  1.00  0.00    -0.206 OA
ATOM     15  O   UNL A   1      45.690  40.673  28.110  1.00  0.00    -0.206 OA
BRANCH  13  16
ATOM     16  N   UNL A   1      43.859  42.098  29.058  1.00  0.00    -0.205 NA
ATOM     17  H   UNL A   1      43.913  43.096  28.854  1.00  0.00     0.141 HD
BRANCH  16  18
ATOM     18  C   UNL A   1      44.557  41.866  30.330  1.00  0.00     0.145 C 
BRANCH  18  19
ATOM     19  C   UNL A   1      43.779  42.510  31.447  1.00  0.00     0.022 A 
ATOM     20  C   UNL A   1      42.958  40.439  32.743  1.00  0.00     0.045 C 
ATOM     21  C   UNL A   1      43.086  41.907  32.490  1.00  0.00    -0.036 A 
ATOM     22  C   UNL A   1      42.488  42.890  33.350  1.00  0.00     0.015 A 
ATOM     23  C   UNL A   1      42.756  44.179  32.957  1.00  0.00     0.065 A 
ATOM     24  S   UNL A   1      43.739  44.228  31.568  1.00  0.00    -0.147 S 
ENDBRANCH  18  19
ENDBRANCH  16  18
ENDBRANCH  13  16
ENDBRANCH   9  13
ENDBRANCH   5   8
ENDBRANCH   3   4
ENDBRANCH   2   3
ENDBRANCH   1   2
BRANCH   1  25
ATOM     25  C   UNL A   1      39.366  33.916  29.986  1.00  0.00     0.002 C 
BRANCH  25  26
ATOM     26  C   UNL A   1      37.951  33.982  30.573  1.00  0.00     0.021 C 
BRANCH  26  27
ATOM     27  C   UNL A   1      37.804  33.354  31.957  1.00  0.00     0.116 C 
BRANCH  27  28
ATOM     28  N   UNL A   1      36.895  32.220  31.937  1.00  0.00    -0.352 N 
ATOM     29  C   UNL A   1      37.030  30.996  31.333  1.00  0.00     0.251 C 
ATOM     30  H   UNL A   1      36.055  32.350  32.433  1.00  0.00     0.163 HD
ATOM     31  O   UNL A   1      36.051  30.261  31.244  1.00  0.00    -0.269 OA
BRANCH  29  32
ATOM     32  C   UNL A   1      38.334  30.561  30.786  1.00  0.00     0.039 A 
ATOM     33  C   UNL A   1      38.463  30.425  29.400  1.00  0.00     0.014 A 
ATOM     34  C   UNL A   1      39.407  30.230  31.620  1.00  0.00     0.014 A 
ATOM     35  C   UNL A   1      39.673  29.994  28.854  1.00  0.00     0.010 A 
ATOM     36  C   UNL A   1      40.636  29.863  31.069  1.00  0.00     0.010 A 
ATOM     37  C   UNL A   1      40.778  29.729  29.681  1.00  0.00    -0.014 A 
BRANCH  37  38
ATOM     38  C   UNL A   1      42.076  29.319  29.087  1.00  0.00     0.031 A 
ATOM     39  C   UNL A   1      43.219  30.293  28.986  1.00  0.00     0.074 A 
ATOM     40  C   UNL A   1      42.219  28.062  28.626  1.00  0.00     0.049 A 
ATOM     41  N   UNL A   1      44.440  30.086  28.560  1.00  0.00    -0.248 NA
ATOM     42  C   UNL A   1      42.955  31.682  29.396  1.00  0.00     0.031 C 
ATOM     43  C   UNL A   1      41.167  27.041  28.612  1.00  0.00     0.029 A 
ATOM     44  N   UNL A   1      43.308  27.423  28.089  1.00  0.00    -0.354 N 
ATOM     45  C   UNL A   1      45.086  31.315  28.643  1.00  0.00     0.074 A 
ATOM     46  C   UNL A   1      44.108  32.272  29.112  1.00  0.00     0.031 C 
ATOM     47  C   UNL A   1      41.675  25.894  28.134  1.00  0.00     0.029 A 
ATOM     48  C   UNL A   1      43.076  26.103  27.784  1.00  0.00     0.049 A 
ATOM     49  H   UNL A   1      44.173  27.867  27.937  1.00  0.00     0.167 HD
ATOM     50  C   UNL A   1      46.379  31.615  28.375  1.00  0.00     0.031 A 
ATOM     51  C   UNL A   1      43.901  25.160  27.290  1.00  0.00     0.031 A 
ATOM     52  C   UNL A   1      47.353  30.658  27.914  1.00  0.00     0.049 A 
ATOM     53  C   UNL A   1      45.339  25.509  27.027  1.00  0.00     0.074 A 
ATOM     54  C   UNL A   1      48.702  30.850  27.669  1.00  0.00     0.029 A 
ATOM     55  N   UNL A   1      47.080  29.330  27.623  1.00  0.00    -0.354 N 
ATOM     56  N   UNL A   1      45.950  26.658  27.189  1.00  0.00    -0.248 NA
ATOM     57  C   UNL A   1      46.201  24.428  26.532  1.00  0.00     0.031 C 
ATOM     58  C   UNL A   1      49.235  29.649  27.188  1.00  0.00     0.029 A 
ATOM     59  C   UNL A   1      48.230  28.696  27.182  1.00  0.00     0.049 A 
ATOM     60  H   UNL A   1      46.199  28.902  27.717  1.00  0.00     0.167 HD
ATOM     61  C   UNL A   1      47.274  26.434  26.832  1.00  0.00     0.074 A 
ATOM     62  C   UNL A   1      47.379  25.034  26.472  1.00  0.00     0.031 C 
ATOM     63  C   UNL A   1      48.313  27.307  26.806  1.00  0.00     0.031 A 
BRANCH  50  64
ATOM     64  C   UNL A   1      46.817  33.044  28.574  1.00  0.00    -0.014 A 
ATOM     65  C   UNL A   1      47.452  33.449  29.761  1.00  0.00     0.010 A 
ATOM     66  C   UNL A   1      46.622  33.986  27.548  1.00  0.00     0.010 A 
ATOM     67  C   UNL A   1      47.845  34.779  29.937  1.00  0.00     0.020 A 
ATOM     68  C   UNL A   1      47.037  35.312  27.708  1.00  0.00     0.020 A 
ATOM     69  C   UNL A   1      47.630  35.703  28.911  1.00  0.00     0.054 A 
BRANCH  69  70
ATOM     70  S   UNL A   1      48.163  37.420  29.159  1.00  0.00     0.124 S 
ATOM     71  O   UNL A   1      47.233  37.877  30.187  1.00  0.00    -0.237 OA
ATOM     72  O   UNL A   1      49.551  37.266  29.590  1.00  0.00    -0.237 OA
ATOM     73  O   UNL A   1      47.988  38.031  27.843  1.00  0.00    -0.744 OA
ENDBRANCH  69  70
ENDBRANCH  50  64
BRANCH  51  74
ATOM     74  C   UNL A   1      43.390  23.782  27.053  1.00  0.00    -0.014 A 
ATOM     75  C   UNL A   1      43.412  23.225  25.763  1.00  0.00     0.010 A 
ATOM     76  C   UNL A   1      42.902  23.013  28.123  1.00  0.00     0.010 A 
ATOM     77  C   UNL A   1      42.941  21.928  25.544  1.00  0.00     0.020 A 
ATOM     78  C   UNL A   1      42.453  21.706  27.913  1.00  0.00     0.020 A 
ATOM     79  C   UNL A   1      42.466  21.176  26.622  1.00  0.00     0.054 A 
BRANCH  79  80
ATOM     80  S   UNL A   1      41.916  19.471  26.328  1.00  0.00     0.124 S 
ATOM     81  O   UNL A   1      42.626  19.131  25.100  1.00  0.00    -0.237 OA
ATOM     82  O   UNL A   1      42.367  18.780  27.534  1.00  0.00    -0.237 OA
ATOM     83  O   UNL A   1      40.466  19.599  26.200  1.00  0.00    -0.744 OA
ENDBRANCH  79  80
ENDBRANCH  51  74
BRANCH  63  84
ATOM     84  C   UNL A   1      49.650  26.763  26.381  1.00  0.00    -0.014 A 
ATOM     85  C   UNL A   1      50.093  26.880  25.052  1.00  0.00     0.010 A 
ATOM     86  C   UNL A   1      50.479  26.134  27.328  1.00  0.00     0.010 A 
ATOM     87  C   UNL A   1      51.318  26.330  24.664  1.00  0.00     0.020 A 
ATOM     88  C   UNL A   1      51.717  25.607  26.950  1.00  0.00     0.020 A 
ATOM     89  C   UNL A   1      52.118  25.689  25.615  1.00  0.00     0.054 A 
BRANCH  89  90
ATOM     90  S   UNL A   1      53.705  24.983  25.091  1.00  0.00     0.124 S 
ATOM     91  O   UNL A   1      53.449  23.550  25.198  1.00  0.00    -0.237 OA
ATOM     92  O   UNL A   1      53.854  25.497  23.731  1.00  0.00    -0.237 OA
ATOM     93  O   UNL A   1      54.657  25.521  26.060  1.00  0.00    -0.744 OA
ENDBRANCH  89  90
ENDBRANCH  63  84
ENDBRANCH  37  38
ENDBRANCH  29  32
ENDBRANCH  27  28
ENDBRANCH  26  27
ENDBRANCH  25  26
ENDBRANCH   1  25
TORSDOF 20
ENDMDL
MODEL 3
REMARK VINA RESULT:      -9.1      2.574      3.834
REMARK SMILES Cc1ccsc1CNS(=O)(=O)c1ccc(C(=O)NCCCCCCNC(=O)c2ccc(-c3c4nc(c(-c5ccc(S(=O)(=O)[O-])cc5)c5ccc([nH]5)c(-c5ccc(S(=O)(=O)[O-])cc5)c5nc(c(-c6ccc(S(=O)(=O)[O-])cc6)c6ccc3[nH]6)C=C5)C=C4)cc2)s1
REMARK SMILES IDX 21 1 20 2 19 3 18 4 16 5 17 6 15 8 12 9 13 10 88 11 14 12
REMARK SMILES IDX 9 13 10 14 11 15 8 16 7 18 6 19 1 20 2 21 3 22 4 23 5 24
REMARK SMILES IDX 22 25 23 26 24 27 25 28 26 29 27 31 28 32 29 33 87 34 30 35
REMARK SMILES IDX 86 36 31 37 32 38 33 39 80 40 34 41 85 42 79 43 81 44 35 45
REMARK SMILES IDX 84 46 78 47 77 48 36 50 66 51 47 52 65 53 48 54 51 55 64 56
REMARK SMILES IDX 82 57 49 58 50 59 63 61 83 62 52 63 37 64 38 65 46 66 39 67
REMARK SMILES IDX 45 68 40 69 41 70 42 71 43 72 44 73 67 74 68 75 76 76 69 77
REMARK SMILES IDX 75 78 70 79 71 80 72 81 73 82 74 83 53 84 54 85 62 86 55 87
REMARK SMILES IDX 61 88 56 89 57 90 58 91 59 92 60 93
REMARK H PARENT 18 7 8 17 25 30 81 49 51 60
REMARK Flexibility Score: inf
ROOT
ATOM      1  C   UNL A   1      37.770  32.604  31.287  1.00  0.00     0.002 C 
ENDROOT
BRANCH   1   2
ATOM      2  C   UNL A   1      36.947  33.899  31.222  1.00  0.00     0.021 C 
BRANCH   2   3
ATOM      3  C   UNL A   1      35.440  33.657  31.307  1.00  0.00     0.116 C 
BRANCH   3   4
ATOM      4  N   UNL A   1      34.746  34.489  30.348  1.00  0.00    -0.351 N 
ATOM      5  C   UNL A   1      34.372  34.282  29.044  1.00  0.00     0.261 C 
ATOM      6  O   UNL A   1      33.801  35.241  28.515  1.00  0.00    -0.268 OA
ATOM      7  H   UNL A   1      34.495  35.373  30.698  1.00  0.00     0.163 HD
BRANCH   5   8
ATOM      8  C   UNL A   1      34.581  33.007  28.368  1.00  0.00     0.093 A 
ATOM      9  C   UNL A   1      34.004  30.851  27.256  1.00  0.00     0.135 A 
ATOM     10  C   UNL A   1      35.347  30.942  27.565  1.00  0.00     0.034 A 
ATOM     11  S   UNL A   1      33.204  32.309  27.605  1.00  0.00    -0.117 S 
ATOM     12  C   UNL A   1      35.685  32.198  28.160  1.00  0.00     0.027 A 
BRANCH   9  13
ATOM     13  S   UNL A   1      33.045  29.525  26.570  1.00  0.00     0.250 S 
ATOM     14  O   UNL A   1      31.847  29.477  27.380  1.00  0.00    -0.206 OA
ATOM     15  O   UNL A   1      33.956  28.404  26.517  1.00  0.00    -0.206 OA
BRANCH  13  16
ATOM     16  N   UNL A   1      32.577  29.829  24.985  1.00  0.00    -0.205 NA
ATOM     17  H   UNL A   1      31.599  30.118  25.003  1.00  0.00     0.141 HD
BRANCH  16  18
ATOM     18  C   UNL A   1      32.693  28.717  24.032  1.00  0.00     0.145 C 
BRANCH  18  19
ATOM     19  C   UNL A   1      31.419  27.914  24.048  1.00  0.00     0.022 A 
ATOM     20  C   UNL A   1      29.967  29.246  22.387  1.00  0.00     0.045 C 
ATOM     21  C   UNL A   1      30.240  28.132  23.346  1.00  0.00    -0.036 A 
ATOM     22  C   UNL A   1      29.267  27.117  23.642  1.00  0.00     0.015 A 
ATOM     23  C   UNL A   1      29.732  26.170  24.521  1.00  0.00     0.065 A 
ATOM     24  S   UNL A   1      31.341  26.473  24.988  1.00  0.00    -0.147 S 
ENDBRANCH  18  19
ENDBRANCH  16  18
ENDBRANCH  13  16
ENDBRANCH   9  13
ENDBRANCH   5   8
ENDBRANCH   3   4
ENDBRANCH   2   3
ENDBRANCH   1   2
BRANCH   1  25
ATOM     25  C   UNL A   1      38.236  32.205  32.693  1.00  0.00     0.002 C 
BRANCH  25  26
ATOM     26  C   UNL A   1      37.686  30.871  33.209  1.00  0.00     0.021 C 
BRANCH  26  27
ATOM     27  C   UNL A   1      38.218  29.637  32.483  1.00  0.00     0.116 C 
BRANCH  27  28
ATOM     28  N   UNL A   1      37.304  29.187  31.448  1.00  0.00    -0.352 N 
ATOM     29  C   UNL A   1      37.531  28.954  30.116  1.00  0.00     0.251 C 
ATOM     30  H   UNL A   1      36.381  29.024  31.749  1.00  0.00     0.163 HD
ATOM     31  O   UNL A   1      36.572  28.798  29.363  1.00  0.00    -0.269 OA
BRANCH  29  32
ATOM     32  C   UNL A   1      38.909  28.896  29.580  1.00  0.00     0.039 A 
ATOM     33  C   UNL A   1      39.920  28.388  30.400  1.00  0.00     0.014 A 
ATOM     34  C   UNL A   1      39.224  29.387  28.309  1.00  0.00     0.014 A 
ATOM     35  C   UNL A   1      41.235  28.341  29.933  1.00  0.00     0.010 A 
ATOM     36  C   UNL A   1      40.526  29.278  27.818  1.00  0.00     0.010 A 
ATOM     37  C   UNL A   1      41.547  28.766  28.630  1.00  0.00    -0.014 A 
BRANCH  37  38
ATOM     38  C   UNL A   1      42.940  28.665  28.124  1.00  0.00     0.031 A 
ATOM     39  C   UNL A   1      43.894  29.821  28.256  1.00  0.00     0.074 A 
ATOM     40  C   UNL A   1      43.341  27.524  27.530  1.00  0.00     0.049 A 
ATOM     41  N   UNL A   1      45.162  29.881  27.932  1.00  0.00    -0.248 NA
ATOM     42  C   UNL A   1      43.355  31.076  28.803  1.00  0.00     0.031 C 
ATOM     43  C   UNL A   1      42.494  26.353  27.288  1.00  0.00     0.029 A 
ATOM     44  N   UNL A   1      44.565  27.156  27.031  1.00  0.00    -0.354 N 
ATOM     45  C   UNL A   1      45.569  31.178  28.227  1.00  0.00     0.074 A 
ATOM     46  C   UNL A   1      44.402  31.885  28.709  1.00  0.00     0.031 C 
ATOM     47  C   UNL A   1      43.233  25.383  26.728  1.00  0.00     0.029 A 
ATOM     48  C   UNL A   1      44.598  25.871  26.547  1.00  0.00     0.049 A 
ATOM     49  H   UNL A   1      45.346  27.756  27.021  1.00  0.00     0.167 HD
ATOM     50  C   UNL A   1      46.805  31.724  28.127  1.00  0.00     0.031 A 
ATOM     51  C   UNL A   1      45.614  25.155  26.028  1.00  0.00     0.031 A 
ATOM     52  C   UNL A   1      47.967  31.016  27.653  1.00  0.00     0.049 A 
ATOM     53  C   UNL A   1      46.982  25.772  25.953  1.00  0.00     0.074 A 
ATOM     54  C   UNL A   1      49.274  31.463  27.570  1.00  0.00     0.029 A 
ATOM     55  N   UNL A   1      47.959  29.713  27.178  1.00  0.00    -0.354 N 
ATOM     56  N   UNL A   1      47.362  26.975  26.314  1.00  0.00    -0.248 NA
ATOM     57  C   UNL A   1      48.059  24.929  25.420  1.00  0.00     0.031 C 
ATOM     58  C   UNL A   1      50.050  30.445  27.002  1.00  0.00     0.029 A 
ATOM     59  C   UNL A   1      49.235  29.347  26.781  1.00  0.00     0.049 A 
ATOM     60  H   UNL A   1      47.165  29.135  27.131  1.00  0.00     0.167 HD
ATOM     61  C   UNL A   1      48.729  27.026  26.066  1.00  0.00     0.074 A 
ATOM     62  C   UNL A   1      49.110  25.726  25.551  1.00  0.00     0.031 C 
ATOM     63  C   UNL A   1      49.594  28.057  26.249  1.00  0.00     0.031 A 
BRANCH  50  64
ATOM     64  C   UNL A   1      46.963  33.165  28.540  1.00  0.00    -0.014 A 
ATOM     65  C   UNL A   1      47.264  33.510  29.870  1.00  0.00     0.010 A 
ATOM     66  C   UNL A   1      46.843  34.187  27.581  1.00  0.00     0.010 A 
ATOM     67  C   UNL A   1      47.399  34.850  30.243  1.00  0.00     0.020 A 
ATOM     68  C   UNL A   1      47.004  35.528  27.943  1.00  0.00     0.020 A 
ATOM     69  C   UNL A   1      47.263  35.852  29.277  1.00  0.00     0.054 A 
BRANCH  69  70
ATOM     70  S   UNL A   1      47.458  37.583  29.783  1.00  0.00     0.124 S 
ATOM     71  O   UNL A   1      47.399  38.279  28.501  1.00  0.00    -0.237 OA
ATOM     72  O   UNL A   1      46.311  37.791  30.664  1.00  0.00    -0.237 OA
ATOM     73  O   UNL A   1      48.760  37.606  30.446  1.00  0.00    -0.744 OA
ENDBRANCH  69  70
ENDBRANCH  50  64
BRANCH  51  74
ATOM     74  C   UNL A   1      45.377  23.757  25.575  1.00  0.00    -0.014 A 
ATOM     75  C   UNL A   1      45.373  22.698  26.500  1.00  0.00     0.010 A 
ATOM     76  C   UNL A   1      45.131  23.483  24.219  1.00  0.00     0.010 A 
ATOM     77  C   UNL A   1      45.140  21.388  26.075  1.00  0.00     0.020 A 
ATOM     78  C   UNL A   1      44.874  22.177  23.793  1.00  0.00     0.020 A 
ATOM     79  C   UNL A   1      44.891  21.136  24.723  1.00  0.00     0.054 A 
BRANCH  79  80
ATOM     80  S   UNL A   1      44.530  19.436  24.199  1.00  0.00     0.124 S 
ATOM     81  O   UNL A   1      44.460  19.573  22.749  1.00  0.00    -0.237 OA
ATOM     82  O   UNL A   1      45.681  18.696  24.712  1.00  0.00    -0.237 OA
ATOM     83  O   UNL A   1      43.263  19.137  24.863  1.00  0.00    -0.744 OA
ENDBRANCH  79  80
ENDBRANCH  51  74
BRANCH  63  84
ATOM     84  C   UNL A   1      51.035  27.807  25.897  1.00  0.00    -0.014 A 
ATOM     85  C   UNL A   1      51.511  28.019  24.591  1.00  0.00     0.010 A 
ATOM     86  C   UNL A   1      51.928  27.364  26.890  1.00  0.00     0.010 A 
ATOM     87  C   UNL A   1      52.843  27.741  24.270  1.00  0.00     0.020 A 
ATOM     88  C   UNL A   1      53.267  27.110  26.579  1.00  0.00     0.020 A 
ATOM     89  C   UNL A   1      53.710  27.279  25.266  1.00  0.00     0.054 A 
BRANCH  89  90
ATOM     90  S   UNL A   1      55.435  26.925  24.829  1.00  0.00     0.124 S 
ATOM     91  O   UNL A   1      55.730  25.771  25.673  1.00  0.00    -0.237 OA
ATOM     92  O   UNL A   1      55.356  26.652  23.395  1.00  0.00    -0.237 OA
ATOM     93  O   UNL A   1      56.139  28.154  25.184  1.00  0.00    -0.744 OA
ENDBRANCH  89  90
ENDBRANCH  63  84
ENDBRANCH  37  38
ENDBRANCH  29  32
ENDBRANCH  27  28
ENDBRANCH  26  27
ENDBRANCH  25  26
ENDBRANCH   1  25
TORSDOF 20
ENDMDL
