MODEL 1
REMARK VINA RESULT:     -12.2      0.000      0.000
REMARK SMILES Cc1cccc(-c2ncc(C[NH+]3CCC4(CC3)NC(=O)C[C@H]4C(=O)NCCCCCCNC(=O)c3ccc(-c4c5nc(c(-c6ccc(S(=O)(=O)[O-])cc6)c6ccc([nH]6)c(-c6ccc(S(=O)(=O)[O-])cc6)c6nc(c(-c7ccc(S(=O)(=O)[O-])cc7)c7ccc4[nH]7)C=C6)C=C5)cc3)cn2)c1
REMARK SMILES IDX 28 1 27 2 26 3 25 4 23 5 24 6 22 8 12 9 13 10 17 11 14 13
REMARK SMILES IDX 16 14 15 15 18 16 19 17 21 19 20 20 11 21 10 22 7 23 8 24
REMARK SMILES IDX 96 25 9 26 95 27 6 28 1 29 2 30 3 31 97 32 4 33 5 34 29 35
REMARK SMILES IDX 30 36 31 37 32 38 33 39 34 41 35 42 36 43 94 44 37 45 93 46
REMARK SMILES IDX 38 47 39 48 40 49 87 50 41 51 92 52 86 53 88 54 42 55 91 56
REMARK SMILES IDX 85 57 84 58 43 60 73 61 54 62 72 63 55 64 58 65 71 66 89 67
REMARK SMILES IDX 56 68 57 69 70 71 90 72 59 73 44 74 45 75 53 76 46 77 52 78
REMARK SMILES IDX 47 79 48 80 49 81 50 82 51 83 74 84 75 85 83 86 76 87 82 88
REMARK SMILES IDX 77 89 78 90 79 91 80 92 81 93 60 94 61 95 69 96 62 97 68 98
REMARK SMILES IDX 63 99 64 100 65 101 66 102 67 103
REMARK H PARENT 25 7 12 12 18 18 32 40 88 59 58 70
REMARK Flexibility Score: inf
ROOT
ATOM      1  C   UNL A   1      32.738  27.885  23.708  1.00  0.00     0.002 C 
ENDROOT
BRANCH   1   2
ATOM      2  C   UNL A   1      32.852  27.063  22.424  1.00  0.00     0.021 C 
BRANCH   2   3
ATOM      3  C   UNL A   1      33.108  25.552  22.599  1.00  0.00     0.116 C 
BRANCH   3   4
ATOM      4  N   UNL A   1      32.130  24.842  23.425  1.00  0.00    -0.356 N 
ATOM      5  C   UNL A   1      32.035  23.562  23.897  1.00  0.00     0.226 C 
ATOM      6  O   UNL A   1      31.028  23.297  24.566  1.00  0.00    -0.275 OA
ATOM      7  H   UNL A   1      31.375  25.410  23.701  1.00  0.00     0.163 HD
BRANCH   5   8
ATOM      8  C   UNL A   1      33.069  22.435  23.661  1.00  0.00     0.114 C 
ATOM      9  N   UNL A   1      36.657  23.848  25.202  1.00  0.00    -0.331 N 
ATOM     10  C   UNL A   1      36.688  22.795  24.194  1.00  0.00     0.264 C 
ATOM     11  C   UNL A   1      35.336  24.434  25.278  1.00  0.00     0.264 C 
ATOM     12  H   UNL A   1      37.314  24.535  24.832  1.00  0.00     0.348 HD
ATOM     13  C   UNL A   1      35.567  21.745  24.239  1.00  0.00     0.091 C 
ATOM     14  C   UNL A   1      34.281  23.414  25.657  1.00  0.00     0.091 C 
ATOM     15  C   UNL A   1      34.163  22.204  24.732  1.00  0.00     0.063 C 
ATOM     16  N   UNL A   1      33.637  21.025  25.413  1.00  0.00    -0.349 N 
ATOM     17  C   UNL A   1      32.667  20.334  24.720  1.00  0.00     0.221 C 
ATOM     18  H   UNL A   1      33.952  20.744  26.302  1.00  0.00     0.164 HD
ATOM     19  C   UNL A   1      32.341  21.102  23.473  1.00  0.00     0.116 C 
ATOM     20  O   UNL A   1      32.169  19.285  25.062  1.00  0.00    -0.275 OA
BRANCH   9  21
ATOM     21  C   UNL A   1      37.350  23.664  26.494  1.00  0.00     0.302 C 
BRANCH  21  22
ATOM     22  C   UNL A   1      38.854  23.737  26.494  1.00  0.00     0.043 A 
ATOM     23  C   UNL A   1      41.499  23.930  27.111  1.00  0.00     0.159 A 
ATOM     24  N   UNL A   1      40.928  22.708  27.142  1.00  0.00    -0.236 NA
ATOM     25  N   UNL A   1      40.872  25.052  26.713  1.00  0.00    -0.236 NA
ATOM     26  C   UNL A   1      39.633  22.638  26.776  1.00  0.00     0.124 A 
ATOM     27  C   UNL A   1      39.561  24.928  26.399  1.00  0.00     0.124 A 
BRANCH  23  28
ATOM     28  C   UNL A   1      42.851  24.048  27.677  1.00  0.00     0.019 A 
ATOM     29  C   UNL A   1      44.516  24.797  31.054  1.00  0.00     0.044 C 
ATOM     30  C   UNL A   1      44.331  24.453  29.604  1.00  0.00    -0.050 A 
ATOM     31  C   UNL A   1      45.436  24.155  28.806  1.00  0.00     0.003 A 
ATOM     32  C   UNL A   1      43.052  24.393  29.031  1.00  0.00     0.015 A 
ATOM     33  C   UNL A   1      45.265  23.829  27.460  1.00  0.00     0.001 A 
ATOM     34  C   UNL A   1      43.984  23.788  26.897  1.00  0.00     0.012 A 
ENDBRANCH  23  28
ENDBRANCH  21  22
ENDBRANCH   9  21
ENDBRANCH   5   8
ENDBRANCH   3   4
ENDBRANCH   2   3
ENDBRANCH   1   2
BRANCH   1  35
ATOM     35  C   UNL A   1      34.016  28.001  24.544  1.00  0.00     0.002 C 
BRANCH  35  36
ATOM     36  C   UNL A   1      33.846  27.825  26.052  1.00  0.00     0.021 C 
BRANCH  36  37
ATOM     37  C   UNL A   1      34.591  28.842  26.889  1.00  0.00     0.116 C 
BRANCH  37  38
ATOM     38  N   UNL A   1      34.367  30.227  26.505  1.00  0.00    -0.352 N 
ATOM     39  C   UNL A   1      34.187  31.223  27.462  1.00  0.00     0.251 C 
ATOM     40  H   UNL A   1      34.342  30.466  25.550  1.00  0.00     0.163 HD
ATOM     41  O   UNL A   1      33.190  31.927  27.544  1.00  0.00    -0.269 OA
BRANCH  39  42
ATOM     42  C   UNL A   1      35.354  31.439  28.344  1.00  0.00     0.039 A 
ATOM     43  C   UNL A   1      36.328  32.380  27.993  1.00  0.00     0.014 A 
ATOM     44  C   UNL A   1      35.580  30.514  29.356  1.00  0.00     0.014 A 
ATOM     45  C   UNL A   1      37.604  32.261  28.534  1.00  0.00     0.010 A 
ATOM     46  C   UNL A   1      36.863  30.286  29.752  1.00  0.00     0.010 A 
ATOM     47  C   UNL A   1      37.871  31.153  29.328  1.00  0.00    -0.014 A 
BRANCH  47  48
ATOM     48  C   UNL A   1      39.138  30.812  29.924  1.00  0.00     0.031 A 
ATOM     49  C   UNL A   1      39.910  29.748  29.253  1.00  0.00     0.074 A 
ATOM     50  C   UNL A   1      39.660  31.685  30.812  1.00  0.00     0.049 A 
ATOM     51  N   UNL A   1      40.974  29.224  29.733  1.00  0.00    -0.248 NA
ATOM     52  C   UNL A   1      39.522  29.156  27.966  1.00  0.00     0.031 C 
ATOM     53  C   UNL A   1      41.054  31.887  31.181  1.00  0.00     0.029 A 
ATOM     54  N   UNL A   1      38.981  32.499  31.699  1.00  0.00    -0.354 N 
ATOM     55  C   UNL A   1      41.577  28.512  28.720  1.00  0.00     0.074 A 
ATOM     56  C   UNL A   1      40.589  28.404  27.679  1.00  0.00     0.031 C 
ATOM     57  C   UNL A   1      41.105  32.537  32.360  1.00  0.00     0.029 A 
ATOM     58  C   UNL A   1      39.740  32.633  32.861  1.00  0.00     0.049 A 
ATOM     59  H   UNL A   1      38.105  32.918  31.536  1.00  0.00     0.167 HD
ATOM     60  C   UNL A   1      42.903  28.239  28.840  1.00  0.00     0.031 A 
ATOM     61  C   UNL A   1      39.312  32.040  34.024  1.00  0.00     0.031 A 
ATOM     62  C   UNL A   1      43.384  28.698  30.138  1.00  0.00     0.049 A 
ATOM     63  C   UNL A   1      40.199  30.878  34.434  1.00  0.00     0.074 A 
ATOM     64  C   UNL A   1      44.028  29.856  30.537  1.00  0.00     0.029 A 
ATOM     65  N   UNL A   1      42.871  28.105  31.279  1.00  0.00    -0.354 N 
ATOM     66  N   UNL A   1      40.937  30.193  33.603  1.00  0.00    -0.248 NA
ATOM     67  C   UNL A   1      40.367  30.434  35.815  1.00  0.00     0.031 C 
ATOM     68  C   UNL A   1      43.818  29.999  31.935  1.00  0.00     0.029 A 
ATOM     69  C   UNL A   1      43.075  28.917  32.375  1.00  0.00     0.049 A 
ATOM     70  H   UNL A   1      42.422  27.228  31.305  1.00  0.00     0.167 HD
ATOM     71  C   UNL A   1      41.697  29.287  34.295  1.00  0.00     0.074 A 
ATOM     72  C   UNL A   1      41.288  29.462  35.677  1.00  0.00     0.031 C 
ATOM     73  C   UNL A   1      42.620  28.484  33.687  1.00  0.00     0.031 A 
BRANCH  60  74
ATOM     74  C   UNL A   1      43.837  27.796  27.746  1.00  0.00    -0.014 A 
ATOM     75  C   UNL A   1      45.216  27.737  28.045  1.00  0.00     0.010 A 
ATOM     76  C   UNL A   1      43.470  27.466  26.427  1.00  0.00     0.010 A 
ATOM     77  C   UNL A   1      46.179  27.409  27.088  1.00  0.00     0.020 A 
ATOM     78  C   UNL A   1      44.429  27.136  25.452  1.00  0.00     0.020 A 
ATOM     79  C   UNL A   1      45.780  27.114  25.791  1.00  0.00     0.054 A 
BRANCH  79  80
ATOM     80  S   UNL A   1      47.054  26.690  24.578  1.00  0.00     0.124 S 
ATOM     81  O   UNL A   1      46.715  25.309  24.241  1.00  0.00    -0.237 OA
ATOM     82  O   UNL A   1      46.820  27.670  23.521  1.00  0.00    -0.237 OA
ATOM     83  O   UNL A   1      48.305  26.857  25.314  1.00  0.00    -0.744 OA
ENDBRANCH  79  80
ENDBRANCH  60  74
BRANCH  61  84
ATOM     84  C   UNL A   1      37.819  32.109  34.178  1.00  0.00    -0.014 A 
ATOM     85  C   UNL A   1      37.302  33.304  34.730  1.00  0.00     0.010 A 
ATOM     86  C   UNL A   1      36.986  31.338  33.346  1.00  0.00     0.010 A 
ATOM     87  C   UNL A   1      36.097  33.840  34.263  1.00  0.00     0.020 A 
ATOM     88  C   UNL A   1      35.763  31.866  32.896  1.00  0.00     0.020 A 
ATOM     89  C   UNL A   1      35.382  33.154  33.282  1.00  0.00     0.054 A 
BRANCH  89  90
ATOM     90  S   UNL A   1      34.078  34.055  32.383  1.00  0.00     0.124 S 
ATOM     91  O   UNL A   1      32.888  33.757  33.176  1.00  0.00    -0.237 OA
ATOM     92  O   UNL A   1      34.551  35.441  32.454  1.00  0.00    -0.237 OA
ATOM     93  O   UNL A   1      34.107  33.456  31.053  1.00  0.00    -0.744 OA
ENDBRANCH  89  90
ENDBRANCH  61  84
BRANCH  73  94
ATOM     94  C   UNL A   1      43.267  27.250  34.273  1.00  0.00    -0.014 A 
ATOM     95  C   UNL A   1      42.563  26.213  34.898  1.00  0.00     0.010 A 
ATOM     96  C   UNL A   1      44.657  27.039  34.065  1.00  0.00     0.010 A 
ATOM     97  C   UNL A   1      43.220  25.066  35.362  1.00  0.00     0.020 A 
ATOM     98  C   UNL A   1      45.310  25.873  34.461  1.00  0.00     0.020 A 
ATOM     99  C   UNL A   1      44.590  24.907  35.145  1.00  0.00     0.054 A 
BRANCH  99 100
ATOM    100  S   UNL A   1      45.413  23.415  35.744  1.00  0.00     0.124 S 
ATOM    101  O   UNL A   1      46.797  23.664  35.351  1.00  0.00    -0.237 OA
ATOM    102  O   UNL A   1      45.152  23.458  37.180  1.00  0.00    -0.237 OA
ATOM    103  O   UNL A   1      44.742  22.335  35.026  1.00  0.00    -0.744 OA
ENDBRANCH  99 100
ENDBRANCH  73  94
ENDBRANCH  47  48
ENDBRANCH  39  42
ENDBRANCH  37  38
ENDBRANCH  36  37
ENDBRANCH  35  36
ENDBRANCH   1  35
TORSDOF 19
ENDMDL
MODEL 2
REMARK VINA RESULT:     -11.4      1.938      2.670
REMARK SMILES Cc1cccc(-c2ncc(C[NH+]3CCC4(CC3)NC(=O)C[C@H]4C(=O)NCCCCCCNC(=O)c3ccc(-c4c5nc(c(-c6ccc(S(=O)(=O)[O-])cc6)c6ccc([nH]6)c(-c6ccc(S(=O)(=O)[O-])cc6)c6nc(c(-c7ccc(S(=O)(=O)[O-])cc7)c7ccc4[nH]7)C=C6)C=C5)cc3)cn2)c1
REMARK SMILES IDX 28 1 27 2 26 3 25 4 23 5 24 6 22 8 12 9 13 10 17 11 14 13
REMARK SMILES IDX 16 14 15 15 18 16 19 17 21 19 20 20 11 21 10 22 7 23 8 24
REMARK SMILES IDX 96 25 9 26 95 27 6 28 1 29 2 30 3 31 97 32 4 33 5 34 29 35
REMARK SMILES IDX 30 36 31 37 32 38 33 39 34 41 35 42 36 43 94 44 37 45 93 46
REMARK SMILES IDX 38 47 39 48 40 49 87 50 41 51 92 52 86 53 88 54 42 55 91 56
REMARK SMILES IDX 85 57 84 58 43 60 73 61 54 62 72 63 55 64 58 65 71 66 89 67
REMARK SMILES IDX 56 68 57 69 70 71 90 72 59 73 44 74 45 75 53 76 46 77 52 78
REMARK SMILES IDX 47 79 48 80 49 81 50 82 51 83 74 84 75 85 83 86 76 87 82 88
REMARK SMILES IDX 77 89 78 90 79 91 80 92 81 93 60 94 61 95 69 96 62 97 68 98
REMARK SMILES IDX 63 99 64 100 65 101 66 102 67 103
REMARK H PARENT 25 7 12 12 18 18 32 40 88 59 58 70
REMARK Flexibility Score: inf
ROOT
ATOM      1  C   UNL A   1      31.942  28.628  23.391  1.00  0.00     0.002 C 
ENDROOT
BRANCH   1   2
ATOM      2  C   UNL A   1      31.828  27.192  22.878  1.00  0.00     0.021 C 
BRANCH   2   3
ATOM      3  C   UNL A   1      32.607  26.120  23.666  1.00  0.00     0.116 C 
BRANCH   3   4
ATOM      4  N   UNL A   1      31.784  25.192  24.444  1.00  0.00    -0.356 N 
ATOM      5  C   UNL A   1      31.795  23.838  24.630  1.00  0.00     0.226 C 
ATOM      6  O   UNL A   1      30.908  23.376  25.359  1.00  0.00    -0.275 OA
ATOM      7  H   UNL A   1      31.064  25.642  24.943  1.00  0.00     0.163 HD
BRANCH   5   8
ATOM      8  C   UNL A   1      32.811  22.850  24.006  1.00  0.00     0.114 C 
ATOM      9  N   UNL A   1      36.547  24.072  25.345  1.00  0.00    -0.331 N 
ATOM     10  C   UNL A   1      36.460  23.277  24.126  1.00  0.00     0.264 C 
ATOM     11  C   UNL A   1      35.237  24.554  25.728  1.00  0.00     0.264 C 
ATOM     12  H   UNL A   1      37.130  24.860  25.061  1.00  0.00     0.348 HD
ATOM     13  C   UNL A   1      35.380  22.184  24.075  1.00  0.00     0.091 C 
ATOM     14  C   UNL A   1      34.269  23.419  25.996  1.00  0.00     0.091 C 
ATOM     15  C   UNL A   1      34.049  22.444  24.841  1.00  0.00     0.063 C 
ATOM     16  N   UNL A   1      33.652  21.115  25.296  1.00  0.00    -0.349 N 
ATOM     17  C   UNL A   1      32.609  20.546  24.596  1.00  0.00     0.221 C 
ATOM     18  H   UNL A   1      34.095  20.659  26.046  1.00  0.00     0.164 HD
ATOM     19  C   UNL A   1      32.094  21.556  23.613  1.00  0.00     0.116 C 
ATOM     20  O   UNL A   1      32.188  19.422  24.749  1.00  0.00    -0.275 OA
BRANCH   9  21
ATOM     21  C   UNL A   1      37.419  23.641  26.457  1.00  0.00     0.302 C 
BRANCH  21  22
ATOM     22  C   UNL A   1      38.598  22.768  26.120  1.00  0.00     0.043 A 
ATOM     23  C   UNL A   1      40.657  20.986  26.094  1.00  0.00     0.159 A 
ATOM     24  N   UNL A   1      39.428  20.539  25.764  1.00  0.00    -0.236 NA
ATOM     25  N   UNL A   1      40.954  22.272  26.355  1.00  0.00    -0.236 NA
ATOM     26  C   UNL A   1      38.441  21.457  25.729  1.00  0.00     0.124 A 
ATOM     27  C   UNL A   1      39.915  23.141  26.349  1.00  0.00     0.124 A 
BRANCH  23  28
ATOM     28  C   UNL A   1      41.699  19.972  26.310  1.00  0.00     0.019 A 
ATOM     29  C   UNL A   1      44.949  18.768  24.658  1.00  0.00     0.044 C 
ATOM     30  C   UNL A   1      43.806  18.895  25.624  1.00  0.00    -0.050 A 
ATOM     31  C   UNL A   1      43.773  18.115  26.780  1.00  0.00     0.003 A 
ATOM     32  C   UNL A   1      42.771  19.816  25.405  1.00  0.00     0.015 A 
ATOM     33  C   UNL A   1      42.715  18.237  27.682  1.00  0.00     0.001 A 
ATOM     34  C   UNL A   1      41.681  19.149  27.443  1.00  0.00     0.012 A 
ENDBRANCH  23  28
ENDBRANCH  21  22
ENDBRANCH   9  21
ENDBRANCH   5   8
ENDBRANCH   3   4
ENDBRANCH   2   3
ENDBRANCH   1   2
BRANCH   1  35
ATOM     35  C   UNL A   1      32.828  28.830  24.624  1.00  0.00     0.002 C 
BRANCH  35  36
ATOM     36  C   UNL A   1      32.102  29.202  25.915  1.00  0.00     0.021 C 
BRANCH  36  37
ATOM     37  C   UNL A   1      33.015  29.586  27.059  1.00  0.00     0.116 C 
BRANCH  37  38
ATOM     38  N   UNL A   1      33.825  30.771  26.819  1.00  0.00    -0.352 N 
ATOM     39  C   UNL A   1      34.687  31.268  27.793  1.00  0.00     0.251 C 
ATOM     40  H   UNL A   1      33.762  31.231  25.950  1.00  0.00     0.163 HD
ATOM     41  O   UNL A   1      34.619  32.395  28.263  1.00  0.00    -0.269 OA
BRANCH  39  42
ATOM     42  C   UNL A   1      35.779  30.344  28.170  1.00  0.00     0.039 A 
ATOM     43  C   UNL A   1      35.749  29.700  29.412  1.00  0.00     0.014 A 
ATOM     44  C   UNL A   1      36.929  30.349  27.390  1.00  0.00     0.014 A 
ATOM     45  C   UNL A   1      36.940  29.227  29.951  1.00  0.00     0.010 A 
ATOM     46  C   UNL A   1      38.117  30.050  27.984  1.00  0.00     0.010 A 
ATOM     47  C   UNL A   1      38.118  29.503  29.267  1.00  0.00    -0.014 A 
BRANCH  47  48
ATOM     48  C   UNL A   1      39.453  29.162  29.689  1.00  0.00     0.031 A 
ATOM     49  C   UNL A   1      39.994  27.887  29.180  1.00  0.00     0.074 A 
ATOM     50  C   UNL A   1      40.206  30.149  30.219  1.00  0.00     0.049 A 
ATOM     51  N   UNL A   1      41.094  27.366  29.576  1.00  0.00    -0.248 NA
ATOM     52  C   UNL A   1      39.309  27.061  28.176  1.00  0.00     0.031 C 
ATOM     53  C   UNL A   1      41.657  30.264  30.267  1.00  0.00     0.029 A 
ATOM     54  N   UNL A   1      39.783  31.222  30.980  1.00  0.00    -0.354 N 
ATOM     55  C   UNL A   1      41.424  26.370  28.682  1.00  0.00     0.074 A 
ATOM     56  C   UNL A   1      40.239  26.142  27.900  1.00  0.00     0.031 C 
ATOM     57  C   UNL A   1      41.995  31.160  31.214  1.00  0.00     0.029 A 
ATOM     58  C   UNL A   1      40.771  31.532  31.914  1.00  0.00     0.049 A 
ATOM     59  H   UNL A   1      38.924  31.693  30.878  1.00  0.00     0.167 HD
ATOM     60  C   UNL A   1      42.724  25.977  28.625  1.00  0.00     0.031 A 
ATOM     61  C   UNL A   1      40.550  31.282  33.246  1.00  0.00     0.031 A 
ATOM     62  C   UNL A   1      43.492  26.666  29.656  1.00  0.00     0.049 A 
ATOM     63  C   UNL A   1      41.417  30.150  33.768  1.00  0.00     0.074 A 
ATOM     64  C   UNL A   1      44.285  27.800  29.627  1.00  0.00     0.029 A 
ATOM     65  N   UNL A   1      43.182  26.420  30.984  1.00  0.00    -0.354 N 
ATOM     66  N   UNL A   1      41.919  29.208  33.017  1.00  0.00    -0.248 NA
ATOM     67  C   UNL A   1      41.833  30.024  35.162  1.00  0.00     0.031 C 
ATOM     68  C   UNL A   1      44.376  28.289  30.958  1.00  0.00     0.029 A 
ATOM     69  C   UNL A   1      43.664  27.435  31.784  1.00  0.00     0.049 A 
ATOM     70  H   UNL A   1      42.688  25.633  31.310  1.00  0.00     0.167 HD
ATOM     71  C   UNL A   1      42.739  28.404  33.765  1.00  0.00     0.074 A 
ATOM     72  C   UNL A   1      42.635  28.944  35.109  1.00  0.00     0.031 C 
ATOM     73  C   UNL A   1      43.458  27.377  33.222  1.00  0.00     0.031 A 
BRANCH  60  74
ATOM     74  C   UNL A   1      43.380  25.183  27.527  1.00  0.00    -0.014 A 
ATOM     75  C   UNL A   1      44.186  24.087  27.904  1.00  0.00     0.010 A 
ATOM     76  C   UNL A   1      43.297  25.453  26.148  1.00  0.00     0.010 A 
ATOM     77  C   UNL A   1      44.899  23.325  26.975  1.00  0.00     0.020 A 
ATOM     78  C   UNL A   1      44.012  24.696  25.201  1.00  0.00     0.020 A 
ATOM     79  C   UNL A   1      44.812  23.638  25.625  1.00  0.00     0.054 A 
BRANCH  79  80
ATOM     80  S   UNL A   1      45.746  22.628  24.449  1.00  0.00     0.124 S 
ATOM     81  O   UNL A   1      46.371  21.635  25.320  1.00  0.00    -0.237 OA
ATOM     82  O   UNL A   1      44.697  22.120  23.569  1.00  0.00    -0.237 OA
ATOM     83  O   UNL A   1      46.669  23.577  23.831  1.00  0.00    -0.744 OA
ENDBRANCH  79  80
ENDBRANCH  60  74
BRANCH  61  84
ATOM     84  C   UNL A   1      39.129  31.562  33.646  1.00  0.00    -0.014 A 
ATOM     85  C   UNL A   1      38.824  32.904  33.970  1.00  0.00     0.010 A 
ATOM     86  C   UNL A   1      38.090  30.727  33.195  1.00  0.00     0.010 A 
ATOM     87  C   UNL A   1      37.591  33.460  33.610  1.00  0.00     0.020 A 
ATOM     88  C   UNL A   1      36.843  31.280  32.857  1.00  0.00     0.020 A 
ATOM     89  C   UNL A   1      36.643  32.658  32.976  1.00  0.00     0.054 A 
BRANCH  89  90
ATOM     90  S   UNL A   1      35.251  33.480  32.133  1.00  0.00     0.124 S 
ATOM     91  O   UNL A   1      35.780  33.691  30.788  1.00  0.00    -0.237 OA
ATOM     92  O   UNL A   1      34.186  32.477  32.241  1.00  0.00    -0.237 OA
ATOM     93  O   UNL A   1      35.045  34.691  32.920  1.00  0.00    -0.744 OA
ENDBRANCH  89  90
ENDBRANCH  61  84
BRANCH  73  94
ATOM     94  C   UNL A   1      44.122  26.245  33.973  1.00  0.00    -0.014 A 
ATOM     95  C   UNL A   1      45.508  26.063  34.057  1.00  0.00     0.010 A 
ATOM     96  C   UNL A   1      43.318  25.382  34.766  1.00  0.00     0.010 A 
ATOM     97  C   UNL A   1      46.058  25.028  34.825  1.00  0.00     0.020 A 
ATOM     98  C   UNL A   1      43.857  24.393  35.586  1.00  0.00     0.020 A 
ATOM     99  C   UNL A   1      45.229  24.197  35.579  1.00  0.00     0.054 A 
BRANCH  99 100
ATOM    100  S   UNL A   1      45.962  22.876  36.569  1.00  0.00     0.124 S 
ATOM    101  O   UNL A   1      47.383  23.044  36.279  1.00  0.00    -0.237 OA
ATOM    102  O   UNL A   1      45.553  23.228  37.927  1.00  0.00    -0.237 OA
ATOM    103  O   UNL A   1      45.352  21.662  36.035  1.00  0.00    -0.744 OA
ENDBRANCH  99 100
ENDBRANCH  73  94
ENDBRANCH  47  48
ENDBRANCH  39  42
ENDBRANCH  37  38
ENDBRANCH  36  37
ENDBRANCH  35  36
ENDBRANCH   1  35
TORSDOF 19
ENDMDL
MODEL 3
REMARK VINA RESULT:     -10.2      2.532      6.450
REMARK SMILES Cc1cccc(-c2ncc(C[NH+]3CCC4(CC3)NC(=O)C[C@H]4C(=O)NCCCCCCNC(=O)c3ccc(-c4c5nc(c(-c6ccc(S(=O)(=O)[O-])cc6)c6ccc([nH]6)c(-c6ccc(S(=O)(=O)[O-])cc6)c6nc(c(-c7ccc(S(=O)(=O)[O-])cc7)c7ccc4[nH]7)C=C6)C=C5)cc3)cn2)c1
REMARK SMILES IDX 28 1 27 2 26 3 25 4 23 5 24 6 22 8 12 9 13 10 17 11 14 13
REMARK SMILES IDX 16 14 15 15 18 16 19 17 21 19 20 20 11 21 10 22 7 23 8 24
REMARK SMILES IDX 96 25 9 26 95 27 6 28 1 29 2 30 3 31 97 32 4 33 5 34 29 35
REMARK SMILES IDX 30 36 31 37 32 38 33 39 34 41 35 42 36 43 94 44 37 45 93 46
REMARK SMILES IDX 38 47 39 48 40 49 87 50 41 51 92 52 86 53 88 54 42 55 91 56
REMARK SMILES IDX 85 57 84 58 43 60 73 61 54 62 72 63 55 64 58 65 71 66 89 67
REMARK SMILES IDX 56 68 57 69 70 71 90 72 59 73 44 74 45 75 53 76 46 77 52 78
REMARK SMILES IDX 47 79 48 80 49 81 50 82 51 83 74 84 75 85 83 86 76 87 82 88
REMARK SMILES IDX 77 89 78 90 79 91 80 92 81 93 60 94 61 95 69 96 62 97 68 98
REMARK SMILES IDX 63 99 64 100 65 101 66 102 67 103
REMARK H PARENT 25 7 12 12 18 18 32 40 88 59 58 70
REMARK Flexibility Score: inf
ROOT
ATOM      1  C   UNL A   1      33.841  26.749  25.578  1.00  0.00     0.002 C 
ENDROOT
BRANCH   1   2
ATOM      2  C   UNL A   1      35.122  25.922  25.705  1.00  0.00     0.021 C 
BRANCH   2   3
ATOM      3  C   UNL A   1      34.949  24.456  26.149  1.00  0.00     0.116 C 
BRANCH   3   4
ATOM      4  N   UNL A   1      35.438  23.452  25.203  1.00  0.00    -0.356 N 
ATOM      5  C   UNL A   1      34.979  22.233  24.788  1.00  0.00     0.226 C 
ATOM      6  O   UNL A   1      35.682  21.630  23.968  1.00  0.00    -0.275 OA
ATOM      7  H   UNL A   1      36.283  23.711  24.770  1.00  0.00     0.163 HD
BRANCH   5   8
ATOM      8  C   UNL A   1      33.669  21.555  25.259  1.00  0.00     0.114 C 
ATOM      9  N   UNL A   1      30.762  24.518  25.167  1.00  0.00    -0.331 N 
ATOM     10  C   UNL A   1      30.559  23.358  26.025  1.00  0.00     0.264 C 
ATOM     11  C   UNL A   1      32.130  24.566  24.698  1.00  0.00     0.264 C 
ATOM     12  H   UNL A   1      30.590  25.301  25.798  1.00  0.00     0.348 HD
ATOM     13  C   UNL A   1      31.064  22.002  25.507  1.00  0.00     0.091 C 
ATOM     14  C   UNL A   1      32.500  23.338  23.893  1.00  0.00     0.091 C 
ATOM     15  C   UNL A   1      32.336  21.998  24.608  1.00  0.00     0.063 C 
ATOM     16  N   UNL A   1      32.099  20.893  23.685  1.00  0.00    -0.349 N 
ATOM     17  C   UNL A   1      32.828  19.751  23.940  1.00  0.00     0.221 C 
ATOM     18  H   UNL A   1      31.465  20.957  22.935  1.00  0.00     0.164 HD
ATOM     19  C   UNL A   1      33.777  20.041  25.066  1.00  0.00     0.116 C 
ATOM     20  O   UNL A   1      32.716  18.697  23.357  1.00  0.00    -0.275 OA
BRANCH   9  21
ATOM     21  C   UNL A   1      29.734  24.903  24.177  1.00  0.00     0.302 C 
BRANCH  21  22
ATOM     22  C   UNL A   1      29.385  26.363  24.067  1.00  0.00     0.043 A 
ATOM     23  C   UNL A   1      28.846  28.907  23.259  1.00  0.00     0.159 A 
ATOM     24  N   UNL A   1      27.832  28.018  23.270  1.00  0.00    -0.236 NA
ATOM     25  N   UNL A   1      30.090  28.648  23.701  1.00  0.00    -0.236 NA
ATOM     26  C   UNL A   1      28.118  26.783  23.730  1.00  0.00     0.124 A 
ATOM     27  C   UNL A   1      30.330  27.380  24.109  1.00  0.00     0.124 A 
BRANCH  23  28
ATOM     28  C   UNL A   1      28.595  30.195  22.596  1.00  0.00     0.019 A 
ATOM     29  C   UNL A   1      29.065  33.943  23.286  1.00  0.00     0.044 C 
ATOM     30  C   UNL A   1      28.715  32.656  22.595  1.00  0.00    -0.050 A 
ATOM     31  C   UNL A   1      28.236  32.669  21.285  1.00  0.00     0.003 A 
ATOM     32  C   UNL A   1      28.892  31.419  23.233  1.00  0.00     0.015 A 
ATOM     33  C   UNL A   1      27.917  31.474  20.640  1.00  0.00     0.001 A 
ATOM     34  C   UNL A   1      28.083  30.248  21.294  1.00  0.00     0.012 A 
ENDBRANCH  23  28
ENDBRANCH  21  22
ENDBRANCH   9  21
ENDBRANCH   5   8
ENDBRANCH   3   4
ENDBRANCH   2   3
ENDBRANCH   1   2
BRANCH   1  35
ATOM     35  C   UNL A   1      33.220  27.225  26.895  1.00  0.00     0.002 C 
BRANCH  35  36
ATOM     36  C   UNL A   1      32.821  28.698  26.951  1.00  0.00     0.021 C 
BRANCH  36  37
ATOM     37  C   UNL A   1      33.490  29.568  25.910  1.00  0.00     0.116 C 
BRANCH  37  38
ATOM     38  N   UNL A   1      33.989  30.840  26.409  1.00  0.00    -0.352 N 
ATOM     39  C   UNL A   1      34.380  30.995  27.737  1.00  0.00     0.251 C 
ATOM     40  H   UNL A   1      34.052  31.608  25.796  1.00  0.00     0.163 HD
ATOM     41  O   UNL A   1      33.886  31.802  28.511  1.00  0.00    -0.269 OA
BRANCH  39  42
ATOM     42  C   UNL A   1      35.528  30.152  28.136  1.00  0.00     0.039 A 
ATOM     43  C   UNL A   1      35.632  29.695  29.454  1.00  0.00     0.014 A 
ATOM     44  C   UNL A   1      36.601  30.063  27.257  1.00  0.00     0.014 A 
ATOM     45  C   UNL A   1      36.880  29.323  29.940  1.00  0.00     0.010 A 
ATOM     46  C   UNL A   1      37.847  29.872  27.773  1.00  0.00     0.010 A 
ATOM     47  C   UNL A   1      37.981  29.516  29.115  1.00  0.00    -0.014 A 
BRANCH  47  48
ATOM     48  C   UNL A   1      39.359  29.261  29.453  1.00  0.00     0.031 A 
ATOM     49  C   UNL A   1      39.906  27.958  29.027  1.00  0.00     0.074 A 
ATOM     50  C   UNL A   1      40.114  30.319  29.817  1.00  0.00     0.049 A 
ATOM     51  N   UNL A   1      41.055  27.514  29.376  1.00  0.00    -0.248 NA
ATOM     52  C   UNL A   1      39.174  27.015  28.171  1.00  0.00     0.031 C 
ATOM     53  C   UNL A   1      41.558  30.483  29.729  1.00  0.00     0.029 A 
ATOM     54  N   UNL A   1      39.712  31.450  30.503  1.00  0.00    -0.354 N 
ATOM     55  C   UNL A   1      41.349  26.444  28.559  1.00  0.00     0.074 A 
ATOM     56  C   UNL A   1      40.114  26.102  27.907  1.00  0.00     0.031 C 
ATOM     57  C   UNL A   1      41.937  31.480  30.552  1.00  0.00     0.029 A 
ATOM     58  C   UNL A   1      40.761  31.883  31.314  1.00  0.00     0.049 A 
ATOM     59  H   UNL A   1      38.830  31.881  30.429  1.00  0.00     0.167 HD
ATOM     60  C   UNL A   1      42.654  26.088  28.430  1.00  0.00     0.031 A 
ATOM     61  C   UNL A   1      40.660  31.762  32.678  1.00  0.00     0.031 A 
ATOM     62  C   UNL A   1      43.477  26.901  29.319  1.00  0.00     0.049 A 
ATOM     63  C   UNL A   1      41.611  30.716  33.233  1.00  0.00     0.074 A 
ATOM     64  C   UNL A   1      44.219  28.050  29.111  1.00  0.00     0.029 A 
ATOM     65  N   UNL A   1      43.287  26.780  30.686  1.00  0.00    -0.354 N 
ATOM     66  N   UNL A   1      42.086  29.719  32.537  1.00  0.00    -0.248 NA
ATOM     67  C   UNL A   1      42.144  30.744  34.592  1.00  0.00     0.031 C 
ATOM     68  C   UNL A   1      44.400  28.673  30.375  1.00  0.00     0.029 A 
ATOM     69  C   UNL A   1      43.792  27.885  31.339  1.00  0.00     0.049 A 
ATOM     70  H   UNL A   1      42.852  26.016  31.129  1.00  0.00     0.167 HD
ATOM     71  C   UNL A   1      42.995  29.020  33.288  1.00  0.00     0.074 A 
ATOM     72  C   UNL A   1      42.981  29.689  34.576  1.00  0.00     0.031 C 
ATOM     73  C   UNL A   1      43.707  27.967  32.788  1.00  0.00     0.031 A 
BRANCH  60  74
ATOM     74  C   UNL A   1      43.249  25.209  27.363  1.00  0.00    -0.014 A 
ATOM     75  C   UNL A   1      44.304  24.348  27.737  1.00  0.00     0.010 A 
ATOM     76  C   UNL A   1      42.877  25.187  26.005  1.00  0.00     0.010 A 
ATOM     77  C   UNL A   1      44.977  23.541  26.816  1.00  0.00     0.020 A 
ATOM     78  C   UNL A   1      43.547  24.381  25.066  1.00  0.00     0.020 A 
ATOM     79  C   UNL A   1      44.597  23.566  25.480  1.00  0.00     0.054 A 
BRANCH  79  80
ATOM     80  S   UNL A   1      45.488  22.505  24.316  1.00  0.00     0.124 S 
ATOM     81  O   UNL A   1      45.861  21.367  25.153  1.00  0.00    -0.237 OA
ATOM     82  O   UNL A   1      44.474  22.233  23.301  1.00  0.00    -0.237 OA
ATOM     83  O   UNL A   1      46.604  23.337  23.871  1.00  0.00    -0.744 OA
ENDBRANCH  79  80
ENDBRANCH  60  74
BRANCH  61  84
ATOM     84  C   UNL A   1      39.267  32.037  33.168  1.00  0.00    -0.014 A 
ATOM     85  C   UNL A   1      38.917  33.397  33.328  1.00  0.00     0.010 A 
ATOM     86  C   UNL A   1      38.239  31.101  32.942  1.00  0.00     0.010 A 
ATOM     87  C   UNL A   1      37.628  33.842  33.014  1.00  0.00     0.020 A 
ATOM     88  C   UNL A   1      36.938  31.547  32.650  1.00  0.00     0.020 A 
ATOM     89  C   UNL A   1      36.673  32.918  32.592  1.00  0.00     0.054 A 
BRANCH  89  90
ATOM     90  S   UNL A   1      35.169  33.549  31.779  1.00  0.00     0.124 S 
ATOM     91  O   UNL A   1      35.618  33.750  30.404  1.00  0.00    -0.237 OA
ATOM     92  O   UNL A   1      34.222  32.446  31.978  1.00  0.00    -0.237 OA
ATOM     93  O   UNL A   1      34.868  34.768  32.522  1.00  0.00    -0.744 OA
ENDBRANCH  89  90
ENDBRANCH  61  84
BRANCH  73  94
ATOM     94  C   UNL A   1      44.475  26.937  33.587  1.00  0.00    -0.014 A 
ATOM     95  C   UNL A   1      43.881  25.871  34.273  1.00  0.00     0.010 A 
ATOM     96  C   UNL A   1      45.895  26.950  33.538  1.00  0.00     0.010 A 
ATOM     97  C   UNL A   1      44.659  24.915  34.940  1.00  0.00     0.020 A 
ATOM     98  C   UNL A   1      46.678  25.968  34.141  1.00  0.00     0.020 A 
ATOM     99  C   UNL A   1      46.051  24.974  34.874  1.00  0.00     0.054 A 
BRANCH  99 100
ATOM    100  S   UNL A   1      47.032  23.725  35.734  1.00  0.00     0.124 S 
ATOM    101  O   UNL A   1      47.051  22.639  34.758  1.00  0.00    -0.237 OA
ATOM    102  O   UNL A   1      48.309  24.405  35.941  1.00  0.00    -0.237 OA
ATOM    103  O   UNL A   1      46.270  23.461  36.951  1.00  0.00    -0.744 OA
ENDBRANCH  99 100
ENDBRANCH  73  94
ENDBRANCH  47  48
ENDBRANCH  39  42
ENDBRANCH  37  38
ENDBRANCH  36  37
ENDBRANCH  35  36
ENDBRANCH   1  35
TORSDOF 19
ENDMDL
