MODEL 1
REMARK VINA RESULT:     -12.5      0.000      0.000
REMARK SMILES CN1C(=O)/C(=C\c2cccc(Cl)c2)Sc2ccc(C(=O)NCCCCCCNC(=O)c3ccc(-c4c5nc(c(-c6ccc(S(=O)(=O)[O-])cc6)c6ccc([nH]6)c(-c6ccc(S(=O)(=O)[O-])cc6)c6nc(c(-c7ccc(S(=O)(=O)[O-])cc7)c7ccc4[nH]7)C=C6)C=C5)cc3)cc21
REMARK SMILES IDX 25 1 24 2 23 3 22 4 21 5 19 6 20 7 18 9 1 10 2 11 3 12 92 13
REMARK SMILES IDX 4 14 5 15 15 16 91 17 6 18 14 19 16 20 17 21 7 22 8 23 13 24
REMARK SMILES IDX 9 25 11 26 10 27 12 28 26 29 27 30 28 31 29 32 30 34 31 35
REMARK SMILES IDX 32 36 90 37 33 38 89 39 34 40 35 41 36 42 83 43 37 44 88 45
REMARK SMILES IDX 82 46 84 47 38 48 87 49 81 50 80 51 39 53 69 54 50 55 68 56
REMARK SMILES IDX 51 57 54 58 67 59 85 60 52 61 53 62 66 64 86 65 55 66 40 67
REMARK SMILES IDX 41 68 49 69 42 70 48 71 43 72 44 73 45 74 46 75 47 76 70 77
REMARK SMILES IDX 71 78 79 79 72 80 78 81 73 82 74 83 75 84 76 85 77 86 56 87
REMARK SMILES IDX 57 88 65 89 58 90 64 91 59 92 60 93 61 94 62 95 63 96
REMARK H PARENT 21 8 28 33 84 52 54 63
REMARK Flexibility Score: inf
ROOT
ATOM      1  C   UNL A   1      35.905  23.898  25.311  1.00  0.00     0.002 C 
ENDROOT
BRANCH   1   2
ATOM      2  C   UNL A   1      35.295  23.373  26.617  1.00  0.00     0.002 C 
BRANCH   2   3
ATOM      3  C   UNL A   1      35.064  21.855  26.665  1.00  0.00     0.021 C 
BRANCH   3   4
ATOM      4  C   UNL A   1      33.719  21.463  27.281  1.00  0.00     0.116 C 
BRANCH   4   5
ATOM      5  N   UNL A   1      32.975  20.624  26.364  1.00  0.00    -0.352 N 
ATOM      6  C   UNL A   1      32.458  20.835  25.116  1.00  0.00     0.251 C 
ATOM      7  O   UNL A   1      31.862  19.891  24.592  1.00  0.00    -0.269 OA
ATOM      8  H   UNL A   1      32.807  19.717  26.710  1.00  0.00     0.163 HD
BRANCH   6   9
ATOM      9  C   UNL A   1      32.603  22.106  24.346  1.00  0.00     0.041 A 
ATOM     10  C   UNL A   1      30.577  25.411  26.100  1.00  0.00     0.153 C 
ATOM     11  N   UNL A   1      31.239  25.581  24.814  1.00  0.00    -0.310 N 
ATOM     12  C   UNL A   1      31.326  26.878  24.319  1.00  0.00     0.264 C 
ATOM     13  C   UNL A   1      31.891  24.464  24.198  1.00  0.00     0.058 A 
ATOM     14  O   UNL A   1      31.173  27.871  25.030  1.00  0.00    -0.268 OA
ATOM     15  C   UNL A   1      31.524  27.012  22.844  1.00  0.00     0.078 C 
ATOM     16  C   UNL A   1      32.705  24.626  23.066  1.00  0.00     0.036 A 
ATOM     17  C   UNL A   1      31.818  23.188  24.786  1.00  0.00     0.041 A 
ATOM     18  C   UNL A   1      30.725  27.800  22.098  1.00  0.00     0.029 C 
ATOM     19  S   UNL A   1      32.829  26.139  22.140  1.00  0.00    -0.082 SA
ATOM     20  C   UNL A   1      33.506  23.558  22.635  1.00  0.00     0.018 A 
ATOM     21  C   UNL A   1      33.489  22.326  23.296  1.00  0.00     0.015 A 
BRANCH  18  22
ATOM     22  C   UNL A   1      29.610  28.592  22.630  1.00  0.00    -0.023 A 
ATOM     23  C   UNL A   1      28.400  27.960  22.941  1.00  0.00     0.008 A 
ATOM     24  C   UNL A   1      29.719  29.979  22.761  1.00  0.00     0.028 A 
ATOM     25  C   UNL A   1      27.293  28.707  23.345  1.00  0.00     0.002 A 
ATOM     26  C   UNL A   1      28.610  30.720  23.176  1.00  0.00     0.041 A 
ATOM     27  C   UNL A   1      27.398  30.093  23.461  1.00  0.00     0.020 A 
ATOM     28  Cl  UNL A   1      28.730  32.433  23.317  1.00  0.00    -0.084 Cl
ENDBRANCH  18  22
ENDBRANCH   6   9
ENDBRANCH   4   5
ENDBRANCH   3   4
ENDBRANCH   2   3
ENDBRANCH   1   2
BRANCH   1  29
ATOM     29  C   UNL A   1      37.408  23.666  25.158  1.00  0.00     0.021 C 
BRANCH  29  30
ATOM     30  C   UNL A   1      38.237  24.097  26.364  1.00  0.00     0.116 C 
BRANCH  30  31
ATOM     31  N   UNL A   1      39.639  23.738  26.221  1.00  0.00    -0.352 N 
ATOM     32  C   UNL A   1      40.758  24.399  26.673  1.00  0.00     0.251 C 
ATOM     33  H   UNL A   1      39.813  22.902  25.730  1.00  0.00     0.163 HD
ATOM     34  O   UNL A   1      41.871  24.061  26.292  1.00  0.00    -0.269 OA
BRANCH  32  35
ATOM     35  C   UNL A   1      40.601  25.540  27.602  1.00  0.00     0.039 A 
ATOM     36  C   UNL A   1      41.424  26.663  27.488  1.00  0.00     0.014 A 
ATOM     37  C   UNL A   1      39.634  25.479  28.609  1.00  0.00     0.014 A 
ATOM     38  C   UNL A   1      41.396  27.639  28.477  1.00  0.00     0.010 A 
ATOM     39  C   UNL A   1      39.549  26.507  29.553  1.00  0.00     0.010 A 
ATOM     40  C   UNL A   1      40.461  27.572  29.524  1.00  0.00    -0.014 A 
BRANCH  40  41
ATOM     41  C   UNL A   1      40.468  28.629  30.570  1.00  0.00     0.031 A 
ATOM     42  C   UNL A   1      39.454  29.742  30.551  1.00  0.00     0.074 A 
ATOM     43  C   UNL A   1      41.349  28.538  31.588  1.00  0.00     0.049 A 
ATOM     44  N   UNL A   1      39.269  30.697  31.427  1.00  0.00    -0.248 NA
ATOM     45  C   UNL A   1      38.527  29.795  29.408  1.00  0.00     0.031 C 
ATOM     46  C   UNL A   1      42.368  27.494  31.721  1.00  0.00     0.029 A 
ATOM     47  N   UNL A   1      41.503  29.300  32.719  1.00  0.00    -0.354 N 
ATOM     48  C   UNL A   1      38.219  31.466  30.939  1.00  0.00     0.074 A 
ATOM     49  C   UNL A   1      37.828  30.891  29.672  1.00  0.00     0.031 C 
ATOM     50  C   UNL A   1      42.990  27.637  32.900  1.00  0.00     0.029 A 
ATOM     51  C   UNL A   1      42.465  28.819  33.578  1.00  0.00     0.049 A 
ATOM     52  H   UNL A   1      40.978  30.112  32.898  1.00  0.00     0.167 HD
ATOM     53  C   UNL A   1      37.625  32.543  31.505  1.00  0.00     0.031 A 
ATOM     54  C   UNL A   1      42.881  29.270  34.778  1.00  0.00     0.031 A 
ATOM     55  C   UNL A   1      38.013  33.105  32.774  1.00  0.00     0.049 A 
ATOM     56  C   UNL A   1      42.227  30.484  35.371  1.00  0.00     0.074 A 
ATOM     57  C   UNL A   1      37.465  34.193  33.431  1.00  0.00     0.029 A 
ATOM     58  N   UNL A   1      39.032  32.622  33.582  1.00  0.00    -0.354 N 
ATOM     59  N   UNL A   1      41.233  31.194  34.893  1.00  0.00    -0.248 NA
ATOM     60  C   UNL A   1      42.741  30.956  36.663  1.00  0.00     0.031 C 
ATOM     61  C   UNL A   1      38.188  34.405  34.605  1.00  0.00     0.029 A 
ATOM     62  C   UNL A   1      39.139  33.404  34.720  1.00  0.00     0.049 A 
ATOM     63  H   UNL A   1      39.595  31.841  33.376  1.00  0.00     0.167 HD
ATOM     64  C   UNL A   1      40.992  32.189  35.834  1.00  0.00     0.074 A 
ATOM     65  C   UNL A   1      41.930  31.977  36.917  1.00  0.00     0.031 C 
ATOM     66  C   UNL A   1      40.075  33.186  35.797  1.00  0.00     0.031 A 
BRANCH  53  67
ATOM     67  C   UNL A   1      36.482  33.200  30.773  1.00  0.00    -0.014 A 
ATOM     68  C   UNL A   1      36.747  34.093  29.718  1.00  0.00     0.010 A 
ATOM     69  C   UNL A   1      35.154  33.027  31.204  1.00  0.00     0.010 A 
ATOM     70  C   UNL A   1      35.713  34.827  29.130  1.00  0.00     0.020 A 
ATOM     71  C   UNL A   1      34.114  33.738  30.600  1.00  0.00     0.020 A 
ATOM     72  C   UNL A   1      34.403  34.651  29.583  1.00  0.00     0.054 A 
BRANCH  72  73
ATOM     73  S   UNL A   1      33.075  35.630  28.825  1.00  0.00     0.124 S 
ATOM     74  O   UNL A   1      32.341  34.620  28.071  1.00  0.00    -0.237 OA
ATOM     75  O   UNL A   1      32.381  36.181  29.988  1.00  0.00    -0.237 OA
ATOM     76  O   UNL A   1      33.795  36.614  28.020  1.00  0.00    -0.744 OA
ENDBRANCH  72  73
ENDBRANCH  53  67
BRANCH  54  77
ATOM     77  C   UNL A   1      43.952  28.524  35.497  1.00  0.00    -0.014 A 
ATOM     78  C   UNL A   1      45.307  28.839  35.278  1.00  0.00     0.010 A 
ATOM     79  C   UNL A   1      43.629  27.433  36.322  1.00  0.00     0.010 A 
ATOM     80  C   UNL A   1      46.317  28.038  35.813  1.00  0.00     0.020 A 
ATOM     81  C   UNL A   1      44.639  26.648  36.887  1.00  0.00     0.020 A 
ATOM     82  C   UNL A   1      45.976  26.936  36.602  1.00  0.00     0.054 A 
BRANCH  82  83
ATOM     83  S   UNL A   1      47.302  25.871  37.232  1.00  0.00     0.124 S 
ATOM     84  O   UNL A   1      47.755  26.620  38.401  1.00  0.00    -0.237 OA
ATOM     85  O   UNL A   1      46.600  24.622  37.519  1.00  0.00    -0.237 OA
ATOM     86  O   UNL A   1      48.248  25.810  36.122  1.00  0.00    -0.744 OA
ENDBRANCH  82  83
ENDBRANCH  54  77
BRANCH  66  87
ATOM     87  C   UNL A   1      40.013  34.139  36.961  1.00  0.00    -0.014 A 
ATOM     88  C   UNL A   1      39.152  33.860  38.040  1.00  0.00     0.010 A 
ATOM     89  C   UNL A   1      40.697  35.365  36.930  1.00  0.00     0.010 A 
ATOM     90  C   UNL A   1      38.948  34.805  39.048  1.00  0.00     0.020 A 
ATOM     91  C   UNL A   1      40.519  36.302  37.953  1.00  0.00     0.020 A 
ATOM     92  C   UNL A   1      39.625  36.025  38.991  1.00  0.00     0.054 A 
BRANCH  92  93
ATOM     93  S   UNL A   1      39.326  37.253  40.293  1.00  0.00     0.124 S 
ATOM     94  O   UNL A   1      38.581  36.478  41.280  1.00  0.00    -0.237 OA
ATOM     95  O   UNL A   1      40.678  37.641  40.687  1.00  0.00    -0.237 OA
ATOM     96  O   UNL A   1      38.562  38.296  39.610  1.00  0.00    -0.744 OA
ENDBRANCH  92  93
ENDBRANCH  66  87
ENDBRANCH  40  41
ENDBRANCH  32  35
ENDBRANCH  30  31
ENDBRANCH  29  30
ENDBRANCH   1  29
TORSDOF 17
ENDMDL
MODEL 2
REMARK VINA RESULT:     -12.3      6.523     11.636
REMARK SMILES CN1C(=O)/C(=C\c2cccc(Cl)c2)Sc2ccc(C(=O)NCCCCCCNC(=O)c3ccc(-c4c5nc(c(-c6ccc(S(=O)(=O)[O-])cc6)c6ccc([nH]6)c(-c6ccc(S(=O)(=O)[O-])cc6)c6nc(c(-c7ccc(S(=O)(=O)[O-])cc7)c7ccc4[nH]7)C=C6)C=C5)cc3)cc21
REMARK SMILES IDX 25 1 24 2 23 3 22 4 21 5 19 6 20 7 18 9 1 10 2 11 3 12 92 13
REMARK SMILES IDX 4 14 5 15 15 16 91 17 6 18 14 19 16 20 17 21 7 22 8 23 13 24
REMARK SMILES IDX 9 25 11 26 10 27 12 28 26 29 27 30 28 31 29 32 30 34 31 35
REMARK SMILES IDX 32 36 90 37 33 38 89 39 34 40 35 41 36 42 83 43 37 44 88 45
REMARK SMILES IDX 82 46 84 47 38 48 87 49 81 50 80 51 39 53 69 54 50 55 68 56
REMARK SMILES IDX 51 57 54 58 67 59 85 60 52 61 53 62 66 64 86 65 55 66 40 67
REMARK SMILES IDX 41 68 49 69 42 70 48 71 43 72 44 73 45 74 46 75 47 76 70 77
REMARK SMILES IDX 71 78 79 79 72 80 78 81 73 82 74 83 75 84 76 85 77 86 56 87
REMARK SMILES IDX 57 88 65 89 58 90 64 91 59 92 60 93 61 94 62 95 63 96
REMARK H PARENT 21 8 28 33 84 52 54 63
REMARK Flexibility Score: inf
ROOT
ATOM      1  C   UNL A   1      34.063  28.838  27.088  1.00  0.00     0.002 C 
ENDROOT
BRANCH   1   2
ATOM      2  C   UNL A   1      33.984  28.347  25.637  1.00  0.00     0.002 C 
BRANCH   2   3
ATOM      3  C   UNL A   1      33.280  29.303  24.662  1.00  0.00     0.021 C 
BRANCH   3   4
ATOM      4  C   UNL A   1      33.480  28.929  23.192  1.00  0.00     0.116 C 
BRANCH   4   5
ATOM      5  N   UNL A   1      32.198  28.716  22.552  1.00  0.00    -0.352 N 
ATOM      6  C   UNL A   1      31.240  27.750  22.682  1.00  0.00     0.251 C 
ATOM      7  O   UNL A   1      30.237  27.859  21.973  1.00  0.00    -0.269 OA
ATOM      8  H   UNL A   1      31.971  29.408  21.889  1.00  0.00     0.163 HD
BRANCH   6   9
ATOM      9  C   UNL A   1      31.315  26.609  23.643  1.00  0.00     0.041 A 
ATOM     10  C   UNL A   1      33.959  23.508  22.417  1.00  0.00     0.153 C 
ATOM     11  N   UNL A   1      33.169  23.335  23.628  1.00  0.00    -0.310 N 
ATOM     12  C   UNL A   1      33.467  22.231  24.420  1.00  0.00     0.264 C 
ATOM     13  C   UNL A   1      32.248  24.358  24.029  1.00  0.00     0.058 A 
ATOM     14  O   UNL A   1      34.527  21.612  24.323  1.00  0.00    -0.268 OA
ATOM     15  C   UNL A   1      32.388  21.767  25.343  1.00  0.00     0.078 C 
ATOM     16  C   UNL A   1      31.619  24.325  25.282  1.00  0.00     0.036 A 
ATOM     17  C   UNL A   1      32.041  25.484  23.211  1.00  0.00     0.041 A 
ATOM     18  C   UNL A   1      31.990  20.479  25.366  1.00  0.00     0.029 C 
ATOM     19  S   UNL A   1      31.688  22.937  26.392  1.00  0.00    -0.082 SA
ATOM     20  C   UNL A   1      30.912  25.451  25.729  1.00  0.00     0.018 A 
ATOM     21  C   UNL A   1      30.801  26.598  24.936  1.00  0.00     0.015 A 
BRANCH  18  22
ATOM     22  C   UNL A   1      32.556  19.422  24.520  1.00  0.00    -0.023 A 
ATOM     23  C   UNL A   1      32.128  19.296  23.192  1.00  0.00     0.008 A 
ATOM     24  C   UNL A   1      33.460  18.494  25.045  1.00  0.00     0.028 A 
ATOM     25  C   UNL A   1      32.570  18.234  22.403  1.00  0.00     0.002 A 
ATOM     26  C   UNL A   1      33.905  17.439  24.246  1.00  0.00     0.041 A 
ATOM     27  C   UNL A   1      33.460  17.301  22.932  1.00  0.00     0.020 A 
ATOM     28  Cl  UNL A   1      35.002  16.280  24.894  1.00  0.00    -0.084 Cl
ENDBRANCH  18  22
ENDBRANCH   6   9
ENDBRANCH   4   5
ENDBRANCH   3   4
ENDBRANCH   2   3
ENDBRANCH   1   2
BRANCH   1  29
ATOM     29  C   UNL A   1      34.323  30.336  27.252  1.00  0.00     0.021 C 
BRANCH  29  30
ATOM     30  C   UNL A   1      35.622  30.674  27.977  1.00  0.00     0.116 C 
BRANCH  30  31
ATOM     31  N   UNL A   1      35.539  30.400  29.403  1.00  0.00    -0.352 N 
ATOM     32  C   UNL A   1      36.495  29.881  30.247  1.00  0.00     0.251 C 
ATOM     33  H   UNL A   1      34.677  30.618  29.826  1.00  0.00     0.163 HD
ATOM     34  O   UNL A   1      36.191  29.530  31.379  1.00  0.00    -0.269 OA
BRANCH  32  35
ATOM     35  C   UNL A   1      37.884  29.726  29.763  1.00  0.00     0.039 A 
ATOM     36  C   UNL A   1      38.169  29.793  28.397  1.00  0.00     0.014 A 
ATOM     37  C   UNL A   1      38.910  29.490  30.683  1.00  0.00     0.014 A 
ATOM     38  C   UNL A   1      39.439  29.457  27.942  1.00  0.00     0.010 A 
ATOM     39  C   UNL A   1      40.208  29.240  30.225  1.00  0.00     0.010 A 
ATOM     40  C   UNL A   1      40.473  29.172  28.849  1.00  0.00    -0.014 A 
BRANCH  40  41
ATOM     41  C   UNL A   1      41.816  28.807  28.325  1.00  0.00     0.031 A 
ATOM     42  C   UNL A   1      42.950  29.797  28.349  1.00  0.00     0.074 A 
ATOM     43  C   UNL A   1      42.031  27.546  27.896  1.00  0.00     0.049 A 
ATOM     44  N   UNL A   1      44.201  29.617  28.006  1.00  0.00    -0.248 NA
ATOM     45  C   UNL A   1      42.651  31.161  28.816  1.00  0.00     0.031 C 
ATOM     46  C   UNL A   1      41.011  26.496  27.841  1.00  0.00     0.029 A 
ATOM     47  N   UNL A   1      43.175  26.921  27.468  1.00  0.00    -0.354 N 
ATOM     48  C   UNL A   1      44.831  30.840  28.205  1.00  0.00     0.074 A 
ATOM     49  C   UNL A   1      43.821  31.766  28.664  1.00  0.00     0.031 C 
ATOM     50  C   UNL A   1      41.589  25.343  27.478  1.00  0.00     0.029 A 
ATOM     51  C   UNL A   1      43.004  25.581  27.207  1.00  0.00     0.049 A 
ATOM     52  H   UNL A   1      44.035  27.387  27.357  1.00  0.00     0.167 HD
ATOM     53  C   UNL A   1      46.137  31.156  28.035  1.00  0.00     0.031 A 
ATOM     54  C   UNL A   1      43.881  24.642  26.799  1.00  0.00     0.031 A 
ATOM     55  C   UNL A   1      47.141  30.226  27.587  1.00  0.00     0.049 A 
ATOM     56  C   UNL A   1      45.318  25.025  26.590  1.00  0.00     0.074 A 
ATOM     57  C   UNL A   1      48.492  30.454  27.391  1.00  0.00     0.029 A 
ATOM     58  N   UNL A   1      46.912  28.893  27.277  1.00  0.00    -0.354 N 
ATOM     59  N   UNL A   1      45.892  26.186  26.787  1.00  0.00    -0.248 NA
ATOM     60  C   UNL A   1      46.226  23.974  26.110  1.00  0.00     0.031 C 
ATOM     61  C   UNL A   1      49.069  29.279  26.907  1.00  0.00     0.029 A 
ATOM     62  C   UNL A   1      48.094  28.295  26.872  1.00  0.00     0.049 A 
ATOM     63  H   UNL A   1      46.040  28.441  27.335  1.00  0.00     0.167 HD
ATOM     64  C   UNL A   1      47.234  26.004  26.470  1.00  0.00     0.074 A 
ATOM     65  C   UNL A   1      47.388  24.616  26.087  1.00  0.00     0.031 C 
ATOM     66  C   UNL A   1      48.241  26.910  26.494  1.00  0.00     0.031 A 
BRANCH  53  67
ATOM     67  C   UNL A   1      46.579  32.567  28.337  1.00  0.00    -0.014 A 
ATOM     68  C   UNL A   1      46.816  32.956  29.669  1.00  0.00     0.010 A 
ATOM     69  C   UNL A   1      46.643  33.536  27.321  1.00  0.00     0.010 A 
ATOM     70  C   UNL A   1      47.075  34.293  29.984  1.00  0.00     0.020 A 
ATOM     71  C   UNL A   1      46.931  34.869  27.629  1.00  0.00     0.020 A 
ATOM     72  C   UNL A   1      47.121  35.243  28.961  1.00  0.00     0.054 A 
BRANCH  72  73
ATOM     73  S   UNL A   1      47.436  36.978  29.389  1.00  0.00     0.124 S 
ATOM     74  O   UNL A   1      46.117  37.434  29.815  1.00  0.00    -0.237 OA
ATOM     75  O   UNL A   1      48.440  36.870  30.445  1.00  0.00    -0.237 OA
ATOM     76  O   UNL A   1      47.925  37.554  28.138  1.00  0.00    -0.744 OA
ENDBRANCH  72  73
ENDBRANCH  53  67
BRANCH  54  77
ATOM     77  C   UNL A   1      43.404  23.244  26.607  1.00  0.00    -0.014 A 
ATOM     78  C   UNL A   1      42.916  22.504  27.702  1.00  0.00     0.010 A 
ATOM     79  C   UNL A   1      43.531  22.612  25.359  1.00  0.00     0.010 A 
ATOM     80  C   UNL A   1      42.628  21.144  27.568  1.00  0.00     0.020 A 
ATOM     81  C   UNL A   1      43.212  21.258  25.213  1.00  0.00     0.020 A 
ATOM     82  C   UNL A   1      42.795  20.526  26.327  1.00  0.00     0.054 A 
BRANCH  82  83
ATOM     83  S   UNL A   1      42.479  18.745  26.191  1.00  0.00     0.124 S 
ATOM     84  O   UNL A   1      43.467  18.342  25.193  1.00  0.00    -0.237 OA
ATOM     85  O   UNL A   1      42.729  18.271  27.550  1.00  0.00    -0.237 OA
ATOM     86  O   UNL A   1      41.087  18.677  25.756  1.00  0.00    -0.744 OA
ENDBRANCH  82  83
ENDBRANCH  54  77
BRANCH  66  87
ATOM     87  C   UNL A   1      49.622  26.449  26.108  1.00  0.00    -0.014 A 
ATOM     88  C   UNL A   1      50.437  25.820  27.069  1.00  0.00     0.010 A 
ATOM     89  C   UNL A   1      50.161  26.753  24.847  1.00  0.00     0.010 A 
ATOM     90  C   UNL A   1      51.775  25.537  26.789  1.00  0.00     0.020 A 
ATOM     91  C   UNL A   1      51.492  26.444  24.552  1.00  0.00     0.020 A 
ATOM     92  C   UNL A   1      52.297  25.862  25.534  1.00  0.00     0.054 A 
BRANCH  92  93
ATOM     93  S   UNL A   1      54.046  25.515  25.197  1.00  0.00     0.124 S 
ATOM     94  O   UNL A   1      54.134  25.758  23.760  1.00  0.00    -0.237 OA
ATOM     95  O   UNL A   1      54.736  26.487  26.043  1.00  0.00    -0.237 OA
ATOM     96  O   UNL A   1      54.203  24.121  25.607  1.00  0.00    -0.744 OA
ENDBRANCH  92  93
ENDBRANCH  66  87
ENDBRANCH  40  41
ENDBRANCH  32  35
ENDBRANCH  30  31
ENDBRANCH  29  30
ENDBRANCH   1  29
TORSDOF 17
ENDMDL
MODEL 3
REMARK VINA RESULT:     -12.2      0.480      7.909
REMARK SMILES CN1C(=O)/C(=C\c2cccc(Cl)c2)Sc2ccc(C(=O)NCCCCCCNC(=O)c3ccc(-c4c5nc(c(-c6ccc(S(=O)(=O)[O-])cc6)c6ccc([nH]6)c(-c6ccc(S(=O)(=O)[O-])cc6)c6nc(c(-c7ccc(S(=O)(=O)[O-])cc7)c7ccc4[nH]7)C=C6)C=C5)cc3)cc21
REMARK SMILES IDX 25 1 24 2 23 3 22 4 21 5 19 6 20 7 18 9 1 10 2 11 3 12 92 13
REMARK SMILES IDX 4 14 5 15 15 16 91 17 6 18 14 19 16 20 17 21 7 22 8 23 13 24
REMARK SMILES IDX 9 25 11 26 10 27 12 28 26 29 27 30 28 31 29 32 30 34 31 35
REMARK SMILES IDX 32 36 90 37 33 38 89 39 34 40 35 41 36 42 83 43 37 44 88 45
REMARK SMILES IDX 82 46 84 47 38 48 87 49 81 50 80 51 39 53 69 54 50 55 68 56
REMARK SMILES IDX 51 57 54 58 67 59 85 60 52 61 53 62 66 64 86 65 55 66 40 67
REMARK SMILES IDX 41 68 49 69 42 70 48 71 43 72 44 73 45 74 46 75 47 76 70 77
REMARK SMILES IDX 71 78 79 79 72 80 78 81 73 82 74 83 75 84 76 85 77 86 56 87
REMARK SMILES IDX 57 88 65 89 58 90 64 91 59 92 60 93 61 94 62 95 63 96
REMARK H PARENT 21 8 28 33 84 52 54 63
REMARK Flexibility Score: inf
ROOT
ATOM      1  C   UNL A   1      36.278  23.711  25.399  1.00  0.00     0.002 C 
ENDROOT
BRANCH   1   2
ATOM      2  C   UNL A   1      35.257  23.466  26.518  1.00  0.00     0.002 C 
BRANCH   2   3
ATOM      3  C   UNL A   1      35.036  21.991  26.886  1.00  0.00     0.021 C 
BRANCH   3   4
ATOM      4  C   UNL A   1      33.621  21.696  27.390  1.00  0.00     0.116 C 
BRANCH   4   5
ATOM      5  N   UNL A   1      32.935  20.816  26.466  1.00  0.00    -0.352 N 
ATOM      6  C   UNL A   1      32.462  20.984  25.195  1.00  0.00     0.251 C 
ATOM      7  O   UNL A   1      31.911  20.013  24.671  1.00  0.00    -0.269 OA
ATOM      8  H   UNL A   1      32.779  19.913  26.827  1.00  0.00     0.163 HD
BRANCH   6   9
ATOM      9  C   UNL A   1      32.602  22.241  24.400  1.00  0.00     0.041 A 
ATOM     10  C   UNL A   1      30.602  25.582  26.115  1.00  0.00     0.153 C 
ATOM     11  N   UNL A   1      31.252  25.727  24.820  1.00  0.00    -0.310 N 
ATOM     12  C   UNL A   1      31.338  27.015  24.301  1.00  0.00     0.264 C 
ATOM     13  C   UNL A   1      31.895  24.598  24.217  1.00  0.00     0.058 A 
ATOM     14  O   UNL A   1      31.195  28.021  24.996  1.00  0.00    -0.268 OA
ATOM     15  C   UNL A   1      31.522  27.123  22.822  1.00  0.00     0.078 C 
ATOM     16  C   UNL A   1      32.698  24.737  23.075  1.00  0.00     0.036 A 
ATOM     17  C   UNL A   1      31.825  23.333  24.829  1.00  0.00     0.041 A 
ATOM     18  C   UNL A   1      30.717  27.899  22.070  1.00  0.00     0.029 C 
ATOM     19  S   UNL A   1      32.817  26.234  22.121  1.00  0.00    -0.082 SA
ATOM     20  C   UNL A   1      33.492  23.660  22.655  1.00  0.00     0.018 A 
ATOM     21  C   UNL A   1      33.479  22.440  23.339  1.00  0.00     0.015 A 
BRANCH  18  22
ATOM     22  C   UNL A   1      29.610  28.704  22.599  1.00  0.00    -0.023 A 
ATOM     23  C   UNL A   1      28.394  28.084  22.914  1.00  0.00     0.008 A 
ATOM     24  C   UNL A   1      29.731  30.091  22.723  1.00  0.00     0.028 A 
ATOM     25  C   UNL A   1      27.295  28.843  23.315  1.00  0.00     0.002 A 
ATOM     26  C   UNL A   1      28.629  30.844  23.135  1.00  0.00     0.041 A 
ATOM     27  C   UNL A   1      27.412  30.228  23.424  1.00  0.00     0.020 A 
ATOM     28  Cl  UNL A   1      28.765  32.555  23.268  1.00  0.00    -0.084 Cl
ENDBRANCH  18  22
ENDBRANCH   6   9
ENDBRANCH   4   5
ENDBRANCH   3   4
ENDBRANCH   2   3
ENDBRANCH   1   2
BRANCH   1  29
ATOM     29  C   UNL A   1      37.690  23.199  25.686  1.00  0.00     0.021 C 
BRANCH  29  30
ATOM     30  C   UNL A   1      38.525  24.119  26.570  1.00  0.00     0.116 C 
BRANCH  30  31
ATOM     31  N   UNL A   1      39.849  24.357  26.016  1.00  0.00    -0.352 N 
ATOM     32  C   UNL A   1      40.729  25.384  26.272  1.00  0.00     0.251 C 
ATOM     33  H   UNL A   1      40.161  23.687  25.366  1.00  0.00     0.163 HD
ATOM     34  O   UNL A   1      41.718  25.537  25.569  1.00  0.00    -0.269 OA
BRANCH  32  35
ATOM     35  C   UNL A   1      40.451  26.317  27.386  1.00  0.00     0.039 A 
ATOM     36  C   UNL A   1      41.056  27.575  27.422  1.00  0.00     0.014 A 
ATOM     37  C   UNL A   1      39.592  25.922  28.416  1.00  0.00     0.014 A 
ATOM     38  C   UNL A   1      40.939  28.362  28.562  1.00  0.00     0.010 A 
ATOM     39  C   UNL A   1      39.406  26.757  29.522  1.00  0.00     0.010 A 
ATOM     40  C   UNL A   1      40.116  27.962  29.628  1.00  0.00    -0.014 A 
BRANCH  40  41
ATOM     41  C   UNL A   1      40.023  28.824  30.836  1.00  0.00     0.031 A 
ATOM     42  C   UNL A   1      40.976  28.646  31.988  1.00  0.00     0.074 A 
ATOM     43  C   UNL A   1      39.121  29.827  30.857  1.00  0.00     0.049 A 
ATOM     44  N   UNL A   1      41.085  29.360  33.079  1.00  0.00    -0.248 NA
ATOM     45  C   UNL A   1      41.930  27.526  31.912  1.00  0.00     0.031 C 
ATOM     46  C   UNL A   1      38.157  30.107  29.791  1.00  0.00     0.029 A 
ATOM     47  N   UNL A   1      38.895  30.818  31.779  1.00  0.00    -0.354 N 
ATOM     48  C   UNL A   1      42.105  28.775  33.820  1.00  0.00     0.074 A 
ATOM     49  C   UNL A   1      42.561  27.624  33.074  1.00  0.00     0.031 C 
ATOM     50  C   UNL A   1      37.496  31.236  30.084  1.00  0.00     0.029 A 
ATOM     51  C   UNL A   1      37.938  31.725  31.387  1.00  0.00     0.049 A 
ATOM     52  H   UNL A   1      39.371  30.874  32.639  1.00  0.00     0.167 HD
ATOM     53  C   UNL A   1      42.625  29.171  35.006  1.00  0.00     0.031 A 
ATOM     54  C   UNL A   1      37.465  32.829  31.998  1.00  0.00     0.031 A 
ATOM     55  C   UNL A   1      42.173  30.326  35.739  1.00  0.00     0.049 A 
ATOM     56  C   UNL A   1      38.037  33.232  33.326  1.00  0.00     0.074 A 
ATOM     57  C   UNL A   1      42.643  30.810  36.948  1.00  0.00     0.029 A 
ATOM     58  N   UNL A   1      41.160  31.183  35.333  1.00  0.00    -0.354 N 
ATOM     59  N   UNL A   1      39.003  32.665  34.007  1.00  0.00    -0.248 NA
ATOM     60  C   UNL A   1      37.463  34.423  33.968  1.00  0.00     0.031 C 
ATOM     61  C   UNL A   1      41.878  31.922  37.302  1.00  0.00     0.029 A 
ATOM     62  C   UNL A   1      40.979  32.178  36.278  1.00  0.00     0.049 A 
ATOM     63  H   UNL A   1      40.646  31.095  34.499  1.00  0.00     0.167 HD
ATOM     64  C   UNL A   1      39.165  33.438  35.151  1.00  0.00     0.074 A 
ATOM     65  C   UNL A   1      38.210  34.524  35.061  1.00  0.00     0.031 C 
ATOM     66  C   UNL A   1      40.028  33.259  36.181  1.00  0.00     0.031 A 
BRANCH  53  67
ATOM     67  C   UNL A   1      43.751  28.364  35.602  1.00  0.00    -0.014 A 
ATOM     68  C   UNL A   1      45.080  28.630  35.223  1.00  0.00     0.010 A 
ATOM     69  C   UNL A   1      43.487  27.268  36.442  1.00  0.00     0.010 A 
ATOM     70  C   UNL A   1      46.120  27.797  35.643  1.00  0.00     0.020 A 
ATOM     71  C   UNL A   1      44.529  26.449  36.889  1.00  0.00     0.020 A 
ATOM     72  C   UNL A   1      45.835  26.705  36.467  1.00  0.00     0.054 A 
BRANCH  72  73
ATOM     73  S   UNL A   1      47.194  25.619  36.985  1.00  0.00     0.124 S 
ATOM     74  O   UNL A   1      47.610  26.225  38.244  1.00  0.00    -0.237 OA
ATOM     75  O   UNL A   1      46.539  24.317  37.093  1.00  0.00    -0.237 OA
ATOM     76  O   UNL A   1      48.154  25.730  35.888  1.00  0.00    -0.744 OA
ENDBRANCH  72  73
ENDBRANCH  53  67
BRANCH  54  77
ATOM     77  C   UNL A   1      36.417  33.640  31.315  1.00  0.00    -0.014 A 
ATOM     78  C   UNL A   1      35.178  33.873  31.944  1.00  0.00     0.010 A 
ATOM     79  C   UNL A   1      36.611  34.093  30.000  1.00  0.00     0.010 A 
ATOM     80  C   UNL A   1      34.133  34.482  31.248  1.00  0.00     0.020 A 
ATOM     81  C   UNL A   1      35.576  34.734  29.310  1.00  0.00     0.020 A 
ATOM     82  C   UNL A   1      34.334  34.894  29.928  1.00  0.00     0.054 A 
BRANCH  82  83
ATOM     83  S   UNL A   1      32.943  35.622  29.021  1.00  0.00     0.124 S 
ATOM     84  O   UNL A   1      32.443  34.474  28.269  1.00  0.00    -0.237 OA
ATOM     85  O   UNL A   1      32.074  36.097  30.095  1.00  0.00    -0.237 OA
ATOM     86  O   UNL A   1      33.569  36.670  28.219  1.00  0.00    -0.744 OA
ENDBRANCH  82  83
ENDBRANCH  54  77
BRANCH  66  87
ATOM     87  C   UNL A   1      40.006  34.256  37.309  1.00  0.00    -0.014 A 
ATOM     88  C   UNL A   1      39.228  33.993  38.453  1.00  0.00     0.010 A 
ATOM     89  C   UNL A   1      40.641  35.503  37.185  1.00  0.00     0.010 A 
ATOM     90  C   UNL A   1      39.055  34.971  39.435  1.00  0.00     0.020 A 
ATOM     91  C   UNL A   1      40.494  36.475  38.181  1.00  0.00     0.020 A 
ATOM     92  C   UNL A   1      39.681  36.210  39.286  1.00  0.00     0.054 A 
BRANCH  92  93
ATOM     93  S   UNL A   1      39.421  37.480  40.555  1.00  0.00     0.124 S 
ATOM     94  O   UNL A   1      38.342  38.275  39.976  1.00  0.00    -0.237 OA
ATOM     95  O   UNL A   1      39.061  36.691  41.731  1.00  0.00    -0.237 OA
ATOM     96  O   UNL A   1      40.717  38.151  40.638  1.00  0.00    -0.744 OA
ENDBRANCH  92  93
ENDBRANCH  66  87
ENDBRANCH  40  41
ENDBRANCH  32  35
ENDBRANCH  30  31
ENDBRANCH  29  30
ENDBRANCH   1  29
TORSDOF 17
ENDMDL
