MODEL 1
REMARK VINA RESULT:     -10.6      0.000      0.000
REMARK SMILES O=C(NCCCCCCNC(=O)[C@@]1(C(F)(F)F)CCN(C(=O)Cc2ccn[nH]2)C1)c1ccc(-c2c3nc(c(-c4ccc(S(=O)(=O)[O-])cc4)c4ccc([nH]4)c(-c4ccc(S(=O)(=O)[O-])cc4)c4nc(c(-c5ccc(S(=O)(=O)[O-])cc5)c5ccc2[nH]5)C=C4)C=C3)cc1
REMARK SMILES IDX 6 1 5 2 4 3 3 4 1 5 2 6 30 8 31 9 89 10 32 11 88 12 33 13
REMARK SMILES IDX 34 14 35 15 82 16 36 17 87 18 81 19 83 20 37 21 86 22 80 23
REMARK SMILES IDX 79 24 38 26 68 27 49 28 67 29 50 30 53 31 66 32 84 33 51 34
REMARK SMILES IDX 52 35 65 37 85 38 54 39 39 40 40 41 48 42 41 43 47 44 42 45
REMARK SMILES IDX 43 46 44 47 45 48 46 49 69 50 70 51 78 52 71 53 77 54 72 55
REMARK SMILES IDX 73 56 74 57 75 58 76 59 55 60 56 61 64 62 57 63 63 64 58 65
REMARK SMILES IDX 59 66 60 67 61 68 62 69 7 70 8 71 9 72 10 73 11 74 12 76
REMARK SMILES IDX 13 77 18 78 29 79 19 80 20 81 14 82 15 83 16 84 17 85 21 86
REMARK SMILES IDX 22 87 23 88 24 89 25 90 28 91 26 92 27 93
REMARK H PARENT 3 7 83 25 53 36 10 75 28 94
REMARK Flexibility Score: inf
ROOT
ATOM      1  C   UNL A   1      41.476  22.028  26.690  1.00  0.00     0.002 C 
ENDROOT
BRANCH   1   2
ATOM      2  C   UNL A   1      42.428  22.552  27.766  1.00  0.00     0.021 C 
BRANCH   2   3
ATOM      3  C   UNL A   1      43.371  23.646  27.280  1.00  0.00     0.116 C 
BRANCH   3   4
ATOM      4  N   UNL A   1      42.855  24.311  26.095  1.00  0.00    -0.352 N 
ATOM      5  O   UNL A   1      41.531  25.747  24.966  1.00  0.00    -0.269 OA
ATOM      6  C   UNL A   1      42.082  25.443  26.020  1.00  0.00     0.251 C 
ATOM      7  H   UNL A   1      43.090  23.896  25.235  1.00  0.00     0.163 HD
BRANCH   6   8
ATOM      8  C   UNL A   1      41.915  26.283  27.223  1.00  0.00     0.039 A 
ATOM      9  C   UNL A   1      42.546  27.528  27.302  1.00  0.00     0.014 A 
ATOM     10  C   UNL A   1      41.113  25.830  28.272  1.00  0.00     0.014 A 
ATOM     11  C   UNL A   1      42.462  28.272  28.472  1.00  0.00     0.010 A 
ATOM     12  C   UNL A   1      40.962  26.618  29.416  1.00  0.00     0.010 A 
ATOM     13  C   UNL A   1      41.644  27.840  29.527  1.00  0.00    -0.014 A 
BRANCH  13  14
ATOM     14  C   UNL A   1      41.422  28.736  30.689  1.00  0.00     0.031 A 
ATOM     15  C   UNL A   1      42.259  28.629  31.930  1.00  0.00     0.074 A 
ATOM     16  C   UNL A   1      40.432  29.648  30.607  1.00  0.00     0.049 A 
ATOM     17  N   UNL A   1      42.173  29.323  33.037  1.00  0.00    -0.248 NA
ATOM     18  C   UNL A   1      43.326  27.616  31.939  1.00  0.00     0.031 C 
ATOM     19  C   UNL A   1      39.548  29.830  29.450  1.00  0.00     0.029 A 
ATOM     20  N   UNL A   1      40.001  30.592  31.502  1.00  0.00    -0.354 N 
ATOM     21  C   UNL A   1      43.151  28.816  33.883  1.00  0.00     0.074 A 
ATOM     22  C   UNL A   1      43.815  27.748  33.166  1.00  0.00     0.031 C 
ATOM     23  C   UNL A   1      38.704  30.841  29.695  1.00  0.00     0.029 A 
ATOM     24  C   UNL A   1      38.933  31.331  31.048  1.00  0.00     0.049 A 
ATOM     25  H   UNL A   1      40.416  30.728  32.385  1.00  0.00     0.167 HD
ATOM     26  C   UNL A   1      43.461  29.208  35.143  1.00  0.00     0.031 A 
ATOM     27  C   UNL A   1      38.194  32.272  31.660  1.00  0.00     0.031 A 
ATOM     28  C   UNL A   1      42.788  30.272  35.844  1.00  0.00     0.049 A 
ATOM     29  C   UNL A   1      38.535  32.655  33.071  1.00  0.00     0.074 A 
ATOM     30  C   UNL A   1      43.066  30.782  37.101  1.00  0.00     0.029 A 
ATOM     31  N   UNL A   1      41.697  30.978  35.360  1.00  0.00    -0.354 N 
ATOM     32  N   UNL A   1      39.508  32.211  33.830  1.00  0.00    -0.248 NA
ATOM     33  C   UNL A   1      37.678  33.661  33.710  1.00  0.00     0.031 C 
ATOM     34  C   UNL A   1      42.102  31.748  37.404  1.00  0.00     0.029 A 
ATOM     35  C   UNL A   1      41.263  31.889  36.310  1.00  0.00     0.049 A 
ATOM     36  H   UNL A   1      41.289  30.851  34.473  1.00  0.00     0.167 HD
ATOM     37  C   UNL A   1      39.389  32.893  35.032  1.00  0.00     0.074 A 
ATOM     38  C   UNL A   1      38.266  33.798  34.892  1.00  0.00     0.031 C 
ATOM     39  C   UNL A   1      40.140  32.779  36.155  1.00  0.00     0.031 A 
BRANCH  26  40
ATOM     40  C   UNL A   1      44.552  28.465  35.868  1.00  0.00    -0.014 A 
ATOM     41  C   UNL A   1      45.891  28.891  35.815  1.00  0.00     0.010 A 
ATOM     42  C   UNL A   1      44.217  27.366  36.683  1.00  0.00     0.010 A 
ATOM     43  C   UNL A   1      46.877  28.216  36.540  1.00  0.00     0.020 A 
ATOM     44  C   UNL A   1      45.197  26.704  37.428  1.00  0.00     0.020 A 
ATOM     45  C   UNL A   1      46.525  27.126  37.341  1.00  0.00     0.054 A 
BRANCH  45  46
ATOM     46  S   UNL A   1      47.821  26.291  38.297  1.00  0.00     0.124 S 
ATOM     47  O   UNL A   1      48.215  25.214  37.393  1.00  0.00    -0.237 OA
ATOM     48  O   UNL A   1      48.813  27.349  38.481  1.00  0.00    -0.237 OA
ATOM     49  O   UNL A   1      47.137  25.863  39.514  1.00  0.00    -0.744 OA
ENDBRANCH  45  46
ENDBRANCH  26  40
BRANCH  27  50
ATOM     50  C   UNL A   1      37.034  32.879  30.952  1.00  0.00    -0.014 A 
ATOM     51  C   UNL A   1      37.227  33.851  29.956  1.00  0.00     0.010 A 
ATOM     52  C   UNL A   1      35.724  32.466  31.263  1.00  0.00     0.010 A 
ATOM     53  C   UNL A   1      36.131  34.415  29.298  1.00  0.00     0.020 A 
ATOM     54  C   UNL A   1      34.628  33.003  30.585  1.00  0.00     0.020 A 
ATOM     55  C   UNL A   1      34.838  33.987  29.617  1.00  0.00     0.054 A 
BRANCH  55  56
ATOM     56  S   UNL A   1      33.433  34.703  28.723  1.00  0.00     0.124 S 
ATOM     57  O   UNL A   1      33.058  33.614  27.826  1.00  0.00    -0.237 OA
ATOM     58  O   UNL A   1      32.487  34.991  29.799  1.00  0.00    -0.237 OA
ATOM     59  O   UNL A   1      34.005  35.881  28.074  1.00  0.00    -0.744 OA
ENDBRANCH  55  56
ENDBRANCH  27  50
BRANCH  39  60
ATOM     60  C   UNL A   1      39.786  33.668  37.315  1.00  0.00    -0.014 A 
ATOM     61  C   UNL A   1      39.059  33.175  38.412  1.00  0.00     0.010 A 
ATOM     62  C   UNL A   1      40.240  35.000  37.335  1.00  0.00     0.010 A 
ATOM     63  C   UNL A   1      38.776  34.003  39.501  1.00  0.00     0.020 A 
ATOM     64  C   UNL A   1      39.985  35.822  38.433  1.00  0.00     0.020 A 
ATOM     65  C   UNL A   1      39.245  35.320  39.506  1.00  0.00     0.054 A 
BRANCH  65  66
ATOM     66  S   UNL A   1      38.919  36.355  40.959  1.00  0.00     0.124 S 
ATOM     67  O   UNL A   1      37.839  35.625  41.616  1.00  0.00    -0.237 OA
ATOM     68  O   UNL A   1      40.202  36.341  41.656  1.00  0.00    -0.237 OA
ATOM     69  O   UNL A   1      38.541  37.646  40.388  1.00  0.00    -0.744 OA
ENDBRANCH  65  66
ENDBRANCH  39  60
ENDBRANCH  13  14
ENDBRANCH   6   8
ENDBRANCH   3   4
ENDBRANCH   2   3
ENDBRANCH   1   2
BRANCH   1  70
ATOM     70  C   UNL A   1      40.003  22.380  26.913  1.00  0.00     0.002 C 
BRANCH  70  71
ATOM     71  C   UNL A   1      39.042  21.830  25.851  1.00  0.00     0.021 C 
BRANCH  71  72
ATOM     72  C   UNL A   1      37.728  22.608  25.748  1.00  0.00     0.116 C 
BRANCH  72  73
ATOM     73  N   UNL A   1      37.413  22.876  24.356  1.00  0.00    -0.355 N 
ATOM     74  C   UNL A   1      36.234  22.983  23.684  1.00  0.00     0.237 C 
ATOM     75  H   UNL A   1      38.206  23.008  23.786  1.00  0.00     0.163 HD
ATOM     76  O   UNL A   1      36.330  23.070  22.457  1.00  0.00    -0.274 OA
BRANCH  74  77
ATOM     77  C   UNL A   1      34.893  23.042  24.395  1.00  0.00     0.163 C 
ATOM     78  C   UNL A   1      34.922  23.774  25.752  1.00  0.00     0.050 C 
ATOM     79  C   UNL A   1      33.876  23.792  23.534  1.00  0.00     0.146 C 
ATOM     80  C   UNL A   1      33.656  24.617  25.776  1.00  0.00     0.121 C 
ATOM     81  N   UNL A   1      33.307  24.823  24.385  1.00  0.00    -0.341 N 
BRANCH  77  82
ATOM     82  C   UNL A   1      34.407  21.618  24.601  1.00  0.00     0.404 C 
ATOM     83  F   UNL A   1      33.395  21.279  23.776  1.00  0.00    -0.170 F 
ATOM     84  F   UNL A   1      35.401  20.714  24.455  1.00  0.00    -0.170 F 
ATOM     85  F   UNL A   1      33.940  21.460  25.867  1.00  0.00    -0.170 F 
ENDBRANCH  77  82
BRANCH  81  86
ATOM     86  C   UNL A   1      32.401  25.731  23.874  1.00  0.00     0.228 C 
ATOM     87  O   UNL A   1      31.219  25.425  23.699  1.00  0.00    -0.274 OA
BRANCH  86  88
ATOM     88  C   UNL A   1      32.895  27.127  23.513  1.00  0.00     0.155 C 
BRANCH  88  89
ATOM     89  C   UNL A   1      31.756  28.047  23.247  1.00  0.00     0.044 A 
ATOM     90  C   UNL A   1      31.141  28.995  24.035  1.00  0.00     0.045 A 
ATOM     91  N   UNL A   1      31.090  28.068  22.049  1.00  0.00    -0.282 N 
ATOM     92  C   UNL A   1      30.086  29.484  23.247  1.00  0.00     0.135 A 
ATOM     93  N   UNL A   1      30.043  28.911  22.042  1.00  0.00    -0.184 NA
ATOM     94  H   UNL A   1      31.352  27.521  21.274  1.00  0.00     0.190 HD
ENDBRANCH  88  89
ENDBRANCH  86  88
ENDBRANCH  81  86
ENDBRANCH  74  77
ENDBRANCH  72  73
ENDBRANCH  71  72
ENDBRANCH  70  71
ENDBRANCH   1  70
TORSDOF 20
ENDMDL
MODEL 2
REMARK VINA RESULT:     -10.5      3.980      9.189
REMARK SMILES O=C(NCCCCCCNC(=O)[C@@]1(C(F)(F)F)CCN(C(=O)Cc2ccn[nH]2)C1)c1ccc(-c2c3nc(c(-c4ccc(S(=O)(=O)[O-])cc4)c4ccc([nH]4)c(-c4ccc(S(=O)(=O)[O-])cc4)c4nc(c(-c5ccc(S(=O)(=O)[O-])cc5)c5ccc2[nH]5)C=C4)C=C3)cc1
REMARK SMILES IDX 6 1 5 2 4 3 3 4 1 5 2 6 30 8 31 9 89 10 32 11 88 12 33 13
REMARK SMILES IDX 34 14 35 15 82 16 36 17 87 18 81 19 83 20 37 21 86 22 80 23
REMARK SMILES IDX 79 24 38 26 68 27 49 28 67 29 50 30 53 31 66 32 84 33 51 34
REMARK SMILES IDX 52 35 65 37 85 38 54 39 39 40 40 41 48 42 41 43 47 44 42 45
REMARK SMILES IDX 43 46 44 47 45 48 46 49 69 50 70 51 78 52 71 53 77 54 72 55
REMARK SMILES IDX 73 56 74 57 75 58 76 59 55 60 56 61 64 62 57 63 63 64 58 65
REMARK SMILES IDX 59 66 60 67 61 68 62 69 7 70 8 71 9 72 10 73 11 74 12 76
REMARK SMILES IDX 13 77 18 78 29 79 19 80 20 81 14 82 15 83 16 84 17 85 21 86
REMARK SMILES IDX 22 87 23 88 24 89 25 90 28 91 26 92 27 93
REMARK H PARENT 3 7 83 25 53 36 10 75 28 94
REMARK Flexibility Score: inf
ROOT
ATOM      1  C   UNL A   1      34.899  21.955  25.817  1.00  0.00     0.002 C 
ENDROOT
BRANCH   1   2
ATOM      2  C   UNL A   1      35.249  23.387  26.223  1.00  0.00     0.021 C 
BRANCH   2   3
ATOM      3  C   UNL A   1      36.608  23.859  25.723  1.00  0.00     0.116 C 
BRANCH   3   4
ATOM      4  N   UNL A   1      37.620  22.825  25.865  1.00  0.00    -0.352 N 
ATOM      5  O   UNL A   1      39.715  22.035  26.140  1.00  0.00    -0.269 OA
ATOM      6  C   UNL A   1      38.916  22.954  26.298  1.00  0.00     0.251 C 
ATOM      7  H   UNL A   1      37.339  21.914  25.620  1.00  0.00     0.163 HD
BRANCH   6   8
ATOM      8  C   UNL A   1      39.339  24.211  26.945  1.00  0.00     0.039 A 
ATOM      9  C   UNL A   1      39.045  24.441  28.292  1.00  0.00     0.014 A 
ATOM     10  C   UNL A   1      40.045  25.162  26.204  1.00  0.00     0.014 A 
ATOM     11  C   UNL A   1      39.362  25.663  28.871  1.00  0.00     0.010 A 
ATOM     12  C   UNL A   1      40.437  26.358  26.811  1.00  0.00     0.010 A 
ATOM     13  C   UNL A   1      40.089  26.621  28.146  1.00  0.00    -0.014 A 
BRANCH  13  14
ATOM     14  C   UNL A   1      40.577  27.839  28.837  1.00  0.00     0.031 A 
ATOM     15  C   UNL A   1      39.682  29.023  29.062  1.00  0.00     0.074 A 
ATOM     16  C   UNL A   1      41.861  27.862  29.251  1.00  0.00     0.049 A 
ATOM     17  N   UNL A   1      39.967  30.168  29.628  1.00  0.00    -0.248 NA
ATOM     18  C   UNL A   1      38.292  28.916  28.591  1.00  0.00     0.031 C 
ATOM     19  C   UNL A   1      42.824  26.769  29.073  1.00  0.00     0.029 A 
ATOM     20  N   UNL A   1      42.578  28.829  29.905  1.00  0.00    -0.354 N 
ATOM     21  C   UNL A   1      38.807  30.928  29.559  1.00  0.00     0.074 A 
ATOM     22  C   UNL A   1      37.813  30.119  28.886  1.00  0.00     0.031 C 
ATOM     23  C   UNL A   1      43.991  27.116  29.630  1.00  0.00     0.029 A 
ATOM     24  C   UNL A   1      43.887  28.478  30.138  1.00  0.00     0.049 A 
ATOM     25  H   UNL A   1      42.194  29.693  30.181  1.00  0.00     0.167 HD
ATOM     26  C   UNL A   1      38.596  32.187  30.014  1.00  0.00     0.031 A 
ATOM     27  C   UNL A   1      44.904  29.181  30.667  1.00  0.00     0.031 A 
ATOM     28  C   UNL A   1      39.597  32.981  30.680  1.00  0.00     0.049 A 
ATOM     29  C   UNL A   1      44.650  30.588  31.123  1.00  0.00     0.074 A 
ATOM     30  C   UNL A   1      39.464  34.246  31.229  1.00  0.00     0.029 A 
ATOM     31  N   UNL A   1      40.916  32.599  30.874  1.00  0.00    -0.354 N 
ATOM     32  N   UNL A   1      43.527  31.265  31.110  1.00  0.00    -0.248 NA
ATOM     33  C   UNL A   1      45.798  31.328  31.660  1.00  0.00     0.031 C 
ATOM     34  C   UNL A   1      40.718  34.654  31.693  1.00  0.00     0.029 A 
ATOM     35  C   UNL A   1      41.618  33.619  31.496  1.00  0.00     0.049 A 
ATOM     36  H   UNL A   1      41.298  31.731  30.610  1.00  0.00     0.167 HD
ATOM     37  C   UNL A   1      43.830  32.507  31.650  1.00  0.00     0.074 A 
ATOM     38  C   UNL A   1      45.235  32.479  32.003  1.00  0.00     0.031 C 
ATOM     39  C   UNL A   1      43.019  33.577  31.835  1.00  0.00     0.031 A 
BRANCH  26  40
ATOM     40  C   UNL A   1      37.244  32.808  29.781  1.00  0.00    -0.014 A 
ATOM     41  C   UNL A   1      36.313  32.954  30.825  1.00  0.00     0.010 A 
ATOM     42  C   UNL A   1      36.930  33.327  28.509  1.00  0.00     0.010 A 
ATOM     43  C   UNL A   1      35.085  33.582  30.595  1.00  0.00     0.020 A 
ATOM     44  C   UNL A   1      35.715  33.977  28.282  1.00  0.00     0.020 A 
ATOM     45  C   UNL A   1      34.793  34.088  29.325  1.00  0.00     0.054 A 
BRANCH  45  46
ATOM     46  S   UNL A   1      33.206  34.929  29.066  1.00  0.00     0.124 S 
ATOM     47  O   UNL A   1      33.636  36.246  28.602  1.00  0.00    -0.237 OA
ATOM     48  O   UNL A   1      32.561  34.090  28.058  1.00  0.00    -0.237 OA
ATOM     49  O   UNL A   1      32.580  34.907  30.385  1.00  0.00    -0.744 OA
ENDBRANCH  45  46
ENDBRANCH  26  40
BRANCH  27  50
ATOM     50  C   UNL A   1      46.260  28.574  30.748  1.00  0.00    -0.014 A 
ATOM     51  C   UNL A   1      46.654  27.839  31.878  1.00  0.00     0.010 A 
ATOM     52  C   UNL A   1      47.161  28.715  29.674  1.00  0.00     0.010 A 
ATOM     53  C   UNL A   1      47.931  27.274  31.943  1.00  0.00     0.020 A 
ATOM     54  C   UNL A   1      48.425  28.124  29.722  1.00  0.00     0.020 A 
ATOM     55  C   UNL A   1      48.808  27.420  30.864  1.00  0.00     0.054 A 
BRANCH  55  56
ATOM     56  S   UNL A   1      50.445  26.645  30.955  1.00  0.00     0.124 S 
ATOM     57  O   UNL A   1      51.098  27.440  31.990  1.00  0.00    -0.237 OA
ATOM     58  O   UNL A   1      50.123  25.269  31.322  1.00  0.00    -0.237 OA
ATOM     59  O   UNL A   1      50.978  26.814  29.605  1.00  0.00    -0.744 OA
ENDBRANCH  55  56
ENDBRANCH  27  50
BRANCH  39  60
ATOM     60  C   UNL A   1      43.624  34.801  32.465  1.00  0.00    -0.014 A 
ATOM     61  C   UNL A   1      44.174  35.826  31.676  1.00  0.00     0.010 A 
ATOM     62  C   UNL A   1      43.585  34.955  33.863  1.00  0.00     0.010 A 
ATOM     63  C   UNL A   1      44.694  36.976  32.276  1.00  0.00     0.020 A 
ATOM     64  C   UNL A   1      44.076  36.115  34.464  1.00  0.00     0.020 A 
ATOM     65  C   UNL A   1      44.637  37.114  33.666  1.00  0.00     0.054 A 
BRANCH  65  66
ATOM     66  S   UNL A   1      45.260  38.644  34.415  1.00  0.00     0.124 S 
ATOM     67  O   UNL A   1      44.229  38.939  35.406  1.00  0.00    -0.237 OA
ATOM     68  O   UNL A   1      46.553  38.232  34.957  1.00  0.00    -0.237 OA
ATOM     69  O   UNL A   1      45.330  39.577  33.293  1.00  0.00    -0.744 OA
ENDBRANCH  65  66
ENDBRANCH  39  60
ENDBRANCH  13  14
ENDBRANCH   6   8
ENDBRANCH   3   4
ENDBRANCH   2   3
ENDBRANCH   1   2
BRANCH   1  70
ATOM     70  C   UNL A   1      34.763  21.732  24.308  1.00  0.00     0.002 C 
BRANCH  70  71
ATOM     71  C   UNL A   1      33.343  21.914  23.755  1.00  0.00     0.021 C 
BRANCH  71  72
ATOM     72  C   UNL A   1      33.205  23.094  22.792  1.00  0.00     0.116 C 
BRANCH  72  73
ATOM     73  N   UNL A   1      31.806  23.456  22.640  1.00  0.00    -0.355 N 
ATOM     74  C   UNL A   1      30.988  24.285  23.346  1.00  0.00     0.237 C 
ATOM     75  H   UNL A   1      31.362  23.017  21.878  1.00  0.00     0.163 HD
ATOM     76  O   UNL A   1      29.796  24.246  23.032  1.00  0.00    -0.274 OA
BRANCH  74  77
ATOM     77  C   UNL A   1      31.512  25.231  24.413  1.00  0.00     0.163 C 
ATOM     78  C   UNL A   1      32.997  25.613  24.253  1.00  0.00     0.050 C 
ATOM     79  C   UNL A   1      30.732  26.545  24.374  1.00  0.00     0.146 C 
ATOM     80  C   UNL A   1      33.059  27.103  24.556  1.00  0.00     0.121 C 
ATOM     81  N   UNL A   1      31.726  27.603  24.289  1.00  0.00    -0.341 N 
BRANCH  77  82
ATOM     82  C   UNL A   1      31.302  24.575  25.766  1.00  0.00     0.404 C 
ATOM     83  F   UNL A   1      30.250  25.080  26.443  1.00  0.00    -0.170 F 
ATOM     84  F   UNL A   1      31.146  23.236  25.665  1.00  0.00    -0.170 F 
ATOM     85  F   UNL A   1      32.393  24.766  26.554  1.00  0.00    -0.170 F 
ENDBRANCH  77  82
BRANCH  81  86
ATOM     86  C   UNL A   1      31.335  28.921  24.160  1.00  0.00     0.228 C 
ATOM     87  O   UNL A   1      31.486  29.726  25.082  1.00  0.00    -0.274 OA
BRANCH  86  88
ATOM     88  C   UNL A   1      30.695  29.365  22.849  1.00  0.00     0.155 C 
BRANCH  88  89
ATOM     89  C   UNL A   1      29.339  29.933  23.081  1.00  0.00     0.044 A 
ATOM     90  C   UNL A   1      28.929  31.162  23.549  1.00  0.00     0.045 A 
ATOM     91  N   UNL A   1      28.192  29.225  22.836  1.00  0.00    -0.282 N 
ATOM     92  C   UNL A   1      27.528  31.072  23.607  1.00  0.00     0.135 A 
ATOM     93  N   UNL A   1      27.077  29.888  23.188  1.00  0.00    -0.184 NA
ATOM     94  H   UNL A   1      28.186  28.321  22.444  1.00  0.00     0.190 HD
ENDBRANCH  88  89
ENDBRANCH  86  88
ENDBRANCH  81  86
ENDBRANCH  74  77
ENDBRANCH  72  73
ENDBRANCH  71  72
ENDBRANCH  70  71
ENDBRANCH   1  70
TORSDOF 20
ENDMDL
MODEL 3
REMARK VINA RESULT:     -10.5      5.247      9.675
REMARK SMILES O=C(NCCCCCCNC(=O)[C@@]1(C(F)(F)F)CCN(C(=O)Cc2ccn[nH]2)C1)c1ccc(-c2c3nc(c(-c4ccc(S(=O)(=O)[O-])cc4)c4ccc([nH]4)c(-c4ccc(S(=O)(=O)[O-])cc4)c4nc(c(-c5ccc(S(=O)(=O)[O-])cc5)c5ccc2[nH]5)C=C4)C=C3)cc1
REMARK SMILES IDX 6 1 5 2 4 3 3 4 1 5 2 6 30 8 31 9 89 10 32 11 88 12 33 13
REMARK SMILES IDX 34 14 35 15 82 16 36 17 87 18 81 19 83 20 37 21 86 22 80 23
REMARK SMILES IDX 79 24 38 26 68 27 49 28 67 29 50 30 53 31 66 32 84 33 51 34
REMARK SMILES IDX 52 35 65 37 85 38 54 39 39 40 40 41 48 42 41 43 47 44 42 45
REMARK SMILES IDX 43 46 44 47 45 48 46 49 69 50 70 51 78 52 71 53 77 54 72 55
REMARK SMILES IDX 73 56 74 57 75 58 76 59 55 60 56 61 64 62 57 63 63 64 58 65
REMARK SMILES IDX 59 66 60 67 61 68 62 69 7 70 8 71 9 72 10 73 11 74 12 76
REMARK SMILES IDX 13 77 18 78 29 79 19 80 20 81 14 82 15 83 16 84 17 85 21 86
REMARK SMILES IDX 22 87 23 88 24 89 25 90 28 91 26 92 27 93
REMARK H PARENT 3 7 83 25 53 36 10 75 28 94
REMARK Flexibility Score: inf
ROOT
ATOM      1  C   UNL A   1      35.347  21.403  25.204  1.00  0.00     0.002 C 
ENDROOT
BRANCH   1   2
ATOM      2  C   UNL A   1      36.143  22.647  24.807  1.00  0.00     0.021 C 
BRANCH   2   3
ATOM      3  C   UNL A   1      37.241  23.021  25.794  1.00  0.00     0.116 C 
BRANCH   3   4
ATOM      4  N   UNL A   1      38.174  21.925  26.000  1.00  0.00    -0.352 N 
ATOM      5  O   UNL A   1      40.212  20.991  26.248  1.00  0.00    -0.269 OA
ATOM      6  C   UNL A   1      39.501  21.988  26.342  1.00  0.00     0.251 C 
ATOM      7  H   UNL A   1      37.805  21.021  25.877  1.00  0.00     0.163 HD
BRANCH   6   8
ATOM      8  C   UNL A   1      40.065  23.269  26.815  1.00  0.00     0.039 A 
ATOM      9  C   UNL A   1      40.760  23.324  28.026  1.00  0.00     0.014 A 
ATOM     10  C   UNL A   1      39.907  24.418  26.038  1.00  0.00     0.014 A 
ATOM     11  C   UNL A   1      41.206  24.547  28.512  1.00  0.00     0.010 A 
ATOM     12  C   UNL A   1      40.430  25.633  26.488  1.00  0.00     0.010 A 
ATOM     13  C   UNL A   1      41.074  25.707  27.733  1.00  0.00    -0.014 A 
BRANCH  13  14
ATOM     14  C   UNL A   1      41.720  26.963  28.186  1.00  0.00     0.031 A 
ATOM     15  C   UNL A   1      40.913  28.102  28.741  1.00  0.00     0.074 A 
ATOM     16  C   UNL A   1      43.060  27.064  28.074  1.00  0.00     0.049 A 
ATOM     17  N   UNL A   1      41.328  29.272  29.155  1.00  0.00    -0.248 NA
ATOM     18  C   UNL A   1      39.458  27.911  28.840  1.00  0.00     0.031 C 
ATOM     19  C   UNL A   1      43.942  26.021  27.537  1.00  0.00     0.029 A 
ATOM     20  N   UNL A   1      43.917  28.081  28.403  1.00  0.00    -0.354 N 
ATOM     21  C   UNL A   1      40.189  29.968  29.539  1.00  0.00     0.074 A 
ATOM     22  C   UNL A   1      39.061  29.093  29.299  1.00  0.00     0.031 C 
ATOM     23  C   UNL A   1      45.212  26.441  27.603  1.00  0.00     0.029 A 
ATOM     24  C   UNL A   1      45.233  27.805  28.114  1.00  0.00     0.049 A 
ATOM     25  H   UNL A   1      43.619  28.929  28.808  1.00  0.00     0.167 HD
ATOM     26  C   UNL A   1      40.097  31.222  30.043  1.00  0.00     0.031 A 
ATOM     27  C   UNL A   1      46.333  28.572  28.212  1.00  0.00     0.031 A 
ATOM     28  C   UNL A   1      41.230  32.082  30.274  1.00  0.00     0.049 A 
ATOM     29  C   UNL A   1      46.194  29.973  28.734  1.00  0.00     0.074 A 
ATOM     30  C   UNL A   1      41.246  33.349  30.834  1.00  0.00     0.029 A 
ATOM     31  N   UNL A   1      42.542  31.776  29.945  1.00  0.00    -0.354 N 
ATOM     32  N   UNL A   1      45.115  30.588  29.155  1.00  0.00    -0.248 NA
ATOM     33  C   UNL A   1      47.416  30.784  28.790  1.00  0.00     0.031 C 
ATOM     34  C   UNL A   1      42.556  33.833  30.781  1.00  0.00     0.029 A 
ATOM     35  C   UNL A   1      43.369  32.844  30.250  1.00  0.00     0.049 A 
ATOM     36  H   UNL A   1      42.842  30.924  29.552  1.00  0.00     0.167 HD
ATOM     37  C   UNL A   1      45.531  31.855  29.540  1.00  0.00     0.074 A 
ATOM     38  C   UNL A   1      46.963  31.910  29.325  1.00  0.00     0.031 C 
ATOM     39  C   UNL A   1      44.792  32.884  30.025  1.00  0.00     0.031 A 
BRANCH  26  40
ATOM     40  C   UNL A   1      38.726  31.765  30.349  1.00  0.00    -0.014 A 
ATOM     41  C   UNL A   1      38.105  31.534  31.590  1.00  0.00     0.010 A 
ATOM     42  C   UNL A   1      38.081  32.588  29.406  1.00  0.00     0.010 A 
ATOM     43  C   UNL A   1      36.855  32.093  31.870  1.00  0.00     0.020 A 
ATOM     44  C   UNL A   1      36.842  33.169  29.691  1.00  0.00     0.020 A 
ATOM     45  C   UNL A   1      36.230  32.906  30.918  1.00  0.00     0.054 A 
BRANCH  45  46
ATOM     46  S   UNL A   1      34.624  33.645  31.324  1.00  0.00     0.124 S 
ATOM     47  O   UNL A   1      34.034  32.627  32.189  1.00  0.00    -0.237 OA
ATOM     48  O   UNL A   1      35.004  34.889  31.990  1.00  0.00    -0.237 OA
ATOM     49  O   UNL A   1      33.977  33.809  30.025  1.00  0.00    -0.744 OA
ENDBRANCH  45  46
ENDBRANCH  26  40
BRANCH  27  50
ATOM     50  C   UNL A   1      47.648  28.041  27.764  1.00  0.00    -0.014 A 
ATOM     51  C   UNL A   1      48.046  28.143  26.421  1.00  0.00     0.010 A 
ATOM     52  C   UNL A   1      48.521  27.444  28.694  1.00  0.00     0.010 A 
ATOM     53  C   UNL A   1      49.284  27.639  26.010  1.00  0.00     0.020 A 
ATOM     54  C   UNL A   1      49.772  26.969  28.294  1.00  0.00     0.020 A 
ATOM     55  C   UNL A   1      50.139  27.056  26.951  1.00  0.00     0.054 A 
BRANCH  55  56
ATOM     56  S   UNL A   1      51.756  26.444  26.403  1.00  0.00     0.124 S 
ATOM     57  O   UNL A   1      52.653  27.042  27.388  1.00  0.00    -0.237 OA
ATOM     58  O   UNL A   1      51.593  24.995  26.494  1.00  0.00    -0.237 OA
ATOM     59  O   UNL A   1      51.877  26.967  25.045  1.00  0.00    -0.744 OA
ENDBRANCH  55  56
ENDBRANCH  27  50
BRANCH  39  60
ATOM     60  C   UNL A   1      45.522  34.151  30.376  1.00  0.00    -0.014 A 
ATOM     61  C   UNL A   1      46.089  34.333  31.649  1.00  0.00     0.010 A 
ATOM     62  C   UNL A   1      45.695  35.148  29.397  1.00  0.00     0.010 A 
ATOM     63  C   UNL A   1      46.799  35.499  31.944  1.00  0.00     0.020 A 
ATOM     64  C   UNL A   1      46.430  36.300  29.680  1.00  0.00     0.020 A 
ATOM     65  C   UNL A   1      46.969  36.473  30.956  1.00  0.00     0.054 A 
BRANCH  65  66
ATOM     66  S   UNL A   1      47.950  37.947  31.345  1.00  0.00     0.124 S 
ATOM     67  O   UNL A   1      48.639  37.541  32.567  1.00  0.00    -0.237 OA
ATOM     68  O   UNL A   1      48.798  38.089  30.163  1.00  0.00    -0.237 OA
ATOM     69  O   UNL A   1      46.949  38.997  31.514  1.00  0.00    -0.744 OA
ENDBRANCH  65  66
ENDBRANCH  39  60
ENDBRANCH  13  14
ENDBRANCH   6   8
ENDBRANCH   3   4
ENDBRANCH   2   3
ENDBRANCH   1   2
BRANCH   1  70
ATOM     70  C   UNL A   1      34.046  21.199  24.422  1.00  0.00     0.002 C 
BRANCH  70  71
ATOM     71  C   UNL A   1      32.764  21.431  25.231  1.00  0.00     0.021 C 
BRANCH  71  72
ATOM     72  C   UNL A   1      31.753  22.344  24.534  1.00  0.00     0.116 C 
BRANCH  72  73
ATOM     73  N   UNL A   1      31.061  23.163  25.513  1.00  0.00    -0.355 N 
ATOM     74  C   UNL A   1      31.171  24.476  25.857  1.00  0.00     0.237 C 
ATOM     75  H   UNL A   1      30.377  22.675  26.029  1.00  0.00     0.163 HD
ATOM     76  O   UNL A   1      30.524  24.819  26.851  1.00  0.00    -0.274 OA
BRANCH  74  77
ATOM     77  C   UNL A   1      31.991  25.465  25.046  1.00  0.00     0.163 C 
ATOM     78  C   UNL A   1      31.968  25.216  23.526  1.00  0.00     0.050 C 
ATOM     79  C   UNL A   1      31.453  26.881  25.250  1.00  0.00     0.146 C 
ATOM     80  C   UNL A   1      31.837  26.597  22.899  1.00  0.00     0.121 C 
ATOM     81  N   UNL A   1      31.228  27.424  23.921  1.00  0.00    -0.341 N 
BRANCH  77  82
ATOM     82  C   UNL A   1      33.424  25.407  25.546  1.00  0.00     0.404 C 
ATOM     83  F   UNL A   1      34.310  25.089  24.580  1.00  0.00    -0.170 F 
ATOM     84  F   UNL A   1      33.811  26.569  26.118  1.00  0.00    -0.170 F 
ATOM     85  F   UNL A   1      33.547  24.455  26.508  1.00  0.00    -0.170 F 
ENDBRANCH  77  82
BRANCH  81  86
ATOM     86  C   UNL A   1      30.666  28.676  23.762  1.00  0.00     0.228 C 
ATOM     87  O   UNL A   1      31.010  29.625  24.469  1.00  0.00    -0.274 OA
BRANCH  86  88
ATOM     88  C   UNL A   1      29.592  28.859  22.696  1.00  0.00     0.155 C 
BRANCH  88  89
ATOM     89  C   UNL A   1      29.013  30.229  22.750  1.00  0.00     0.044 A 
ATOM     90  C   UNL A   1      27.858  30.713  23.326  1.00  0.00     0.045 A 
ATOM     91  N   UNL A   1      29.618  31.309  22.163  1.00  0.00    -0.282 N 
ATOM     92  C   UNL A   1      27.829  32.074  22.978  1.00  0.00     0.135 A 
ATOM     93  N   UNL A   1      28.892  32.437  22.258  1.00  0.00    -0.184 NA
ATOM     94  H   UNL A   1      30.494  31.263  21.717  1.00  0.00     0.190 HD
ENDBRANCH  88  89
ENDBRANCH  86  88
ENDBRANCH  81  86
ENDBRANCH  74  77
ENDBRANCH  72  73
ENDBRANCH  71  72
ENDBRANCH  70  71
ENDBRANCH   1  70
TORSDOF 20
ENDMDL
