MODEL 1
REMARK VINA RESULT:      -8.7      0.000      0.000
REMARK SMILES CCCCCC[C@H](C)[C@@](C)(O)C(=O)NCCCCCCNC(=O)c1ccc(-c2c3nc(c(-c4ccc(S(=O)(=O)[O-])cc4)c4ccc([nH]4)c(-c4ccc(S(=O)(=O)[O-])cc4)c4nc(c(-c5ccc(S(=O)(=O)[O-])cc5)c5ccc2[nH]5)C=C4)C=C3)cc1
REMARK SMILES IDX 16 1 15 2 14 3 12 4 13 5 9 7 10 8 7 9 8 10 6 11 5 12 4 13
REMARK SMILES IDX 3 14 2 15 1 16 11 17 17 19 18 20 19 21 20 22 21 23 22 24
REMARK SMILES IDX 23 26 24 27 25 28 83 29 26 30 82 31 27 32 28 33 29 34 76 35
REMARK SMILES IDX 30 36 81 37 75 38 77 39 31 40 80 41 74 42 73 43 32 45 62 46
REMARK SMILES IDX 43 47 61 48 44 49 47 50 60 51 78 52 45 53 46 54 59 56 79 57
REMARK SMILES IDX 48 58 33 59 34 60 42 61 35 62 41 63 36 64 37 65 38 66 39 67
REMARK SMILES IDX 40 68 63 69 64 70 72 71 65 72 71 73 66 74 67 75 68 76 69 77
REMARK SMILES IDX 70 78 49 79 50 80 58 81 51 82 57 83 52 84 53 85 54 86 55 87
REMARK SMILES IDX 56 88
REMARK H PARENT 14 6 11 18 21 25 77 44 47 55
REMARK Flexibility Score: inf
ROOT
ATOM      1  C   UNL A   1      31.892  25.197  26.823  1.00  0.00     0.021 C 
ENDROOT
BRANCH   1   2
ATOM      2  C   UNL A   1      31.392  23.788  26.524  1.00  0.00     0.116 C 
BRANCH   2   3
ATOM      3  N   UNL A   1      30.713  23.726  25.248  1.00  0.00    -0.354 N 
ATOM      4  C   UNL A   1      31.215  23.606  23.988  1.00  0.00     0.251 C 
ATOM      5  O   UNL A   1      30.391  23.657  23.069  1.00  0.00    -0.272 OA
ATOM      6  H   UNL A   1      29.732  23.779  25.298  1.00  0.00     0.163 HD
BRANCH   4   7
ATOM      7  C   UNL A   1      32.740  23.366  23.751  1.00  0.00     0.142 C 
ATOM      8  C   UNL A   1      32.983  22.951  22.286  1.00  0.00     0.053 C 
BRANCH   7   9
ATOM      9  C   UNL A   1      33.585  24.648  24.089  1.00  0.00     0.027 C 
ATOM     10  C   UNL A   1      34.905  24.305  24.796  1.00  0.00     0.011 C 
BRANCH   9  11
ATOM     11  C   UNL A   1      33.772  25.568  22.848  1.00  0.00     0.007 C 
BRANCH  11  12
ATOM     12  C   UNL A   1      32.907  26.838  22.807  1.00  0.00     0.000 C 
BRANCH  12  13
ATOM     13  C   UNL A   1      31.560  26.754  22.085  1.00  0.00     0.000 C 
BRANCH  13  14
ATOM     14  C   UNL A   1      30.413  27.539  22.730  1.00  0.00    -0.000 C 
BRANCH  14  15
ATOM     15  C   UNL A   1      30.668  29.038  22.885  1.00  0.00    -0.003 C 
ATOM     16  C   UNL A   1      29.794  29.884  21.973  1.00  0.00     0.004 C 
ENDBRANCH  14  15
ENDBRANCH  13  14
ENDBRANCH  12  13
ENDBRANCH  11  12
ENDBRANCH   9  11
ENDBRANCH   7   9
BRANCH   7  17
ATOM     17  O   UNL A   1      33.218  22.294  24.575  1.00  0.00    -0.380 OA
ATOM     18  H   UNL A   1      32.729  21.482  24.367  1.00  0.00     0.212 HD
ENDBRANCH   7  17
ENDBRANCH   4   7
ENDBRANCH   2   3
ENDBRANCH   1   2
BRANCH   1  19
ATOM     19  C   UNL A   1      30.980  26.325  26.325  1.00  0.00     0.002 C 
BRANCH  19  20
ATOM     20  C   UNL A   1      31.633  27.707  26.234  1.00  0.00     0.002 C 
BRANCH  20  21
ATOM     21  C   UNL A   1      32.887  27.895  27.089  1.00  0.00     0.021 C 
BRANCH  21  22
ATOM     22  C   UNL A   1      34.005  28.686  26.421  1.00  0.00     0.116 C 
BRANCH  22  23
ATOM     23  N   UNL A   1      33.894  30.113  26.670  1.00  0.00    -0.352 N 
ATOM     24  C   UNL A   1      34.667  30.908  27.480  1.00  0.00     0.251 C 
ATOM     25  H   UNL A   1      33.167  30.574  26.193  1.00  0.00     0.163 HD
ATOM     26  O   UNL A   1      34.328  32.064  27.717  1.00  0.00    -0.269 OA
BRANCH  24  27
ATOM     27  C   UNL A   1      35.894  30.351  28.089  1.00  0.00     0.039 A 
ATOM     28  C   UNL A   1      37.107  30.488  27.410  1.00  0.00     0.014 A 
ATOM     29  C   UNL A   1      35.848  29.722  29.335  1.00  0.00     0.014 A 
ATOM     30  C   UNL A   1      38.287  30.050  28.015  1.00  0.00     0.010 A 
ATOM     31  C   UNL A   1      37.033  29.355  29.967  1.00  0.00     0.010 A 
ATOM     32  C   UNL A   1      38.265  29.516  29.314  1.00  0.00    -0.014 A 
BRANCH  32  33
ATOM     33  C   UNL A   1      39.520  29.138  30.013  1.00  0.00     0.031 A 
ATOM     34  C   UNL A   1      40.004  29.942  31.187  1.00  0.00     0.074 A 
ATOM     35  C   UNL A   1      40.259  28.114  29.543  1.00  0.00     0.049 A 
ATOM     36  N   UNL A   1      41.104  29.803  31.883  1.00  0.00    -0.248 NA
ATOM     37  C   UNL A   1      39.156  31.063  31.622  1.00  0.00     0.031 C 
ATOM     38  C   UNL A   1      39.919  27.287  28.383  1.00  0.00     0.029 A 
ATOM     39  N   UNL A   1      41.457  27.601  29.976  1.00  0.00    -0.354 N 
ATOM     40  C   UNL A   1      41.087  30.824  32.826  1.00  0.00     0.074 A 
ATOM     41  C   UNL A   1      39.895  31.606  32.579  1.00  0.00     0.031 C 
ATOM     42  C   UNL A   1      40.875  26.360  28.209  1.00  0.00     0.029 A 
ATOM     43  C   UNL A   1      41.917  26.554  29.213  1.00  0.00     0.049 A 
ATOM     44  H   UNL A   1      41.940  27.950  30.760  1.00  0.00     0.167 HD
ATOM     45  C   UNL A   1      41.974  31.079  33.819  1.00  0.00     0.031 A 
ATOM     46  C   UNL A   1      43.055  25.837  29.299  1.00  0.00     0.031 A 
ATOM     47  C   UNL A   1      43.159  30.299  34.057  1.00  0.00     0.049 A 
ATOM     48  C   UNL A   1      44.035  26.148  30.397  1.00  0.00     0.074 A 
ATOM     49  C   UNL A   1      44.092  30.440  35.071  1.00  0.00     0.029 A 
ATOM     50  N   UNL A   1      43.583  29.238  33.270  1.00  0.00    -0.354 N 
ATOM     51  N   UNL A   1      43.963  27.069  31.327  1.00  0.00    -0.248 NA
ATOM     52  C   UNL A   1      45.243  25.315  30.463  1.00  0.00     0.031 C 
ATOM     53  C   UNL A   1      45.110  29.506  34.859  1.00  0.00     0.029 A 
ATOM     54  C   UNL A   1      44.780  28.737  33.754  1.00  0.00     0.049 A 
ATOM     55  H   UNL A   1      43.104  28.893  32.482  1.00  0.00     0.167 HD
ATOM     56  C   UNL A   1      45.105  26.914  32.104  1.00  0.00     0.074 A 
ATOM     57  C   UNL A   1      45.841  25.799  31.544  1.00  0.00     0.031 C 
ATOM     58  C   UNL A   1      45.507  27.631  33.183  1.00  0.00     0.031 A 
BRANCH  45  59
ATOM     59  C   UNL A   1      41.698  32.262  34.710  1.00  0.00    -0.014 A 
ATOM     60  C   UNL A   1      42.226  33.534  34.419  1.00  0.00     0.010 A 
ATOM     61  C   UNL A   1      40.879  32.107  35.844  1.00  0.00     0.010 A 
ATOM     62  C   UNL A   1      41.984  34.614  35.271  1.00  0.00     0.020 A 
ATOM     63  C   UNL A   1      40.608  33.194  36.682  1.00  0.00     0.020 A 
ATOM     64  C   UNL A   1      41.180  34.436  36.401  1.00  0.00     0.054 A 
BRANCH  64  65
ATOM     65  S   UNL A   1      40.881  35.857  37.487  1.00  0.00     0.124 S 
ATOM     66  O   UNL A   1      40.553  35.204  38.752  1.00  0.00    -0.237 OA
ATOM     67  O   UNL A   1      42.160  36.560  37.455  1.00  0.00    -0.237 OA
ATOM     68  O   UNL A   1      39.771  36.557  36.844  1.00  0.00    -0.744 OA
ENDBRANCH  64  65
ENDBRANCH  45  59
BRANCH  46  69
ATOM     69  C   UNL A   1      43.324  24.759  28.308  1.00  0.00    -0.014 A 
ATOM     70  C   UNL A   1      42.839  23.456  28.513  1.00  0.00     0.010 A 
ATOM     71  C   UNL A   1      44.044  25.042  27.133  1.00  0.00     0.010 A 
ATOM     72  C   UNL A   1      43.079  22.454  27.568  1.00  0.00     0.020 A 
ATOM     73  C   UNL A   1      44.260  24.051  26.172  1.00  0.00     0.020 A 
ATOM     74  C   UNL A   1      43.783  22.760  26.400  1.00  0.00     0.054 A 
BRANCH  74  75
ATOM     75  S   UNL A   1      44.025  21.460  25.157  1.00  0.00     0.124 S 
ATOM     76  O   UNL A   1      45.369  20.985  25.472  1.00  0.00    -0.237 OA
ATOM     77  O   UNL A   1      42.938  20.532  25.457  1.00  0.00    -0.237 OA
ATOM     78  O   UNL A   1      43.894  22.173  23.888  1.00  0.00    -0.744 OA
ENDBRANCH  74  75
ENDBRANCH  46  69
BRANCH  58  79
ATOM     79  C   UNL A   1      46.793  27.219  33.851  1.00  0.00    -0.014 A 
ATOM     80  C   UNL A   1      48.023  27.793  33.482  1.00  0.00     0.010 A 
ATOM     81  C   UNL A   1      46.760  26.290  34.907  1.00  0.00     0.010 A 
ATOM     82  C   UNL A   1      49.199  27.427  34.142  1.00  0.00     0.020 A 
ATOM     83  C   UNL A   1      47.929  25.944  35.590  1.00  0.00     0.020 A 
ATOM     84  C   UNL A   1      49.144  26.506  35.195  1.00  0.00     0.054 A 
BRANCH  84  85
ATOM     85  S   UNL A   1      50.677  26.089  36.069  1.00  0.00     0.124 S 
ATOM     86  O   UNL A   1      51.267  25.084  35.190  1.00  0.00    -0.237 OA
ATOM     87  O   UNL A   1      51.377  27.371  36.117  1.00  0.00    -0.237 OA
ATOM     88  O   UNL A   1      50.214  25.590  37.363  1.00  0.00    -0.744 OA
ENDBRANCH  84  85
ENDBRANCH  58  79
ENDBRANCH  32  33
ENDBRANCH  24  27
ENDBRANCH  22  23
ENDBRANCH  21  22
ENDBRANCH  20  21
ENDBRANCH  19  20
ENDBRANCH   1  19
TORSDOF 23
ENDMDL
MODEL 2
REMARK VINA RESULT:      -8.2      2.160      8.385
REMARK SMILES CCCCCC[C@H](C)[C@@](C)(O)C(=O)NCCCCCCNC(=O)c1ccc(-c2c3nc(c(-c4ccc(S(=O)(=O)[O-])cc4)c4ccc([nH]4)c(-c4ccc(S(=O)(=O)[O-])cc4)c4nc(c(-c5ccc(S(=O)(=O)[O-])cc5)c5ccc2[nH]5)C=C4)C=C3)cc1
REMARK SMILES IDX 16 1 15 2 14 3 12 4 13 5 9 7 10 8 7 9 8 10 6 11 5 12 4 13
REMARK SMILES IDX 3 14 2 15 1 16 11 17 17 19 18 20 19 21 20 22 21 23 22 24
REMARK SMILES IDX 23 26 24 27 25 28 83 29 26 30 82 31 27 32 28 33 29 34 76 35
REMARK SMILES IDX 30 36 81 37 75 38 77 39 31 40 80 41 74 42 73 43 32 45 62 46
REMARK SMILES IDX 43 47 61 48 44 49 47 50 60 51 78 52 45 53 46 54 59 56 79 57
REMARK SMILES IDX 48 58 33 59 34 60 42 61 35 62 41 63 36 64 37 65 38 66 39 67
REMARK SMILES IDX 40 68 63 69 64 70 72 71 65 72 71 73 66 74 67 75 68 76 69 77
REMARK SMILES IDX 70 78 49 79 50 80 58 81 51 82 57 83 52 84 53 85 54 86 55 87
REMARK SMILES IDX 56 88
REMARK H PARENT 14 6 11 18 21 25 77 44 47 55
REMARK Flexibility Score: inf
ROOT
ATOM      1  C   UNL A   1      31.725  24.744  26.840  1.00  0.00     0.021 C 
ENDROOT
BRANCH   1   2
ATOM      2  C   UNL A   1      31.287  23.350  26.404  1.00  0.00     0.116 C 
BRANCH   2   3
ATOM      3  N   UNL A   1      30.686  23.370  25.089  1.00  0.00    -0.354 N 
ATOM      4  C   UNL A   1      31.261  23.449  23.858  1.00  0.00     0.251 C 
ATOM      5  O   UNL A   1      30.485  23.525  22.900  1.00  0.00    -0.272 OA
ATOM      6  H   UNL A   1      29.703  23.318  25.083  1.00  0.00     0.163 HD
BRANCH   4   7
ATOM      7  C   UNL A   1      32.814  23.393  23.693  1.00  0.00     0.142 C 
ATOM      8  C   UNL A   1      33.173  23.089  22.224  1.00  0.00     0.053 C 
BRANCH   7   9
ATOM      9  C   UNL A   1      33.490  24.739  24.140  1.00  0.00     0.027 C 
ATOM     10  C   UNL A   1      34.821  24.507  24.872  1.00  0.00     0.011 C 
BRANCH   9  11
ATOM     11  C   UNL A   1      33.603  25.754  22.966  1.00  0.00     0.007 C 
BRANCH  11  12
ATOM     12  C   UNL A   1      33.777  27.230  23.358  1.00  0.00     0.000 C 
BRANCH  12  13
ATOM     13  C   UNL A   1      32.615  28.183  23.064  1.00  0.00     0.000 C 
BRANCH  13  14
ATOM     14  C   UNL A   1      31.473  27.595  22.228  1.00  0.00    -0.000 C 
BRANCH  14  15
ATOM     15  C   UNL A   1      30.129  28.304  22.389  1.00  0.00    -0.003 C 
ATOM     16  C   UNL A   1      29.267  27.695  23.485  1.00  0.00     0.004 C 
ENDBRANCH  14  15
ENDBRANCH  13  14
ENDBRANCH  12  13
ENDBRANCH  11  12
ENDBRANCH   9  11
ENDBRANCH   7   9
BRANCH   7  17
ATOM     17  O   UNL A   1      33.370  22.336  24.487  1.00  0.00    -0.380 OA
ATOM     18  H   UNL A   1      33.200  22.511  25.425  1.00  0.00     0.212 HD
ENDBRANCH   7  17
ENDBRANCH   4   7
ENDBRANCH   2   3
ENDBRANCH   1   2
BRANCH   1  19
ATOM     19  C   UNL A   1      30.796  25.880  26.397  1.00  0.00     0.002 C 
BRANCH  19  20
ATOM     20  C   UNL A   1      31.414  27.281  26.418  1.00  0.00     0.002 C 
BRANCH  20  21
ATOM     21  C   UNL A   1      32.417  27.536  27.544  1.00  0.00     0.021 C 
BRANCH  21  22
ATOM     22  C   UNL A   1      33.621  28.381  27.148  1.00  0.00     0.116 C 
BRANCH  22  23
ATOM     23  N   UNL A   1      33.427  29.791  27.446  1.00  0.00    -0.352 N 
ATOM     24  C   UNL A   1      34.293  30.672  28.043  1.00  0.00     0.251 C 
ATOM     25  H   UNL A   1      32.555  30.164  27.183  1.00  0.00     0.163 HD
ATOM     26  O   UNL A   1      33.905  31.786  28.383  1.00  0.00    -0.269 OA
BRANCH  24  27
ATOM     27  C   UNL A   1      35.688  30.258  28.301  1.00  0.00     0.039 A 
ATOM     28  C   UNL A   1      36.625  30.357  27.270  1.00  0.00     0.014 A 
ATOM     29  C   UNL A   1      36.074  29.801  29.564  1.00  0.00     0.014 A 
ATOM     30  C   UNL A   1      37.964  30.058  27.525  1.00  0.00     0.010 A 
ATOM     31  C   UNL A   1      37.420  29.576  29.836  1.00  0.00     0.010 A 
ATOM     32  C   UNL A   1      38.380  29.703  28.820  1.00  0.00    -0.014 A 
BRANCH  32  33
ATOM     33  C   UNL A   1      39.814  29.480  29.134  1.00  0.00     0.031 A 
ATOM     34  C   UNL A   1      40.458  28.155  28.832  1.00  0.00     0.074 A 
ATOM     35  C   UNL A   1      40.516  30.447  29.756  1.00  0.00     0.049 A 
ATOM     36  N   UNL A   1      41.678  27.755  29.091  1.00  0.00    -0.248 NA
ATOM     37  C   UNL A   1      39.618  27.139  28.178  1.00  0.00     0.031 C 
ATOM     38  C   UNL A   1      39.990  31.759  30.144  1.00  0.00     0.029 A 
ATOM     39  N   UNL A   1      41.820  30.473  30.185  1.00  0.00    -0.354 N 
ATOM     40  C   UNL A   1      41.746  26.439  28.644  1.00  0.00     0.074 A 
ATOM     41  C   UNL A   1      40.432  26.094  28.149  1.00  0.00     0.031 C 
ATOM     42  C   UNL A   1      40.967  32.466  30.735  1.00  0.00     0.029 A 
ATOM     43  C   UNL A   1      42.172  31.646  30.810  1.00  0.00     0.049 A 
ATOM     44  H   UNL A   1      42.445  29.723  30.056  1.00  0.00     0.167 HD
ATOM     45  C   UNL A   1      42.811  25.601  28.633  1.00  0.00     0.031 A 
ATOM     46  C   UNL A   1      43.328  32.019  31.393  1.00  0.00     0.031 A 
ATOM     47  C   UNL A   1      44.115  25.951  29.131  1.00  0.00     0.049 A 
ATOM     48  C   UNL A   1      44.493  31.066  31.386  1.00  0.00     0.074 A 
ATOM     49  C   UNL A   1      45.274  25.193  29.113  1.00  0.00     0.029 A 
ATOM     50  N   UNL A   1      44.434  27.153  29.744  1.00  0.00    -0.354 N 
ATOM     51  N   UNL A   1      44.560  29.855  30.889  1.00  0.00    -0.248 NA
ATOM     52  C   UNL A   1      45.739  31.535  32.006  1.00  0.00     0.031 C 
ATOM     53  C   UNL A   1      46.275  25.912  29.772  1.00  0.00     0.029 A 
ATOM     54  C   UNL A   1      45.762  27.146  30.140  1.00  0.00     0.049 A 
ATOM     55  H   UNL A   1      43.808  27.902  29.880  1.00  0.00     0.167 HD
ATOM     56  C   UNL A   1      45.862  29.423  31.118  1.00  0.00     0.074 A 
ATOM     57  C   UNL A   1      46.551  30.511  31.781  1.00  0.00     0.031 C 
ATOM     58  C   UNL A   1      46.434  28.233  30.807  1.00  0.00     0.031 A 
BRANCH  45  59
ATOM     59  C   UNL A   1      42.599  24.217  28.077  1.00  0.00    -0.014 A 
ATOM     60  C   UNL A   1      42.854  23.928  26.723  1.00  0.00     0.010 A 
ATOM     61  C   UNL A   1      42.161  23.183  28.923  1.00  0.00     0.010 A 
ATOM     62  C   UNL A   1      42.626  22.646  26.216  1.00  0.00     0.020 A 
ATOM     63  C   UNL A   1      41.961  21.890  28.427  1.00  0.00     0.020 A 
ATOM     64  C   UNL A   1      42.175  21.636  27.071  1.00  0.00     0.054 A 
BRANCH  64  65
ATOM     65  S   UNL A   1      41.891  19.981  26.386  1.00  0.00     0.124 S 
ATOM     66  O   UNL A   1      40.453  20.007  26.125  1.00  0.00    -0.237 OA
ATOM     67  O   UNL A   1      42.744  19.974  25.201  1.00  0.00    -0.237 OA
ATOM     68  O   UNL A   1      42.311  19.083  27.460  1.00  0.00    -0.744 OA
ENDBRANCH  64  65
ENDBRANCH  45  59
BRANCH  46  69
ATOM     69  C   UNL A   1      43.434  33.358  32.035  1.00  0.00    -0.014 A 
ATOM     70  C   UNL A   1      43.226  33.512  33.417  1.00  0.00     0.010 A 
ATOM     71  C   UNL A   1      43.776  34.486  31.266  1.00  0.00     0.010 A 
ATOM     72  C   UNL A   1      43.348  34.769  34.016  1.00  0.00     0.020 A 
ATOM     73  C   UNL A   1      43.928  35.739  31.866  1.00  0.00     0.020 A 
ATOM     74  C   UNL A   1      43.704  35.874  33.236  1.00  0.00     0.054 A 
BRANCH  74  75
ATOM     75  S   UNL A   1      43.920  37.484  34.047  1.00  0.00     0.124 S 
ATOM     76  O   UNL A   1      44.802  37.148  35.159  1.00  0.00    -0.237 OA
ATOM     77  O   UNL A   1      44.516  38.292  32.986  1.00  0.00    -0.237 OA
ATOM     78  O   UNL A   1      42.558  37.864  34.419  1.00  0.00    -0.744 OA
ENDBRANCH  74  75
ENDBRANCH  46  69
BRANCH  58  79
ATOM     79  C   UNL A   1      47.887  28.048  31.156  1.00  0.00    -0.014 A 
ATOM     80  C   UNL A   1      48.276  27.472  32.379  1.00  0.00     0.010 A 
ATOM     81  C   UNL A   1      48.876  28.398  30.218  1.00  0.00     0.010 A 
ATOM     82  C   UNL A   1      49.629  27.272  32.667  1.00  0.00     0.020 A 
ATOM     83  C   UNL A   1      50.228  28.171  30.490  1.00  0.00     0.020 A 
ATOM     84  C   UNL A   1      50.597  27.620  31.719  1.00  0.00     0.054 A 
BRANCH  84  85
ATOM     85  S   UNL A   1      52.341  27.300  32.096  1.00  0.00     0.124 S 
ATOM     86  O   UNL A   1      52.271  26.029  32.811  1.00  0.00    -0.237 OA
ATOM     87  O   UNL A   1      52.951  27.242  30.768  1.00  0.00    -0.237 OA
ATOM     88  O   UNL A   1      52.738  28.449  32.906  1.00  0.00    -0.744 OA
ENDBRANCH  84  85
ENDBRANCH  58  79
ENDBRANCH  32  33
ENDBRANCH  24  27
ENDBRANCH  22  23
ENDBRANCH  21  22
ENDBRANCH  20  21
ENDBRANCH  19  20
ENDBRANCH   1  19
TORSDOF 23
ENDMDL
MODEL 3
REMARK VINA RESULT:      -8.0      1.068      8.471
REMARK SMILES CCCCCC[C@H](C)[C@@](C)(O)C(=O)NCCCCCCNC(=O)c1ccc(-c2c3nc(c(-c4ccc(S(=O)(=O)[O-])cc4)c4ccc([nH]4)c(-c4ccc(S(=O)(=O)[O-])cc4)c4nc(c(-c5ccc(S(=O)(=O)[O-])cc5)c5ccc2[nH]5)C=C4)C=C3)cc1
REMARK SMILES IDX 16 1 15 2 14 3 12 4 13 5 9 7 10 8 7 9 8 10 6 11 5 12 4 13
REMARK SMILES IDX 3 14 2 15 1 16 11 17 17 19 18 20 19 21 20 22 21 23 22 24
REMARK SMILES IDX 23 26 24 27 25 28 83 29 26 30 82 31 27 32 28 33 29 34 76 35
REMARK SMILES IDX 30 36 81 37 75 38 77 39 31 40 80 41 74 42 73 43 32 45 62 46
REMARK SMILES IDX 43 47 61 48 44 49 47 50 60 51 78 52 45 53 46 54 59 56 79 57
REMARK SMILES IDX 48 58 33 59 34 60 42 61 35 62 41 63 36 64 37 65 38 66 39 67
REMARK SMILES IDX 40 68 63 69 64 70 72 71 65 72 71 73 66 74 67 75 68 76 69 77
REMARK SMILES IDX 70 78 49 79 50 80 58 81 51 82 57 83 52 84 53 85 54 86 55 87
REMARK SMILES IDX 56 88
REMARK H PARENT 14 6 11 18 21 25 77 44 47 55
REMARK Flexibility Score: inf
ROOT
ATOM      1  C   UNL A   1      31.852  24.466  26.859  1.00  0.00     0.021 C 
ENDROOT
BRANCH   1   2
ATOM      2  C   UNL A   1      31.171  23.103  26.824  1.00  0.00     0.116 C 
BRANCH   2   3
ATOM      3  N   UNL A   1      31.112  22.573  25.479  1.00  0.00    -0.354 N 
ATOM      4  C   UNL A   1      32.032  21.862  24.771  1.00  0.00     0.251 C 
ATOM      5  O   UNL A   1      31.735  21.606  23.600  1.00  0.00    -0.272 OA
ATOM      6  H   UNL A   1      30.272  22.757  24.999  1.00  0.00     0.163 HD
BRANCH   4   7
ATOM      7  C   UNL A   1      33.353  21.368  25.441  1.00  0.00     0.142 C 
ATOM      8  C   UNL A   1      34.065  20.362  24.515  1.00  0.00     0.053 C 
BRANCH   7   9
ATOM      9  C   UNL A   1      34.317  22.566  25.769  1.00  0.00     0.027 C 
ATOM     10  C   UNL A   1      35.241  22.260  26.958  1.00  0.00     0.011 C 
BRANCH   9  11
ATOM     11  C   UNL A   1      35.079  23.064  24.508  1.00  0.00     0.007 C 
BRANCH  11  12
ATOM     12  C   UNL A   1      34.797  24.510  24.070  1.00  0.00     0.000 C 
BRANCH  12  13
ATOM     13  C   UNL A   1      33.526  24.768  23.258  1.00  0.00     0.000 C 
BRANCH  13  14
ATOM     14  C   UNL A   1      33.507  26.072  22.454  1.00  0.00    -0.000 C 
BRANCH  14  15
ATOM     15  C   UNL A   1      33.943  27.313  23.233  1.00  0.00    -0.003 C 
ATOM     16  C   UNL A   1      33.552  28.611  22.545  1.00  0.00     0.004 C 
ENDBRANCH  14  15
ENDBRANCH  13  14
ENDBRANCH  12  13
ENDBRANCH  11  12
ENDBRANCH   9  11
ENDBRANCH   7   9
BRANCH   7  17
ATOM     17  O   UNL A   1      33.072  20.680  26.668  1.00  0.00    -0.380 OA
ATOM     18  H   UNL A   1      32.689  21.301  27.308  1.00  0.00     0.212 HD
ENDBRANCH   7  17
ENDBRANCH   4   7
ENDBRANCH   2   3
ENDBRANCH   1   2
BRANCH   1  19
ATOM     19  C   UNL A   1      31.084  25.590  26.153  1.00  0.00     0.002 C 
BRANCH  19  20
ATOM     20  C   UNL A   1      31.907  26.835  25.811  1.00  0.00     0.002 C 
BRANCH  20  21
ATOM     21  C   UNL A   1      32.394  27.647  27.012  1.00  0.00     0.021 C 
BRANCH  21  22
ATOM     22  C   UNL A   1      33.681  28.427  26.776  1.00  0.00     0.116 C 
BRANCH  22  23
ATOM     23  N   UNL A   1      33.489  29.861  26.917  1.00  0.00    -0.352 N 
ATOM     24  C   UNL A   1      34.244  30.765  27.623  1.00  0.00     0.251 C 
ATOM     25  H   UNL A   1      32.713  30.236  26.442  1.00  0.00     0.163 HD
ATOM     26  O   UNL A   1      33.841  31.914  27.785  1.00  0.00    -0.269 OA
BRANCH  24  27
ATOM     27  C   UNL A   1      35.530  30.337  28.212  1.00  0.00     0.039 A 
ATOM     28  C   UNL A   1      36.712  30.594  27.514  1.00  0.00     0.014 A 
ATOM     29  C   UNL A   1      35.568  29.708  29.459  1.00  0.00     0.014 A 
ATOM     30  C   UNL A   1      37.939  30.279  28.100  1.00  0.00     0.010 A 
ATOM     31  C   UNL A   1      36.794  29.464  30.073  1.00  0.00     0.010 A 
ATOM     32  C   UNL A   1      37.992  29.748  29.400  1.00  0.00    -0.014 A 
BRANCH  32  33
ATOM     33  C   UNL A   1      39.290  29.500  30.078  1.00  0.00     0.031 A 
ATOM     34  C   UNL A   1      40.196  28.400  29.601  1.00  0.00     0.074 A 
ATOM     35  C   UNL A   1      39.618  30.221  31.168  1.00  0.00     0.049 A 
ATOM     36  N   UNL A   1      41.335  27.995  30.104  1.00  0.00    -0.248 NA
ATOM     37  C   UNL A   1      39.755  27.637  28.423  1.00  0.00     0.031 C 
ATOM     38  C   UNL A   1      38.800  31.286  31.756  1.00  0.00     0.029 A 
ATOM     39  N   UNL A   1      40.719  30.161  31.985  1.00  0.00    -0.354 N 
ATOM     40  C   UNL A   1      41.739  26.925  29.313  1.00  0.00     0.074 A 
ATOM     41  C   UNL A   1      40.698  26.710  28.332  1.00  0.00     0.031 C 
ATOM     42  C   UNL A   1      39.437  31.789  32.826  1.00  0.00     0.029 A 
ATOM     43  C   UNL A   1      40.683  31.056  33.028  1.00  0.00     0.049 A 
ATOM     44  H   UNL A   1      41.466  29.536  31.837  1.00  0.00     0.167 HD
ATOM     45  C   UNL A   1      42.880  26.198  29.386  1.00  0.00     0.031 A 
ATOM     46  C   UNL A   1      41.546  31.258  34.044  1.00  0.00     0.031 A 
ATOM     47  C   UNL A   1      43.910  26.415  30.367  1.00  0.00     0.049 A 
ATOM     48  C   UNL A   1      42.798  30.427  34.117  1.00  0.00     0.074 A 
ATOM     49  C   UNL A   1      45.130  25.771  30.490  1.00  0.00     0.029 A 
ATOM     50  N   UNL A   1      43.842  27.341  31.398  1.00  0.00    -0.354 N 
ATOM     51  N   UNL A   1      43.199  29.471  33.313  1.00  0.00    -0.248 NA
ATOM     52  C   UNL A   1      43.719  30.710  35.226  1.00  0.00     0.031 C 
ATOM     53  C   UNL A   1      45.769  26.262  31.632  1.00  0.00     0.029 A 
ATOM     54  C   UNL A   1      44.981  27.261  32.182  1.00  0.00     0.049 A 
ATOM     55  H   UNL A   1      43.093  27.962  31.551  1.00  0.00     0.167 HD
ATOM     56  C   UNL A   1      44.430  29.053  33.806  1.00  0.00     0.074 A 
ATOM     57  C   UNL A   1      44.714  29.872  34.967  1.00  0.00     0.031 C 
ATOM     58  C   UNL A   1      45.249  28.078  33.340  1.00  0.00     0.031 A 
BRANCH  45  59
ATOM     59  C   UNL A   1      43.062  25.088  28.383  1.00  0.00    -0.014 A 
ATOM     60  C   UNL A   1      42.587  23.788  28.639  1.00  0.00     0.010 A 
ATOM     61  C   UNL A   1      43.696  25.352  27.155  1.00  0.00     0.010 A 
ATOM     62  C   UNL A   1      42.789  22.763  27.711  1.00  0.00     0.020 A 
ATOM     63  C   UNL A   1      43.871  24.337  26.210  1.00  0.00     0.020 A 
ATOM     64  C   UNL A   1      43.435  23.044  26.503  1.00  0.00     0.054 A 
BRANCH  64  65
ATOM     65  S   UNL A   1      43.680  21.695  25.316  1.00  0.00     0.124 S 
ATOM     66  O   UNL A   1      42.579  20.795  25.653  1.00  0.00    -0.237 OA
ATOM     67  O   UNL A   1      43.563  22.376  24.029  1.00  0.00    -0.237 OA
ATOM     68  O   UNL A   1      45.014  21.191  25.633  1.00  0.00    -0.744 OA
ENDBRANCH  64  65
ENDBRANCH  45  59
BRANCH  46  69
ATOM     69  C   UNL A   1      41.245  32.290  35.073  1.00  0.00    -0.014 A 
ATOM     70  C   UNL A   1      41.808  33.575  34.990  1.00  0.00     0.010 A 
ATOM     71  C   UNL A   1      40.363  31.999  36.130  1.00  0.00     0.010 A 
ATOM     72  C   UNL A   1      41.504  34.545  35.949  1.00  0.00     0.020 A 
ATOM     73  C   UNL A   1      40.033  32.975  37.075  1.00  0.00     0.020 A 
ATOM     74  C   UNL A   1      40.614  34.240  36.983  1.00  0.00     0.054 A 
BRANCH  74  75
ATOM     75  S   UNL A   1      40.183  35.535  38.179  1.00  0.00     0.124 S 
ATOM     76  O   UNL A   1      39.775  36.631  37.307  1.00  0.00    -0.237 OA
ATOM     77  O   UNL A   1      39.113  34.907  38.951  1.00  0.00    -0.237 OA
ATOM     78  O   UNL A   1      41.429  35.748  38.914  1.00  0.00    -0.744 OA
ENDBRANCH  74  75
ENDBRANCH  46  69
BRANCH  58  79
ATOM     79  C   UNL A   1      46.548  27.854  34.068  1.00  0.00    -0.014 A 
ATOM     80  C   UNL A   1      46.648  26.915  35.110  1.00  0.00     0.010 A 
ATOM     81  C   UNL A   1      47.701  28.550  33.660  1.00  0.00     0.010 A 
ATOM     82  C   UNL A   1      47.873  26.694  35.747  1.00  0.00     0.020 A 
ATOM     83  C   UNL A   1      48.934  28.309  34.273  1.00  0.00     0.020 A 
ATOM     84  C   UNL A   1      49.010  27.391  35.321  1.00  0.00     0.054 A 
BRANCH  84  85
ATOM     85  S   UNL A   1      50.597  27.045  36.127  1.00  0.00     0.124 S 
ATOM     86  O   UNL A   1      50.198  26.166  37.223  1.00  0.00    -0.237 OA
ATOM     87  O   UNL A   1      51.366  26.410  35.060  1.00  0.00    -0.237 OA
ATOM     88  O   UNL A   1      51.075  28.366  36.531  1.00  0.00    -0.744 OA
ENDBRANCH  84  85
ENDBRANCH  58  79
ENDBRANCH  32  33
ENDBRANCH  24  27
ENDBRANCH  22  23
ENDBRANCH  21  22
ENDBRANCH  20  21
ENDBRANCH  19  20
ENDBRANCH   1  19
TORSDOF 23
ENDMDL
