MODEL 1
REMARK VINA RESULT:     -10.0      0.000      0.000
REMARK SMILES C[C@@H](CC(=O)NCCCCCCNC(=O)c1ccc(-c2c3nc(c(-c4ccc(S(=O)(=O)[O-])cc4)c4ccc([nH]4)c(-c4ccc(S(=O)(=O)[O-])cc4)c4nc(c(-c5ccc(S(=O)(=O)[O-])cc5)c5ccc2[nH]5)C=C4)C=C3)cc1)CC(=O)N1C[C@H](C)[C@@H](C)C1
REMARK SMILES IDX 9 1 8 2 7 3 6 4 4 5 5 6 3 8 2 9 1 10 76 11 77 12 78 13 79 14
REMARK SMILES IDX 80 15 85 16 81 17 83 18 82 19 84 20 10 21 11 22 12 23 13 24
REMARK SMILES IDX 14 25 15 27 16 28 17 29 75 30 18 31 74 32 19 33 20 34 21 35
REMARK SMILES IDX 68 36 22 37 73 38 67 39 69 40 23 41 72 42 66 43 65 44 24 46
REMARK SMILES IDX 54 47 35 48 53 49 36 50 39 51 52 52 70 53 37 54 38 55 51 57
REMARK SMILES IDX 71 58 40 59 25 60 26 61 34 62 27 63 33 64 28 65 29 66 30 67
REMARK SMILES IDX 31 68 32 69 55 70 56 71 64 72 57 73 63 74 58 75 59 76 60 77
REMARK SMILES IDX 61 78 62 79 41 80 42 81 50 82 43 83 49 84 44 85 45 86 46 87
REMARK SMILES IDX 47 88 48 89
REMARK H PARENT 6 7 13 26 69 45 39 56
REMARK Flexibility Score: inf
ROOT
ATOM      1  C   UNL A   1      31.689  28.958  24.808  1.00  0.00     0.002 C 
ENDROOT
BRANCH   1   2
ATOM      2  C   UNL A   1      32.106  28.729  23.354  1.00  0.00     0.021 C 
BRANCH   2   3
ATOM      3  C   UNL A   1      33.521  28.176  23.177  1.00  0.00     0.116 C 
BRANCH   3   4
ATOM      4  N   UNL A   1      33.614  27.372  21.974  1.00  0.00    -0.356 N 
ATOM      5  C   UNL A   1      32.895  26.288  21.579  1.00  0.00     0.220 C 
ATOM      6  O   UNL A   1      33.243  25.709  20.547  1.00  0.00    -0.275 OA
ATOM      7  H   UNL A   1      34.313  27.657  21.341  1.00  0.00     0.163 HD
BRANCH   5   8
ATOM      8  C   UNL A   1      31.676  25.815  22.359  1.00  0.00     0.103 C 
BRANCH   8   9
ATOM      9  C   UNL A   1      31.807  24.566  23.273  1.00  0.00     0.004 C 
ATOM     10  C   UNL A   1      30.638  24.516  24.254  1.00  0.00     0.009 C 
BRANCH   9  11
ATOM     11  C   UNL A   1      33.204  24.429  23.895  1.00  0.00     0.104 C 
BRANCH  11  12
ATOM     12  C   UNL A   1      34.049  23.180  23.658  1.00  0.00     0.222 C 
ATOM     13  O   UNL A   1      33.671  22.307  22.876  1.00  0.00    -0.275 OA
ATOM     14  N   UNL A   1      35.323  23.190  24.201  1.00  0.00    -0.342 N 
ATOM     15  C   UNL A   1      36.451  22.577  23.519  1.00  0.00     0.123 C 
ATOM     16  C   UNL A   1      35.592  23.322  25.620  1.00  0.00     0.123 C 
ATOM     17  C   UNL A   1      37.293  21.938  24.624  1.00  0.00     0.010 C 
ATOM     18  C   UNL A   1      37.023  22.835  25.845  1.00  0.00     0.010 C 
ATOM     19  C   UNL A   1      36.838  20.499  24.867  1.00  0.00     0.010 C 
ATOM     20  C   UNL A   1      37.997  24.006  25.955  1.00  0.00     0.010 C 
ENDBRANCH  11  12
ENDBRANCH   9  11
ENDBRANCH   8   9
ENDBRANCH   5   8
ENDBRANCH   3   4
ENDBRANCH   2   3
ENDBRANCH   1   2
BRANCH   1  21
ATOM     21  C   UNL A   1      31.702  27.698  25.676  1.00  0.00     0.002 C 
BRANCH  21  22
ATOM     22  C   UNL A   1      32.234  27.893  27.101  1.00  0.00     0.021 C 
BRANCH  22  23
ATOM     23  C   UNL A   1      33.619  28.533  27.187  1.00  0.00     0.116 C 
BRANCH  23  24
ATOM     24  N   UNL A   1      33.553  29.922  27.611  1.00  0.00    -0.352 N 
ATOM     25  C   UNL A   1      34.483  30.679  28.281  1.00  0.00     0.251 C 
ATOM     26  H   UNL A   1      32.717  30.389  27.385  1.00  0.00     0.163 HD
ATOM     27  O   UNL A   1      34.162  31.765  28.752  1.00  0.00    -0.269 OA
BRANCH  25  28
ATOM     28  C   UNL A   1      35.864  30.178  28.449  1.00  0.00     0.039 A 
ATOM     29  C   UNL A   1      36.740  30.236  27.363  1.00  0.00     0.014 A 
ATOM     30  C   UNL A   1      36.292  29.645  29.669  1.00  0.00     0.014 A 
ATOM     31  C   UNL A   1      38.068  29.832  27.522  1.00  0.00     0.010 A 
ATOM     32  C   UNL A   1      37.632  29.302  29.844  1.00  0.00     0.010 A 
ATOM     33  C   UNL A   1      38.537  29.404  28.775  1.00  0.00    -0.014 A 
BRANCH  33  34
ATOM     34  C   UNL A   1      39.976  29.108  28.995  1.00  0.00     0.031 A 
ATOM     35  C   UNL A   1      40.547  27.760  28.650  1.00  0.00     0.074 A 
ATOM     36  C   UNL A   1      40.759  30.042  29.574  1.00  0.00     0.049 A 
ATOM     37  N   UNL A   1      41.763  27.312  28.828  1.00  0.00    -0.248 NA
ATOM     38  C   UNL A   1      39.629  26.781  28.044  1.00  0.00     0.031 C 
ATOM     39  C   UNL A   1      40.315  31.376  29.992  1.00  0.00     0.029 A 
ATOM     40  N   UNL A   1      42.086  30.013  29.921  1.00  0.00    -0.354 N 
ATOM     41  C   UNL A   1      41.757  26.000  28.368  1.00  0.00     0.074 A 
ATOM     42  C   UNL A   1      40.403  25.710  27.942  1.00  0.00     0.031 C 
ATOM     43  C   UNL A   1      41.356  32.042  30.518  1.00  0.00     0.029 A 
ATOM     44  C   UNL A   1      42.527  31.171  30.519  1.00  0.00     0.049 A 
ATOM     45  H   UNL A   1      42.668  29.237  29.758  1.00  0.00     0.167 HD
ATOM     46  C   UNL A   1      42.786  25.122  28.295  1.00  0.00     0.031 A 
ATOM     47  C   UNL A   1      43.733  31.496  31.025  1.00  0.00     0.031 A 
ATOM     48  C   UNL A   1      44.130  25.416  28.716  1.00  0.00     0.049 A 
ATOM     49  C   UNL A   1      44.851  30.493  30.956  1.00  0.00     0.074 A 
ATOM     50  C   UNL A   1      45.255  24.611  28.624  1.00  0.00     0.029 A 
ATOM     51  N   UNL A   1      44.535  26.599  29.317  1.00  0.00    -0.354 N 
ATOM     52  N   UNL A   1      44.841  29.284  30.447  1.00  0.00    -0.248 NA
ATOM     53  C   UNL A   1      46.144  30.899  31.525  1.00  0.00     0.031 C 
ATOM     54  C   UNL A   1      46.323  25.283  29.227  1.00  0.00     0.029 A 
ATOM     55  C   UNL A   1      45.883  26.531  29.634  1.00  0.00     0.049 A 
ATOM     56  H   UNL A   1      43.952  27.372  29.491  1.00  0.00     0.167 HD
ATOM     57  C   UNL A   1      46.132  28.794  30.616  1.00  0.00     0.074 A 
ATOM     58  C   UNL A   1      46.899  29.843  31.253  1.00  0.00     0.031 C 
ATOM     59  C   UNL A   1      46.634  27.581  30.276  1.00  0.00     0.031 A 
BRANCH  46  60
ATOM     60  C   UNL A   1      42.501  23.749  27.744  1.00  0.00    -0.014 A 
ATOM     61  C   UNL A   1      42.543  23.495  26.361  1.00  0.00     0.010 A 
ATOM     62  C   UNL A   1      42.254  22.681  28.627  1.00  0.00     0.010 A 
ATOM     63  C   UNL A   1      42.312  22.207  25.870  1.00  0.00     0.020 A 
ATOM     64  C   UNL A   1      42.050  21.385  28.141  1.00  0.00     0.020 A 
ATOM     65  C   UNL A   1      42.068  21.160  26.763  1.00  0.00     0.054 A 
BRANCH  65  66
ATOM     66  S   UNL A   1      41.809  19.492  26.097  1.00  0.00     0.124 S 
ATOM     67  O   UNL A   1      42.739  19.471  24.970  1.00  0.00    -0.237 OA
ATOM     68  O   UNL A   1      42.171  18.640  27.226  1.00  0.00    -0.237 OA
ATOM     69  O   UNL A   1      40.394  19.478  25.736  1.00  0.00    -0.744 OA
ENDBRANCH  65  66
ENDBRANCH  46  60
BRANCH  47  70
ATOM     70  C   UNL A   1      43.942  32.828  31.656  1.00  0.00    -0.014 A 
ATOM     71  C   UNL A   1      44.280  33.948  30.875  1.00  0.00     0.010 A 
ATOM     72  C   UNL A   1      43.799  32.985  33.048  1.00  0.00     0.010 A 
ATOM     73  C   UNL A   1      44.494  35.192  31.475  1.00  0.00     0.020 A 
ATOM     74  C   UNL A   1      43.982  34.235  33.648  1.00  0.00     0.020 A 
ATOM     75  C   UNL A   1      44.342  35.327  32.859  1.00  0.00     0.054 A 
BRANCH  75  76
ATOM     76  S   UNL A   1      44.581  36.961  33.611  1.00  0.00     0.124 S 
ATOM     77  O   UNL A   1      43.534  36.982  34.627  1.00  0.00    -0.237 OA
ATOM     78  O   UNL A   1      45.951  36.880  34.112  1.00  0.00    -0.237 OA
ATOM     79  O   UNL A   1      44.389  37.882  32.493  1.00  0.00    -0.744 OA
ENDBRANCH  75  76
ENDBRANCH  47  70
BRANCH  59  80
ATOM     80  C   UNL A   1      48.089  27.326  30.570  1.00  0.00    -0.014 A 
ATOM     81  C   UNL A   1      48.492  26.719  31.771  1.00  0.00     0.010 A 
ATOM     82  C   UNL A   1      49.061  27.649  29.605  1.00  0.00     0.010 A 
ATOM     83  C   UNL A   1      49.844  26.465  32.016  1.00  0.00     0.020 A 
ATOM     84  C   UNL A   1      50.411  27.369  29.832  1.00  0.00     0.020 A 
ATOM     85  C   UNL A   1      50.795  26.789  31.043  1.00  0.00     0.054 A 
BRANCH  85  86
ATOM     86  S   UNL A   1      52.538  26.404  31.365  1.00  0.00     0.124 S 
ATOM     87  O   UNL A   1      53.081  26.300  30.013  1.00  0.00    -0.237 OA
ATOM     88  O   UNL A   1      52.985  27.563  32.134  1.00  0.00    -0.237 OA
ATOM     89  O   UNL A   1      52.485  25.150  32.112  1.00  0.00    -0.744 OA
ENDBRANCH  85  86
ENDBRANCH  59  80
ENDBRANCH  33  34
ENDBRANCH  25  28
ENDBRANCH  23  24
ENDBRANCH  22  23
ENDBRANCH  21  22
ENDBRANCH   1  21
TORSDOF 19
ENDMDL
MODEL 2
REMARK VINA RESULT:      -9.5      4.460      9.821
REMARK SMILES C[C@@H](CC(=O)NCCCCCCNC(=O)c1ccc(-c2c3nc(c(-c4ccc(S(=O)(=O)[O-])cc4)c4ccc([nH]4)c(-c4ccc(S(=O)(=O)[O-])cc4)c4nc(c(-c5ccc(S(=O)(=O)[O-])cc5)c5ccc2[nH]5)C=C4)C=C3)cc1)CC(=O)N1C[C@H](C)[C@@H](C)C1
REMARK SMILES IDX 9 1 8 2 7 3 6 4 4 5 5 6 3 8 2 9 1 10 76 11 77 12 78 13 79 14
REMARK SMILES IDX 80 15 85 16 81 17 83 18 82 19 84 20 10 21 11 22 12 23 13 24
REMARK SMILES IDX 14 25 15 27 16 28 17 29 75 30 18 31 74 32 19 33 20 34 21 35
REMARK SMILES IDX 68 36 22 37 73 38 67 39 69 40 23 41 72 42 66 43 65 44 24 46
REMARK SMILES IDX 54 47 35 48 53 49 36 50 39 51 52 52 70 53 37 54 38 55 51 57
REMARK SMILES IDX 71 58 40 59 25 60 26 61 34 62 27 63 33 64 28 65 29 66 30 67
REMARK SMILES IDX 31 68 32 69 55 70 56 71 64 72 57 73 63 74 58 75 59 76 60 77
REMARK SMILES IDX 61 78 62 79 41 80 42 81 50 82 43 83 49 84 44 85 45 86 46 87
REMARK SMILES IDX 47 88 48 89
REMARK H PARENT 6 7 13 26 69 45 39 56
REMARK Flexibility Score: inf
ROOT
ATOM      1  C   UNL A   1      36.382  23.047  26.161  1.00  0.00     0.002 C 
ENDROOT
BRANCH   1   2
ATOM      2  C   UNL A   1      35.886  21.611  25.978  1.00  0.00     0.021 C 
BRANCH   2   3
ATOM      3  C   UNL A   1      35.287  21.315  24.601  1.00  0.00     0.116 C 
BRANCH   3   4
ATOM      4  N   UNL A   1      34.103  20.487  24.722  1.00  0.00    -0.356 N 
ATOM      5  C   UNL A   1      32.802  20.829  24.918  1.00  0.00     0.220 C 
ATOM      6  O   UNL A   1      31.986  19.921  25.095  1.00  0.00    -0.275 OA
ATOM      7  H   UNL A   1      34.269  19.518  24.651  1.00  0.00     0.163 HD
BRANCH   5   8
ATOM      8  C   UNL A   1      32.349  22.283  24.887  1.00  0.00     0.103 C 
BRANCH   8   9
ATOM      9  C   UNL A   1      32.094  23.018  26.231  1.00  0.00     0.004 C 
ATOM     10  C   UNL A   1      30.593  23.108  26.496  1.00  0.00     0.009 C 
BRANCH   9  11
ATOM     11  C   UNL A   1      32.869  24.337  26.344  1.00  0.00     0.104 C 
BRANCH  11  12
ATOM     12  C   UNL A   1      33.118  25.209  25.115  1.00  0.00     0.222 C 
ATOM     13  O   UNL A   1      34.239  25.272  24.609  1.00  0.00    -0.275 OA
ATOM     14  N   UNL A   1      31.995  25.740  24.503  1.00  0.00    -0.342 N 
ATOM     15  C   UNL A   1      31.908  25.888  23.059  1.00  0.00     0.123 C 
ATOM     16  C   UNL A   1      31.062  26.629  25.167  1.00  0.00     0.123 C 
ATOM     17  C   UNL A   1      31.174  27.209  22.832  1.00  0.00     0.010 C 
ATOM     18  C   UNL A   1      30.266  27.333  24.067  1.00  0.00     0.010 C 
ATOM     19  C   UNL A   1      32.176  28.361  22.748  1.00  0.00     0.010 C 
ATOM     20  C   UNL A   1      28.897  26.685  23.872  1.00  0.00     0.010 C 
ENDBRANCH  11  12
ENDBRANCH   9  11
ENDBRANCH   8   9
ENDBRANCH   5   8
ENDBRANCH   3   4
ENDBRANCH   2   3
ENDBRANCH   1   2
BRANCH   1  21
ATOM     21  C   UNL A   1      37.787  23.305  25.613  1.00  0.00     0.002 C 
BRANCH  21  22
ATOM     22  C   UNL A   1      38.882  22.387  26.167  1.00  0.00     0.021 C 
BRANCH  22  23
ATOM     23  C   UNL A   1      39.936  23.088  27.023  1.00  0.00     0.116 C 
BRANCH  23  24
ATOM     24  N   UNL A   1      41.122  23.434  26.256  1.00  0.00    -0.352 N 
ATOM     25  C   UNL A   1      41.825  24.612  26.212  1.00  0.00     0.251 C 
ATOM     26  H   UNL A   1      41.473  22.715  25.683  1.00  0.00     0.163 HD
ATOM     27  O   UNL A   1      42.665  24.790  25.336  1.00  0.00    -0.269 OA
BRANCH  25  28
ATOM     28  C   UNL A   1      41.557  25.673  27.207  1.00  0.00     0.039 A 
ATOM     29  C   UNL A   1      40.500  25.505  28.105  1.00  0.00     0.014 A 
ATOM     30  C   UNL A   1      42.338  26.832  27.251  1.00  0.00     0.014 A 
ATOM     31  C   UNL A   1      40.275  26.463  29.096  1.00  0.00     0.010 A 
ATOM     32  C   UNL A   1      42.152  27.756  28.279  1.00  0.00     0.010 A 
ATOM     33  C   UNL A   1      41.126  27.574  29.220  1.00  0.00    -0.014 A 
BRANCH  33  34
ATOM     34  C   UNL A   1      40.987  28.524  30.354  1.00  0.00     0.031 A 
ATOM     35  C   UNL A   1      41.851  28.392  31.578  1.00  0.00     0.074 A 
ATOM     36  C   UNL A   1      40.027  29.470  30.307  1.00  0.00     0.049 A 
ATOM     37  N   UNL A   1      41.827  29.094  32.682  1.00  0.00    -0.248 NA
ATOM     38  C   UNL A   1      42.862  27.320  31.570  1.00  0.00     0.031 C 
ATOM     39  C   UNL A   1      39.098  29.677  29.191  1.00  0.00     0.029 A 
ATOM     40  N   UNL A   1      39.665  30.429  31.219  1.00  0.00    -0.354 N 
ATOM     41  C   UNL A   1      42.806  28.547  33.503  1.00  0.00     0.074 A 
ATOM     42  C   UNL A   1      43.377  27.426  32.787  1.00  0.00     0.031 C 
ATOM     43  C   UNL A   1      38.289  30.710  29.477  1.00  0.00     0.029 A 
ATOM     44  C   UNL A   1      38.608  31.209  30.811  1.00  0.00     0.049 A 
ATOM     45  H   UNL A   1      40.118  30.549  32.084  1.00  0.00     0.167 HD
ATOM     46  C   UNL A   1      43.200  28.950  34.735  1.00  0.00     0.031 A 
ATOM     47  C   UNL A   1      37.955  32.206  31.440  1.00  0.00     0.031 A 
ATOM     48  C   UNL A   1      42.632  30.067  35.441  1.00  0.00     0.049 A 
ATOM     49  C   UNL A   1      38.396  32.615  32.819  1.00  0.00     0.074 A 
ATOM     50  C   UNL A   1      43.008  30.590  36.668  1.00  0.00     0.029 A 
ATOM     51  N   UNL A   1      41.563  30.830  34.995  1.00  0.00    -0.354 N 
ATOM     52  N   UNL A   1      39.375  32.132  33.545  1.00  0.00    -0.248 NA
ATOM     53  C   UNL A   1      37.649  33.706  33.459  1.00  0.00     0.031 C 
ATOM     54  C   UNL A   1      42.126  31.626  36.991  1.00  0.00     0.029 A 
ATOM     55  C   UNL A   1      41.243  31.794  35.938  1.00  0.00     0.049 A 
ATOM     56  H   UNL A   1      41.101  30.705  34.135  1.00  0.00     0.167 HD
ATOM     57  C   UNL A   1      39.373  32.876  34.721  1.00  0.00     0.074 A 
ATOM     58  C   UNL A   1      38.312  33.853  34.598  1.00  0.00     0.031 C 
ATOM     59  C   UNL A   1      40.178  32.756  35.806  1.00  0.00     0.031 A 
BRANCH  46  60
ATOM     60  C   UNL A   1      44.301  28.172  35.410  1.00  0.00    -0.014 A 
ATOM     61  C   UNL A   1      45.648  28.554  35.279  1.00  0.00     0.010 A 
ATOM     62  C   UNL A   1      43.977  27.084  36.241  1.00  0.00     0.010 A 
ATOM     63  C   UNL A   1      46.653  27.842  35.942  1.00  0.00     0.020 A 
ATOM     64  C   UNL A   1      44.977  26.387  36.928  1.00  0.00     0.020 A 
ATOM     65  C   UNL A   1      46.311  26.764  36.762  1.00  0.00     0.054 A 
BRANCH  65  66
ATOM     66  S   UNL A   1      47.634  25.884  37.638  1.00  0.00     0.124 S 
ATOM     67  O   UNL A   1      48.534  26.977  37.999  1.00  0.00    -0.237 OA
ATOM     68  O   UNL A   1      46.920  25.265  38.752  1.00  0.00    -0.237 OA
ATOM     69  O   UNL A   1      48.154  24.954  36.639  1.00  0.00    -0.744 OA
ENDBRANCH  65  66
ENDBRANCH  46  60
BRANCH  47  70
ATOM     70  C   UNL A   1      36.804  32.878  30.777  1.00  0.00    -0.014 A 
ATOM     71  C   UNL A   1      35.482  32.578  31.153  1.00  0.00     0.010 A 
ATOM     72  C   UNL A   1      37.025  33.830  29.764  1.00  0.00     0.010 A 
ATOM     73  C   UNL A   1      34.405  33.198  30.513  1.00  0.00     0.020 A 
ATOM     74  C   UNL A   1      35.951  34.476  29.144  1.00  0.00     0.020 A 
ATOM     75  C   UNL A   1      34.647  34.145  29.513  1.00  0.00     0.054 A 
BRANCH  75  76
ATOM     76  S   UNL A   1      33.236  34.970  28.727  1.00  0.00     0.124 S 
ATOM     77  O   UNL A   1      32.681  33.901  27.903  1.00  0.00    -0.237 OA
ATOM     78  O   UNL A   1      32.426  35.372  29.874  1.00  0.00    -0.237 OA
ATOM     79  O   UNL A   1      33.852  36.072  27.992  1.00  0.00    -0.744 OA
ENDBRANCH  75  76
ENDBRANCH  47  70
BRANCH  59  80
ATOM     80  C   UNL A   1      39.954  33.718  36.944  1.00  0.00    -0.014 A 
ATOM     81  C   UNL A   1      40.542  34.994  36.942  1.00  0.00     0.010 A 
ATOM     82  C   UNL A   1      39.098  33.359  38.001  1.00  0.00     0.010 A 
ATOM     83  C   UNL A   1      40.302  35.884  37.993  1.00  0.00     0.020 A 
ATOM     84  C   UNL A   1      38.831  34.257  39.037  1.00  0.00     0.020 A 
ATOM     85  C   UNL A   1      39.445  35.510  39.032  1.00  0.00     0.054 A 
BRANCH  85  86
ATOM     86  S   UNL A   1      39.110  36.703  40.358  1.00  0.00     0.124 S 
ATOM     87  O   UNL A   1      38.567  37.838  39.616  1.00  0.00    -0.237 OA
ATOM     88  O   UNL A   1      38.154  35.986  41.198  1.00  0.00    -0.237 OA
ATOM     89  O   UNL A   1      40.420  36.925  40.964  1.00  0.00    -0.744 OA
ENDBRANCH  85  86
ENDBRANCH  59  80
ENDBRANCH  33  34
ENDBRANCH  25  28
ENDBRANCH  23  24
ENDBRANCH  22  23
ENDBRANCH  21  22
ENDBRANCH   1  21
TORSDOF 19
ENDMDL
MODEL 3
REMARK VINA RESULT:      -9.4      2.815      8.772
REMARK SMILES C[C@@H](CC(=O)NCCCCCCNC(=O)c1ccc(-c2c3nc(c(-c4ccc(S(=O)(=O)[O-])cc4)c4ccc([nH]4)c(-c4ccc(S(=O)(=O)[O-])cc4)c4nc(c(-c5ccc(S(=O)(=O)[O-])cc5)c5ccc2[nH]5)C=C4)C=C3)cc1)CC(=O)N1C[C@H](C)[C@@H](C)C1
REMARK SMILES IDX 9 1 8 2 7 3 6 4 4 5 5 6 3 8 2 9 1 10 76 11 77 12 78 13 79 14
REMARK SMILES IDX 80 15 85 16 81 17 83 18 82 19 84 20 10 21 11 22 12 23 13 24
REMARK SMILES IDX 14 25 15 27 16 28 17 29 75 30 18 31 74 32 19 33 20 34 21 35
REMARK SMILES IDX 68 36 22 37 73 38 67 39 69 40 23 41 72 42 66 43 65 44 24 46
REMARK SMILES IDX 54 47 35 48 53 49 36 50 39 51 52 52 70 53 37 54 38 55 51 57
REMARK SMILES IDX 71 58 40 59 25 60 26 61 34 62 27 63 33 64 28 65 29 66 30 67
REMARK SMILES IDX 31 68 32 69 55 70 56 71 64 72 57 73 63 74 58 75 59 76 60 77
REMARK SMILES IDX 61 78 62 79 41 80 42 81 50 82 43 83 49 84 44 85 45 86 46 87
REMARK SMILES IDX 47 88 48 89
REMARK H PARENT 6 7 13 26 69 45 39 56
REMARK Flexibility Score: inf
ROOT
ATOM      1  C   UNL A   1      32.887  29.714  25.282  1.00  0.00     0.002 C 
ENDROOT
BRANCH   1   2
ATOM      2  C   UNL A   1      31.430  29.483  24.870  1.00  0.00     0.021 C 
BRANCH   2   3
ATOM      3  C   UNL A   1      31.254  28.700  23.568  1.00  0.00     0.116 C 
BRANCH   3   4
ATOM      4  N   UNL A   1      30.080  27.852  23.632  1.00  0.00    -0.356 N 
ATOM      5  C   UNL A   1      29.870  26.684  24.295  1.00  0.00     0.220 C 
ATOM      6  O   UNL A   1      28.804  26.092  24.099  1.00  0.00    -0.275 OA
ATOM      7  H   UNL A   1      29.310  28.174  23.109  1.00  0.00     0.163 HD
BRANCH   5   8
ATOM      8  C   UNL A   1      30.895  26.131  25.275  1.00  0.00     0.103 C 
BRANCH   8   9
ATOM      9  C   UNL A   1      31.521  24.736  24.999  1.00  0.00     0.004 C 
ATOM     10  C   UNL A   1      31.510  23.900  26.278  1.00  0.00     0.009 C 
BRANCH   9  11
ATOM     11  C   UNL A   1      32.870  24.823  24.273  1.00  0.00     0.104 C 
BRANCH  11  12
ATOM     12  C   UNL A   1      33.654  23.562  23.921  1.00  0.00     0.222 C 
ATOM     13  O   UNL A   1      33.205  22.752  23.109  1.00  0.00    -0.275 OA
ATOM     14  N   UNL A   1      34.953  23.494  24.397  1.00  0.00    -0.342 N 
ATOM     15  C   UNL A   1      36.022  22.884  23.623  1.00  0.00     0.123 C 
ATOM     16  C   UNL A   1      35.296  23.531  25.806  1.00  0.00     0.123 C 
ATOM     17  C   UNL A   1      36.892  22.151  24.644  1.00  0.00     0.010 C 
ATOM     18  C   UNL A   1      36.717  22.981  25.927  1.00  0.00     0.010 C 
ATOM     19  C   UNL A   1      36.395  20.716  24.825  1.00  0.00     0.010 C 
ATOM     20  C   UNL A   1      37.740  24.108  26.055  1.00  0.00     0.010 C 
ENDBRANCH  11  12
ENDBRANCH   9  11
ENDBRANCH   8   9
ENDBRANCH   5   8
ENDBRANCH   3   4
ENDBRANCH   2   3
ENDBRANCH   1   2
BRANCH   1  21
ATOM     21  C   UNL A   1      33.144  29.602  26.786  1.00  0.00     0.002 C 
BRANCH  21  22
ATOM     22  C   UNL A   1      34.426  28.856  27.174  1.00  0.00     0.021 C 
BRANCH  22  23
ATOM     23  C   UNL A   1      35.538  29.741  27.737  1.00  0.00     0.116 C 
BRANCH  23  24
ATOM     24  N   UNL A   1      35.417  29.923  29.174  1.00  0.00    -0.352 N 
ATOM     25  C   UNL A   1      36.360  29.769  30.160  1.00  0.00     0.251 C 
ATOM     26  H   UNL A   1      34.525  30.198  29.487  1.00  0.00     0.163 HD
ATOM     27  O   UNL A   1      36.016  29.746  31.337  1.00  0.00    -0.269 OA
BRANCH  25  28
ATOM     28  C   UNL A   1      37.787  29.612  29.803  1.00  0.00     0.039 A 
ATOM     29  C   UNL A   1      38.711  29.350  30.817  1.00  0.00     0.014 A 
ATOM     30  C   UNL A   1      38.213  29.731  28.477  1.00  0.00     0.014 A 
ATOM     31  C   UNL A   1      40.052  29.130  30.491  1.00  0.00     0.010 A 
ATOM     32  C   UNL A   1      39.538  29.449  28.146  1.00  0.00     0.010 A 
ATOM     33  C   UNL A   1      40.469  29.134  29.149  1.00  0.00    -0.014 A 
BRANCH  33  34
ATOM     34  C   UNL A   1      41.858  28.761  28.777  1.00  0.00     0.031 A 
ATOM     35  C   UNL A   1      42.946  29.799  28.725  1.00  0.00     0.074 A 
ATOM     36  C   UNL A   1      42.124  27.489  28.417  1.00  0.00     0.049 A 
ATOM     37  N   UNL A   1      44.197  29.662  28.366  1.00  0.00    -0.248 NA
ATOM     38  C   UNL A   1      42.578  31.172  29.107  1.00  0.00     0.031 C 
ATOM     39  C   UNL A   1      41.146  26.396  28.388  1.00  0.00     0.029 A 
ATOM     40  N   UNL A   1      43.290  26.898  27.998  1.00  0.00    -0.354 N 
ATOM     41  C   UNL A   1      44.763  30.927  28.468  1.00  0.00     0.074 A 
ATOM     42  C   UNL A   1      43.708  31.828  28.881  1.00  0.00     0.031 C 
ATOM     43  C   UNL A   1      41.758  25.268  27.994  1.00  0.00     0.029 A 
ATOM     44  C   UNL A   1      43.156  25.562  27.698  1.00  0.00     0.049 A 
ATOM     45  H   UNL A   1      44.142  27.384  27.919  1.00  0.00     0.167 HD
ATOM     46  C   UNL A   1      46.047  31.301  28.249  1.00  0.00     0.031 A 
ATOM     47  C   UNL A   1      44.051  24.672  27.225  1.00  0.00     0.031 A 
ATOM     48  C   UNL A   1      47.093  30.401  27.842  1.00  0.00     0.049 A 
ATOM     49  C   UNL A   1      45.463  25.121  26.965  1.00  0.00     0.074 A 
ATOM     50  C   UNL A   1      48.438  30.676  27.656  1.00  0.00     0.029 A 
ATOM     51  N   UNL A   1      46.917  29.057  27.549  1.00  0.00    -0.354 N 
ATOM     52  N   UNL A   1      45.994  26.307  27.142  1.00  0.00    -0.248 NA
ATOM     53  C   UNL A   1      46.396  24.110  26.448  1.00  0.00     0.031 C 
ATOM     54  C   UNL A   1      49.061  29.514  27.189  1.00  0.00     0.029 A 
ATOM     55  C   UNL A   1      48.120  28.499  27.147  1.00  0.00     0.049 A 
ATOM     56  H   UNL A   1      46.063  28.572  27.616  1.00  0.00     0.167 HD
ATOM     57  C   UNL A   1      47.330  26.179  26.776  1.00  0.00     0.074 A 
ATOM     58  C   UNL A   1      47.530  24.797  26.392  1.00  0.00     0.031 C 
ATOM     59  C   UNL A   1      48.303  27.123  26.759  1.00  0.00     0.031 A 
BRANCH  46  60
ATOM     60  C   UNL A   1      46.397  32.755  28.439  1.00  0.00    -0.014 A 
ATOM     61  C   UNL A   1      46.328  33.666  27.371  1.00  0.00     0.010 A 
ATOM     62  C   UNL A   1      46.735  33.229  29.721  1.00  0.00     0.010 A 
ATOM     63  C   UNL A   1      46.621  35.018  27.573  1.00  0.00     0.020 A 
ATOM     64  C   UNL A   1      47.001  34.586  29.933  1.00  0.00     0.020 A 
ATOM     65  C   UNL A   1      46.955  35.469  28.853  1.00  0.00     0.054 A 
BRANCH  65  66
ATOM     66  S   UNL A   1      47.293  37.236  29.091  1.00  0.00     0.124 S 
ATOM     67  O   UNL A   1      47.457  37.699  27.715  1.00  0.00    -0.237 OA
ATOM     68  O   UNL A   1      46.087  37.702  29.771  1.00  0.00    -0.237 OA
ATOM     69  O   UNL A   1      48.509  37.251  29.902  1.00  0.00    -0.744 OA
ENDBRANCH  65  66
ENDBRANCH  46  60
BRANCH  47  70
ATOM     70  C   UNL A   1      43.634  23.269  26.952  1.00  0.00    -0.014 A 
ATOM     71  C   UNL A   1      43.229  22.423  28.000  1.00  0.00     0.010 A 
ATOM     72  C   UNL A   1      43.638  22.770  25.636  1.00  0.00     0.010 A 
ATOM     73  C   UNL A   1      42.858  21.101  27.741  1.00  0.00     0.020 A 
ATOM     74  C   UNL A   1      43.237  21.458  25.369  1.00  0.00     0.020 A 
ATOM     75  C   UNL A   1      42.863  20.628  26.425  1.00  0.00     0.054 A 
BRANCH  75  76
ATOM     76  S   UNL A   1      42.335  18.922  26.105  1.00  0.00     0.124 S 
ATOM     77  O   UNL A   1      40.925  19.098  25.774  1.00  0.00    -0.237 OA
ATOM     78  O   UNL A   1      43.203  18.525  24.999  1.00  0.00    -0.237 OA
ATOM     79  O   UNL A   1      42.601  18.240  27.371  1.00  0.00    -0.744 OA
ENDBRANCH  75  76
ENDBRANCH  47  70
BRANCH  59  80
ATOM     80  C   UNL A   1      49.680  26.692  26.325  1.00  0.00    -0.014 A 
ATOM     81  C   UNL A   1      50.548  26.032  27.211  1.00  0.00     0.010 A 
ATOM     82  C   UNL A   1      50.087  26.900  24.994  1.00  0.00     0.010 A 
ATOM     83  C   UNL A   1      51.811  25.615  26.784  1.00  0.00     0.020 A 
ATOM     84  C   UNL A   1      51.337  26.457  24.554  1.00  0.00     0.020 A 
ATOM     85  C   UNL A   1      52.196  25.827  25.456  1.00  0.00     0.054 A 
BRANCH  85  86
ATOM     86  S   UNL A   1      53.821  25.231  24.914  1.00  0.00     0.124 S 
ATOM     87  O   UNL A   1      53.610  23.786  24.851  1.00  0.00    -0.237 OA
ATOM     88  O   UNL A   1      53.992  25.897  23.625  1.00  0.00    -0.237 OA
ATOM     89  O   UNL A   1      54.726  25.682  25.968  1.00  0.00    -0.744 OA
ENDBRANCH  85  86
ENDBRANCH  59  80
ENDBRANCH  33  34
ENDBRANCH  25  28
ENDBRANCH  23  24
ENDBRANCH  22  23
ENDBRANCH  21  22
ENDBRANCH   1  21
TORSDOF 19
ENDMDL
