MODEL 1
REMARK VINA RESULT:     -11.5      0.000      0.000
REMARK SMILES CS(=O)(=O)c1ccc(N2N=C(C(=O)NCCCCCCNC(=O)c3ccc(-c4c5nc(c(-c6ccc(S(=O)(=O)[O-])cc6)c6ccc([nH]6)c(-c6ccc(S(=O)(=O)[O-])cc6)c6nc(c(-c7ccc(S(=O)(=O)[O-])cc7)c7ccc4[nH]7)C=C6)C=C5)cc3)C[C@H]2c2cccs2)cc1
REMARK SMILES IDX 18 1 17 2 16 3 15 4 14 5 12 6 13 7 11 9 9 10 10 11 85 12
REMARK SMILES IDX 84 13 8 14 5 15 6 16 92 17 7 18 91 19 2 20 1 21 3 22 4 23
REMARK SMILES IDX 86 24 87 25 90 26 88 27 89 28 19 29 20 30 21 31 22 32 23 34
REMARK SMILES IDX 24 35 25 36 83 37 26 38 82 39 27 40 28 41 29 42 76 43 30 44
REMARK SMILES IDX 81 45 75 46 77 47 31 48 80 49 74 50 73 51 32 53 62 54 43 55
REMARK SMILES IDX 61 56 44 57 47 58 60 59 78 60 45 61 46 62 59 64 79 65 48 66
REMARK SMILES IDX 33 67 34 68 42 69 35 70 41 71 36 72 37 73 38 74 39 75 40 76
REMARK SMILES IDX 63 77 64 78 72 79 65 80 71 81 66 82 67 83 68 84 69 85 70 86
REMARK SMILES IDX 49 87 50 88 58 89 51 90 57 91 52 92 53 93 54 94 55 95 56 96
REMARK H PARENT 14 8 21 33 77 52 47 63
REMARK Flexibility Score: inf
ROOT
ATOM      1  C   UNL A   1      31.499  28.641  26.038  1.00  0.00     0.002 C 
ENDROOT
BRANCH   1   2
ATOM      2  C   UNL A   1      30.887  28.698  24.634  1.00  0.00     0.002 C 
BRANCH   2   3
ATOM      3  C   UNL A   1      30.993  27.403  23.831  1.00  0.00     0.021 C 
BRANCH   3   4
ATOM      4  C   UNL A   1      29.763  26.510  23.913  1.00  0.00     0.116 C 
BRANCH   4   5
ATOM      5  N   UNL A   1      29.628  25.909  25.225  1.00  0.00    -0.351 N 
ATOM      6  C   UNL A   1      30.157  24.794  25.824  1.00  0.00     0.267 C 
ATOM      7  O   UNL A   1      29.766  24.517  26.955  1.00  0.00    -0.268 OA
ATOM      8  H   UNL A   1      29.026  26.415  25.818  1.00  0.00     0.163 HD
BRANCH   6   9
ATOM      9  C   UNL A   1      31.225  23.915  25.187  1.00  0.00     0.128 C 
ATOM     10  N   UNL A   1      32.356  22.158  24.789  1.00  0.00    -0.256 N 
ATOM     11  N   UNL A   1      31.203  22.623  25.331  1.00  0.00    -0.171 NA
ATOM     12  C   UNL A   1      33.190  23.182  24.160  1.00  0.00     0.154 C 
ATOM     13  C   UNL A   1      32.352  24.444  24.365  1.00  0.00     0.097 C 
BRANCH  10  14
ATOM     14  C   UNL A   1      32.584  20.799  24.651  1.00  0.00     0.060 A 
ATOM     15  C   UNL A   1      33.180  18.073  24.393  1.00  0.00     0.067 A 
ATOM     16  C   UNL A   1      32.723  18.787  23.284  1.00  0.00     0.022 A 
ATOM     17  C   UNL A   1      33.292  18.688  25.639  1.00  0.00     0.022 A 
ATOM     18  C   UNL A   1      32.421  20.147  23.421  1.00  0.00     0.029 A 
ATOM     19  C   UNL A   1      32.992  20.042  25.757  1.00  0.00     0.029 A 
BRANCH  15  20
ATOM     20  S   UNL A   1      33.599  16.355  24.255  1.00  0.00     0.175 S 
ATOM     21  C   UNL A   1      35.088  16.229  25.212  1.00  0.00     0.163 C 
ATOM     22  O   UNL A   1      33.934  16.083  22.869  1.00  0.00    -0.224 OA
ATOM     23  O   UNL A   1      32.565  15.597  24.932  1.00  0.00    -0.224 OA
ENDBRANCH  15  20
ENDBRANCH  10  14
BRANCH  12  24
ATOM     24  C   UNL A   1      34.631  23.294  24.635  1.00  0.00     0.030 A 
ATOM     25  C   UNL A   1      35.086  24.033  25.715  1.00  0.00     0.017 A 
ATOM     26  S   UNL A   1      35.947  22.527  23.838  1.00  0.00    -0.147 S 
ATOM     27  C   UNL A   1      36.496  23.945  25.894  1.00  0.00     0.012 A 
ATOM     28  C   UNL A   1      37.079  23.111  24.971  1.00  0.00     0.065 A 
ENDBRANCH  12  24
ENDBRANCH   6   9
ENDBRANCH   4   5
ENDBRANCH   3   4
ENDBRANCH   2   3
ENDBRANCH   1   2
BRANCH   1  29
ATOM     29  C   UNL A   1      32.655  27.652  26.211  1.00  0.00     0.021 C 
BRANCH  29  30
ATOM     30  C   UNL A   1      33.890  28.224  26.899  1.00  0.00     0.116 C 
BRANCH  30  31
ATOM     31  N   UNL A   1      33.689  29.601  27.312  1.00  0.00    -0.352 N 
ATOM     32  C   UNL A   1      34.516  30.426  28.030  1.00  0.00     0.251 C 
ATOM     33  H   UNL A   1      32.833  30.001  27.035  1.00  0.00     0.163 HD
ATOM     34  O   UNL A   1      34.078  31.486  28.468  1.00  0.00    -0.269 OA
BRANCH  32  35
ATOM     35  C   UNL A   1      35.922  30.041  28.281  1.00  0.00     0.039 A 
ATOM     36  C   UNL A   1      36.259  29.515  29.530  1.00  0.00     0.014 A 
ATOM     37  C   UNL A   1      36.913  30.236  27.314  1.00  0.00     0.014 A 
ATOM     38  C   UNL A   1      37.583  29.164  29.799  1.00  0.00     0.010 A 
ATOM     39  C   UNL A   1      38.216  29.806  27.554  1.00  0.00     0.010 A 
ATOM     40  C   UNL A   1      38.570  29.291  28.809  1.00  0.00    -0.014 A 
BRANCH  40  41
ATOM     41  C   UNL A   1      39.982  28.923  29.092  1.00  0.00     0.031 A 
ATOM     42  C   UNL A   1      40.902  29.911  29.762  1.00  0.00     0.074 A 
ATOM     43  C   UNL A   1      40.440  27.709  28.732  1.00  0.00     0.049 A 
ATOM     44  N   UNL A   1      42.158  29.767  30.103  1.00  0.00    -0.248 NA
ATOM     45  C   UNL A   1      40.350  31.241  30.068  1.00  0.00     0.031 C 
ATOM     46  C   UNL A   1      39.659  26.679  28.041  1.00  0.00     0.029 A 
ATOM     47  N   UNL A   1      41.672  27.129  28.904  1.00  0.00    -0.354 N 
ATOM     48  C   UNL A   1      42.545  30.985  30.651  1.00  0.00     0.074 A 
ATOM     49  C   UNL A   1      41.412  31.876  30.540  1.00  0.00     0.031 C 
ATOM     50  C   UNL A   1      40.417  25.582  27.886  1.00  0.00     0.029 A 
ATOM     51  C   UNL A   1      41.747  25.841  28.429  1.00  0.00     0.049 A 
ATOM     52  H   UNL A   1      42.431  27.592  29.327  1.00  0.00     0.167 HD
ATOM     53  C   UNL A   1      43.726  31.325  31.219  1.00  0.00     0.031 A 
ATOM     54  C   UNL A   1      42.770  24.964  28.434  1.00  0.00     0.031 A 
ATOM     55  C   UNL A   1      44.850  30.432  31.335  1.00  0.00     0.049 A 
ATOM     56  C   UNL A   1      44.074  25.367  29.068  1.00  0.00     0.074 A 
ATOM     57  C   UNL A   1      46.076  30.664  31.932  1.00  0.00     0.029 A 
ATOM     58  N   UNL A   1      44.884  29.137  30.842  1.00  0.00    -0.354 N 
ATOM     59  N   UNL A   1      44.401  26.505  29.633  1.00  0.00    -0.248 NA
ATOM     60  C   UNL A   1      45.140  24.357  29.082  1.00  0.00     0.031 C 
ATOM     61  C   UNL A   1      46.872  29.530  31.751  1.00  0.00     0.029 A 
ATOM     62  C   UNL A   1      46.118  28.563  31.105  1.00  0.00     0.049 A 
ATOM     63  H   UNL A   1      44.142  28.690  30.375  1.00  0.00     0.167 HD
ATOM     64  C   UNL A   1      45.698  26.333  30.106  1.00  0.00     0.074 A 
ATOM     65  C   UNL A   1      46.086  24.977  29.772  1.00  0.00     0.031 C 
ATOM     66  C   UNL A   1      46.493  27.215  30.763  1.00  0.00     0.031 A 
BRANCH  53  67
ATOM     67  C   UNL A   1      43.864  32.728  31.755  1.00  0.00    -0.014 A 
ATOM     68  C   UNL A   1      43.578  33.028  33.100  1.00  0.00     0.010 A 
ATOM     69  C   UNL A   1      44.324  33.756  30.912  1.00  0.00     0.010 A 
ATOM     70  C   UNL A   1      43.704  34.335  33.578  1.00  0.00     0.020 A 
ATOM     71  C   UNL A   1      44.484  35.059  31.395  1.00  0.00     0.020 A 
ATOM     72  C   UNL A   1      44.156  35.343  32.722  1.00  0.00     0.054 A 
BRANCH  72  73
ATOM     73  S   UNL A   1      44.333  37.025  33.377  1.00  0.00     0.124 S 
ATOM     74  O   UNL A   1      42.955  37.356  33.730  1.00  0.00    -0.237 OA
ATOM     75  O   UNL A   1      45.242  36.834  34.504  1.00  0.00    -0.237 OA
ATOM     76  O   UNL A   1      44.886  37.778  32.255  1.00  0.00    -0.744 OA
ENDBRANCH  72  73
ENDBRANCH  53  67
BRANCH  54  77
ATOM     77  C   UNL A   1      42.592  23.609  27.842  1.00  0.00    -0.014 A 
ATOM     78  C   UNL A   1      43.008  23.339  26.525  1.00  0.00     0.010 A 
ATOM     79  C   UNL A   1      42.007  22.576  28.596  1.00  0.00     0.010 A 
ATOM     80  C   UNL A   1      42.817  22.072  25.966  1.00  0.00     0.020 A 
ATOM     81  C   UNL A   1      41.844  21.299  28.053  1.00  0.00     0.020 A 
ATOM     82  C   UNL A   1      42.239  21.059  26.735  1.00  0.00     0.054 A 
BRANCH  82  83
ATOM     83  S   UNL A   1      42.039  19.410  26.004  1.00  0.00     0.124 S 
ATOM     84  O   UNL A   1      42.554  18.545  27.060  1.00  0.00    -0.237 OA
ATOM     85  O   UNL A   1      40.598  19.342  25.774  1.00  0.00    -0.237 OA
ATOM     86  O   UNL A   1      42.853  19.474  24.792  1.00  0.00    -0.744 OA
ENDBRANCH  82  83
ENDBRANCH  54  77
BRANCH  66  87
ATOM     87  C   UNL A   1      47.845  26.721  31.212  1.00  0.00    -0.014 A 
ATOM     88  C   UNL A   1      49.002  26.930  30.440  1.00  0.00     0.010 A 
ATOM     89  C   UNL A   1      47.957  26.051  32.445  1.00  0.00     0.010 A 
ATOM     90  C   UNL A   1      50.234  26.425  30.865  1.00  0.00     0.020 A 
ATOM     91  C   UNL A   1      49.192  25.578  32.889  1.00  0.00     0.020 A 
ATOM     92  C   UNL A   1      50.320  25.746  32.085  1.00  0.00     0.054 A 
BRANCH  92  93
ATOM     93  S   UNL A   1      51.930  25.102  32.614  1.00  0.00     0.124 S 
ATOM     94  O   UNL A   1      51.644  23.682  32.796  1.00  0.00    -0.237 OA
ATOM     95  O   UNL A   1      52.794  25.430  31.483  1.00  0.00    -0.237 OA
ATOM     96  O   UNL A   1      52.213  25.842  33.842  1.00  0.00    -0.744 OA
ENDBRANCH  92  93
ENDBRANCH  66  87
ENDBRANCH  40  41
ENDBRANCH  32  35
ENDBRANCH  30  31
ENDBRANCH  29  30
ENDBRANCH   1  29
TORSDOF 19
ENDMDL
MODEL 2
REMARK VINA RESULT:     -11.1      2.489      3.047
REMARK SMILES CS(=O)(=O)c1ccc(N2N=C(C(=O)NCCCCCCNC(=O)c3ccc(-c4c5nc(c(-c6ccc(S(=O)(=O)[O-])cc6)c6ccc([nH]6)c(-c6ccc(S(=O)(=O)[O-])cc6)c6nc(c(-c7ccc(S(=O)(=O)[O-])cc7)c7ccc4[nH]7)C=C6)C=C5)cc3)C[C@H]2c2cccs2)cc1
REMARK SMILES IDX 18 1 17 2 16 3 15 4 14 5 12 6 13 7 11 9 9 10 10 11 85 12
REMARK SMILES IDX 84 13 8 14 5 15 6 16 92 17 7 18 91 19 2 20 1 21 3 22 4 23
REMARK SMILES IDX 86 24 87 25 90 26 88 27 89 28 19 29 20 30 21 31 22 32 23 34
REMARK SMILES IDX 24 35 25 36 83 37 26 38 82 39 27 40 28 41 29 42 76 43 30 44
REMARK SMILES IDX 81 45 75 46 77 47 31 48 80 49 74 50 73 51 32 53 62 54 43 55
REMARK SMILES IDX 61 56 44 57 47 58 60 59 78 60 45 61 46 62 59 64 79 65 48 66
REMARK SMILES IDX 33 67 34 68 42 69 35 70 41 71 36 72 37 73 38 74 39 75 40 76
REMARK SMILES IDX 63 77 64 78 72 79 65 80 71 81 66 82 67 83 68 84 69 85 70 86
REMARK SMILES IDX 49 87 50 88 58 89 51 90 57 91 52 92 53 93 54 94 55 95 56 96
REMARK H PARENT 14 8 21 33 77 52 47 63
REMARK Flexibility Score: inf
ROOT
ATOM      1  C   UNL A   1      32.158  27.654  25.396  1.00  0.00     0.002 C 
ENDROOT
BRANCH   1   2
ATOM      2  C   UNL A   1      30.827  28.108  24.788  1.00  0.00     0.002 C 
BRANCH   2   3
ATOM      3  C   UNL A   1      30.402  27.356  23.529  1.00  0.00     0.021 C 
BRANCH   3   4
ATOM      4  C   UNL A   1      29.416  26.222  23.778  1.00  0.00     0.116 C 
BRANCH   4   5
ATOM      5  N   UNL A   1      29.489  25.743  25.143  1.00  0.00    -0.351 N 
ATOM      6  C   UNL A   1      30.147  24.707  25.757  1.00  0.00     0.267 C 
ATOM      7  O   UNL A   1      29.927  24.524  26.952  1.00  0.00    -0.268 OA
ATOM      8  H   UNL A   1      28.950  26.280  25.767  1.00  0.00     0.163 HD
BRANCH   6   9
ATOM      9  C   UNL A   1      31.160  23.811  25.058  1.00  0.00     0.128 C 
ATOM     10  N   UNL A   1      32.282  22.054  24.637  1.00  0.00    -0.256 N 
ATOM     11  N   UNL A   1      31.185  22.530  25.276  1.00  0.00    -0.171 NA
ATOM     12  C   UNL A   1      33.018  23.053  23.862  1.00  0.00     0.154 C 
ATOM     13  C   UNL A   1      32.178  24.310  24.087  1.00  0.00     0.097 C 
BRANCH  10  14
ATOM     14  C   UNL A   1      32.526  20.693  24.552  1.00  0.00     0.060 A 
ATOM     15  C   UNL A   1      33.155  17.966  24.401  1.00  0.00     0.067 A 
ATOM     16  C   UNL A   1      32.685  18.630  23.265  1.00  0.00     0.022 A 
ATOM     17  C   UNL A   1      33.263  18.632  25.620  1.00  0.00     0.022 A 
ATOM     18  C   UNL A   1      32.368  19.991  23.349  1.00  0.00     0.029 A 
ATOM     19  C   UNL A   1      32.947  19.986  25.686  1.00  0.00     0.029 A 
BRANCH  15  20
ATOM     20  S   UNL A   1      33.594  16.250  24.329  1.00  0.00     0.175 S 
ATOM     21  C   UNL A   1      35.091  16.180  25.279  1.00  0.00     0.163 C 
ATOM     22  O   UNL A   1      33.922  15.926  22.952  1.00  0.00    -0.224 OA
ATOM     23  O   UNL A   1      32.574  15.507  25.043  1.00  0.00    -0.224 OA
ENDBRANCH  15  20
ENDBRANCH  10  14
BRANCH  12  24
ATOM     24  C   UNL A   1      34.499  23.218  24.168  1.00  0.00     0.030 A 
ATOM     25  C   UNL A   1      35.551  22.960  23.302  1.00  0.00     0.017 A 
ATOM     26  S   UNL A   1      35.095  23.720  25.700  1.00  0.00    -0.147 S 
ATOM     27  C   UNL A   1      36.826  23.200  23.891  1.00  0.00     0.012 A 
ATOM     28  C   UNL A   1      36.716  23.671  25.177  1.00  0.00     0.065 A 
ENDBRANCH  12  24
ENDBRANCH   6   9
ENDBRANCH   4   5
ENDBRANCH   3   4
ENDBRANCH   2   3
ENDBRANCH   1   2
BRANCH   1  29
ATOM     29  C   UNL A   1      33.397  28.410  24.907  1.00  0.00     0.021 C 
BRANCH  29  30
ATOM     30  C   UNL A   1      34.319  28.911  26.013  1.00  0.00     0.116 C 
BRANCH  30  31
ATOM     31  N   UNL A   1      33.887  30.195  26.536  1.00  0.00    -0.352 N 
ATOM     32  C   UNL A   1      34.372  30.910  27.600  1.00  0.00     0.251 C 
ATOM     33  H   UNL A   1      33.136  30.612  26.056  1.00  0.00     0.163 HD
ATOM     34  O   UNL A   1      33.734  31.870  28.022  1.00  0.00    -0.269 OA
BRANCH  32  35
ATOM     35  C   UNL A   1      35.650  30.527  28.239  1.00  0.00     0.039 A 
ATOM     36  C   UNL A   1      35.611  29.745  29.396  1.00  0.00     0.014 A 
ATOM     37  C   UNL A   1      36.878  30.967  27.734  1.00  0.00     0.014 A 
ATOM     38  C   UNL A   1      36.802  29.388  30.030  1.00  0.00     0.010 A 
ATOM     39  C   UNL A   1      38.067  30.539  28.319  1.00  0.00     0.010 A 
ATOM     40  C   UNL A   1      38.041  29.767  29.489  1.00  0.00    -0.014 A 
BRANCH  40  41
ATOM     41  C   UNL A   1      39.311  29.394  30.163  1.00  0.00     0.031 A 
ATOM     42  C   UNL A   1      39.739  30.105  31.421  1.00  0.00     0.074 A 
ATOM     43  C   UNL A   1      40.088  28.428  29.634  1.00  0.00     0.049 A 
ATOM     44  N   UNL A   1      40.804  29.908  32.157  1.00  0.00    -0.248 NA
ATOM     45  C   UNL A   1      38.873  31.193  31.904  1.00  0.00     0.031 C 
ATOM     46  C   UNL A   1      39.804  27.693  28.399  1.00  0.00     0.029 A 
ATOM     47  N   UNL A   1      41.271  27.890  30.074  1.00  0.00    -0.354 N 
ATOM     48  C   UNL A   1      40.739  30.850  33.178  1.00  0.00     0.074 A 
ATOM     49  C   UNL A   1      39.566  31.659  32.932  1.00  0.00     0.031 C 
ATOM     50  C   UNL A   1      40.763  26.774  28.203  1.00  0.00     0.029 A 
ATOM     51  C   UNL A   1      41.750  26.880  29.274  1.00  0.00     0.049 A 
ATOM     52  H   UNL A   1      41.735  28.200  30.885  1.00  0.00     0.167 HD
ATOM     53  C   UNL A   1      41.565  31.013  34.239  1.00  0.00     0.031 A 
ATOM     54  C   UNL A   1      42.855  26.118  29.390  1.00  0.00     0.031 A 
ATOM     55  C   UNL A   1      42.728  30.201  34.485  1.00  0.00     0.049 A 
ATOM     56  C   UNL A   1      43.759  26.321  30.575  1.00  0.00     0.074 A 
ATOM     57  C   UNL A   1      43.606  30.255  35.553  1.00  0.00     0.029 A 
ATOM     58  N   UNL A   1      43.176  29.188  33.651  1.00  0.00    -0.354 N 
ATOM     59  N   UNL A   1      43.648  27.179  31.562  1.00  0.00    -0.248 NA
ATOM     60  C   UNL A   1      44.927  25.436  30.673  1.00  0.00     0.031 C 
ATOM     61  C   UNL A   1      44.616  29.314  35.337  1.00  0.00     0.029 A 
ATOM     62  C   UNL A   1      44.329  28.622  34.171  1.00  0.00     0.049 A 
ATOM     63  H   UNL A   1      42.740  28.911  32.813  1.00  0.00     0.167 HD
ATOM     64  C   UNL A   1      44.711  26.910  32.418  1.00  0.00     0.074 A 
ATOM     65  C   UNL A   1      45.441  25.800  31.840  1.00  0.00     0.031 C 
ATOM     66  C   UNL A   1      45.048  27.521  33.582  1.00  0.00     0.031 A 
BRANCH  53  67
ATOM     67  C   UNL A   1      41.240  32.119  35.213  1.00  0.00    -0.014 A 
ATOM     68  C   UNL A   1      40.343  31.915  36.277  1.00  0.00     0.010 A 
ATOM     69  C   UNL A   1      41.871  33.370  35.084  1.00  0.00     0.010 A 
ATOM     70  C   UNL A   1      40.048  32.952  37.166  1.00  0.00     0.020 A 
ATOM     71  C   UNL A   1      41.604  34.400  35.991  1.00  0.00     0.020 A 
ATOM     72  C   UNL A   1      40.680  34.189  37.017  1.00  0.00     0.054 A 
BRANCH  72  73
ATOM     73  S   UNL A   1      40.296  35.509  38.200  1.00  0.00     0.124 S 
ATOM     74  O   UNL A   1      41.513  35.554  39.006  1.00  0.00    -0.237 OA
ATOM     75  O   UNL A   1      40.076  36.662  37.330  1.00  0.00    -0.237 OA
ATOM     76  O   UNL A   1      39.107  35.019  38.892  1.00  0.00    -0.744 OA
ENDBRANCH  72  73
ENDBRANCH  53  67
BRANCH  54  77
ATOM     77  C   UNL A   1      43.153  25.076  28.368  1.00  0.00    -0.014 A 
ATOM     78  C   UNL A   1      42.671  23.764  28.519  1.00  0.00     0.010 A 
ATOM     79  C   UNL A   1      43.920  25.394  27.232  1.00  0.00     0.010 A 
ATOM     80  C   UNL A   1      42.973  22.783  27.569  1.00  0.00     0.020 A 
ATOM     81  C   UNL A   1      44.197  24.426  26.264  1.00  0.00     0.020 A 
ATOM     82  C   UNL A   1      43.731  23.121  26.446  1.00  0.00     0.054 A 
BRANCH  82  83
ATOM     83  S   UNL A   1      44.076  21.844  25.204  1.00  0.00     0.124 S 
ATOM     84  O   UNL A   1      43.049  20.851  25.496  1.00  0.00    -0.237 OA
ATOM     85  O   UNL A   1      43.914  22.576  23.949  1.00  0.00    -0.237 OA
ATOM     86  O   UNL A   1      45.447  21.437  25.506  1.00  0.00    -0.744 OA
ENDBRANCH  82  83
ENDBRANCH  54  77
BRANCH  66  87
ATOM     87  C   UNL A   1      46.230  26.966  34.335  1.00  0.00    -0.014 A 
ATOM     88  C   UNL A   1      46.085  25.935  35.281  1.00  0.00     0.010 A 
ATOM     89  C   UNL A   1      47.515  27.477  34.073  1.00  0.00     0.010 A 
ATOM     90  C   UNL A   1      47.195  25.469  35.992  1.00  0.00     0.020 A 
ATOM     91  C   UNL A   1      48.630  26.989  34.755  1.00  0.00     0.020 A 
ATOM     92  C   UNL A   1      48.460  26.004  35.729  1.00  0.00     0.054 A 
BRANCH  92  93
ATOM     93  S   UNL A   1      49.884  25.382  36.664  1.00  0.00     0.124 S 
ATOM     94  O   UNL A   1      49.249  24.853  37.866  1.00  0.00    -0.237 OA
ATOM     95  O   UNL A   1      50.449  24.385  35.759  1.00  0.00    -0.237 OA
ATOM     96  O   UNL A   1      50.710  26.570  36.867  1.00  0.00    -0.744 OA
ENDBRANCH  92  93
ENDBRANCH  66  87
ENDBRANCH  40  41
ENDBRANCH  32  35
ENDBRANCH  30  31
ENDBRANCH  29  30
ENDBRANCH   1  29
TORSDOF 19
ENDMDL
MODEL 3
REMARK VINA RESULT:     -10.8      2.821      3.562
REMARK SMILES CS(=O)(=O)c1ccc(N2N=C(C(=O)NCCCCCCNC(=O)c3ccc(-c4c5nc(c(-c6ccc(S(=O)(=O)[O-])cc6)c6ccc([nH]6)c(-c6ccc(S(=O)(=O)[O-])cc6)c6nc(c(-c7ccc(S(=O)(=O)[O-])cc7)c7ccc4[nH]7)C=C6)C=C5)cc3)C[C@H]2c2cccs2)cc1
REMARK SMILES IDX 18 1 17 2 16 3 15 4 14 5 12 6 13 7 11 9 9 10 10 11 85 12
REMARK SMILES IDX 84 13 8 14 5 15 6 16 92 17 7 18 91 19 2 20 1 21 3 22 4 23
REMARK SMILES IDX 86 24 87 25 90 26 88 27 89 28 19 29 20 30 21 31 22 32 23 34
REMARK SMILES IDX 24 35 25 36 83 37 26 38 82 39 27 40 28 41 29 42 76 43 30 44
REMARK SMILES IDX 81 45 75 46 77 47 31 48 80 49 74 50 73 51 32 53 62 54 43 55
REMARK SMILES IDX 61 56 44 57 47 58 60 59 78 60 45 61 46 62 59 64 79 65 48 66
REMARK SMILES IDX 33 67 34 68 42 69 35 70 41 71 36 72 37 73 38 74 39 75 40 76
REMARK SMILES IDX 63 77 64 78 72 79 65 80 71 81 66 82 67 83 68 84 69 85 70 86
REMARK SMILES IDX 49 87 50 88 58 89 51 90 57 91 52 92 53 93 54 94 55 95 56 96
REMARK H PARENT 14 8 21 33 77 52 47 63
REMARK Flexibility Score: inf
ROOT
ATOM      1  C   UNL A   1      31.859  29.345  25.376  1.00  0.00     0.002 C 
ENDROOT
BRANCH   1   2
ATOM      2  C   UNL A   1      30.907  28.924  24.252  1.00  0.00     0.002 C 
BRANCH   2   3
ATOM      3  C   UNL A   1      31.590  28.490  22.956  1.00  0.00     0.021 C 
BRANCH   3   4
ATOM      4  C   UNL A   1      30.876  27.368  22.215  1.00  0.00     0.116 C 
BRANCH   4   5
ATOM      5  N   UNL A   1      31.748  26.728  21.251  1.00  0.00    -0.351 N 
ATOM      6  C   UNL A   1      32.591  25.648  21.295  1.00  0.00     0.267 C 
ATOM      7  O   UNL A   1      33.265  25.411  20.296  1.00  0.00    -0.268 OA
ATOM      8  H   UNL A   1      31.730  27.166  20.369  1.00  0.00     0.163 HD
BRANCH   6   9
ATOM      9  C   UNL A   1      32.702  24.706  22.487  1.00  0.00     0.128 C 
ATOM     10  N   UNL A   1      32.739  22.866  23.553  1.00  0.00    -0.256 N 
ATOM     11  N   UNL A   1      32.824  23.423  22.319  1.00  0.00    -0.171 NA
ATOM     12  C   UNL A   1      32.631  23.827  24.650  1.00  0.00     0.154 C 
ATOM     13  C   UNL A   1      32.684  25.162  23.908  1.00  0.00     0.097 C 
BRANCH  10  14
ATOM     14  C   UNL A   1      32.973  21.514  23.744  1.00  0.00     0.060 A 
ATOM     15  C   UNL A   1      33.568  18.794  24.061  1.00  0.00     0.067 A 
ATOM     16  C   UNL A   1      32.494  19.176  23.254  1.00  0.00     0.022 A 
ATOM     17  C   UNL A   1      34.313  19.747  24.752  1.00  0.00     0.022 A 
ATOM     18  C   UNL A   1      32.199  20.536  23.105  1.00  0.00     0.029 A 
ATOM     19  C   UNL A   1      34.009  21.096  24.589  1.00  0.00     0.029 A 
BRANCH  15  20
ATOM     20  S   UNL A   1      33.991  17.083  24.254  1.00  0.00     0.175 S 
ATOM     21  C   UNL A   1      32.787  16.503  25.422  1.00  0.00     0.163 C 
ATOM     22  O   UNL A   1      35.297  17.010  24.885  1.00  0.00    -0.224 OA
ATOM     23  O   UNL A   1      33.741  16.424  22.987  1.00  0.00    -0.224 OA
ENDBRANCH  15  20
ENDBRANCH  10  14
BRANCH  12  24
ATOM     24  C   UNL A   1      31.448  23.674  25.595  1.00  0.00     0.030 A 
ATOM     25  C   UNL A   1      30.493  24.637  25.880  1.00  0.00     0.017 A 
ATOM     26  S   UNL A   1      31.151  22.248  26.508  1.00  0.00    -0.147 S 
ATOM     27  C   UNL A   1      29.518  24.192  26.818  1.00  0.00     0.012 A 
ATOM     28  C   UNL A   1      29.729  22.889  27.198  1.00  0.00     0.065 A 
ENDBRANCH  12  24
ENDBRANCH   6   9
ENDBRANCH   4   5
ENDBRANCH   3   4
ENDBRANCH   2   3
ENDBRANCH   1   2
BRANCH   1  29
ATOM     29  C   UNL A   1      33.076  28.437  25.583  1.00  0.00     0.021 C 
BRANCH  29  30
ATOM     30  C   UNL A   1      34.206  29.058  26.396  1.00  0.00     0.116 C 
BRANCH  30  31
ATOM     31  N   UNL A   1      33.902  30.420  26.794  1.00  0.00    -0.352 N 
ATOM     32  C   UNL A   1      34.489  31.200  27.756  1.00  0.00     0.251 C 
ATOM     33  H   UNL A   1      33.165  30.846  26.300  1.00  0.00     0.163 HD
ATOM     34  O   UNL A   1      33.949  32.248  28.096  1.00  0.00    -0.269 OA
BRANCH  32  35
ATOM     35  C   UNL A   1      35.760  30.780  28.386  1.00  0.00     0.039 A 
ATOM     36  C   UNL A   1      35.742  29.702  29.275  1.00  0.00     0.014 A 
ATOM     37  C   UNL A   1      36.955  31.464  28.142  1.00  0.00     0.014 A 
ATOM     38  C   UNL A   1      36.924  29.300  29.899  1.00  0.00     0.010 A 
ATOM     39  C   UNL A   1      38.147  31.008  28.699  1.00  0.00     0.010 A 
ATOM     40  C   UNL A   1      38.140  29.938  29.605  1.00  0.00    -0.014 A 
BRANCH  40  41
ATOM     41  C   UNL A   1      39.400  29.517  30.270  1.00  0.00     0.031 A 
ATOM     42  C   UNL A   1      39.852  30.197  31.537  1.00  0.00     0.074 A 
ATOM     43  C   UNL A   1      40.146  28.536  29.725  1.00  0.00     0.049 A 
ATOM     44  N   UNL A   1      40.912  29.957  32.267  1.00  0.00    -0.248 NA
ATOM     45  C   UNL A   1      39.020  31.304  32.037  1.00  0.00     0.031 C 
ATOM     46  C   UNL A   1      39.837  27.828  28.480  1.00  0.00     0.029 A 
ATOM     47  N   UNL A   1      41.314  27.957  30.154  1.00  0.00    -0.354 N 
ATOM     48  C   UNL A   1      40.878  30.886  33.302  1.00  0.00     0.074 A 
ATOM     49  C   UNL A   1      39.729  31.733  33.070  1.00  0.00     0.031 C 
ATOM     50  C   UNL A   1      40.767  26.883  28.268  1.00  0.00     0.029 A 
ATOM     51  C   UNL A   1      41.759  26.944  29.338  1.00  0.00     0.049 A 
ATOM     52  H   UNL A   1      41.788  28.240  30.969  1.00  0.00     0.167 HD
ATOM     53  C   UNL A   1      41.711  31.009  34.362  1.00  0.00     0.031 A 
ATOM     54  C   UNL A   1      42.842  26.148  29.440  1.00  0.00     0.031 A 
ATOM     55  C   UNL A   1      42.849  30.159  34.594  1.00  0.00     0.049 A 
ATOM     56  C   UNL A   1      43.754  26.306  30.626  1.00  0.00     0.074 A 
ATOM     57  C   UNL A   1      43.730  30.171  35.660  1.00  0.00     0.029 A 
ATOM     58  N   UNL A   1      43.264  29.145  33.744  1.00  0.00    -0.354 N 
ATOM     59  N   UNL A   1      43.671  27.153  31.625  1.00  0.00    -0.248 NA
ATOM     60  C   UNL A   1      44.895  25.385  30.708  1.00  0.00     0.031 C 
ATOM     61  C   UNL A   1      44.712  29.203  35.428  1.00  0.00     0.029 A 
ATOM     62  C   UNL A   1      44.401  28.537  34.253  1.00  0.00     0.049 A 
ATOM     63  H   UNL A   1      42.818  28.893  32.904  1.00  0.00     0.167 HD
ATOM     64  C   UNL A   1      44.727  26.840  32.475  1.00  0.00     0.074 A 
ATOM     65  C   UNL A   1      45.422  25.717  31.878  1.00  0.00     0.031 C 
ATOM     66  C   UNL A   1      45.086  27.424  33.646  1.00  0.00     0.031 A 
BRANCH  53  67
ATOM     67  C   UNL A   1      41.422  32.110  35.353  1.00  0.00    -0.014 A 
ATOM     68  C   UNL A   1      40.582  31.893  36.461  1.00  0.00     0.010 A 
ATOM     69  C   UNL A   1      42.029  33.369  35.195  1.00  0.00     0.010 A 
ATOM     70  C   UNL A   1      40.319  32.926  37.365  1.00  0.00     0.020 A 
ATOM     71  C   UNL A   1      41.795  34.395  36.115  1.00  0.00     0.020 A 
ATOM     72  C   UNL A   1      40.927  34.172  37.186  1.00  0.00     0.054 A 
BRANCH  72  73
ATOM     73  S   UNL A   1      40.586  35.486  38.388  1.00  0.00     0.124 S 
ATOM     74  O   UNL A   1      41.487  35.133  39.483  1.00  0.00    -0.237 OA
ATOM     75  O   UNL A   1      40.940  36.694  37.648  1.00  0.00    -0.237 OA
ATOM     76  O   UNL A   1      39.163  35.330  38.678  1.00  0.00    -0.744 OA
ENDBRANCH  72  73
ENDBRANCH  53  67
BRANCH  54  77
ATOM     77  C   UNL A   1      43.106  25.112  28.403  1.00  0.00    -0.014 A 
ATOM     78  C   UNL A   1      42.685  23.784  28.591  1.00  0.00     0.010 A 
ATOM     79  C   UNL A   1      43.778  25.452  27.215  1.00  0.00     0.010 A 
ATOM     80  C   UNL A   1      42.955  22.810  27.624  1.00  0.00     0.020 A 
ATOM     81  C   UNL A   1      44.023  24.490  26.233  1.00  0.00     0.020 A 
ATOM     82  C   UNL A   1      43.620  23.170  26.450  1.00  0.00     0.054 A 
BRANCH  82  83
ATOM     83  S   UNL A   1      43.924  21.900  25.190  1.00  0.00     0.124 S 
ATOM     84  O   UNL A   1      45.255  21.425  25.553  1.00  0.00    -0.237 OA
ATOM     85  O   UNL A   1      42.829  20.961  25.422  1.00  0.00    -0.237 OA
ATOM     86  O   UNL A   1      43.844  22.641  23.933  1.00  0.00    -0.744 OA
ENDBRANCH  82  83
ENDBRANCH  54  77
BRANCH  66  87
ATOM     87  C   UNL A   1      46.252  26.822  34.388  1.00  0.00    -0.014 A 
ATOM     88  C   UNL A   1      46.074  25.810  35.349  1.00  0.00     0.010 A 
ATOM     89  C   UNL A   1      47.555  27.269  34.099  1.00  0.00     0.010 A 
ATOM     90  C   UNL A   1      47.171  25.301  36.049  1.00  0.00     0.020 A 
ATOM     91  C   UNL A   1      48.657  26.738  34.771  1.00  0.00     0.020 A 
ATOM     92  C   UNL A   1      48.456  25.773  35.760  1.00  0.00     0.054 A 
BRANCH  92  93
ATOM     93  S   UNL A   1      49.864  25.096  36.680  1.00  0.00     0.124 S 
ATOM     94  O   UNL A   1      49.199  24.297  37.706  1.00  0.00    -0.237 OA
ATOM     95  O   UNL A   1      50.580  24.338  35.658  1.00  0.00    -0.237 OA
ATOM     96  O   UNL A   1      50.561  26.283  37.170  1.00  0.00    -0.744 OA
ENDBRANCH  92  93
ENDBRANCH  66  87
ENDBRANCH  40  41
ENDBRANCH  32  35
ENDBRANCH  30  31
ENDBRANCH  29  30
ENDBRANCH   1  29
TORSDOF 19
ENDMDL
