MODEL 1
REMARK VINA RESULT:      -8.5      0.000      0.000
REMARK SMILES O=C(NCCCCCCNC(=O)[C@@H]1C[C@H]1c1cccc(F)c1F)c1ccc(-c2c3nc(c(-c4ccc(S(=O)(=O)[O-])cc4)c4ccc([nH]4)c(-c4ccc(S(=O)(=O)[O-])cc4)c4nc(c(-c5ccc(S(=O)(=O)[O-])cc5)c5ccc2[nH]5)C=C4)C=C3)cc1
REMARK SMILES IDX 5 1 4 2 3 3 1 4 2 5 24 7 25 8 83 9 26 10 82 11 27 12 28 13
REMARK SMILES IDX 29 14 76 15 30 16 81 17 75 18 77 19 31 20 80 21 74 22 73 23
REMARK SMILES IDX 32 25 62 26 43 27 61 28 44 29 47 30 60 31 78 32 45 33 46 34
REMARK SMILES IDX 59 36 79 37 48 38 33 39 34 40 42 41 35 42 41 43 36 44 37 45
REMARK SMILES IDX 38 46 39 47 40 48 63 49 64 50 72 51 65 52 71 53 66 54 67 55
REMARK SMILES IDX 68 56 69 57 70 58 49 59 50 60 58 61 51 62 57 63 52 64 53 65
REMARK SMILES IDX 54 66 55 67 56 68 6 69 7 70 8 71 9 72 10 73 11 74 12 76
REMARK SMILES IDX 13 77 14 78 15 79 16 80 17 81 22 82 18 83 20 84 23 85 19 86
REMARK SMILES IDX 21 87
REMARK H PARENT 3 6 77 24 47 35 10 75
REMARK Flexibility Score: inf
ROOT
ATOM      1  C   UNL A   1      35.359  33.128  28.020  1.00  0.00     0.021 C 
ENDROOT
BRANCH   1   2
ATOM      2  C   UNL A   1      34.421  32.300  28.887  1.00  0.00     0.116 C 
BRANCH   2   3
ATOM      3  N   UNL A   1      33.812  31.209  28.143  1.00  0.00    -0.352 N 
ATOM      4  O   UNL A   1      33.775  29.380  26.826  1.00  0.00    -0.269 OA
ATOM      5  C   UNL A   1      34.404  30.096  27.600  1.00  0.00     0.251 C 
ATOM      6  H   UNL A   1      32.839  31.279  28.010  1.00  0.00     0.163 HD
BRANCH   5   7
ATOM      7  C   UNL A   1      35.806  29.777  27.942  1.00  0.00     0.039 A 
ATOM      8  C   UNL A   1      36.127  29.291  29.212  1.00  0.00     0.014 A 
ATOM      9  C   UNL A   1      36.806  29.961  26.985  1.00  0.00     0.014 A 
ATOM     10  C   UNL A   1      37.459  29.120  29.568  1.00  0.00     0.010 A 
ATOM     11  C   UNL A   1      38.137  29.696  27.316  1.00  0.00     0.010 A 
ATOM     12  C   UNL A   1      38.478  29.296  28.618  1.00  0.00    -0.014 A 
BRANCH  12  13
ATOM     13  C   UNL A   1      39.878  28.970  28.987  1.00  0.00     0.031 A 
ATOM     14  C   UNL A   1      40.752  29.964  29.700  1.00  0.00     0.074 A 
ATOM     15  C   UNL A   1      40.350  27.744  28.682  1.00  0.00     0.049 A 
ATOM     16  N   UNL A   1      41.991  29.826  30.099  1.00  0.00    -0.248 NA
ATOM     17  C   UNL A   1      40.168  31.281  30.000  1.00  0.00     0.031 C 
ATOM     18  C   UNL A   1      39.594  26.699  27.986  1.00  0.00     0.029 A 
ATOM     19  N   UNL A   1      41.567  27.163  28.927  1.00  0.00    -0.354 N 
ATOM     20  C   UNL A   1      42.343  31.040  30.679  1.00  0.00     0.074 A 
ATOM     21  C   UNL A   1      41.194  31.911  30.558  1.00  0.00     0.031 C 
ATOM     22  C   UNL A   1      40.344  25.591  27.904  1.00  0.00     0.029 A 
ATOM     23  C   UNL A   1      41.659  25.869  28.470  1.00  0.00     0.049 A 
ATOM     24  H   UNL A   1      42.304  27.626  29.387  1.00  0.00     0.167 HD
ATOM     25  C   UNL A   1      43.516  31.391  31.260  1.00  0.00     0.031 A 
ATOM     26  C   UNL A   1      42.690  25.005  28.478  1.00  0.00     0.031 A 
ATOM     27  C   UNL A   1      44.657  30.516  31.365  1.00  0.00     0.049 A 
ATOM     28  C   UNL A   1      43.992  25.437  29.087  1.00  0.00     0.074 A 
ATOM     29  C   UNL A   1      45.881  30.769  31.963  1.00  0.00     0.029 A 
ATOM     30  N   UNL A   1      44.722  29.227  30.857  1.00  0.00    -0.354 N 
ATOM     31  N   UNL A   1      44.291  26.576  29.666  1.00  0.00    -0.248 NA
ATOM     32  C   UNL A   1      45.094  24.469  29.050  1.00  0.00     0.031 C 
ATOM     33  C   UNL A   1      46.706  29.659  31.760  1.00  0.00     0.029 A 
ATOM     34  C   UNL A   1      45.974  28.684  31.100  1.00  0.00     0.049 A 
ATOM     35  H   UNL A   1      43.988  28.766  30.392  1.00  0.00     0.167 HD
ATOM     36  C   UNL A   1      45.610  26.451  30.082  1.00  0.00     0.074 A 
ATOM     37  C   UNL A   1      46.043  25.120  29.707  1.00  0.00     0.031 C 
ATOM     38  C   UNL A   1      46.392  27.358  30.719  1.00  0.00     0.031 A 
BRANCH  25  39
ATOM     39  C   UNL A   1      43.642  32.791  31.805  1.00  0.00    -0.014 A 
ATOM     40  C   UNL A   1      44.128  33.845  31.011  1.00  0.00     0.010 A 
ATOM     41  C   UNL A   1      43.205  33.070  33.115  1.00  0.00     0.010 A 
ATOM     42  C   UNL A   1      44.209  35.143  31.527  1.00  0.00     0.020 A 
ATOM     43  C   UNL A   1      43.257  34.372  33.624  1.00  0.00     0.020 A 
ATOM     44  C   UNL A   1      43.773  35.397  32.830  1.00  0.00     0.054 A 
BRANCH  44  45
ATOM     45  S   UNL A   1      43.865  37.096  33.462  1.00  0.00     0.124 S 
ATOM     46  O   UNL A   1      45.122  37.071  34.207  1.00  0.00    -0.237 OA
ATOM     47  O   UNL A   1      43.878  37.890  32.237  1.00  0.00    -0.237 OA
ATOM     48  O   UNL A   1      42.661  37.230  34.277  1.00  0.00    -0.744 OA
ENDBRANCH  44  45
ENDBRANCH  25  39
BRANCH  26  49
ATOM     49  C   UNL A   1      42.531  23.657  27.869  1.00  0.00    -0.014 A 
ATOM     50  C   UNL A   1      42.973  23.402  26.560  1.00  0.00     0.010 A 
ATOM     51  C   UNL A   1      41.953  22.610  28.613  1.00  0.00     0.010 A 
ATOM     52  C   UNL A   1      42.822  22.131  25.998  1.00  0.00     0.020 A 
ATOM     53  C   UNL A   1      41.831  21.330  28.067  1.00  0.00     0.020 A 
ATOM     54  C   UNL A   1      42.254  21.103  26.758  1.00  0.00     0.054 A 
BRANCH  54  55
ATOM     55  S   UNL A   1      42.109  19.452  26.022  1.00  0.00     0.124 S 
ATOM     56  O   UNL A   1      40.670  19.344  25.801  1.00  0.00    -0.237 OA
ATOM     57  O   UNL A   1      42.929  19.570  24.819  1.00  0.00    -0.237 OA
ATOM     58  O   UNL A   1      42.653  18.569  27.052  1.00  0.00    -0.744 OA
ENDBRANCH  54  55
ENDBRANCH  26  49
BRANCH  38  59
ATOM     59  C   UNL A   1      47.786  26.926  31.088  1.00  0.00    -0.014 A 
ATOM     60  C   UNL A   1      48.888  27.224  30.266  1.00  0.00     0.010 A 
ATOM     61  C   UNL A   1      48.000  26.249  32.303  1.00  0.00     0.010 A 
ATOM     62  C   UNL A   1      50.174  26.822  30.637  1.00  0.00     0.020 A 
ATOM     63  C   UNL A   1      49.288  25.874  32.693  1.00  0.00     0.020 A 
ATOM     64  C   UNL A   1      50.365  26.150  31.849  1.00  0.00     0.054 A 
BRANCH  64  65
ATOM     65  S   UNL A   1      52.050  25.679  32.328  1.00  0.00     0.124 S 
ATOM     66  O   UNL A   1      52.414  26.751  33.250  1.00  0.00    -0.237 OA
ATOM     67  O   UNL A   1      51.853  24.366  32.937  1.00  0.00    -0.237 OA
ATOM     68  O   UNL A   1      52.781  25.670  31.064  1.00  0.00    -0.744 OA
ENDBRANCH  64  65
ENDBRANCH  38  59
ENDBRANCH  12  13
ENDBRANCH   5   7
ENDBRANCH   2   3
ENDBRANCH   1   2
BRANCH   1  69
ATOM     69  C   UNL A   1      36.714  33.429  28.663  1.00  0.00     0.002 C 
BRANCH  69  70
ATOM     70  C   UNL A   1      36.945  32.780  30.032  1.00  0.00     0.002 C 
BRANCH  70  71
ATOM     71  C   UNL A   1      37.678  33.658  31.046  1.00  0.00     0.021 C 
BRANCH  71  72
ATOM     72  C   UNL A   1      36.888  33.918  32.322  1.00  0.00     0.116 C 
BRANCH  72  73
ATOM     73  N   UNL A   1      37.588  34.787  33.238  1.00  0.00    -0.356 N 
ATOM     74  C   UNL A   1      38.370  34.421  34.297  1.00  0.00     0.223 C 
ATOM     75  H   UNL A   1      37.490  35.754  33.082  1.00  0.00     0.163 HD
ATOM     76  O   UNL A   1      38.887  35.273  35.015  1.00  0.00    -0.275 OA
BRANCH  74  77
ATOM     77  C   UNL A   1      38.565  32.973  34.584  1.00  0.00     0.086 C 
ATOM     78  C   UNL A   1      39.791  32.568  35.367  1.00  0.00     0.023 C 
ATOM     79  C   UNL A   1      39.674  32.169  33.919  1.00  0.00     0.035 C 
BRANCH  79  80
ATOM     80  C   UNL A   1      39.497  30.704  33.553  1.00  0.00    -0.005 A 
ATOM     81  C   UNL A   1      38.265  30.173  33.124  1.00  0.00     0.007 A 
ATOM     82  C   UNL A   1      40.590  29.820  33.546  1.00  0.00     0.162 A 
ATOM     83  C   UNL A   1      38.136  28.852  32.676  1.00  0.00     0.004 A 
ATOM     84  C   UNL A   1      40.463  28.499  33.120  1.00  0.00     0.159 A 
ATOM     85  F   UNL A   1      41.794  30.259  33.947  1.00  0.00    -0.203 F 
ATOM     86  C   UNL A   1      39.243  28.011  32.671  1.00  0.00     0.042 A 
ATOM     87  F   UNL A   1      41.528  27.686  33.130  1.00  0.00    -0.204 F 
ENDBRANCH  79  80
ENDBRANCH  74  77
ENDBRANCH  72  73
ENDBRANCH  71  72
ENDBRANCH  70  71
ENDBRANCH  69  70
ENDBRANCH   1  69
TORSDOF 17
ENDMDL
MODEL 2
REMARK VINA RESULT:      -8.4      3.583     10.325
REMARK SMILES O=C(NCCCCCCNC(=O)[C@@H]1C[C@H]1c1cccc(F)c1F)c1ccc(-c2c3nc(c(-c4ccc(S(=O)(=O)[O-])cc4)c4ccc([nH]4)c(-c4ccc(S(=O)(=O)[O-])cc4)c4nc(c(-c5ccc(S(=O)(=O)[O-])cc5)c5ccc2[nH]5)C=C4)C=C3)cc1
REMARK SMILES IDX 5 1 4 2 3 3 1 4 2 5 24 7 25 8 83 9 26 10 82 11 27 12 28 13
REMARK SMILES IDX 29 14 76 15 30 16 81 17 75 18 77 19 31 20 80 21 74 22 73 23
REMARK SMILES IDX 32 25 62 26 43 27 61 28 44 29 47 30 60 31 78 32 45 33 46 34
REMARK SMILES IDX 59 36 79 37 48 38 33 39 34 40 42 41 35 42 41 43 36 44 37 45
REMARK SMILES IDX 38 46 39 47 40 48 63 49 64 50 72 51 65 52 71 53 66 54 67 55
REMARK SMILES IDX 68 56 69 57 70 58 49 59 50 60 58 61 51 62 57 63 52 64 53 65
REMARK SMILES IDX 54 66 55 67 56 68 6 69 7 70 8 71 9 72 10 73 11 74 12 76
REMARK SMILES IDX 13 77 14 78 15 79 16 80 17 81 22 82 18 83 20 84 23 85 19 86
REMARK SMILES IDX 21 87
REMARK H PARENT 3 6 77 24 47 35 10 75
REMARK Flexibility Score: inf
ROOT
ATOM      1  C   UNL A   1      32.875  27.242  26.011  1.00  0.00     0.021 C 
ENDROOT
BRANCH   1   2
ATOM      2  C   UNL A   1      34.088  28.018  26.506  1.00  0.00     0.116 C 
BRANCH   2   3
ATOM      3  N   UNL A   1      33.741  29.368  26.920  1.00  0.00    -0.352 N 
ATOM      4  O   UNL A   1      33.914  31.261  28.130  1.00  0.00    -0.269 OA
ATOM      5  C   UNL A   1      34.448  30.239  27.711  1.00  0.00     0.251 C 
ATOM      6  H   UNL A   1      32.877  29.703  26.588  1.00  0.00     0.163 HD
BRANCH   5   7
ATOM      7  C   UNL A   1      35.849  29.928  28.064  1.00  0.00     0.039 A 
ATOM      8  C   UNL A   1      36.872  30.134  27.134  1.00  0.00     0.014 A 
ATOM      9  C   UNL A   1      36.144  29.433  29.335  1.00  0.00     0.014 A 
ATOM     10  C   UNL A   1      38.163  29.716  27.426  1.00  0.00     0.010 A 
ATOM     11  C   UNL A   1      37.461  29.101  29.661  1.00  0.00     0.010 A 
ATOM     12  C   UNL A   1      38.479  29.219  28.701  1.00  0.00    -0.014 A 
BRANCH  12  13
ATOM     13  C   UNL A   1      39.894  28.912  29.030  1.00  0.00     0.031 A 
ATOM     14  C   UNL A   1      40.513  27.590  28.672  1.00  0.00     0.074 A 
ATOM     15  C   UNL A   1      40.626  29.862  29.648  1.00  0.00     0.049 A 
ATOM     16  N   UNL A   1      41.737  27.176  28.882  1.00  0.00    -0.248 NA
ATOM     17  C   UNL A   1      39.653  26.603  27.999  1.00  0.00     0.031 C 
ATOM     18  C   UNL A   1      40.129  31.181  30.049  1.00  0.00     0.029 A 
ATOM     19  N   UNL A   1      41.941  29.873  30.035  1.00  0.00    -0.354 N 
ATOM     20  C   UNL A   1      41.792  25.878  28.386  1.00  0.00     0.074 A 
ATOM     21  C   UNL A   1      40.470  25.564  27.886  1.00  0.00     0.031 C 
ATOM     22  C   UNL A   1      41.135  31.890  30.579  1.00  0.00     0.029 A 
ATOM     23  C   UNL A   1      42.328  31.052  30.627  1.00  0.00     0.049 A 
ATOM     24  H   UNL A   1      42.550  29.112  29.901  1.00  0.00     0.167 HD
ATOM     25  C   UNL A   1      42.849  25.030  28.350  1.00  0.00     0.031 A 
ATOM     26  C   UNL A   1      43.501  31.418  31.174  1.00  0.00     0.031 A 
ATOM     27  C   UNL A   1      44.158  25.351  28.860  1.00  0.00     0.049 A 
ATOM     28  C   UNL A   1      44.641  30.441  31.161  1.00  0.00     0.074 A 
ATOM     29  C   UNL A   1      45.302  24.571  28.843  1.00  0.00     0.029 A 
ATOM     30  N   UNL A   1      44.499  26.542  29.485  1.00  0.00    -0.354 N 
ATOM     31  N   UNL A   1      44.683  29.233  30.651  1.00  0.00    -0.248 NA
ATOM     32  C   UNL A   1      45.893  30.876  31.791  1.00  0.00     0.031 C 
ATOM     33  C   UNL A   1      46.315  25.263  29.514  1.00  0.00     0.029 A 
ATOM     34  C   UNL A   1      45.825  26.505  29.885  1.00  0.00     0.049 A 
ATOM     35  H   UNL A   1      43.888  27.301  29.626  1.00  0.00     0.167 HD
ATOM     36  C   UNL A   1      45.974  28.773  30.880  1.00  0.00     0.074 A 
ATOM     37  C   UNL A   1      46.685  29.840  31.555  1.00  0.00     0.031 C 
ATOM     38  C   UNL A   1      46.520  27.574  30.559  1.00  0.00     0.031 A 
BRANCH  25  39
ATOM     39  C   UNL A   1      42.632  23.658  27.764  1.00  0.00    -0.014 A 
ATOM     40  C   UNL A   1      42.848  23.402  26.398  1.00  0.00     0.010 A 
ATOM     41  C   UNL A   1      42.267  22.591  28.608  1.00  0.00     0.010 A 
ATOM     42  C   UNL A   1      42.669  22.115  25.881  1.00  0.00     0.020 A 
ATOM     43  C   UNL A   1      42.116  21.296  28.100  1.00  0.00     0.020 A 
ATOM     44  C   UNL A   1      42.304  21.071  26.735  1.00  0.00     0.054 A 
BRANCH  44  45
ATOM     45  S   UNL A   1      42.106  19.406  26.040  1.00  0.00     0.124 S 
ATOM     46  O   UNL A   1      42.564  18.564  27.142  1.00  0.00    -0.237 OA
ATOM     47  O   UNL A   1      40.675  19.348  25.757  1.00  0.00    -0.237 OA
ATOM     48  O   UNL A   1      42.972  19.416  24.863  1.00  0.00    -0.744 OA
ENDBRANCH  44  45
ENDBRANCH  25  39
BRANCH  26  49
ATOM     49  C   UNL A   1      43.642  32.762  31.796  1.00  0.00    -0.014 A 
ATOM     50  C   UNL A   1      44.072  33.864  31.038  1.00  0.00     0.010 A 
ATOM     51  C   UNL A   1      43.320  32.949  33.154  1.00  0.00     0.010 A 
ATOM     52  C   UNL A   1      44.199  35.123  31.631  1.00  0.00     0.020 A 
ATOM     53  C   UNL A   1      43.412  34.213  33.741  1.00  0.00     0.020 A 
ATOM     54  C   UNL A   1      43.864  35.289  32.979  1.00  0.00     0.054 A 
BRANCH  54  55
ATOM     55  S   UNL A   1      43.994  36.942  33.713  1.00  0.00     0.124 S 
ATOM     56  O   UNL A   1      43.681  37.804  32.578  1.00  0.00    -0.237 OA
ATOM     57  O   UNL A   1      42.989  36.896  34.772  1.00  0.00    -0.237 OA
ATOM     58  O   UNL A   1      45.378  37.000  34.182  1.00  0.00    -0.744 OA
ENDBRANCH  54  55
ENDBRANCH  26  49
BRANCH  38  59
ATOM     59  C   UNL A   1      47.972  27.367  30.897  1.00  0.00    -0.014 A 
ATOM     60  C   UNL A   1      48.993  27.745  30.007  1.00  0.00     0.010 A 
ATOM     61  C   UNL A   1      48.318  26.825  32.148  1.00  0.00     0.010 A 
ATOM     62  C   UNL A   1      50.335  27.553  30.350  1.00  0.00     0.020 A 
ATOM     63  C   UNL A   1      49.659  26.662  32.508  1.00  0.00     0.020 A 
ATOM     64  C   UNL A   1      50.658  27.013  31.599  1.00  0.00     0.054 A 
BRANCH  64  65
ATOM     65  S   UNL A   1      52.407  26.816  32.038  1.00  0.00     0.124 S 
ATOM     66  O   UNL A   1      52.537  27.718  33.179  1.00  0.00    -0.237 OA
ATOM     67  O   UNL A   1      52.499  25.392  32.348  1.00  0.00    -0.237 OA
ATOM     68  O   UNL A   1      53.116  27.233  30.831  1.00  0.00    -0.744 OA
ENDBRANCH  64  65
ENDBRANCH  38  59
ENDBRANCH  12  13
ENDBRANCH   5   7
ENDBRANCH   2   3
ENDBRANCH   1   2
BRANCH   1  69
ATOM     69  C   UNL A   1      32.824  27.048  24.495  1.00  0.00     0.002 C 
BRANCH  69  70
ATOM     70  C   UNL A   1      31.557  26.366  23.968  1.00  0.00     0.002 C 
BRANCH  70  71
ATOM     71  C   UNL A   1      31.801  25.097  23.151  1.00  0.00     0.021 C 
BRANCH  71  72
ATOM     72  C   UNL A   1      31.078  23.869  23.688  1.00  0.00     0.116 C 
BRANCH  72  73
ATOM     73  N   UNL A   1      30.509  24.090  24.996  1.00  0.00    -0.356 N 
ATOM     74  C   UNL A   1      30.965  23.612  26.192  1.00  0.00     0.223 C 
ATOM     75  H   UNL A   1      29.700  24.649  25.030  1.00  0.00     0.163 HD
ATOM     76  O   UNL A   1      30.363  23.859  27.233  1.00  0.00    -0.275 OA
BRANCH  74  77
ATOM     77  C   UNL A   1      32.190  22.766  26.212  1.00  0.00     0.086 C 
ATOM     78  C   UNL A   1      32.930  22.625  27.521  1.00  0.00     0.023 C 
ATOM     79  C   UNL A   1      33.577  23.370  26.383  1.00  0.00     0.035 C 
BRANCH  79  80
ATOM     80  C   UNL A   1      34.801  22.784  25.698  1.00  0.00    -0.005 A 
ATOM     81  C   UNL A   1      35.362  21.547  26.075  1.00  0.00     0.007 A 
ATOM     82  C   UNL A   1      35.385  23.418  24.588  1.00  0.00     0.162 A 
ATOM     83  C   UNL A   1      36.415  20.958  25.364  1.00  0.00     0.004 A 
ATOM     84  C   UNL A   1      36.446  22.845  23.890  1.00  0.00     0.159 A 
ATOM     85  F   UNL A   1      34.902  24.602  24.177  1.00  0.00    -0.203 F 
ATOM     86  C   UNL A   1      36.958  21.609  24.263  1.00  0.00     0.042 A 
ATOM     87  F   UNL A   1      36.978  23.481  22.837  1.00  0.00    -0.204 F 
ENDBRANCH  79  80
ENDBRANCH  74  77
ENDBRANCH  72  73
ENDBRANCH  71  72
ENDBRANCH  70  71
ENDBRANCH  69  70
ENDBRANCH   1  69
TORSDOF 17
ENDMDL
MODEL 3
REMARK VINA RESULT:      -8.3      3.434      6.264
REMARK SMILES O=C(NCCCCCCNC(=O)[C@@H]1C[C@H]1c1cccc(F)c1F)c1ccc(-c2c3nc(c(-c4ccc(S(=O)(=O)[O-])cc4)c4ccc([nH]4)c(-c4ccc(S(=O)(=O)[O-])cc4)c4nc(c(-c5ccc(S(=O)(=O)[O-])cc5)c5ccc2[nH]5)C=C4)C=C3)cc1
REMARK SMILES IDX 5 1 4 2 3 3 1 4 2 5 24 7 25 8 83 9 26 10 82 11 27 12 28 13
REMARK SMILES IDX 29 14 76 15 30 16 81 17 75 18 77 19 31 20 80 21 74 22 73 23
REMARK SMILES IDX 32 25 62 26 43 27 61 28 44 29 47 30 60 31 78 32 45 33 46 34
REMARK SMILES IDX 59 36 79 37 48 38 33 39 34 40 42 41 35 42 41 43 36 44 37 45
REMARK SMILES IDX 38 46 39 47 40 48 63 49 64 50 72 51 65 52 71 53 66 54 67 55
REMARK SMILES IDX 68 56 69 57 70 58 49 59 50 60 58 61 51 62 57 63 52 64 53 65
REMARK SMILES IDX 54 66 55 67 56 68 6 69 7 70 8 71 9 72 10 73 11 74 12 76
REMARK SMILES IDX 13 77 14 78 15 79 16 80 17 81 22 82 18 83 20 84 23 85 19 86
REMARK SMILES IDX 21 87
REMARK H PARENT 3 6 77 24 47 35 10 75
REMARK Flexibility Score: inf
ROOT
ATOM      1  C   UNL A   1      32.947  27.273  26.438  1.00  0.00     0.021 C 
ENDROOT
BRANCH   1   2
ATOM      2  C   UNL A   1      34.179  28.161  26.547  1.00  0.00     0.116 C 
BRANCH   2   3
ATOM      3  N   UNL A   1      33.847  29.503  26.999  1.00  0.00    -0.352 N 
ATOM      4  O   UNL A   1      34.039  31.357  28.265  1.00  0.00    -0.269 OA
ATOM      5  C   UNL A   1      34.561  30.342  27.818  1.00  0.00     0.251 C 
ATOM      6  H   UNL A   1      32.989  29.858  26.674  1.00  0.00     0.163 HD
BRANCH   5   7
ATOM      7  C   UNL A   1      35.958  30.003  28.166  1.00  0.00     0.039 A 
ATOM      8  C   UNL A   1      36.982  30.197  27.236  1.00  0.00     0.014 A 
ATOM      9  C   UNL A   1      36.245  29.493  29.433  1.00  0.00     0.014 A 
ATOM     10  C   UNL A   1      38.267  29.754  27.523  1.00  0.00     0.010 A 
ATOM     11  C   UNL A   1      37.557  29.136  29.754  1.00  0.00     0.010 A 
ATOM     12  C   UNL A   1      38.576  29.242  28.794  1.00  0.00    -0.014 A 
BRANCH  12  13
ATOM     13  C   UNL A   1      39.985  28.908  29.119  1.00  0.00     0.031 A 
ATOM     14  C   UNL A   1      40.881  29.891  29.819  1.00  0.00     0.074 A 
ATOM     15  C   UNL A   1      40.445  27.685  28.786  1.00  0.00     0.049 A 
ATOM     16  N   UNL A   1      42.131  29.745  30.181  1.00  0.00    -0.248 NA
ATOM     17  C   UNL A   1      40.311  31.206  30.151  1.00  0.00     0.031 C 
ATOM     18  C   UNL A   1      39.665  26.650  28.099  1.00  0.00     0.029 A 
ATOM     19  N   UNL A   1      41.666  27.097  28.990  1.00  0.00    -0.354 N 
ATOM     20  C   UNL A   1      42.503  30.951  30.766  1.00  0.00     0.074 A 
ATOM     21  C   UNL A   1      41.354  31.826  30.688  1.00  0.00     0.031 C 
ATOM     22  C   UNL A   1      40.410  25.542  27.983  1.00  0.00     0.029 A 
ATOM     23  C   UNL A   1      41.741  25.809  28.515  1.00  0.00     0.049 A 
ATOM     24  H   UNL A   1      42.417  27.552  29.434  1.00  0.00     0.167 HD
ATOM     25  C   UNL A   1      43.693  31.291  31.318  1.00  0.00     0.031 A 
ATOM     26  C   UNL A   1      42.769  24.942  28.483  1.00  0.00     0.031 A 
ATOM     27  C   UNL A   1      44.834  30.412  31.380  1.00  0.00     0.049 A 
ATOM     28  C   UNL A   1      44.089  25.363  29.060  1.00  0.00     0.074 A 
ATOM     29  C   UNL A   1      46.075  30.655  31.946  1.00  0.00     0.029 A 
ATOM     30  N   UNL A   1      44.880  29.129  30.855  1.00  0.00    -0.354 N 
ATOM     31  N   UNL A   1      44.408  26.494  29.644  1.00  0.00    -0.248 NA
ATOM     32  C   UNL A   1      45.186  24.392  28.980  1.00  0.00     0.031 C 
ATOM     33  C   UNL A   1      46.890  29.544  31.706  1.00  0.00     0.029 A 
ATOM     34  C   UNL A   1      46.137  28.580  31.056  1.00  0.00     0.049 A 
ATOM     35  H   UNL A   1      44.132  28.676  30.404  1.00  0.00     0.167 HD
ATOM     36  C   UNL A   1      45.738  26.360  30.021  1.00  0.00     0.074 A 
ATOM     37  C   UNL A   1      46.156  25.033  29.618  1.00  0.00     0.031 C 
ATOM     38  C   UNL A   1      46.540  27.258  30.647  1.00  0.00     0.031 A 
BRANCH  25  39
ATOM     39  C   UNL A   1      43.839  32.684  31.876  1.00  0.00    -0.014 A 
ATOM     40  C   UNL A   1      44.235  33.761  31.063  1.00  0.00     0.010 A 
ATOM     41  C   UNL A   1      43.510  32.932  33.223  1.00  0.00     0.010 A 
ATOM     42  C   UNL A   1      44.335  35.052  31.594  1.00  0.00     0.020 A 
ATOM     43  C   UNL A   1      43.582  34.226  33.750  1.00  0.00     0.020 A 
ATOM     44  C   UNL A   1      44.008  35.275  32.934  1.00  0.00     0.054 A 
BRANCH  44  45
ATOM     45  S   UNL A   1      44.122  36.964  33.587  1.00  0.00     0.124 S 
ATOM     46  O   UNL A   1      45.089  36.803  34.670  1.00  0.00    -0.237 OA
ATOM     47  O   UNL A   1      44.594  37.721  32.431  1.00  0.00    -0.237 OA
ATOM     48  O   UNL A   1      42.757  37.266  34.011  1.00  0.00    -0.744 OA
ENDBRANCH  44  45
ENDBRANCH  25  39
BRANCH  26  49
ATOM     49  C   UNL A   1      42.588  23.602  27.863  1.00  0.00    -0.014 A 
ATOM     50  C   UNL A   1      43.052  23.343  26.562  1.00  0.00     0.010 A 
ATOM     51  C   UNL A   1      41.968  22.566  28.588  1.00  0.00     0.010 A 
ATOM     52  C   UNL A   1      42.880  22.080  25.989  1.00  0.00     0.020 A 
ATOM     53  C   UNL A   1      41.826  21.293  28.032  1.00  0.00     0.020 A 
ATOM     54  C   UNL A   1      42.270  21.062  26.730  1.00  0.00     0.054 A 
BRANCH  54  55
ATOM     55  S   UNL A   1      42.099  19.419  25.981  1.00  0.00     0.124 S 
ATOM     56  O   UNL A   1      42.627  18.552  27.029  1.00  0.00    -0.237 OA
ATOM     57  O   UNL A   1      40.661  19.328  25.746  1.00  0.00    -0.237 OA
ATOM     58  O   UNL A   1      42.915  19.508  24.771  1.00  0.00    -0.744 OA
ENDBRANCH  54  55
ENDBRANCH  26  49
BRANCH  38  59
ATOM     59  C   UNL A   1      47.943  26.817  30.971  1.00  0.00    -0.014 A 
ATOM     60  C   UNL A   1      49.024  27.132  30.128  1.00  0.00     0.010 A 
ATOM     61  C   UNL A   1      48.186  26.114  32.165  1.00  0.00     0.010 A 
ATOM     62  C   UNL A   1      50.318  26.722  30.458  1.00  0.00     0.020 A 
ATOM     63  C   UNL A   1      49.484  25.730  32.514  1.00  0.00     0.020 A 
ATOM     64  C   UNL A   1      50.540  26.024  31.649  1.00  0.00     0.054 A 
BRANCH  64  65
ATOM     65  S   UNL A   1      52.235  25.542  32.076  1.00  0.00     0.124 S 
ATOM     66  O   UNL A   1      52.955  25.842  30.841  1.00  0.00    -0.237 OA
ATOM     67  O   UNL A   1      52.539  26.413  33.209  1.00  0.00    -0.237 OA
ATOM     68  O   UNL A   1      52.121  24.123  32.401  1.00  0.00    -0.744 OA
ENDBRANCH  64  65
ENDBRANCH  38  59
ENDBRANCH  12  13
ENDBRANCH   5   7
ENDBRANCH   2   3
ENDBRANCH   1   2
BRANCH   1  69
ATOM     69  C   UNL A   1      32.562  26.898  25.006  1.00  0.00     0.002 C 
BRANCH  69  70
ATOM     70  C   UNL A   1      33.737  26.548  24.086  1.00  0.00     0.002 C 
BRANCH  70  71
ATOM     71  C   UNL A   1      33.455  26.706  22.592  1.00  0.00     0.021 C 
BRANCH  71  72
ATOM     72  C   UNL A   1      33.138  25.397  21.881  1.00  0.00     0.116 C 
BRANCH  72  73
ATOM     73  N   UNL A   1      31.925  24.783  22.368  1.00  0.00    -0.356 N 
ATOM     74  C   UNL A   1      31.800  23.582  23.007  1.00  0.00     0.223 C 
ATOM     75  H   UNL A   1      31.093  25.289  22.223  1.00  0.00     0.163 HD
ATOM     76  O   UNL A   1      30.694  23.167  23.345  1.00  0.00    -0.275 OA
BRANCH  74  77
ATOM     77  C   UNL A   1      33.021  22.771  23.265  1.00  0.00     0.086 C 
ATOM     78  C   UNL A   1      32.844  21.408  23.892  1.00  0.00     0.023 C 
ATOM     79  C   UNL A   1      33.517  22.501  24.680  1.00  0.00     0.035 C 
BRANCH  79  80
ATOM     80  C   UNL A   1      34.998  22.392  25.006  1.00  0.00    -0.005 A 
ATOM     81  C   UNL A   1      35.782  21.289  24.614  1.00  0.00     0.007 A 
ATOM     82  C   UNL A   1      35.680  23.440  25.648  1.00  0.00     0.162 A 
ATOM     83  C   UNL A   1      37.168  21.248  24.814  1.00  0.00     0.004 A 
ATOM     84  C   UNL A   1      37.056  23.396  25.867  1.00  0.00     0.159 A 
ATOM     85  F   UNL A   1      34.993  24.522  26.052  1.00  0.00    -0.203 F 
ATOM     86  C   UNL A   1      37.808  22.310  25.441  1.00  0.00     0.042 A 
ATOM     87  F   UNL A   1      37.669  24.414  26.484  1.00  0.00    -0.204 F 
ENDBRANCH  79  80
ENDBRANCH  74  77
ENDBRANCH  72  73
ENDBRANCH  71  72
ENDBRANCH  70  71
ENDBRANCH  69  70
ENDBRANCH   1  69
TORSDOF 17
ENDMDL
