MODEL 1
REMARK VINA RESULT:     -11.0      0.000      0.000
REMARK SMILES C[C@H]1[C@@H]([NH2+]C[C@H]2CC[C@@H](C(=O)NCCCCCCNC(=O)c3ccc(-c4c5nc(c(-c6ccc(S(=O)(=O)[O-])cc6)c6ccc([nH]6)c(-c6ccc(S(=O)(=O)[O-])cc6)c6nc(c(-c7ccc(S(=O)(=O)[O-])cc7)c7ccc4[nH]7)C=C6)C=C5)cc3)CC2)CCC[C@@H]1C
REMARK SMILES IDX 15 1 14 2 13 3 12 4 10 5 11 6 9 8 6 9 7 10 83 11 8 12 82 13
REMARK SMILES IDX 5 14 4 15 3 18 1 19 2 20 87 21 84 22 86 23 88 24 85 25 16 26
REMARK SMILES IDX 17 27 18 28 19 29 20 30 21 32 22 33 23 34 81 35 24 36 80 37
REMARK SMILES IDX 25 38 26 39 27 40 74 41 28 42 79 43 73 44 75 45 29 46 78 47
REMARK SMILES IDX 72 48 71 49 30 51 60 52 41 53 59 54 42 55 45 56 58 57 76 58
REMARK SMILES IDX 43 59 44 60 57 62 77 63 46 64 31 65 32 66 40 67 33 68 39 69
REMARK SMILES IDX 34 70 35 71 36 72 37 73 38 74 61 75 62 76 70 77 63 78 69 79
REMARK SMILES IDX 64 80 65 81 66 82 67 83 68 84 47 85 48 86 56 87 49 88 55 89
REMARK SMILES IDX 50 90 51 91 52 92 53 93 54 94
REMARK H PARENT 12 7 4 16 4 17 19 31 75 50 45 61
REMARK Flexibility Score: inf
ROOT
ATOM      1  C   UNL A   1      35.014  29.882  28.058  1.00  0.00     0.002 C 
ENDROOT
BRANCH   1   2
ATOM      2  C   UNL A   1      33.981  29.161  27.191  1.00  0.00     0.021 C 
BRANCH   2   3
ATOM      3  C   UNL A   1      33.099  30.081  26.348  1.00  0.00     0.116 C 
BRANCH   3   4
ATOM      4  N   UNL A   1      33.300  29.847  24.932  1.00  0.00    -0.356 N 
ATOM      5  C   UNL A   1      32.656  29.027  24.058  1.00  0.00     0.223 C 
ATOM      6  O   UNL A   1      33.067  29.009  22.894  1.00  0.00    -0.275 OA
ATOM      7  H   UNL A   1      34.029  30.374  24.532  1.00  0.00     0.163 HD
BRANCH   5   8
ATOM      8  C   UNL A   1      31.445  28.184  24.457  1.00  0.00     0.078 C 
ATOM      9  C   UNL A   1      29.806  25.683  24.493  1.00  0.00     0.044 C 
ATOM     10  C   UNL A   1      30.648  26.126  25.702  1.00  0.00     0.010 C 
ATOM     11  C   UNL A   1      29.357  26.923  23.701  1.00  0.00     0.010 C 
ATOM     12  C   UNL A   1      31.855  26.975  25.304  1.00  0.00     0.014 C 
ATOM     13  C   UNL A   1      30.503  27.852  23.292  1.00  0.00     0.014 C 
BRANCH   9  14
ATOM     14  C   UNL A   1      30.569  24.627  23.662  1.00  0.00     0.264 C 
BRANCH  14  15
ATOM     15  N   UNL A   1      31.049  23.491  24.461  1.00  0.00    -0.343 N 
ATOM     16  H   UNL A   1      30.904  23.697  25.449  1.00  0.00     0.346 HD
ATOM     17  H   UNL A   1      30.527  22.661  24.183  1.00  0.00     0.346 HD
BRANCH  15  18
ATOM     18  C   UNL A   1      32.491  23.236  24.227  1.00  0.00     0.185 C 
ATOM     19  C   UNL A   1      32.031  21.518  22.401  1.00  0.00     0.014 C 
ATOM     20  C   UNL A   1      32.770  21.799  23.705  1.00  0.00     0.047 C 
ATOM     21  C   UNL A   1      32.487  20.720  24.784  1.00  0.00    -0.006 C 
ATOM     22  C   UNL A   1      33.297  23.478  25.517  1.00  0.00     0.065 C 
ATOM     23  C   UNL A   1      33.310  21.011  26.048  1.00  0.00     0.004 C 
ATOM     24  C   UNL A   1      32.794  19.301  24.292  1.00  0.00     0.008 C 
ATOM     25  C   UNL A   1      33.055  22.415  26.585  1.00  0.00     0.006 C 
ENDBRANCH  15  18
ENDBRANCH  14  15
ENDBRANCH   9  14
ENDBRANCH   5   8
ENDBRANCH   3   4
ENDBRANCH   2   3
ENDBRANCH   1   2
BRANCH   1  26
ATOM     26  C   UNL A   1      35.353  31.315  27.632  1.00  0.00     0.002 C 
BRANCH  26  27
ATOM     27  C   UNL A   1      35.165  32.403  28.695  1.00  0.00     0.021 C 
BRANCH  27  28
ATOM     28  C   UNL A   1      36.300  32.550  29.707  1.00  0.00     0.116 C 
BRANCH  28  29
ATOM     29  N   UNL A   1      36.057  31.792  30.922  1.00  0.00    -0.352 N 
ATOM     30  C   UNL A   1      36.745  30.742  31.470  1.00  0.00     0.251 C 
ATOM     31  H   UNL A   1      35.268  32.081  31.436  1.00  0.00     0.163 HD
ATOM     32  O   UNL A   1      36.248  30.137  32.422  1.00  0.00    -0.269 OA
BRANCH  30  33
ATOM     33  C   UNL A   1      38.057  30.311  30.936  1.00  0.00     0.039 A 
ATOM     34  C   UNL A   1      38.233  30.289  29.549  1.00  0.00     0.014 A 
ATOM     35  C   UNL A   1      39.090  29.872  31.770  1.00  0.00     0.014 A 
ATOM     36  C   UNL A   1      39.449  29.873  29.002  1.00  0.00     0.010 A 
ATOM     37  C   UNL A   1      40.326  29.512  31.226  1.00  0.00     0.010 A 
ATOM     38  C   UNL A   1      40.517  29.504  29.836  1.00  0.00    -0.014 A 
BRANCH  38  39
ATOM     39  C   UNL A   1      41.835  29.135  29.255  1.00  0.00     0.031 A 
ATOM     40  C   UNL A   1      42.936  30.153  29.121  1.00  0.00     0.074 A 
ATOM     41  C   UNL A   1      42.029  27.880  28.806  1.00  0.00     0.049 A 
ATOM     42  N   UNL A   1      44.148  29.997  28.652  1.00  0.00    -0.248 NA
ATOM     43  C   UNL A   1      42.629  31.527  29.548  1.00  0.00     0.031 C 
ATOM     44  C   UNL A   1      41.025  26.812  28.821  1.00  0.00     0.029 A 
ATOM     45  N   UNL A   1      43.133  27.288  28.243  1.00  0.00    -0.354 N 
ATOM     46  C   UNL A   1      44.743  31.253  28.710  1.00  0.00     0.074 A 
ATOM     47  C   UNL A   1      43.744  32.166  29.223  1.00  0.00     0.031 C 
ATOM     48  C   UNL A   1      41.565  25.694  28.312  1.00  0.00     0.029 A 
ATOM     49  C   UNL A   1      42.941  25.970  27.910  1.00  0.00     0.049 A 
ATOM     50  H   UNL A   1      43.981  27.765  28.092  1.00  0.00     0.167 HD
ATOM     51  C   UNL A   1      46.009  31.611  28.381  1.00  0.00     0.031 A 
ATOM     52  C   UNL A   1      43.776  25.075  27.343  1.00  0.00     0.031 A 
ATOM     53  C   UNL A   1      47.004  30.701  27.876  1.00  0.00     0.049 A 
ATOM     54  C   UNL A   1      45.182  25.485  27.015  1.00  0.00     0.074 A 
ATOM     55  C   UNL A   1      48.335  30.954  27.586  1.00  0.00     0.029 A 
ATOM     56  N   UNL A   1      46.780  29.366  27.576  1.00  0.00    -0.354 N 
ATOM     57  N   UNL A   1      45.754  26.657  27.164  1.00  0.00    -0.248 NA
ATOM     58  C   UNL A   1      46.062  24.449  26.459  1.00  0.00     0.031 C 
ATOM     59  C   UNL A   1      48.901  29.785  27.064  1.00  0.00     0.029 A 
ATOM     60  C   UNL A   1      47.938  28.789  27.078  1.00  0.00     0.049 A 
ATOM     61  H   UNL A   1      45.923  28.896  27.699  1.00  0.00     0.167 HD
ATOM     62  C   UNL A   1      47.066  26.494  26.733  1.00  0.00     0.074 A 
ATOM     63  C   UNL A   1      47.208  25.106  26.340  1.00  0.00     0.031 C 
ATOM     64  C   UNL A   1      48.061  27.413  26.667  1.00  0.00     0.031 A 
BRANCH  51  65
ATOM     65  C   UNL A   1      46.382  33.063  28.540  1.00  0.00    -0.014 A 
ATOM     66  C   UNL A   1      47.020  33.529  29.705  1.00  0.00     0.010 A 
ATOM     67  C   UNL A   1      46.114  33.970  27.499  1.00  0.00     0.010 A 
ATOM     68  C   UNL A   1      47.334  34.884  29.847  1.00  0.00     0.020 A 
ATOM     69  C   UNL A   1      46.451  35.321  27.627  1.00  0.00     0.020 A 
ATOM     70  C   UNL A   1      47.039  35.773  28.809  1.00  0.00     0.054 A 
BRANCH  70  71
ATOM     71  S   UNL A   1      47.456  37.526  29.019  1.00  0.00     0.124 S 
ATOM     72  O   UNL A   1      48.805  37.582  28.460  1.00  0.00    -0.237 OA
ATOM     73  O   UNL A   1      46.423  38.199  28.236  1.00  0.00    -0.237 OA
ATOM     74  O   UNL A   1      47.371  37.732  30.463  1.00  0.00    -0.744 OA
ENDBRANCH  70  71
ENDBRANCH  51  65
BRANCH  52  75
ATOM     75  C   UNL A   1      43.292  23.696  27.070  1.00  0.00    -0.014 A 
ATOM     76  C   UNL A   1      42.881  23.323  25.778  1.00  0.00     0.010 A 
ATOM     77  C   UNL A   1      43.282  22.734  28.097  1.00  0.00     0.010 A 
ATOM     78  C   UNL A   1      42.465  22.014  25.519  1.00  0.00     0.020 A 
ATOM     79  C   UNL A   1      42.890  21.420  27.836  1.00  0.00     0.020 A 
ATOM     80  C   UNL A   1      42.478  21.068  26.549  1.00  0.00     0.054 A 
BRANCH  80  81
ATOM     81  S   UNL A   1      42.013  19.355  26.174  1.00  0.00     0.124 S 
ATOM     82  O   UNL A   1      40.592  19.485  25.869  1.00  0.00    -0.237 OA
ATOM     83  O   UNL A   1      42.878  19.033  25.041  1.00  0.00    -0.237 OA
ATOM     84  O   UNL A   1      42.329  18.640  27.409  1.00  0.00    -0.744 OA
ENDBRANCH  80  81
ENDBRANCH  52  75
BRANCH  64  85
ATOM     85  C   UNL A   1      49.396  26.939  26.156  1.00  0.00    -0.014 A 
ATOM     86  C   UNL A   1      49.780  27.155  24.819  1.00  0.00     0.010 A 
ATOM     87  C   UNL A   1      50.285  26.284  27.027  1.00  0.00     0.010 A 
ATOM     88  C   UNL A   1      51.009  26.682  24.352  1.00  0.00     0.020 A 
ATOM     89  C   UNL A   1      51.527  25.834  26.570  1.00  0.00     0.020 A 
ATOM     90  C   UNL A   1      51.872  26.019  25.229  1.00  0.00     0.054 A 
BRANCH  90  91
ATOM     91  S   UNL A   1      53.468  25.423  24.605  1.00  0.00     0.124 S 
ATOM     92  O   UNL A   1      53.367  25.725  23.179  1.00  0.00    -0.237 OA
ATOM     93  O   UNL A   1      54.430  26.231  25.351  1.00  0.00    -0.237 OA
ATOM     94  O   UNL A   1      53.463  24.002  24.943  1.00  0.00    -0.744 OA
ENDBRANCH  90  91
ENDBRANCH  64  85
ENDBRANCH  38  39
ENDBRANCH  30  33
ENDBRANCH  28  29
ENDBRANCH  27  28
ENDBRANCH  26  27
ENDBRANCH   1  26
TORSDOF 19
ENDMDL
MODEL 2
REMARK VINA RESULT:     -10.8      6.001     11.877
REMARK SMILES C[C@H]1[C@@H]([NH2+]C[C@H]2CC[C@@H](C(=O)NCCCCCCNC(=O)c3ccc(-c4c5nc(c(-c6ccc(S(=O)(=O)[O-])cc6)c6ccc([nH]6)c(-c6ccc(S(=O)(=O)[O-])cc6)c6nc(c(-c7ccc(S(=O)(=O)[O-])cc7)c7ccc4[nH]7)C=C6)C=C5)cc3)CC2)CCC[C@@H]1C
REMARK SMILES IDX 15 1 14 2 13 3 12 4 10 5 11 6 9 8 6 9 7 10 83 11 8 12 82 13
REMARK SMILES IDX 5 14 4 15 3 18 1 19 2 20 87 21 84 22 86 23 88 24 85 25 16 26
REMARK SMILES IDX 17 27 18 28 19 29 20 30 21 32 22 33 23 34 81 35 24 36 80 37
REMARK SMILES IDX 25 38 26 39 27 40 74 41 28 42 79 43 73 44 75 45 29 46 78 47
REMARK SMILES IDX 72 48 71 49 30 51 60 52 41 53 59 54 42 55 45 56 58 57 76 58
REMARK SMILES IDX 43 59 44 60 57 62 77 63 46 64 31 65 32 66 40 67 33 68 39 69
REMARK SMILES IDX 34 70 35 71 36 72 37 73 38 74 61 75 62 76 70 77 63 78 69 79
REMARK SMILES IDX 64 80 65 81 66 82 67 83 68 84 47 85 48 86 56 87 49 88 55 89
REMARK SMILES IDX 50 90 51 91 52 92 53 93 54 94
REMARK H PARENT 12 7 4 16 4 17 19 31 75 50 45 61
REMARK Flexibility Score: inf
ROOT
ATOM      1  C   UNL A   1      37.477  23.642  26.124  1.00  0.00     0.002 C 
ENDROOT
BRANCH   1   2
ATOM      2  C   UNL A   1      37.389  22.699  24.922  1.00  0.00     0.021 C 
BRANCH   2   3
ATOM      3  C   UNL A   1      37.051  21.250  25.269  1.00  0.00     0.116 C 
BRANCH   3   4
ATOM      4  N   UNL A   1      35.899  21.175  26.145  1.00  0.00    -0.356 N 
ATOM      5  C   UNL A   1      34.576  21.381  25.904  1.00  0.00     0.223 C 
ATOM      6  O   UNL A   1      33.805  21.275  26.863  1.00  0.00    -0.275 OA
ATOM      7  H   UNL A   1      36.109  20.932  27.075  1.00  0.00     0.163 HD
BRANCH   5   8
ATOM      8  C   UNL A   1      34.028  21.688  24.510  1.00  0.00     0.078 C 
ATOM      9  C   UNL A   1      32.065  22.886  22.598  1.00  0.00     0.044 C 
ATOM     10  C   UNL A   1      33.450  23.509  22.845  1.00  0.00     0.010 C 
ATOM     11  C   UNL A   1      32.142  21.365  22.819  1.00  0.00     0.010 C 
ATOM     12  C   UNL A   1      34.001  23.195  24.236  1.00  0.00     0.014 C 
ATOM     13  C   UNL A   1      32.720  20.960  24.178  1.00  0.00     0.014 C 
BRANCH   9  14
ATOM     14  C   UNL A   1      30.991  23.609  23.442  1.00  0.00     0.264 C 
BRANCH  14  15
ATOM     15  N   UNL A   1      31.164  25.066  23.483  1.00  0.00    -0.343 N 
ATOM     16  H   UNL A   1      32.102  25.279  23.823  1.00  0.00     0.346 HD
ATOM     17  H   UNL A   1      31.028  25.432  22.542  1.00  0.00     0.346 HD
BRANCH  15  18
ATOM     18  C   UNL A   1      30.169  25.704  24.380  1.00  0.00     0.185 C 
ATOM     19  C   UNL A   1      29.910  27.741  22.869  1.00  0.00     0.014 C 
ATOM     20  C   UNL A   1      30.186  27.255  24.288  1.00  0.00     0.047 C 
ATOM     21  C   UNL A   1      31.489  27.862  24.872  1.00  0.00    -0.006 C 
ATOM     22  C   UNL A   1      30.408  25.275  25.840  1.00  0.00     0.065 C 
ATOM     23  C   UNL A   1      31.680  27.400  26.325  1.00  0.00     0.004 C 
ATOM     24  C   UNL A   1      31.500  29.394  24.821  1.00  0.00     0.008 C 
ATOM     25  C   UNL A   1      31.671  25.879  26.446  1.00  0.00     0.006 C 
ENDBRANCH  15  18
ENDBRANCH  14  15
ENDBRANCH   9  14
ENDBRANCH   5   8
ENDBRANCH   3   4
ENDBRANCH   2   3
ENDBRANCH   1   2
BRANCH   1  26
ATOM     26  C   UNL A   1      38.895  24.048  26.545  1.00  0.00     0.002 C 
BRANCH  26  27
ATOM     27  C   UNL A   1      39.988  22.989  26.360  1.00  0.00     0.021 C 
BRANCH  27  28
ATOM     28  C   UNL A   1      41.395  23.403  26.790  1.00  0.00     0.116 C 
BRANCH  28  29
ATOM     29  N   UNL A   1      42.029  24.284  25.825  1.00  0.00    -0.352 N 
ATOM     30  C   UNL A   1      42.252  25.635  25.865  1.00  0.00     0.251 C 
ATOM     31  H   UNL A   1      42.351  23.837  25.009  1.00  0.00     0.163 HD
ATOM     32  O   UNL A   1      42.651  26.202  24.846  1.00  0.00    -0.269 OA
BRANCH  30  33
ATOM     33  C   UNL A   1      42.011  26.425  27.093  1.00  0.00     0.039 A 
ATOM     34  C   UNL A   1      42.523  27.725  27.157  1.00  0.00     0.014 A 
ATOM     35  C   UNL A   1      41.347  25.890  28.201  1.00  0.00     0.014 A 
ATOM     36  C   UNL A   1      42.333  28.500  28.304  1.00  0.00     0.010 A 
ATOM     37  C   UNL A   1      41.105  26.684  29.326  1.00  0.00     0.010 A 
ATOM     38  C   UNL A   1      41.600  27.995  29.391  1.00  0.00    -0.014 A 
BRANCH  38  39
ATOM     39  C   UNL A   1      41.333  28.848  30.580  1.00  0.00     0.031 A 
ATOM     40  C   UNL A   1      42.147  28.700  31.838  1.00  0.00     0.074 A 
ATOM     41  C   UNL A   1      40.320  29.734  30.541  1.00  0.00     0.049 A 
ATOM     42  N   UNL A   1      42.057  29.371  32.959  1.00  0.00    -0.248 NA
ATOM     43  C   UNL A   1      43.179  27.652  31.845  1.00  0.00     0.031 C 
ATOM     44  C   UNL A   1      39.415  29.934  29.405  1.00  0.00     0.029 A 
ATOM     45  N   UNL A   1      39.874  30.630  31.481  1.00  0.00    -0.354 N 
ATOM     46  C   UNL A   1      43.007  28.817  33.810  1.00  0.00     0.074 A 
ATOM     47  C   UNL A   1      43.632  27.729  33.089  1.00  0.00     0.031 C 
ATOM     48  C   UNL A   1      38.539  30.905  29.708  1.00  0.00     0.029 A 
ATOM     49  C   UNL A   1      38.799  31.376  31.064  1.00  0.00     0.049 A 
ATOM     50  H   UNL A   1      40.287  30.727  32.370  1.00  0.00     0.167 HD
ATOM     51  C   UNL A   1      43.338  29.187  35.072  1.00  0.00     0.031 A 
ATOM     52  C   UNL A   1      38.095  32.335  31.698  1.00  0.00     0.031 A 
ATOM     53  C   UNL A   1      42.720  30.273  35.787  1.00  0.00     0.049 A 
ATOM     54  C   UNL A   1      38.498  32.751  33.084  1.00  0.00     0.074 A 
ATOM     55  C   UNL A   1      43.038  30.773  37.040  1.00  0.00     0.029 A 
ATOM     56  N   UNL A   1      41.650  31.023  35.322  1.00  0.00    -0.354 N 
ATOM     57  N   UNL A   1      39.460  32.275  33.838  1.00  0.00    -0.248 NA
ATOM     58  C   UNL A   1      37.733  33.844  33.696  1.00  0.00     0.031 C 
ATOM     59  C   UNL A   1      42.129  31.791  37.351  1.00  0.00     0.029 A 
ATOM     60  C   UNL A   1      41.277  31.961  36.272  1.00  0.00     0.049 A 
ATOM     61  H   UNL A   1      41.218  30.906  34.445  1.00  0.00     0.167 HD
ATOM     62  C   UNL A   1      39.425  33.022  35.010  1.00  0.00     0.074 A 
ATOM     63  C   UNL A   1      38.363  33.995  34.855  1.00  0.00     0.031 C 
ATOM     64  C   UNL A   1      40.202  32.909  36.116  1.00  0.00     0.031 A 
BRANCH  51  65
ATOM     65  C   UNL A   1      44.413  28.392  35.769  1.00  0.00    -0.014 A 
ATOM     66  C   UNL A   1      45.769  28.751  35.665  1.00  0.00     0.010 A 
ATOM     67  C   UNL A   1      44.058  27.283  36.559  1.00  0.00     0.010 A 
ATOM     68  C   UNL A   1      46.754  27.985  36.295  1.00  0.00     0.020 A 
ATOM     69  C   UNL A   1      45.039  26.531  37.213  1.00  0.00     0.020 A 
ATOM     70  C   UNL A   1      46.383  26.875  37.059  1.00  0.00     0.054 A 
BRANCH  70  71
ATOM     71  S   UNL A   1      47.681  25.898  37.866  1.00  0.00     0.124 S 
ATOM     72  O   UNL A   1      48.472  25.448  36.723  1.00  0.00    -0.237 OA
ATOM     73  O   UNL A   1      48.331  26.878  38.732  1.00  0.00    -0.237 OA
ATOM     74  O   UNL A   1      46.942  24.849  38.563  1.00  0.00    -0.744 OA
ENDBRANCH  70  71
ENDBRANCH  51  65
BRANCH  52  75
ATOM     75  C   UNL A   1      36.944  32.974  31.008  1.00  0.00    -0.014 A 
ATOM     76  C   UNL A   1      37.153  33.915  29.985  1.00  0.00     0.010 A 
ATOM     77  C   UNL A   1      35.627  32.608  31.343  1.00  0.00     0.010 A 
ATOM     78  C   UNL A   1      36.067  34.482  29.312  1.00  0.00     0.020 A 
ATOM     79  C   UNL A   1      34.540  33.155  30.658  1.00  0.00     0.020 A 
ATOM     80  C   UNL A   1      34.767  34.094  29.650  1.00  0.00     0.054 A 
BRANCH  80  81
ATOM     81  S   UNL A   1      33.374  34.780  28.710  1.00  0.00     0.124 S 
ATOM     82  O   UNL A   1      33.070  33.694  27.782  1.00  0.00    -0.237 OA
ATOM     83  O   UNL A   1      32.377  35.021  29.751  1.00  0.00    -0.237 OA
ATOM     84  O   UNL A   1      33.934  35.986  28.105  1.00  0.00    -0.744 OA
ENDBRANCH  80  81
ENDBRANCH  52  75
BRANCH  64  85
ATOM     85  C   UNL A   1      39.933  33.871  37.243  1.00  0.00    -0.014 A 
ATOM     86  C   UNL A   1      40.539  35.141  37.275  1.00  0.00     0.010 A 
ATOM     87  C   UNL A   1      39.049  33.508  38.275  1.00  0.00     0.010 A 
ATOM     88  C   UNL A   1      40.302  36.010  38.343  1.00  0.00     0.020 A 
ATOM     89  C   UNL A   1      38.789  34.386  39.331  1.00  0.00     0.020 A 
ATOM     90  C   UNL A   1      39.434  35.623  39.368  1.00  0.00     0.054 A 
BRANCH  90  91
ATOM     91  S   UNL A   1      39.132  36.772  40.740  1.00  0.00     0.124 S 
ATOM     92  O   UNL A   1      38.327  37.808  40.096  1.00  0.00    -0.237 OA
ATOM     93  O   UNL A   1      38.424  35.939  41.710  1.00  0.00    -0.237 OA
ATOM     94  O   UNL A   1      40.472  37.186  41.145  1.00  0.00    -0.744 OA
ENDBRANCH  90  91
ENDBRANCH  64  85
ENDBRANCH  38  39
ENDBRANCH  30  33
ENDBRANCH  28  29
ENDBRANCH  27  28
ENDBRANCH  26  27
ENDBRANCH   1  26
TORSDOF 19
ENDMDL
MODEL 3
REMARK VINA RESULT:     -10.6      5.065      7.049
REMARK SMILES C[C@H]1[C@@H]([NH2+]C[C@H]2CC[C@@H](C(=O)NCCCCCCNC(=O)c3ccc(-c4c5nc(c(-c6ccc(S(=O)(=O)[O-])cc6)c6ccc([nH]6)c(-c6ccc(S(=O)(=O)[O-])cc6)c6nc(c(-c7ccc(S(=O)(=O)[O-])cc7)c7ccc4[nH]7)C=C6)C=C5)cc3)CC2)CCC[C@@H]1C
REMARK SMILES IDX 15 1 14 2 13 3 12 4 10 5 11 6 9 8 6 9 7 10 83 11 8 12 82 13
REMARK SMILES IDX 5 14 4 15 3 18 1 19 2 20 87 21 84 22 86 23 88 24 85 25 16 26
REMARK SMILES IDX 17 27 18 28 19 29 20 30 21 32 22 33 23 34 81 35 24 36 80 37
REMARK SMILES IDX 25 38 26 39 27 40 74 41 28 42 79 43 73 44 75 45 29 46 78 47
REMARK SMILES IDX 72 48 71 49 30 51 60 52 41 53 59 54 42 55 45 56 58 57 76 58
REMARK SMILES IDX 43 59 44 60 57 62 77 63 46 64 31 65 32 66 40 67 33 68 39 69
REMARK SMILES IDX 34 70 35 71 36 72 37 73 38 74 61 75 62 76 70 77 63 78 69 79
REMARK SMILES IDX 64 80 65 81 66 82 67 83 68 84 47 85 48 86 56 87 49 88 55 89
REMARK SMILES IDX 50 90 51 91 52 92 53 93 54 94
REMARK H PARENT 12 7 4 16 4 17 19 31 75 50 45 61
REMARK Flexibility Score: inf
ROOT
ATOM      1  C   UNL A   1      32.398  27.509  22.918  1.00  0.00     0.002 C 
ENDROOT
BRANCH   1   2
ATOM      2  C   UNL A   1      30.873  27.391  22.939  1.00  0.00     0.021 C 
BRANCH   2   3
ATOM      3  C   UNL A   1      30.343  25.982  23.197  1.00  0.00     0.116 C 
BRANCH   3   4
ATOM      4  N   UNL A   1      30.112  25.758  24.610  1.00  0.00    -0.356 N 
ATOM      5  C   UNL A   1      30.501  24.748  25.433  1.00  0.00     0.223 C 
ATOM      6  O   UNL A   1      30.129  24.803  26.609  1.00  0.00    -0.275 OA
ATOM      7  H   UNL A   1      29.583  26.461  25.052  1.00  0.00     0.163 HD
BRANCH   5   8
ATOM      8  C   UNL A   1      31.397  23.601  24.965  1.00  0.00     0.078 C 
ATOM      9  C   UNL A   1      33.836  21.874  25.087  1.00  0.00     0.044 C 
ATOM     10  C   UNL A   1      32.466  21.391  25.596  1.00  0.00     0.010 C 
ATOM     11  C   UNL A   1      33.630  22.889  23.950  1.00  0.00     0.010 C 
ATOM     12  C   UNL A   1      31.568  22.539  26.056  1.00  0.00     0.014 C 
ATOM     13  C   UNL A   1      32.709  24.057  24.314  1.00  0.00     0.014 C 
BRANCH   9  14
ATOM     14  C   UNL A   1      34.698  22.386  26.264  1.00  0.00     0.264 C 
BRANCH  14  15
ATOM     15  N   UNL A   1      36.018  21.748  26.340  1.00  0.00    -0.343 N 
ATOM     16  H   UNL A   1      36.447  21.981  27.235  1.00  0.00     0.346 HD
ATOM     17  H   UNL A   1      35.894  20.741  26.249  1.00  0.00     0.346 HD
BRANCH  15  18
ATOM     18  C   UNL A   1      36.906  22.210  25.245  1.00  0.00     0.185 C 
ATOM     19  C   UNL A   1      37.997  19.922  24.979  1.00  0.00     0.014 C 
ATOM     20  C   UNL A   1      38.239  21.414  25.177  1.00  0.00     0.047 C 
ATOM     21  C   UNL A   1      39.156  21.703  26.394  1.00  0.00    -0.006 C 
ATOM     22  C   UNL A   1      37.214  23.712  25.399  1.00  0.00     0.065 C 
ATOM     23  C   UNL A   1      39.427  23.212  26.503  1.00  0.00     0.004 C 
ATOM     24  C   UNL A   1      40.490  20.951  26.318  1.00  0.00     0.008 C 
ATOM     25  C   UNL A   1      38.135  24.020  26.575  1.00  0.00     0.006 C 
ENDBRANCH  15  18
ENDBRANCH  14  15
ENDBRANCH   9  14
ENDBRANCH   5   8
ENDBRANCH   3   4
ENDBRANCH   2   3
ENDBRANCH   1   2
BRANCH   1  26
ATOM     26  C   UNL A   1      33.082  27.498  24.291  1.00  0.00     0.002 C 
BRANCH  26  27
ATOM     27  C   UNL A   1      33.933  28.726  24.636  1.00  0.00     0.021 C 
BRANCH  27  28
ATOM     28  C   UNL A   1      34.178  28.971  26.125  1.00  0.00     0.116 C 
BRANCH  28  29
ATOM     29  N   UNL A   1      33.756  30.296  26.542  1.00  0.00    -0.352 N 
ATOM     30  C   UNL A   1      34.249  31.122  27.518  1.00  0.00     0.251 C 
ATOM     31  H   UNL A   1      32.991  30.661  26.041  1.00  0.00     0.163 HD
ATOM     32  O   UNL A   1      33.614  32.135  27.815  1.00  0.00    -0.269 OA
BRANCH  30  33
ATOM     33  C   UNL A   1      35.511  30.815  28.229  1.00  0.00     0.039 A 
ATOM     34  C   UNL A   1      35.521  29.743  29.127  1.00  0.00     0.014 A 
ATOM     35  C   UNL A   1      36.659  31.599  28.075  1.00  0.00     0.014 A 
ATOM     36  C   UNL A   1      36.686  29.429  29.832  1.00  0.00     0.010 A 
ATOM     37  C   UNL A   1      37.840  31.249  28.735  1.00  0.00     0.010 A 
ATOM     38  C   UNL A   1      37.865  30.164  29.624  1.00  0.00    -0.014 A 
BRANCH  38  39
ATOM     39  C   UNL A   1      39.124  29.782  30.318  1.00  0.00     0.031 A 
ATOM     40  C   UNL A   1      39.530  30.442  31.608  1.00  0.00     0.074 A 
ATOM     41  C   UNL A   1      39.930  28.859  29.758  1.00  0.00     0.049 A 
ATOM     42  N   UNL A   1      40.585  30.218  32.350  1.00  0.00    -0.248 NA
ATOM     43  C   UNL A   1      38.650  31.505  32.119  1.00  0.00     0.031 C 
ATOM     44  C   UNL A   1      39.684  28.186  28.479  1.00  0.00     0.029 A 
ATOM     45  N   UNL A   1      41.123  28.331  30.186  1.00  0.00    -0.354 N 
ATOM     46  C   UNL A   1      40.506  31.121  33.405  1.00  0.00     0.074 A 
ATOM     47  C   UNL A   1      39.321  31.922  33.183  1.00  0.00     0.031 C 
ATOM     48  C   UNL A   1      40.682  27.321  28.239  1.00  0.00     0.029 A 
ATOM     49  C   UNL A   1      41.651  27.397  29.328  1.00  0.00     0.049 A 
ATOM     50  H   UNL A   1      41.558  28.597  31.028  1.00  0.00     0.167 HD
ATOM     51  C   UNL A   1      41.336  31.262  34.469  1.00  0.00     0.031 A 
ATOM     52  C   UNL A   1      42.788  26.678  29.404  1.00  0.00     0.031 A 
ATOM     53  C   UNL A   1      42.511  30.461  34.692  1.00  0.00     0.049 A 
ATOM     54  C   UNL A   1      43.677  26.828  30.605  1.00  0.00     0.074 A 
ATOM     55  C   UNL A   1      43.372  30.478  35.777  1.00  0.00     0.029 A 
ATOM     56  N   UNL A   1      43.000  29.507  33.813  1.00  0.00    -0.354 N 
ATOM     57  N   UNL A   1      43.536  27.623  31.638  1.00  0.00    -0.248 NA
ATOM     58  C   UNL A   1      44.868  25.970  30.659  1.00  0.00     0.031 C 
ATOM     59  C   UNL A   1      44.408  29.570  35.530  1.00  0.00     0.029 A 
ATOM     60  C   UNL A   1      44.165  28.949  34.316  1.00  0.00     0.049 A 
ATOM     61  H   UNL A   1      42.582  29.262  32.956  1.00  0.00     0.167 HD
ATOM     62  C   UNL A   1      44.614  27.352  32.473  1.00  0.00     0.074 A 
ATOM     63  C   UNL A   1      45.383  26.303  31.835  1.00  0.00     0.031 C 
ATOM     64  C   UNL A   1      44.937  27.922  33.661  1.00  0.00     0.031 A 
BRANCH  51  65
ATOM     65  C   UNL A   1      41.006  32.343  35.466  1.00  0.00    -0.014 A 
ATOM     66  C   UNL A   1      41.537  33.640  35.338  1.00  0.00     0.010 A 
ATOM     67  C   UNL A   1      40.131  32.066  36.533  1.00  0.00     0.010 A 
ATOM     68  C   UNL A   1      41.242  34.622  36.288  1.00  0.00     0.020 A 
ATOM     69  C   UNL A   1      39.814  33.054  37.469  1.00  0.00     0.020 A 
ATOM     70  C   UNL A   1      40.388  34.321  37.353  1.00  0.00     0.054 A 
BRANCH  70  71
ATOM     71  S   UNL A   1      40.023  35.613  38.571  1.00  0.00     0.124 S 
ATOM     72  O   UNL A   1      41.267  35.666  39.335  1.00  0.00    -0.237 OA
ATOM     73  O   UNL A   1      39.750  36.778  37.734  1.00  0.00    -0.237 OA
ATOM     74  O   UNL A   1      38.868  35.089  39.297  1.00  0.00    -0.744 OA
ENDBRANCH  70  71
ENDBRANCH  51  65
BRANCH  52  75
ATOM     75  C   UNL A   1      43.132  25.738  28.304  1.00  0.00    -0.014 A 
ATOM     76  C   UNL A   1      43.914  26.162  27.216  1.00  0.00     0.010 A 
ATOM     77  C   UNL A   1      42.713  24.396  28.364  1.00  0.00     0.010 A 
ATOM     78  C   UNL A   1      44.268  25.264  26.205  1.00  0.00     0.020 A 
ATOM     79  C   UNL A   1      43.084  23.489  27.369  1.00  0.00     0.020 A 
ATOM     80  C   UNL A   1      43.855  23.930  26.291  1.00  0.00     0.054 A 
BRANCH  80  81
ATOM     81  S   UNL A   1      44.393  22.760  25.013  1.00  0.00     0.124 S 
ATOM     82  O   UNL A   1      43.120  22.241  24.522  1.00  0.00    -0.237 OA
ATOM     83  O   UNL A   1      45.127  23.619  24.087  1.00  0.00    -0.237 OA
ATOM     84  O   UNL A   1      45.218  21.806  25.752  1.00  0.00    -0.744 OA
ENDBRANCH  80  81
ENDBRANCH  52  75
BRANCH  64  85
ATOM     85  C   UNL A   1      46.176  27.415  34.349  1.00  0.00    -0.014 A 
ATOM     86  C   UNL A   1      47.423  28.036  34.150  1.00  0.00     0.010 A 
ATOM     87  C   UNL A   1      46.091  26.312  35.218  1.00  0.00     0.010 A 
ATOM     88  C   UNL A   1      48.570  27.533  34.772  1.00  0.00     0.020 A 
ATOM     89  C   UNL A   1      47.231  25.824  35.863  1.00  0.00     0.020 A 
ATOM     90  C   UNL A   1      48.467  26.426  35.619  1.00  0.00     0.054 A 
BRANCH  90  91
ATOM     91  S   UNL A   1      49.966  25.798  36.425  1.00  0.00     0.124 S 
ATOM     92  O   UNL A   1      50.152  26.759  37.509  1.00  0.00    -0.237 OA
ATOM     93  O   UNL A   1      49.571  24.453  36.839  1.00  0.00    -0.237 OA
ATOM     94  O   UNL A   1      50.973  25.847  35.368  1.00  0.00    -0.744 OA
ENDBRANCH  90  91
ENDBRANCH  64  85
ENDBRANCH  38  39
ENDBRANCH  30  33
ENDBRANCH  28  29
ENDBRANCH  27  28
ENDBRANCH  26  27
ENDBRANCH   1  26
TORSDOF 19
ENDMDL
