MODEL 1
REMARK VINA RESULT:     -11.3      0.000      0.000
REMARK SMILES CCc1ccc(Oc2ncnc(N3CCC(C(=O)NCCCCCCNC(=O)c4ccc(-c5c6nc(c(-c7ccc(S(=O)(=O)[O-])cc7)c7ccc([nH]7)c(-c7ccc(S(=O)(=O)[O-])cc7)c7nc(c(-c8ccc(S(=O)(=O)[O-])cc8)c8ccc5[nH]8)C=C7)C=C6)cc4)CC3)c2[N+](=O)[O-])cc1
REMARK SMILES IDX 22 1 21 2 20 3 19 4 17 5 18 6 16 8 13 9 14 10 90 11 15 12
REMARK SMILES IDX 89 13 12 14 8 15 9 16 91 17 10 18 11 19 7 20 6 21 3 22 4 23
REMARK SMILES IDX 96 24 5 25 95 26 2 27 1 28 92 29 93 30 94 31 23 32 24 33
REMARK SMILES IDX 25 34 26 35 27 36 28 38 29 39 30 40 88 41 31 42 87 43 32 44
REMARK SMILES IDX 33 45 34 46 81 47 35 48 86 49 80 50 82 51 36 52 85 53 79 54
REMARK SMILES IDX 78 55 37 57 67 58 48 59 66 60 49 61 52 62 65 63 83 64 50 65
REMARK SMILES IDX 51 66 64 68 84 69 53 70 38 71 39 72 47 73 40 74 46 75 41 76
REMARK SMILES IDX 42 77 43 78 44 79 45 80 68 81 69 82 77 83 70 84 76 85 71 86
REMARK SMILES IDX 72 87 73 88 74 89 75 90 54 91 55 92 63 93 56 94 62 95 57 96
REMARK SMILES IDX 58 97 59 98 60 99 61 100
REMARK H PARENT 19 7 26 37 82 56 52 67
REMARK Flexibility Score: inf
ROOT
ATOM      1  C   UNL A   1      35.704  33.140  28.064  1.00  0.00     0.002 C 
ENDROOT
BRANCH   1   2
ATOM      2  C   UNL A   1      34.720  32.068  28.541  1.00  0.00     0.021 C 
BRANCH   2   3
ATOM      3  C   UNL A   1      34.515  30.934  27.540  1.00  0.00     0.116 C 
BRANCH   3   4
ATOM      4  N   UNL A   1      33.156  30.941  27.018  1.00  0.00    -0.356 N 
ATOM      5  C   UNL A   1      32.565  30.167  26.067  1.00  0.00     0.223 C 
ATOM      6  O   UNL A   1      31.399  30.415  25.753  1.00  0.00    -0.275 OA
ATOM      7  H   UNL A   1      32.565  31.619  27.419  1.00  0.00     0.163 HD
BRANCH   5   8
ATOM      8  C   UNL A   1      33.306  29.002  25.428  1.00  0.00     0.082 C 
ATOM      9  N   UNL A   1      32.976  26.299  24.680  1.00  0.00    -0.351 N 
ATOM     10  C   UNL A   1      33.876  26.533  25.800  1.00  0.00     0.119 C 
ATOM     11  C   UNL A   1      33.035  27.251  23.587  1.00  0.00     0.119 C 
ATOM     12  C   UNL A   1      33.565  27.875  26.442  1.00  0.00     0.035 C 
ATOM     13  C   UNL A   1      32.605  28.610  24.114  1.00  0.00     0.035 C 
BRANCH   9  14
ATOM     14  C   UNL A   1      32.343  25.082  24.608  1.00  0.00     0.215 A 
ATOM     15  C   UNL A   1      31.908  22.911  23.769  1.00  0.00     0.305 A 
ATOM     16  N   UNL A   1      31.023  22.659  24.752  1.00  0.00    -0.195 NA
ATOM     17  C   UNL A   1      32.540  24.128  23.628  1.00  0.00     0.373 A 
ATOM     18  C   UNL A   1      30.843  23.645  25.632  1.00  0.00     0.228 A 
ATOM     19  N   UNL A   1      31.486  24.825  25.625  1.00  0.00    -0.212 NA
BRANCH  15  20
ATOM     20  O   UNL A   1      32.130  21.848  22.927  1.00  0.00    -0.434 OA
BRANCH  20  21
ATOM     21  C   UNL A   1      32.720  20.716  23.452  1.00  0.00     0.129 A 
ATOM     22  C   UNL A   1      33.863  18.263  24.251  1.00  0.00    -0.048 A 
ATOM     23  C   UNL A   1      32.766  18.292  23.380  1.00  0.00     0.007 A 
ATOM     24  C   UNL A   1      34.361  19.482  24.732  1.00  0.00     0.007 A 
ATOM     25  C   UNL A   1      32.200  19.508  22.986  1.00  0.00     0.047 A 
ATOM     26  C   UNL A   1      33.780  20.697  24.361  1.00  0.00     0.047 A 
BRANCH  22  27
ATOM     27  C   UNL A   1      34.574  16.991  24.648  1.00  0.00     0.032 C 
ATOM     28  C   UNL A   1      33.739  15.957  25.390  1.00  0.00     0.009 C 
ENDBRANCH  22  27
ENDBRANCH  20  21
ENDBRANCH  15  20
BRANCH  17  29
ATOM     29  N   UNL A   1      33.465  24.328  22.560  1.00  0.00     0.072 N 
ATOM     30  O   UNL A   1      34.665  24.116  22.790  1.00  0.00    -0.258 OA
ATOM     31  O   UNL A   1      33.007  24.729  21.482  1.00  0.00    -0.258 OA
ENDBRANCH  17  29
ENDBRANCH   9  14
ENDBRANCH   5   8
ENDBRANCH   3   4
ENDBRANCH   2   3
ENDBRANCH   1   2
BRANCH   1  32
ATOM     32  C   UNL A   1      36.917  33.349  28.978  1.00  0.00     0.002 C 
BRANCH  32  33
ATOM     33  C   UNL A   1      36.579  33.752  30.415  1.00  0.00     0.021 C 
BRANCH  33  34
ATOM     34  C   UNL A   1      37.265  32.909  31.484  1.00  0.00     0.116 C 
BRANCH  34  35
ATOM     35  N   UNL A   1      36.601  31.629  31.674  1.00  0.00    -0.352 N 
ATOM     36  C   UNL A   1      36.973  30.387  31.230  1.00  0.00     0.251 C 
ATOM     37  H   UNL A   1      35.767  31.659  32.196  1.00  0.00     0.163 HD
ATOM     38  O   UNL A   1      36.184  29.447  31.297  1.00  0.00    -0.269 OA
BRANCH  36  39
ATOM     39  C   UNL A   1      38.320  30.189  30.654  1.00  0.00     0.039 A 
ATOM     40  C   UNL A   1      39.389  29.915  31.510  1.00  0.00     0.014 A 
ATOM     41  C   UNL A   1      38.525  30.271  29.274  1.00  0.00     0.014 A 
ATOM     42  C   UNL A   1      40.654  29.666  30.975  1.00  0.00     0.010 A 
ATOM     43  C   UNL A   1      39.767  29.949  28.738  1.00  0.00     0.010 A 
ATOM     44  C   UNL A   1      40.847  29.646  29.583  1.00  0.00    -0.014 A 
BRANCH  44  45
ATOM     45  C   UNL A   1      42.167  29.306  28.992  1.00  0.00     0.031 A 
ATOM     46  C   UNL A   1      42.434  27.915  28.486  1.00  0.00     0.074 A 
ATOM     47  C   UNL A   1      43.143  30.235  28.969  1.00  0.00     0.049 A 
ATOM     48  N   UNL A   1      43.539  27.417  27.990  1.00  0.00    -0.248 NA
ATOM     49  C   UNL A   1      41.325  26.951  28.567  1.00  0.00     0.031 C 
ATOM     50  C   UNL A   1      43.019  31.608  29.462  1.00  0.00     0.029 A 
ATOM     51  N   UNL A   1      44.436  30.163  28.514  1.00  0.00    -0.354 N 
ATOM     52  C   UNL A   1      43.262  26.082  27.715  1.00  0.00     0.074 A 
ATOM     53  C   UNL A   1      41.905  25.835  28.147  1.00  0.00     0.031 C 
ATOM     54  C   UNL A   1      44.177  32.257  29.259  1.00  0.00     0.029 A 
ATOM     55  C   UNL A   1      45.140  31.335  28.665  1.00  0.00     0.049 A 
ATOM     56  H   UNL A   1      44.824  29.349  28.118  1.00  0.00     0.167 HD
ATOM     57  C   UNL A   1      44.060  25.152  27.138  1.00  0.00     0.031 A 
ATOM     58  C   UNL A   1      46.421  31.633  28.372  1.00  0.00     0.031 A 
ATOM     59  C   UNL A   1      45.410  25.405  26.706  1.00  0.00     0.049 A 
ATOM     60  C   UNL A   1      47.296  30.575  27.756  1.00  0.00     0.074 A 
ATOM     61  C   UNL A   1      46.283  24.545  26.063  1.00  0.00     0.029 A 
ATOM     62  N   UNL A   1      46.087  26.604  26.879  1.00  0.00    -0.354 N 
ATOM     63  N   UNL A   1      46.995  29.339  27.440  1.00  0.00    -0.248 NA
ATOM     64  C   UNL A   1      48.681  30.958  27.447  1.00  0.00     0.031 C 
ATOM     65  C   UNL A   1      47.506  25.202  25.904  1.00  0.00     0.029 A 
ATOM     66  C   UNL A   1      47.376  26.496  26.384  1.00  0.00     0.049 A 
ATOM     67  H   UNL A   1      45.707  27.413  27.293  1.00  0.00     0.167 HD
ATOM     68  C   UNL A   1      48.145  28.803  26.871  1.00  0.00     0.074 A 
ATOM     69  C   UNL A   1      49.140  29.855  26.869  1.00  0.00     0.031 C 
ATOM     70  C   UNL A   1      48.358  27.551  26.393  1.00  0.00     0.031 A 
BRANCH  57  71
ATOM     71  C   UNL A   1      43.496  23.767  26.949  1.00  0.00    -0.014 A 
ATOM     72  C   UNL A   1      43.308  23.226  25.663  1.00  0.00     0.010 A 
ATOM     73  C   UNL A   1      43.191  22.978  28.072  1.00  0.00     0.010 A 
ATOM     74  C   UNL A   1      42.786  21.939  25.506  1.00  0.00     0.020 A 
ATOM     75  C   UNL A   1      42.698  21.679  27.920  1.00  0.00     0.020 A 
ATOM     76  C   UNL A   1      42.483  21.174  26.636  1.00  0.00     0.054 A 
BRANCH  76  77
ATOM     77  S   UNL A   1      41.829  19.498  26.399  1.00  0.00     0.124 S 
ATOM     78  O   UNL A   1      40.387  19.730  26.441  1.00  0.00    -0.237 OA
ATOM     79  O   UNL A   1      42.368  19.127  25.094  1.00  0.00    -0.237 OA
ATOM     80  O   UNL A   1      42.372  18.751  27.531  1.00  0.00    -0.744 OA
ENDBRANCH  76  77
ENDBRANCH  57  71
BRANCH  58  81
ATOM     81  C   UNL A   1      46.951  32.997  28.650  1.00  0.00    -0.014 A 
ATOM     82  C   UNL A   1      46.855  34.014  27.684  1.00  0.00     0.010 A 
ATOM     83  C   UNL A   1      47.547  33.289  29.892  1.00  0.00     0.010 A 
ATOM     84  C   UNL A   1      47.362  35.291  27.946  1.00  0.00     0.020 A 
ATOM     85  C   UNL A   1      48.026  34.573  30.169  1.00  0.00     0.020 A 
ATOM     86  C   UNL A   1      47.941  35.562  29.189  1.00  0.00     0.054 A 
BRANCH  86  87
ATOM     87  S   UNL A   1      48.547  37.240  29.523  1.00  0.00     0.124 S 
ATOM     88  O   UNL A   1      49.500  37.440  28.437  1.00  0.00    -0.237 OA
ATOM     89  O   UNL A   1      47.324  38.035  29.449  1.00  0.00    -0.237 OA
ATOM     90  O   UNL A   1      49.130  37.133  30.858  1.00  0.00    -0.744 OA
ENDBRANCH  86  87
ENDBRANCH  58  81
BRANCH  70  91
ATOM     91  C   UNL A   1      49.710  27.257  25.797  1.00  0.00    -0.014 A 
ATOM     92  C   UNL A   1      50.717  26.624  26.547  1.00  0.00     0.010 A 
ATOM     93  C   UNL A   1      49.956  27.569  24.447  1.00  0.00     0.010 A 
ATOM     94  C   UNL A   1      51.957  26.342  25.967  1.00  0.00     0.020 A 
ATOM     95  C   UNL A   1      51.181  27.258  23.854  1.00  0.00     0.020 A 
ATOM     96  C   UNL A   1      52.181  26.659  24.623  1.00  0.00     0.054 A 
BRANCH  96  97
ATOM     97  S   UNL A   1      53.783  26.240  23.883  1.00  0.00     0.124 S 
ATOM     98  O   UNL A   1      54.575  27.431  24.179  1.00  0.00    -0.237 OA
ATOM     99  O   UNL A   1      54.165  25.034  24.612  1.00  0.00    -0.237 OA
ATOM    100  O   UNL A   1      53.470  26.035  22.471  1.00  0.00    -0.744 OA
ENDBRANCH  96  97
ENDBRANCH  70  91
ENDBRANCH  44  45
ENDBRANCH  36  39
ENDBRANCH  34  35
ENDBRANCH  33  34
ENDBRANCH  32  33
ENDBRANCH   1  32
TORSDOF 21
ENDMDL
MODEL 2
REMARK VINA RESULT:     -10.7      1.661      8.158
REMARK SMILES CCc1ccc(Oc2ncnc(N3CCC(C(=O)NCCCCCCNC(=O)c4ccc(-c5c6nc(c(-c7ccc(S(=O)(=O)[O-])cc7)c7ccc([nH]7)c(-c7ccc(S(=O)(=O)[O-])cc7)c7nc(c(-c8ccc(S(=O)(=O)[O-])cc8)c8ccc5[nH]8)C=C7)C=C6)cc4)CC3)c2[N+](=O)[O-])cc1
REMARK SMILES IDX 22 1 21 2 20 3 19 4 17 5 18 6 16 8 13 9 14 10 90 11 15 12
REMARK SMILES IDX 89 13 12 14 8 15 9 16 91 17 10 18 11 19 7 20 6 21 3 22 4 23
REMARK SMILES IDX 96 24 5 25 95 26 2 27 1 28 92 29 93 30 94 31 23 32 24 33
REMARK SMILES IDX 25 34 26 35 27 36 28 38 29 39 30 40 88 41 31 42 87 43 32 44
REMARK SMILES IDX 33 45 34 46 81 47 35 48 86 49 80 50 82 51 36 52 85 53 79 54
REMARK SMILES IDX 78 55 37 57 67 58 48 59 66 60 49 61 52 62 65 63 83 64 50 65
REMARK SMILES IDX 51 66 64 68 84 69 53 70 38 71 39 72 47 73 40 74 46 75 41 76
REMARK SMILES IDX 42 77 43 78 44 79 45 80 68 81 69 82 77 83 70 84 76 85 71 86
REMARK SMILES IDX 72 87 73 88 74 89 75 90 54 91 55 92 63 93 56 94 62 95 57 96
REMARK SMILES IDX 58 97 59 98 60 99 61 100
REMARK H PARENT 19 7 26 37 82 56 52 67
REMARK Flexibility Score: inf
ROOT
ATOM      1  C   UNL A   1      32.630  28.725  27.226  1.00  0.00     0.002 C 
ENDROOT
BRANCH   1   2
ATOM      2  C   UNL A   1      31.508  28.723  26.184  1.00  0.00     0.021 C 
BRANCH   2   3
ATOM      3  C   UNL A   1      31.918  29.317  24.838  1.00  0.00     0.116 C 
BRANCH   3   4
ATOM      4  N   UNL A   1      30.769  29.886  24.150  1.00  0.00    -0.356 N 
ATOM      5  C   UNL A   1      29.944  29.354  23.207  1.00  0.00     0.223 C 
ATOM      6  O   UNL A   1      29.066  30.073  22.727  1.00  0.00    -0.275 OA
ATOM      7  H   UNL A   1      30.551  30.812  24.409  1.00  0.00     0.163 HD
BRANCH   5   8
ATOM      8  C   UNL A   1      30.074  27.901  22.777  1.00  0.00     0.082 C 
ATOM      9  N   UNL A   1      31.065  25.404  23.647  1.00  0.00    -0.351 N 
ATOM     10  C   UNL A   1      31.794  26.017  22.546  1.00  0.00     0.119 C 
ATOM     11  C   UNL A   1      29.620  25.534  23.624  1.00  0.00     0.119 C 
ATOM     12  C   UNL A   1      31.544  27.516  22.531  1.00  0.00     0.035 C 
ATOM     13  C   UNL A   1      29.272  27.008  23.740  1.00  0.00     0.035 C 
BRANCH   9  14
ATOM     14  C   UNL A   1      31.748  24.538  24.466  1.00  0.00     0.215 A 
ATOM     15  C   UNL A   1      33.062  22.642  25.002  1.00  0.00     0.305 A 
ATOM     16  N   UNL A   1      33.171  23.026  26.288  1.00  0.00    -0.195 NA
ATOM     17  C   UNL A   1      32.310  23.337  24.078  1.00  0.00     0.373 A 
ATOM     18  C   UNL A   1      32.558  24.167  26.603  1.00  0.00     0.228 A 
ATOM     19  N   UNL A   1      31.886  24.955  25.747  1.00  0.00    -0.212 NA
BRANCH  15  20
ATOM     20  O   UNL A   1      33.770  21.506  24.692  1.00  0.00    -0.434 OA
BRANCH  20  21
ATOM     21  C   UNL A   1      35.136  21.518  24.889  1.00  0.00     0.129 A 
ATOM     22  C   UNL A   1      37.885  21.813  25.448  1.00  0.00    -0.048 A 
ATOM     23  C   UNL A   1      37.072  22.934  25.244  1.00  0.00     0.007 A 
ATOM     24  C   UNL A   1      37.302  20.541  25.344  1.00  0.00     0.007 A 
ATOM     25  C   UNL A   1      35.710  22.787  24.966  1.00  0.00     0.047 A 
ATOM     26  C   UNL A   1      35.947  20.391  25.039  1.00  0.00     0.047 A 
BRANCH  22  27
ATOM     27  C   UNL A   1      39.343  21.903  25.835  1.00  0.00     0.032 C 
ATOM     28  C   UNL A   1      39.716  23.028  26.790  1.00  0.00     0.009 C 
ENDBRANCH  22  27
ENDBRANCH  20  21
ENDBRANCH  15  20
BRANCH  17  29
ATOM     29  N   UNL A   1      32.234  22.872  22.731  1.00  0.00     0.072 N 
ATOM     30  O   UNL A   1      33.193  23.116  21.983  1.00  0.00    -0.258 OA
ATOM     31  O   UNL A   1      31.200  22.281  22.393  1.00  0.00    -0.258 OA
ENDBRANCH  17  29
ENDBRANCH   9  14
ENDBRANCH   5   8
ENDBRANCH   3   4
ENDBRANCH   2   3
ENDBRANCH   1   2
BRANCH   1  32
ATOM     32  C   UNL A   1      33.512  29.978  27.215  1.00  0.00     0.002 C 
BRANCH  32  33
ATOM     33  C   UNL A   1      35.018  29.706  27.219  1.00  0.00     0.021 C 
BRANCH  33  34
ATOM     34  C   UNL A   1      35.832  30.676  28.066  1.00  0.00     0.116 C 
BRANCH  34  35
ATOM     35  N   UNL A   1      35.682  30.412  29.489  1.00  0.00    -0.352 N 
ATOM     36  C   UNL A   1      36.568  29.834  30.359  1.00  0.00     0.251 C 
ATOM     37  H   UNL A   1      34.823  30.688  29.881  1.00  0.00     0.163 HD
ATOM     38  O   UNL A   1      36.196  29.491  31.480  1.00  0.00    -0.269 OA
BRANCH  36  39
ATOM     39  C   UNL A   1      37.966  29.608  29.939  1.00  0.00     0.039 A 
ATOM     40  C   UNL A   1      38.949  29.436  30.916  1.00  0.00     0.014 A 
ATOM     41  C   UNL A   1      38.306  29.565  28.584  1.00  0.00     0.014 A 
ATOM     42  C   UNL A   1      40.263  29.163  30.532  1.00  0.00     0.010 A 
ATOM     43  C   UNL A   1      39.598  29.217  28.204  1.00  0.00     0.010 A 
ATOM     44  C   UNL A   1      40.592  29.016  29.174  1.00  0.00    -0.014 A 
BRANCH  44  45
ATOM     45  C   UNL A   1      41.967  28.648  28.750  1.00  0.00     0.031 A 
ATOM     46  C   UNL A   1      43.046  29.695  28.683  1.00  0.00     0.074 A 
ATOM     47  C   UNL A   1      42.227  27.382  28.366  1.00  0.00     0.049 A 
ATOM     48  N   UNL A   1      44.287  29.575  28.284  1.00  0.00    -0.248 NA
ATOM     49  C   UNL A   1      42.678  31.058  29.096  1.00  0.00     0.031 C 
ATOM     50  C   UNL A   1      41.257  26.284  28.351  1.00  0.00     0.029 A 
ATOM     51  N   UNL A   1      43.386  26.805  27.909  1.00  0.00    -0.354 N 
ATOM     52  C   UNL A   1      44.841  30.846  28.385  1.00  0.00     0.074 A 
ATOM     53  C   UNL A   1      43.789  31.731  28.831  1.00  0.00     0.031 C 
ATOM     54  C   UNL A   1      41.868  25.163  27.935  1.00  0.00     0.029 A 
ATOM     55  C   UNL A   1      43.256  25.469  27.609  1.00  0.00     0.049 A 
ATOM     56  H   UNL A   1      44.230  27.301  27.805  1.00  0.00     0.167 HD
ATOM     57  C   UNL A   1      46.116  31.236  28.145  1.00  0.00     0.031 A 
ATOM     58  C   UNL A   1      44.149  24.590  27.114  1.00  0.00     0.031 A 
ATOM     59  C   UNL A   1      47.161  30.349  27.704  1.00  0.00     0.049 A 
ATOM     60  C   UNL A   1      45.552  25.054  26.830  1.00  0.00     0.074 A 
ATOM     61  C   UNL A   1      48.496  30.637  27.483  1.00  0.00     0.029 A 
ATOM     62  N   UNL A   1      46.988  29.005  27.409  1.00  0.00    -0.354 N 
ATOM     63  N   UNL A   1      46.075  26.246  26.997  1.00  0.00    -0.248 NA
ATOM     64  C   UNL A   1      46.488  24.052  26.300  1.00  0.00     0.031 C 
ATOM     65  C   UNL A   1      49.117  29.484  26.995  1.00  0.00     0.029 A 
ATOM     66  C   UNL A   1      48.185  28.457  26.978  1.00  0.00     0.049 A 
ATOM     67  H   UNL A   1      46.140  28.512  27.493  1.00  0.00     0.167 HD
ATOM     68  C   UNL A   1      47.408  26.130  26.618  1.00  0.00     0.074 A 
ATOM     69  C   UNL A   1      47.615  24.749  26.232  1.00  0.00     0.031 C 
ATOM     70  C   UNL A   1      48.375  27.081  26.592  1.00  0.00     0.031 A 
BRANCH  57  71
ATOM     71  C   UNL A   1      46.450  32.693  28.344  1.00  0.00    -0.014 A 
ATOM     72  C   UNL A   1      46.901  33.174  29.588  1.00  0.00     0.010 A 
ATOM     73  C   UNL A   1      46.354  33.586  27.262  1.00  0.00     0.010 A 
ATOM     74  C   UNL A   1      47.209  34.526  29.755  1.00  0.00     0.020 A 
ATOM     75  C   UNL A   1      46.691  34.934  27.417  1.00  0.00     0.020 A 
ATOM     76  C   UNL A   1      47.100  35.398  28.668  1.00  0.00     0.054 A 
BRANCH  76  77
ATOM     77  S   UNL A   1      47.529  37.144  28.910  1.00  0.00     0.124 S 
ATOM     78  O   UNL A   1      48.035  37.142  30.281  1.00  0.00    -0.237 OA
ATOM     79  O   UNL A   1      48.531  37.373  27.872  1.00  0.00    -0.237 OA
ATOM     80  O   UNL A   1      46.261  37.844  28.717  1.00  0.00    -0.744 OA
ENDBRANCH  76  77
ENDBRANCH  57  71
BRANCH  58  81
ATOM     81  C   UNL A   1      43.745  23.179  26.863  1.00  0.00    -0.014 A 
ATOM     82  C   UNL A   1      44.120  22.526  25.676  1.00  0.00     0.010 A 
ATOM     83  C   UNL A   1      42.989  22.474  27.819  1.00  0.00     0.010 A 
ATOM     84  C   UNL A   1      43.731  21.204  25.440  1.00  0.00     0.020 A 
ATOM     85  C   UNL A   1      42.625  21.143  27.601  1.00  0.00     0.020 A 
ATOM     86  C   UNL A   1      42.989  20.520  26.406  1.00  0.00     0.054 A 
BRANCH  86  87
ATOM     87  S   UNL A   1      42.538  18.789  26.099  1.00  0.00     0.124 S 
ATOM     88  O   UNL A   1      43.464  18.419  25.034  1.00  0.00    -0.237 OA
ATOM     89  O   UNL A   1      42.783  18.166  27.397  1.00  0.00    -0.237 OA
ATOM     90  O   UNL A   1      41.132  18.866  25.709  1.00  0.00    -0.744 OA
ENDBRANCH  86  87
ENDBRANCH  58  81
BRANCH  70  91
ATOM     91  C   UNL A   1      49.755  26.657  26.161  1.00  0.00    -0.014 A 
ATOM     92  C   UNL A   1      50.230  26.924  24.865  1.00  0.00     0.010 A 
ATOM     93  C   UNL A   1      50.609  26.030  27.088  1.00  0.00     0.010 A 
ATOM     94  C   UNL A   1      51.522  26.540  24.494  1.00  0.00     0.020 A 
ATOM     95  C   UNL A   1      51.911  25.675  26.731  1.00  0.00     0.020 A 
ATOM     96  C   UNL A   1      52.355  25.920  25.430  1.00  0.00     0.054 A 
BRANCH  96  97
ATOM     97  S   UNL A   1      54.042  25.473  24.936  1.00  0.00     0.124 S 
ATOM     98  O   UNL A   1      54.847  26.181  25.928  1.00  0.00    -0.237 OA
ATOM     99  O   UNL A   1      54.034  24.017  25.054  1.00  0.00    -0.237 OA
ATOM    100  O   UNL A   1      54.150  25.980  23.570  1.00  0.00    -0.744 OA
ENDBRANCH  96  97
ENDBRANCH  70  91
ENDBRANCH  44  45
ENDBRANCH  36  39
ENDBRANCH  34  35
ENDBRANCH  33  34
ENDBRANCH  32  33
ENDBRANCH   1  32
TORSDOF 21
ENDMDL
MODEL 3
REMARK VINA RESULT:     -10.5      1.928      8.275
REMARK SMILES CCc1ccc(Oc2ncnc(N3CCC(C(=O)NCCCCCCNC(=O)c4ccc(-c5c6nc(c(-c7ccc(S(=O)(=O)[O-])cc7)c7ccc([nH]7)c(-c7ccc(S(=O)(=O)[O-])cc7)c7nc(c(-c8ccc(S(=O)(=O)[O-])cc8)c8ccc5[nH]8)C=C7)C=C6)cc4)CC3)c2[N+](=O)[O-])cc1
REMARK SMILES IDX 22 1 21 2 20 3 19 4 17 5 18 6 16 8 13 9 14 10 90 11 15 12
REMARK SMILES IDX 89 13 12 14 8 15 9 16 91 17 10 18 11 19 7 20 6 21 3 22 4 23
REMARK SMILES IDX 96 24 5 25 95 26 2 27 1 28 92 29 93 30 94 31 23 32 24 33
REMARK SMILES IDX 25 34 26 35 27 36 28 38 29 39 30 40 88 41 31 42 87 43 32 44
REMARK SMILES IDX 33 45 34 46 81 47 35 48 86 49 80 50 82 51 36 52 85 53 79 54
REMARK SMILES IDX 78 55 37 57 67 58 48 59 66 60 49 61 52 62 65 63 83 64 50 65
REMARK SMILES IDX 51 66 64 68 84 69 53 70 38 71 39 72 47 73 40 74 46 75 41 76
REMARK SMILES IDX 42 77 43 78 44 79 45 80 68 81 69 82 77 83 70 84 76 85 71 86
REMARK SMILES IDX 72 87 73 88 74 89 75 90 54 91 55 92 63 93 56 94 62 95 57 96
REMARK SMILES IDX 58 97 59 98 60 99 61 100
REMARK H PARENT 19 7 26 37 82 56 52 67
REMARK Flexibility Score: inf
ROOT
ATOM      1  C   UNL A   1      32.781  30.575  26.711  1.00  0.00     0.002 C 
ENDROOT
BRANCH   1   2
ATOM      2  C   UNL A   1      31.519  30.199  25.928  1.00  0.00     0.021 C 
BRANCH   2   3
ATOM      3  C   UNL A   1      31.453  28.723  25.540  1.00  0.00     0.116 C 
BRANCH   3   4
ATOM      4  N   UNL A   1      31.140  28.571  24.127  1.00  0.00    -0.356 N 
ATOM      5  C   UNL A   1      30.751  27.477  23.416  1.00  0.00     0.223 C 
ATOM      6  O   UNL A   1      30.604  27.595  22.198  1.00  0.00    -0.275 OA
ATOM      7  H   UNL A   1      31.224  29.397  23.596  1.00  0.00     0.163 HD
BRANCH   5   8
ATOM      8  C   UNL A   1      30.468  26.151  24.103  1.00  0.00     0.082 C 
ATOM      9  N   UNL A   1      31.713  23.737  24.878  1.00  0.00    -0.351 N 
ATOM     10  C   UNL A   1      30.749  23.624  23.793  1.00  0.00     0.119 C 
ATOM     11  C   UNL A   1      31.374  24.645  25.958  1.00  0.00     0.119 C 
ATOM     12  C   UNL A   1      30.569  24.973  23.117  1.00  0.00     0.035 C 
ATOM     13  C   UNL A   1      31.303  26.054  25.393  1.00  0.00     0.035 C 
BRANCH   9  14
ATOM     14  C   UNL A   1      32.720  22.806  24.942  1.00  0.00     0.215 A 
ATOM     15  C   UNL A   1      34.886  21.925  24.562  1.00  0.00     0.305 A 
ATOM     16  N   UNL A   1      34.629  20.845  25.324  1.00  0.00    -0.195 NA
ATOM     17  C   UNL A   1      33.940  22.894  24.298  1.00  0.00     0.373 A 
ATOM     18  C   UNL A   1      33.413  20.800  25.869  1.00  0.00     0.228 A 
ATOM     19  N   UNL A   1      32.465  21.744  25.743  1.00  0.00    -0.212 NA
BRANCH  15  20
ATOM     20  O   UNL A   1      36.171  21.981  24.080  1.00  0.00    -0.434 OA
BRANCH  20  21
ATOM     21  C   UNL A   1      37.186  22.274  24.969  1.00  0.00     0.129 A 
ATOM     22  C   UNL A   1      39.440  22.683  26.616  1.00  0.00    -0.048 A 
ATOM     23  C   UNL A   1      39.224  21.449  25.991  1.00  0.00     0.007 A 
ATOM     24  C   UNL A   1      38.495  23.701  26.421  1.00  0.00     0.007 A 
ATOM     25  C   UNL A   1      38.106  21.247  25.176  1.00  0.00     0.047 A 
ATOM     26  C   UNL A   1      37.363  23.493  25.629  1.00  0.00     0.047 A 
BRANCH  22  27
ATOM     27  C   UNL A   1      40.668  22.994  27.438  1.00  0.00     0.032 C 
ATOM     28  C   UNL A   1      41.487  21.798  27.902  1.00  0.00     0.009 C 
ENDBRANCH  22  27
ENDBRANCH  20  21
ENDBRANCH  15  20
BRANCH  17  29
ATOM     29  N   UNL A   1      34.279  24.012  23.480  1.00  0.00     0.072 N 
ATOM     30  O   UNL A   1      34.180  23.878  22.251  1.00  0.00    -0.258 OA
ATOM     31  O   UNL A   1      34.677  25.034  24.055  1.00  0.00    -0.258 OA
ENDBRANCH  17  29
ENDBRANCH   9  14
ENDBRANCH   5   8
ENDBRANCH   3   4
ENDBRANCH   2   3
ENDBRANCH   1   2
BRANCH   1  32
ATOM     32  C   UNL A   1      34.068  29.914  26.206  1.00  0.00     0.002 C 
BRANCH  32  33
ATOM     33  C   UNL A   1      34.845  29.128  27.264  1.00  0.00     0.021 C 
BRANCH  33  34
ATOM     34  C   UNL A   1      35.926  29.931  27.979  1.00  0.00     0.116 C 
BRANCH  34  35
ATOM     35  N   UNL A   1      35.883  29.734  29.420  1.00  0.00    -0.352 N 
ATOM     36  C   UNL A   1      36.888  29.356  30.271  1.00  0.00     0.251 C 
ATOM     37  H   UNL A   1      35.010  29.896  29.843  1.00  0.00     0.163 HD
ATOM     38  O   UNL A   1      36.626  29.030  31.427  1.00  0.00    -0.269 OA
BRANCH  36  39
ATOM     39  C   UNL A   1      38.284  29.326  29.789  1.00  0.00     0.039 A 
ATOM     40  C   UNL A   1      39.303  29.779  30.630  1.00  0.00     0.014 A 
ATOM     41  C   UNL A   1      38.587  28.850  28.510  1.00  0.00     0.014 A 
ATOM     42  C   UNL A   1      40.631  29.700  30.209  1.00  0.00     0.010 A 
ATOM     43  C   UNL A   1      39.915  28.700  28.122  1.00  0.00     0.010 A 
ATOM     44  C   UNL A   1      40.951  29.128  28.967  1.00  0.00    -0.014 A 
BRANCH  44  45
ATOM     45  C   UNL A   1      42.363  28.963  28.535  1.00  0.00     0.031 A 
ATOM     46  C   UNL A   1      43.320  30.122  28.613  1.00  0.00     0.074 A 
ATOM     47  C   UNL A   1      42.766  27.786  28.016  1.00  0.00     0.049 A 
ATOM     48  N   UNL A   1      44.571  30.184  28.231  1.00  0.00    -0.248 NA
ATOM     49  C   UNL A   1      42.799  31.380  29.169  1.00  0.00     0.031 C 
ATOM     50  C   UNL A   1      41.924  26.598  27.854  1.00  0.00     0.029 A 
ATOM     51  N   UNL A   1      43.986  27.395  27.524  1.00  0.00    -0.354 N 
ATOM     52  C   UNL A   1      44.980  31.488  28.489  1.00  0.00     0.074 A 
ATOM     53  C   UNL A   1      43.831  32.196  29.008  1.00  0.00     0.031 C 
ATOM     54  C   UNL A   1      42.659  25.605  27.328  1.00  0.00     0.029 A 
ATOM     55  C   UNL A   1      44.008  26.097  27.071  1.00  0.00     0.049 A 
ATOM     56  H   UNL A   1      44.771  27.988  27.496  1.00  0.00     0.167 HD
ATOM     57  C   UNL A   1      46.206  32.040  28.324  1.00  0.00     0.031 A 
ATOM     58  C   UNL A   1      44.999  25.383  26.500  1.00  0.00     0.031 A 
ATOM     59  C   UNL A   1      47.347  31.329  27.809  1.00  0.00     0.049 A 
ATOM     60  C   UNL A   1      46.344  26.027  26.303  1.00  0.00     0.074 A 
ATOM     61  C   UNL A   1      48.645  31.784  27.654  1.00  0.00     0.029 A 
ATOM     62  N   UNL A   1      47.327  30.016  27.360  1.00  0.00    -0.354 N 
ATOM     63  N   UNL A   1      46.730  27.240  26.616  1.00  0.00    -0.248 NA
ATOM     64  C   UNL A   1      47.391  25.200  25.685  1.00  0.00     0.031 C 
ATOM     65  C   UNL A   1      49.394  30.769  27.052  1.00  0.00     0.029 A 
ATOM     66  C   UNL A   1      48.582  29.656  26.897  1.00  0.00     0.049 A 
ATOM     67  H   UNL A   1      46.538  29.428  27.368  1.00  0.00     0.167 HD
ATOM     68  C   UNL A   1      48.072  27.315  26.258  1.00  0.00     0.074 A 
ATOM     69  C   UNL A   1      48.434  26.018  25.723  1.00  0.00     0.031 C 
ATOM     70  C   UNL A   1      48.927  28.362  26.362  1.00  0.00     0.031 A 
BRANCH  57  71
ATOM     71  C   UNL A   1      46.374  33.491  28.695  1.00  0.00    -0.014 A 
ATOM     72  C   UNL A   1      46.147  34.515  27.756  1.00  0.00     0.010 A 
ATOM     73  C   UNL A   1      46.721  33.840  30.013  1.00  0.00     0.010 A 
ATOM     74  C   UNL A   1      46.305  35.855  28.117  1.00  0.00     0.020 A 
ATOM     75  C   UNL A   1      46.850  35.181  30.386  1.00  0.00     0.020 A 
ATOM     76  C   UNL A   1      46.658  36.180  29.430  1.00  0.00     0.054 A 
BRANCH  76  77
ATOM     77  S   UNL A   1      46.833  37.930  29.875  1.00  0.00     0.124 S 
ATOM     78  O   UNL A   1      45.504  38.453  29.566  1.00  0.00    -0.237 OA
ATOM     79  O   UNL A   1      47.168  37.866  31.295  1.00  0.00    -0.237 OA
ATOM     80  O   UNL A   1      47.906  38.404  29.004  1.00  0.00    -0.744 OA
ENDBRANCH  76  77
ENDBRANCH  57  71
BRANCH  58  81
ATOM     81  C   UNL A   1      44.756  23.975  26.081  1.00  0.00    -0.014 A 
ATOM     82  C   UNL A   1      44.161  23.688  24.840  1.00  0.00     0.010 A 
ATOM     83  C   UNL A   1      45.130  22.908  26.921  1.00  0.00     0.010 A 
ATOM     84  C   UNL A   1      43.926  22.364  24.455  1.00  0.00     0.020 A 
ATOM     85  C   UNL A   1      44.927  21.583  26.525  1.00  0.00     0.020 A 
ATOM     86  C   UNL A   1      44.315  21.321  25.299  1.00  0.00     0.054 A 
BRANCH  86  87
ATOM     87  S   UNL A   1      44.046  19.610  24.754  1.00  0.00     0.124 S 
ATOM     88  O   UNL A   1      42.616  19.439  24.989  1.00  0.00    -0.237 OA
ATOM     89  O   UNL A   1      44.457  19.659  23.354  1.00  0.00    -0.237 OA
ATOM     90  O   UNL A   1      44.922  18.832  25.626  1.00  0.00    -0.744 OA
ENDBRANCH  86  87
ENDBRANCH  58  81
BRANCH  70  91
ATOM     91  C   UNL A   1      50.350  28.144  25.918  1.00  0.00    -0.014 A 
ATOM     92  C   UNL A   1      50.732  28.317  24.576  1.00  0.00     0.010 A 
ATOM     93  C   UNL A   1      51.331  27.813  26.872  1.00  0.00     0.010 A 
ATOM     94  C   UNL A   1      52.063  28.129  24.191  1.00  0.00     0.020 A 
ATOM     95  C   UNL A   1      52.667  27.657  26.496  1.00  0.00     0.020 A 
ATOM     96  C   UNL A   1      53.022  27.802  25.154  1.00  0.00     0.054 A 
BRANCH  96  97
ATOM     97  S   UNL A   1      54.749  27.609  24.634  1.00  0.00     0.124 S 
ATOM     98  O   UNL A   1      55.431  27.409  25.910  1.00  0.00    -0.237 OA
ATOM     99  O   UNL A   1      54.690  26.438  23.762  1.00  0.00    -0.237 OA
ATOM    100  O   UNL A   1      55.051  28.868  23.957  1.00  0.00    -0.744 OA
ENDBRANCH  96  97
ENDBRANCH  70  91
ENDBRANCH  44  45
ENDBRANCH  36  39
ENDBRANCH  34  35
ENDBRANCH  33  34
ENDBRANCH  32  33
ENDBRANCH   1  32
TORSDOF 21
ENDMDL
