MODEL 1
REMARK VINA RESULT:     -10.0      0.000      0.000
REMARK SMILES O=C(NCCCCCCNC(=O)c1ccc(CNC(=O)c2cccnc2)o1)c1ccc(-c2c3nc(c(-c4ccc(S(=O)(=O)[O-])cc4)c4ccc([nH]4)c(-c4ccc(S(=O)(=O)[O-])cc4)c4nc(c(-c5ccc(S(=O)(=O)[O-])cc5)c5ccc2[nH]5)C=C4)C=C3)cc1
REMARK SMILES IDX 6 1 5 2 4 3 3 4 1 5 2 6 28 8 29 9 87 10 30 11 86 12 31 13
REMARK SMILES IDX 32 14 33 15 80 16 34 17 85 18 79 19 81 20 35 21 84 22 78 23
REMARK SMILES IDX 77 24 36 26 66 27 47 28 65 29 48 30 51 31 64 32 82 33 49 34
REMARK SMILES IDX 50 35 63 37 83 38 52 39 37 40 38 41 46 42 39 43 45 44 40 45
REMARK SMILES IDX 41 46 42 47 43 48 44 49 67 50 68 51 76 52 69 53 75 54 70 55
REMARK SMILES IDX 71 56 72 57 73 58 74 59 53 60 54 61 62 62 55 63 61 64 56 65
REMARK SMILES IDX 57 66 58 67 59 68 60 69 7 70 8 71 9 72 10 73 11 74 12 76
REMARK SMILES IDX 13 77 14 78 27 79 15 80 16 81 17 82 18 83 19 84 20 86 21 87
REMARK SMILES IDX 22 88 26 89 23 90 25 91 24 92
REMARK H PARENT 3 7 81 25 51 36 10 75 18 85
REMARK Flexibility Score: inf
ROOT
ATOM      1  C   UNL A   1      32.849  26.118  26.048  1.00  0.00     0.002 C 
ENDROOT
BRANCH   1   2
ATOM      2  C   UNL A   1      32.614  27.493  26.674  1.00  0.00     0.021 C 
BRANCH   2   3
ATOM      3  C   UNL A   1      33.829  28.412  26.704  1.00  0.00     0.116 C 
BRANCH   3   4
ATOM      4  N   UNL A   1      33.473  29.819  26.787  1.00  0.00    -0.352 N 
ATOM      5  O   UNL A   1      33.580  31.936  27.558  1.00  0.00    -0.269 OA
ATOM      6  C   UNL A   1      34.096  30.825  27.490  1.00  0.00     0.251 C 
ATOM      7  H   UNL A   1      32.679  30.088  26.270  1.00  0.00     0.163 HD
BRANCH   6   8
ATOM      8  C   UNL A   1      35.374  30.552  28.188  1.00  0.00     0.039 A 
ATOM      9  C   UNL A   1      36.553  31.183  27.787  1.00  0.00     0.014 A 
ATOM     10  C   UNL A   1      35.392  29.656  29.261  1.00  0.00     0.014 A 
ATOM     11  C   UNL A   1      37.764  30.817  28.363  1.00  0.00     0.010 A 
ATOM     12  C   UNL A   1      36.601  29.351  29.898  1.00  0.00     0.010 A 
ATOM     13  C   UNL A   1      37.802  29.909  29.437  1.00  0.00    -0.014 A 
BRANCH  13  14
ATOM     14  C   UNL A   1      39.105  29.634  30.096  1.00  0.00     0.031 A 
ATOM     15  C   UNL A   1      39.527  30.358  31.346  1.00  0.00     0.074 A 
ATOM     16  C   UNL A   1      39.887  28.665  29.579  1.00  0.00     0.049 A 
ATOM     17  N   UNL A   1      40.594  30.167  32.080  1.00  0.00    -0.248 NA
ATOM     18  C   UNL A   1      38.648  31.432  31.833  1.00  0.00     0.031 C 
ATOM     19  C   UNL A   1      39.594  27.908  28.357  1.00  0.00     0.029 A 
ATOM     20  N   UNL A   1      41.065  28.125  30.027  1.00  0.00    -0.354 N 
ATOM     21  C   UNL A   1      40.522  31.099  33.109  1.00  0.00     0.074 A 
ATOM     22  C   UNL A   1      39.318  31.872  32.892  1.00  0.00     0.031 C 
ATOM     23  C   UNL A   1      40.531  26.964  28.187  1.00  0.00     0.029 A 
ATOM     24  C   UNL A   1      41.519  27.082  29.254  1.00  0.00     0.049 A 
ATOM     25  H   UNL A   1      41.541  28.452  30.824  1.00  0.00     0.167 HD
ATOM     26  C   UNL A   1      41.379  31.288  34.143  1.00  0.00     0.031 A 
ATOM     27  C   UNL A   1      42.611  26.307  29.380  1.00  0.00     0.031 A 
ATOM     28  C   UNL A   1      42.579  30.519  34.355  1.00  0.00     0.049 A 
ATOM     29  C   UNL A   1      43.539  26.538  30.536  1.00  0.00     0.074 A 
ATOM     30  C   UNL A   1      43.506  30.632  35.378  1.00  0.00     0.029 A 
ATOM     31  N   UNL A   1      43.019  29.492  33.534  1.00  0.00    -0.354 N 
ATOM     32  N   UNL A   1      43.438  27.414  31.507  1.00  0.00    -0.248 NA
ATOM     33  C   UNL A   1      44.725  25.677  30.612  1.00  0.00     0.031 C 
ATOM     34  C   UNL A   1      44.524  29.699  35.155  1.00  0.00     0.029 A 
ATOM     35  C   UNL A   1      44.208  28.973  34.019  1.00  0.00     0.049 A 
ATOM     36  H   UNL A   1      42.554  29.178  32.724  1.00  0.00     0.167 HD
ATOM     37  C   UNL A   1      44.553  27.210  32.310  1.00  0.00     0.074 A 
ATOM     38  C   UNL A   1      45.291  26.104  31.733  1.00  0.00     0.031 C 
ATOM     39  C   UNL A   1      44.938  27.886  33.421  1.00  0.00     0.031 A 
BRANCH  26  40
ATOM     40  C   UNL A   1      41.057  32.378  35.130  1.00  0.00    -0.014 A 
ATOM     41  C   UNL A   1      40.434  32.081  36.355  1.00  0.00     0.010 A 
ATOM     42  C   UNL A   1      41.452  33.703  34.867  1.00  0.00     0.010 A 
ATOM     43  C   UNL A   1      40.191  33.092  37.288  1.00  0.00     0.020 A 
ATOM     44  C   UNL A   1      41.228  34.714  35.806  1.00  0.00     0.020 A 
ATOM     45  C   UNL A   1      40.589  34.403  37.008  1.00  0.00     0.054 A 
BRANCH  45  46
ATOM     46  S   UNL A   1      40.299  35.688  38.257  1.00  0.00     0.124 S 
ATOM     47  O   UNL A   1      39.817  36.798  37.439  1.00  0.00    -0.237 OA
ATOM     48  O   UNL A   1      39.300  35.070  39.127  1.00  0.00    -0.237 OA
ATOM     49  O   UNL A   1      41.612  35.884  38.864  1.00  0.00    -0.744 OA
ENDBRANCH  45  46
ENDBRANCH  26  40
BRANCH  27  50
ATOM     50  C   UNL A   1      42.889  25.253  28.370  1.00  0.00    -0.014 A 
ATOM     51  C   UNL A   1      42.385  23.952  28.528  1.00  0.00     0.010 A 
ATOM     52  C   UNL A   1      43.655  25.560  27.229  1.00  0.00     0.010 A 
ATOM     53  C   UNL A   1      42.657  22.968  27.572  1.00  0.00     0.020 A 
ATOM     54  C   UNL A   1      43.905  24.588  26.258  1.00  0.00     0.020 A 
ATOM     55  C   UNL A   1      43.416  23.293  26.443  1.00  0.00     0.054 A 
BRANCH  55  56
ATOM     56  S   UNL A   1      43.720  22.021  25.186  1.00  0.00     0.124 S 
ATOM     57  O   UNL A   1      45.080  21.602  25.505  1.00  0.00    -0.237 OA
ATOM     58  O   UNL A   1      42.673  21.041  25.464  1.00  0.00    -0.237 OA
ATOM     59  O   UNL A   1      43.563  22.747  23.927  1.00  0.00    -0.744 OA
ENDBRANCH  55  56
ENDBRANCH  27  50
BRANCH  39  60
ATOM     60  C   UNL A   1      46.214  27.436  34.075  1.00  0.00    -0.014 A 
ATOM     61  C   UNL A   1      46.209  26.404  35.031  1.00  0.00     0.010 A 
ATOM     62  C   UNL A   1      47.432  28.049  33.729  1.00  0.00     0.010 A 
ATOM     63  C   UNL A   1      47.393  26.025  35.667  1.00  0.00     0.020 A 
ATOM     64  C   UNL A   1      48.622  27.655  34.345  1.00  0.00     0.020 A 
ATOM     65  C   UNL A   1      48.591  26.660  35.326  1.00  0.00     0.054 A 
BRANCH  65  66
ATOM     66  S   UNL A   1      50.121  26.150  36.157  1.00  0.00     0.124 S 
ATOM     67  O   UNL A   1      50.391  27.296  37.020  1.00  0.00    -0.237 OA
ATOM     68  O   UNL A   1      49.723  24.924  36.846  1.00  0.00    -0.237 OA
ATOM     69  O   UNL A   1      51.063  25.960  35.057  1.00  0.00    -0.744 OA
ENDBRANCH  65  66
ENDBRANCH  39  60
ENDBRANCH  13  14
ENDBRANCH   6   8
ENDBRANCH   3   4
ENDBRANCH   2   3
ENDBRANCH   1   2
BRANCH   1  70
ATOM     70  C   UNL A   1      34.231  25.896  25.426  1.00  0.00     0.002 C 
BRANCH  70  71
ATOM     71  C   UNL A   1      34.859  24.517  25.661  1.00  0.00     0.021 C 
BRANCH  71  72
ATOM     72  C   UNL A   1      33.895  23.427  26.127  1.00  0.00     0.116 C 
BRANCH  72  73
ATOM     73  N   UNL A   1      33.848  22.311  25.200  1.00  0.00    -0.349 N 
ATOM     74  C   UNL A   1      32.993  22.108  24.143  1.00  0.00     0.286 C 
ATOM     75  H   UNL A   1      34.519  21.604  25.349  1.00  0.00     0.163 HD
ATOM     76  O   UNL A   1      33.009  21.006  23.592  1.00  0.00    -0.266 OA
BRANCH  74  77
ATOM     77  C   UNL A   1      32.131  23.194  23.739  1.00  0.00     0.191 A 
ATOM     78  C   UNL A   1      30.786  23.442  23.943  1.00  0.00     0.056 A 
ATOM     79  O   UNL A   1      32.671  24.204  22.994  1.00  0.00    -0.454 OA
ATOM     80  C   UNL A   1      30.487  24.651  23.269  1.00  0.00     0.048 A 
ATOM     81  C   UNL A   1      31.664  25.071  22.689  1.00  0.00     0.124 A 
BRANCH  81  82
ATOM     82  C   UNL A   1      32.017  26.194  21.790  1.00  0.00     0.191 C 
BRANCH  82  83
ATOM     83  N   UNL A   1      32.653  27.249  22.552  1.00  0.00    -0.345 N 
ATOM     84  C   UNL A   1      32.132  28.451  22.956  1.00  0.00     0.253 C 
ATOM     85  H   UNL A   1      33.586  27.080  22.816  1.00  0.00     0.164 HD
ATOM     86  O   UNL A   1      32.852  29.294  23.483  1.00  0.00    -0.269 OA
BRANCH  84  87
ATOM     87  C   UNL A   1      30.706  28.755  22.750  1.00  0.00     0.058 A 
ATOM     88  C   UNL A   1      29.684  28.138  23.474  1.00  0.00     0.017 A 
ATOM     89  C   UNL A   1      30.361  29.727  21.821  1.00  0.00     0.124 A 
ATOM     90  C   UNL A   1      28.361  28.472  23.196  1.00  0.00     0.021 A 
ATOM     91  N   UNL A   1      29.081  30.075  21.538  1.00  0.00    -0.264 NA
ATOM     92  C   UNL A   1      28.112  29.432  22.226  1.00  0.00     0.111 A 
ENDBRANCH  84  87
ENDBRANCH  82  83
ENDBRANCH  81  82
ENDBRANCH  74  77
ENDBRANCH  72  73
ENDBRANCH  71  72
ENDBRANCH  70  71
ENDBRANCH   1  70
TORSDOF 19
ENDMDL
MODEL 2
REMARK VINA RESULT:     -10.0      2.611      8.242
REMARK SMILES O=C(NCCCCCCNC(=O)c1ccc(CNC(=O)c2cccnc2)o1)c1ccc(-c2c3nc(c(-c4ccc(S(=O)(=O)[O-])cc4)c4ccc([nH]4)c(-c4ccc(S(=O)(=O)[O-])cc4)c4nc(c(-c5ccc(S(=O)(=O)[O-])cc5)c5ccc2[nH]5)C=C4)C=C3)cc1
REMARK SMILES IDX 6 1 5 2 4 3 3 4 1 5 2 6 28 8 29 9 87 10 30 11 86 12 31 13
REMARK SMILES IDX 32 14 33 15 80 16 34 17 85 18 79 19 81 20 35 21 84 22 78 23
REMARK SMILES IDX 77 24 36 26 66 27 47 28 65 29 48 30 51 31 64 32 82 33 49 34
REMARK SMILES IDX 50 35 63 37 83 38 52 39 37 40 38 41 46 42 39 43 45 44 40 45
REMARK SMILES IDX 41 46 42 47 43 48 44 49 67 50 68 51 76 52 69 53 75 54 70 55
REMARK SMILES IDX 71 56 72 57 73 58 74 59 53 60 54 61 62 62 55 63 61 64 56 65
REMARK SMILES IDX 57 66 58 67 59 68 60 69 7 70 8 71 9 72 10 73 11 74 12 76
REMARK SMILES IDX 13 77 14 78 27 79 15 80 16 81 17 82 18 83 19 84 20 86 21 87
REMARK SMILES IDX 22 88 26 89 23 90 25 91 24 92
REMARK H PARENT 3 7 81 25 51 36 10 75 18 85
REMARK Flexibility Score: inf
ROOT
ATOM      1  C   UNL A   1      32.806  26.037  26.046  1.00  0.00     0.002 C 
ENDROOT
BRANCH   1   2
ATOM      2  C   UNL A   1      32.550  27.317  26.841  1.00  0.00     0.021 C 
BRANCH   2   3
ATOM      3  C   UNL A   1      33.761  28.224  27.024  1.00  0.00     0.116 C 
BRANCH   3   4
ATOM      4  N   UNL A   1      33.399  29.614  27.251  1.00  0.00    -0.352 N 
ATOM      5  O   UNL A   1      33.629  31.701  28.075  1.00  0.00    -0.269 OA
ATOM      6  C   UNL A   1      34.142  30.611  27.841  1.00  0.00     0.251 C 
ATOM      7  H   UNL A   1      32.502  29.875  26.941  1.00  0.00     0.163 HD
BRANCH   6   8
ATOM      8  C   UNL A   1      35.552  30.355  28.216  1.00  0.00     0.039 A 
ATOM      9  C   UNL A   1      36.570  30.441  27.264  1.00  0.00     0.014 A 
ATOM     10  C   UNL A   1      35.860  30.028  29.541  1.00  0.00     0.014 A 
ATOM     11  C   UNL A   1      37.866  30.068  27.602  1.00  0.00     0.010 A 
ATOM     12  C   UNL A   1      37.181  29.735  29.900  1.00  0.00     0.010 A 
ATOM     13  C   UNL A   1      38.191  29.726  28.927  1.00  0.00    -0.014 A 
BRANCH  13  14
ATOM     14  C   UNL A   1      39.611  29.445  29.265  1.00  0.00     0.031 A 
ATOM     15  C   UNL A   1      40.257  28.129  28.930  1.00  0.00     0.074 A 
ATOM     16  C   UNL A   1      40.337  30.431  29.831  1.00  0.00     0.049 A 
ATOM     17  N   UNL A   1      41.506  27.768  29.086  1.00  0.00    -0.248 NA
ATOM     18  C   UNL A   1      39.400  27.083  28.352  1.00  0.00     0.031 C 
ATOM     19  C   UNL A   1      39.814  31.744  30.223  1.00  0.00     0.029 A 
ATOM     20  N   UNL A   1      41.670  30.500  30.145  1.00  0.00    -0.354 N 
ATOM     21  C   UNL A   1      41.585  26.455  28.636  1.00  0.00     0.074 A 
ATOM     22  C   UNL A   1      40.252  26.073  28.223  1.00  0.00     0.031 C 
ATOM     23  C   UNL A   1      40.823  32.507  30.666  1.00  0.00     0.029 A 
ATOM     24  C   UNL A   1      42.053  31.723  30.642  1.00  0.00     0.049 A 
ATOM     25  H   UNL A   1      42.292  29.746  30.027  1.00  0.00     0.167 HD
ATOM     26  C   UNL A   1      42.671  25.646  28.569  1.00  0.00     0.031 A 
ATOM     27  C   UNL A   1      43.257  32.169  31.042  1.00  0.00     0.031 A 
ATOM     28  C   UNL A   1      43.997  26.028  28.985  1.00  0.00     0.049 A 
ATOM     29  C   UNL A   1      44.441  31.252  30.952  1.00  0.00     0.074 A 
ATOM     30  C   UNL A   1      45.161  25.279  28.948  1.00  0.00     0.029 A 
ATOM     31  N   UNL A   1      44.338  27.265  29.510  1.00  0.00    -0.354 N 
ATOM     32  N   UNL A   1      44.493  30.020  30.505  1.00  0.00    -0.248 NA
ATOM     33  C   UNL A   1      45.726  31.784  31.422  1.00  0.00     0.031 C 
ATOM     34  C   UNL A   1      46.199  26.050  29.485  1.00  0.00     0.029 A 
ATOM     35  C   UNL A   1      45.690  27.296  29.813  1.00  0.00     0.049 A 
ATOM     36  H   UNL A   1      43.711  28.012  29.649  1.00  0.00     0.167 HD
ATOM     37  C   UNL A   1      45.818  29.629  30.643  1.00  0.00     0.074 A 
ATOM     38  C   UNL A   1      46.540  30.766  31.178  1.00  0.00     0.031 C 
ATOM     39  C   UNL A   1      46.386  28.430  30.362  1.00  0.00     0.031 A 
BRANCH  26  40
ATOM     40  C   UNL A   1      42.476  24.254  28.031  1.00  0.00    -0.014 A 
ATOM     41  C   UNL A   1      42.329  23.159  28.900  1.00  0.00     0.010 A 
ATOM     42  C   UNL A   1      42.362  24.046  26.644  1.00  0.00     0.010 A 
ATOM     43  C   UNL A   1      42.092  21.879  28.391  1.00  0.00     0.020 A 
ATOM     44  C   UNL A   1      42.106  22.771  26.132  1.00  0.00     0.020 A 
ATOM     45  C   UNL A   1      41.983  21.692  27.010  1.00  0.00     0.054 A 
BRANCH  45  46
ATOM     46  S   UNL A   1      41.633  20.026  26.380  1.00  0.00     0.124 S 
ATOM     47  O   UNL A   1      40.204  20.108  26.092  1.00  0.00    -0.237 OA
ATOM     48  O   UNL A   1      42.505  19.935  25.211  1.00  0.00    -0.237 OA
ATOM     49  O   UNL A   1      41.996  19.152  27.492  1.00  0.00    -0.744 OA
ENDBRANCH  45  46
ENDBRANCH  26  40
BRANCH  27  50
ATOM     50  C   UNL A   1      43.393  33.549  31.578  1.00  0.00    -0.014 A 
ATOM     51  C   UNL A   1      43.662  34.631  30.724  1.00  0.00     0.010 A 
ATOM     52  C   UNL A   1      43.236  33.784  32.957  1.00  0.00     0.010 A 
ATOM     53  C   UNL A   1      43.791  35.923  31.242  1.00  0.00     0.020 A 
ATOM     54  C   UNL A   1      43.335  35.077  33.474  1.00  0.00     0.020 A 
ATOM     55  C   UNL A   1      43.627  36.137  32.614  1.00  0.00     0.054 A 
BRANCH  55  56
ATOM     56  S   UNL A   1      43.747  37.826  33.267  1.00  0.00     0.124 S 
ATOM     57  O   UNL A   1      45.016  37.781  33.986  1.00  0.00    -0.237 OA
ATOM     58  O   UNL A   1      43.736  38.639  32.053  1.00  0.00    -0.237 OA
ATOM     59  O   UNL A   1      42.554  37.951  34.101  1.00  0.00    -0.744 OA
ENDBRANCH  55  56
ENDBRANCH  27  50
BRANCH  39  60
ATOM     60  C   UNL A   1      47.859  28.303  30.630  1.00  0.00    -0.014 A 
ATOM     61  C   UNL A   1      48.332  27.955  31.909  1.00  0.00     0.010 A 
ATOM     62  C   UNL A   1      48.782  28.530  29.593  1.00  0.00     0.010 A 
ATOM     63  C   UNL A   1      49.704  27.885  32.159  1.00  0.00     0.020 A 
ATOM     64  C   UNL A   1      50.154  28.436  29.834  1.00  0.00     0.020 A 
ATOM     65  C   UNL A   1      50.607  28.135  31.121  1.00  0.00     0.054 A 
BRANCH  65  66
ATOM     66  S   UNL A   1      52.385  28.034  31.462  1.00  0.00     0.124 S 
ATOM     67  O   UNL A   1      52.858  27.206  30.357  1.00  0.00    -0.237 OA
ATOM     68  O   UNL A   1      52.804  29.433  31.424  1.00  0.00    -0.237 OA
ATOM     69  O   UNL A   1      52.447  27.409  32.782  1.00  0.00    -0.744 OA
ENDBRANCH  65  66
ENDBRANCH  39  60
ENDBRANCH  13  14
ENDBRANCH   6   8
ENDBRANCH   3   4
ENDBRANCH   2   3
ENDBRANCH   1   2
BRANCH   1  70
ATOM     70  C   UNL A   1      34.202  25.901  25.432  1.00  0.00     0.002 C 
BRANCH  70  71
ATOM     71  C   UNL A   1      34.885  24.539  25.610  1.00  0.00     0.021 C 
BRANCH  71  72
ATOM     72  C   UNL A   1      33.975  23.407  26.088  1.00  0.00     0.116 C 
BRANCH  72  73
ATOM     73  N   UNL A   1      33.958  22.295  25.156  1.00  0.00    -0.349 N 
ATOM     74  C   UNL A   1      33.098  22.068  24.107  1.00  0.00     0.286 C 
ATOM     75  H   UNL A   1      34.655  21.612  25.293  1.00  0.00     0.163 HD
ATOM     76  O   UNL A   1      33.146  20.970  23.549  1.00  0.00    -0.266 OA
BRANCH  74  77
ATOM     77  C   UNL A   1      32.194  23.125  23.718  1.00  0.00     0.191 A 
ATOM     78  C   UNL A   1      30.849  23.336  23.958  1.00  0.00     0.056 A 
ATOM     79  O   UNL A   1      32.684  24.144  22.951  1.00  0.00    -0.454 OA
ATOM     80  C   UNL A   1      30.496  24.530  23.283  1.00  0.00     0.048 A 
ATOM     81  C   UNL A   1      31.644  24.979  22.667  1.00  0.00     0.124 A 
BRANCH  81  82
ATOM     82  C   UNL A   1      31.939  26.104  21.750  1.00  0.00     0.191 C 
BRANCH  82  83
ATOM     83  N   UNL A   1      32.612  27.162  22.475  1.00  0.00    -0.345 N 
ATOM     84  C   UNL A   1      32.118  28.375  22.880  1.00  0.00     0.253 C 
ATOM     85  H   UNL A   1      33.552  26.986  22.710  1.00  0.00     0.164 HD
ATOM     86  O   UNL A   1      32.865  29.217  23.370  1.00  0.00    -0.269 OA
BRANCH  84  87
ATOM     87  C   UNL A   1      30.689  28.692  22.718  1.00  0.00     0.058 A 
ATOM     88  C   UNL A   1      29.683  28.067  23.456  1.00  0.00     0.017 A 
ATOM     89  C   UNL A   1      30.327  29.686  21.819  1.00  0.00     0.124 A 
ATOM     90  C   UNL A   1      28.355  28.414  23.220  1.00  0.00     0.021 A 
ATOM     91  N   UNL A   1      29.042  30.048  21.578  1.00  0.00    -0.264 NA
ATOM     92  C   UNL A   1      28.087  29.396  22.277  1.00  0.00     0.111 A 
ENDBRANCH  84  87
ENDBRANCH  82  83
ENDBRANCH  81  82
ENDBRANCH  74  77
ENDBRANCH  72  73
ENDBRANCH  71  72
ENDBRANCH  70  71
ENDBRANCH   1  70
TORSDOF 19
ENDMDL
MODEL 3
REMARK VINA RESULT:      -9.9      2.187      4.267
REMARK SMILES O=C(NCCCCCCNC(=O)c1ccc(CNC(=O)c2cccnc2)o1)c1ccc(-c2c3nc(c(-c4ccc(S(=O)(=O)[O-])cc4)c4ccc([nH]4)c(-c4ccc(S(=O)(=O)[O-])cc4)c4nc(c(-c5ccc(S(=O)(=O)[O-])cc5)c5ccc2[nH]5)C=C4)C=C3)cc1
REMARK SMILES IDX 6 1 5 2 4 3 3 4 1 5 2 6 28 8 29 9 87 10 30 11 86 12 31 13
REMARK SMILES IDX 32 14 33 15 80 16 34 17 85 18 79 19 81 20 35 21 84 22 78 23
REMARK SMILES IDX 77 24 36 26 66 27 47 28 65 29 48 30 51 31 64 32 82 33 49 34
REMARK SMILES IDX 50 35 63 37 83 38 52 39 37 40 38 41 46 42 39 43 45 44 40 45
REMARK SMILES IDX 41 46 42 47 43 48 44 49 67 50 68 51 76 52 69 53 75 54 70 55
REMARK SMILES IDX 71 56 72 57 73 58 74 59 53 60 54 61 62 62 55 63 61 64 56 65
REMARK SMILES IDX 57 66 58 67 59 68 60 69 7 70 8 71 9 72 10 73 11 74 12 76
REMARK SMILES IDX 13 77 14 78 27 79 15 80 16 81 17 82 18 83 19 84 20 86 21 87
REMARK SMILES IDX 22 88 26 89 23 90 25 91 24 92
REMARK H PARENT 3 7 81 25 51 36 10 75 18 85
REMARK Flexibility Score: inf
ROOT
ATOM      1  C   UNL A   1      32.253  29.690  26.092  1.00  0.00     0.002 C 
ENDROOT
BRANCH   1   2
ATOM      2  C   UNL A   1      31.917  31.052  26.699  1.00  0.00     0.021 C 
BRANCH   2   3
ATOM      3  C   UNL A   1      33.101  31.819  27.275  1.00  0.00     0.116 C 
BRANCH   3   4
ATOM      4  N   UNL A   1      32.771  33.190  27.628  1.00  0.00    -0.352 N 
ATOM      5  O   UNL A   1      32.888  35.105  28.815  1.00  0.00    -0.269 OA
ATOM      6  C   UNL A   1      33.383  34.015  28.543  1.00  0.00     0.251 C 
ATOM      7  H   UNL A   1      32.006  33.580  27.146  1.00  0.00     0.163 HD
BRANCH   6   8
ATOM      8  C   UNL A   1      34.624  33.571  29.219  1.00  0.00     0.039 A 
ATOM      9  C   UNL A   1      34.587  32.568  30.190  1.00  0.00     0.014 A 
ATOM     10  C   UNL A   1      35.843  34.165  28.875  1.00  0.00     0.014 A 
ATOM     11  C   UNL A   1      35.737  32.258  30.908  1.00  0.00     0.010 A 
ATOM     12  C   UNL A   1      37.016  33.791  29.541  1.00  0.00     0.010 A 
ATOM     13  C   UNL A   1      36.968  32.853  30.582  1.00  0.00    -0.014 A 
BRANCH  13  14
ATOM     14  C   UNL A   1      38.191  32.407  31.300  1.00  0.00     0.031 A 
ATOM     15  C   UNL A   1      38.555  32.953  32.654  1.00  0.00     0.074 A 
ATOM     16  C   UNL A   1      38.945  31.444  30.734  1.00  0.00     0.049 A 
ATOM     17  N   UNL A   1      39.542  32.600  33.439  1.00  0.00    -0.248 NA
ATOM     18  C   UNL A   1      37.714  34.031  33.196  1.00  0.00     0.031 C 
ATOM     19  C   UNL A   1      38.704  30.852  29.413  1.00  0.00     0.029 A 
ATOM     20  N   UNL A   1      40.043  30.768  31.202  1.00  0.00    -0.354 N 
ATOM     21  C   UNL A   1      39.448  33.415  34.562  1.00  0.00     0.074 A 
ATOM     22  C   UNL A   1      38.322  34.297  34.346  1.00  0.00     0.031 C 
ATOM     23  C   UNL A   1      39.585  29.863  29.205  1.00  0.00     0.029 A 
ATOM     24  C   UNL A   1      40.487  29.786  30.349  1.00  0.00     0.049 A 
ATOM     25  H   UNL A   1      40.471  30.967  32.066  1.00  0.00     0.167 HD
ATOM     26  C   UNL A   1      40.227  33.421  35.672  1.00  0.00     0.031 A 
ATOM     27  C   UNL A   1      41.509  28.920  30.465  1.00  0.00     0.031 A 
ATOM     28  C   UNL A   1      41.351  32.543  35.882  1.00  0.00     0.049 A 
ATOM     29  C   UNL A   1      42.351  28.948  31.707  1.00  0.00     0.074 A 
ATOM     30  C   UNL A   1      42.194  32.470  36.978  1.00  0.00     0.029 A 
ATOM     31  N   UNL A   1      41.787  31.583  34.982  1.00  0.00    -0.354 N 
ATOM     32  N   UNL A   1      42.231  29.716  32.763  1.00  0.00    -0.248 NA
ATOM     33  C   UNL A   1      43.466  27.995  31.770  1.00  0.00     0.031 C 
ATOM     34  C   UNL A   1      43.162  31.492  36.724  1.00  0.00     0.029 A 
ATOM     35  C   UNL A   1      42.893  30.923  35.490  1.00  0.00     0.049 A 
ATOM     36  H   UNL A   1      41.370  31.398  34.108  1.00  0.00     0.167 HD
ATOM     37  C   UNL A   1      43.258  29.339  33.618  1.00  0.00     0.074 A 
ATOM     38  C   UNL A   1      43.965  28.251  32.972  1.00  0.00     0.031 C 
ATOM     39  C   UNL A   1      43.594  29.856  34.826  1.00  0.00     0.031 A 
BRANCH  26  40
ATOM     40  C   UNL A   1      39.900  34.416  36.753  1.00  0.00    -0.014 A 
ATOM     41  C   UNL A   1      39.098  34.052  37.849  1.00  0.00     0.010 A 
ATOM     42  C   UNL A   1      40.461  35.706  36.714  1.00  0.00     0.010 A 
ATOM     43  C   UNL A   1      38.846  34.967  38.875  1.00  0.00     0.020 A 
ATOM     44  C   UNL A   1      40.228  36.617  37.748  1.00  0.00     0.020 A 
ATOM     45  C   UNL A   1      39.412  36.245  38.818  1.00  0.00     0.054 A 
BRANCH  45  46
ATOM     46  S   UNL A   1      39.103  37.397  40.187  1.00  0.00     0.124 S 
ATOM     47  O   UNL A   1      40.444  37.910  40.455  1.00  0.00    -0.237 OA
ATOM     48  O   UNL A   1      38.171  38.355  39.595  1.00  0.00    -0.237 OA
ATOM     49  O   UNL A   1      38.538  36.549  41.233  1.00  0.00    -0.744 OA
ENDBRANCH  45  46
ENDBRANCH  26  40
BRANCH  27  50
ATOM     50  C   UNL A   1      41.799  27.966  29.363  1.00  0.00    -0.014 A 
ATOM     51  C   UNL A   1      41.039  26.795  29.205  1.00  0.00     0.010 A 
ATOM     52  C   UNL A   1      42.835  28.241  28.451  1.00  0.00     0.010 A 
ATOM     53  C   UNL A   1      41.324  25.904  28.165  1.00  0.00     0.020 A 
ATOM     54  C   UNL A   1      43.104  27.369  27.395  1.00  0.00     0.020 A 
ATOM     55  C   UNL A   1      42.355  26.197  27.267  1.00  0.00     0.054 A 
BRANCH  55  56
ATOM     56  S   UNL A   1      42.682  25.058  25.894  1.00  0.00     0.124 S 
ATOM     57  O   UNL A   1      42.068  25.758  24.770  1.00  0.00    -0.237 OA
ATOM     58  O   UNL A   1      44.141  24.989  25.876  1.00  0.00    -0.237 OA
ATOM     59  O   UNL A   1      42.014  23.827  26.310  1.00  0.00    -0.744 OA
ENDBRANCH  55  56
ENDBRANCH  27  50
BRANCH  39  60
ATOM     60  C   UNL A   1      44.778  29.239  35.517  1.00  0.00    -0.014 A 
ATOM     61  C   UNL A   1      46.058  29.812  35.404  1.00  0.00     0.010 A 
ATOM     62  C   UNL A   1      44.610  28.076  36.288  1.00  0.00     0.010 A 
ATOM     63  C   UNL A   1      47.159  29.206  36.013  1.00  0.00     0.020 A 
ATOM     64  C   UNL A   1      45.705  27.480  36.918  1.00  0.00     0.020 A 
ATOM     65  C   UNL A   1      46.976  28.037  36.758  1.00  0.00     0.054 A 
BRANCH  65  66
ATOM     66  S   UNL A   1      48.416  27.266  37.546  1.00  0.00     0.124 S 
ATOM     67  O   UNL A   1      48.136  27.479  38.963  1.00  0.00    -0.237 OA
ATOM     68  O   UNL A   1      48.333  25.881  37.089  1.00  0.00    -0.237 OA
ATOM     69  O   UNL A   1      49.546  28.023  37.012  1.00  0.00    -0.744 OA
ENDBRANCH  65  66
ENDBRANCH  39  60
ENDBRANCH  13  14
ENDBRANCH   6   8
ENDBRANCH   3   4
ENDBRANCH   2   3
ENDBRANCH   1   2
BRANCH   1  70
ATOM     70  C   UNL A   1      33.236  29.707  24.917  1.00  0.00     0.002 C 
BRANCH  70  71
ATOM     71  C   UNL A   1      33.577  28.342  24.308  1.00  0.00     0.021 C 
BRANCH  71  72
ATOM     72  C   UNL A   1      33.371  28.227  22.798  1.00  0.00     0.116 C 
BRANCH  72  73
ATOM     73  N   UNL A   1      32.217  28.984  22.348  1.00  0.00    -0.349 N 
ATOM     74  C   UNL A   1      30.888  28.636  22.405  1.00  0.00     0.286 C 
ATOM     75  H   UNL A   1      32.412  29.863  21.950  1.00  0.00     0.163 HD
ATOM     76  O   UNL A   1      30.080  29.347  21.804  1.00  0.00    -0.266 OA
BRANCH  74  77
ATOM     77  C   UNL A   1      30.516  27.465  23.164  1.00  0.00     0.191 A 
ATOM     78  C   UNL A   1      29.915  27.308  24.399  1.00  0.00     0.056 A 
ATOM     79  O   UNL A   1      30.791  26.237  22.633  1.00  0.00    -0.454 OA
ATOM     80  C   UNL A   1      29.843  25.915  24.644  1.00  0.00     0.048 A 
ATOM     81  C   UNL A   1      30.406  25.301  23.546  1.00  0.00     0.124 A 
BRANCH  81  82
ATOM     82  C   UNL A   1      30.716  23.892  23.209  1.00  0.00     0.191 C 
BRANCH  82  83
ATOM     83  N   UNL A   1      31.933  23.833  22.426  1.00  0.00    -0.345 N 
ATOM     84  C   UNL A   1      33.100  23.168  22.699  1.00  0.00     0.253 C 
ATOM     85  H   UNL A   1      31.920  24.338  21.581  1.00  0.00     0.164 HD
ATOM     86  O   UNL A   1      34.089  23.332  21.991  1.00  0.00    -0.269 OA
BRANCH  84  87
ATOM     87  C   UNL A   1      33.190  22.261  23.856  1.00  0.00     0.058 A 
ATOM     88  C   UNL A   1      32.812  20.918  23.801  1.00  0.00     0.017 A 
ATOM     89  C   UNL A   1      33.710  22.751  25.046  1.00  0.00     0.124 A 
ATOM     90  C   UNL A   1      32.911  20.139  24.951  1.00  0.00     0.021 A 
ATOM     91  N   UNL A   1      33.824  22.010  26.177  1.00  0.00    -0.264 NA
ATOM     92  C   UNL A   1      33.412  20.726  26.105  1.00  0.00     0.111 A 
ENDBRANCH  84  87
ENDBRANCH  82  83
ENDBRANCH  81  82
ENDBRANCH  74  77
ENDBRANCH  72  73
ENDBRANCH  71  72
ENDBRANCH  70  71
ENDBRANCH   1  70
TORSDOF 19
ENDMDL
