MODEL 1
REMARK VINA RESULT:     -11.5      0.000      0.000
REMARK SMILES Cc1cc(N2N=C(C(=O)NCCCCCCNC(=O)c3ccc(-c4c5nc(c(-c6ccc(S(=O)(=O)[O-])cc6)c6ccc([nH]6)c(-c6ccc(S(=O)(=O)[O-])cc6)c6nc(c(-c7ccc(S(=O)(=O)[O-])cc7)c7ccc4[nH]7)C=C6)C=C5)cc3)C[C@H]2c2ccccc2)c([N+](=O)[O-])cc1C
REMARK SMILES IDX 14 1 13 2 12 3 11 4 10 5 8 6 9 7 7 9 5 10 6 11 81 12 80 13
REMARK SMILES IDX 4 14 1 15 2 16 3 17 93 18 92 19 94 20 88 21 89 22 90 23
REMARK SMILES IDX 91 24 82 25 83 26 87 27 84 28 86 29 85 30 15 31 16 32 17 33
REMARK SMILES IDX 18 34 19 36 20 37 21 38 79 39 22 40 78 41 23 42 24 43 25 44
REMARK SMILES IDX 72 45 26 46 77 47 71 48 73 49 27 50 76 51 70 52 69 53 28 55
REMARK SMILES IDX 58 56 39 57 57 58 40 59 43 60 56 61 74 62 41 63 42 64 55 66
REMARK SMILES IDX 75 67 44 68 29 69 30 70 38 71 31 72 37 73 32 74 33 75 34 76
REMARK SMILES IDX 35 77 36 78 59 79 60 80 68 81 61 82 67 83 62 84 63 85 64 86
REMARK SMILES IDX 65 87 66 88 45 89 46 90 54 91 47 92 53 93 48 94 49 95 50 96
REMARK SMILES IDX 51 97 52 98
REMARK H PARENT 10 8 17 35 73 54 43 65
REMARK Flexibility Score: inf
ROOT
ATOM      1  C   UNL A   1      34.810  22.956  23.688  1.00  0.00     0.002 C 
ENDROOT
BRANCH   1   2
ATOM      2  C   UNL A   1      34.468  21.661  24.430  1.00  0.00     0.002 C 
BRANCH   2   3
ATOM      3  C   UNL A   1      33.397  21.783  25.516  1.00  0.00     0.021 C 
BRANCH   3   4
ATOM      4  C   UNL A   1      31.975  21.460  25.070  1.00  0.00     0.116 C 
BRANCH   4   5
ATOM      5  N   UNL A   1      30.999  21.793  26.088  1.00  0.00    -0.351 N 
ATOM      6  C   UNL A   1      30.438  22.967  26.522  1.00  0.00     0.267 C 
ATOM      7  O   UNL A   1      29.628  22.899  27.445  1.00  0.00    -0.268 OA
ATOM      8  H   UNL A   1      30.667  21.005  26.575  1.00  0.00     0.163 HD
BRANCH   6   9
ATOM      9  C   UNL A   1      30.720  24.331  25.906  1.00  0.00     0.128 C 
ATOM     10  N   UNL A   1      31.202  26.416  25.842  1.00  0.00    -0.250 N 
ATOM     11  N   UNL A   1      31.110  25.326  26.650  1.00  0.00    -0.171 NA
ATOM     12  C   UNL A   1      30.924  26.127  24.429  1.00  0.00     0.144 C 
ATOM     13  C   UNL A   1      30.627  24.626  24.446  1.00  0.00     0.096 C 
BRANCH  10  14
ATOM     14  C   UNL A   1      32.092  27.441  26.171  1.00  0.00     0.138 A 
ATOM     15  C   UNL A   1      31.637  31.056  27.306  1.00  0.00     0.045 C 
ATOM     16  C   UNL A   1      32.337  29.786  26.903  1.00  0.00    -0.046 A 
ATOM     17  C   UNL A   1      31.550  28.655  26.623  1.00  0.00     0.039 A 
ATOM     18  C   UNL A   1      33.734  29.696  26.786  1.00  0.00    -0.041 A 
ATOM     19  C   UNL A   1      34.301  28.478  26.378  1.00  0.00     0.091 A 
ATOM     20  C   UNL A   1      34.659  30.842  27.090  1.00  0.00     0.045 C 
ATOM     21  C   UNL A   1      33.485  27.375  26.066  1.00  0.00     0.294 A 
BRANCH  21  22
ATOM     22  N   UNL A   1      34.146  26.187  25.545  1.00  0.00     0.065 N 
ATOM     23  O   UNL A   1      34.355  26.147  24.322  1.00  0.00    -0.258 OA
ATOM     24  O   UNL A   1      34.348  25.246  26.328  1.00  0.00    -0.258 OA
ENDBRANCH  21  22
ENDBRANCH  10  14
BRANCH  12  25
ATOM     25  C   UNL A   1      29.815  27.016  23.879  1.00  0.00    -0.023 A 
ATOM     26  C   UNL A   1      28.447  26.732  24.027  1.00  0.00     0.006 A 
ATOM     27  C   UNL A   1      30.171  28.201  23.209  1.00  0.00     0.006 A 
ATOM     28  C   UNL A   1      27.475  27.580  23.486  1.00  0.00     0.000 A 
ATOM     29  C   UNL A   1      29.198  29.070  22.709  1.00  0.00     0.000 A 
ATOM     30  C   UNL A   1      27.851  28.751  22.836  1.00  0.00     0.000 A 
ENDBRANCH  12  25
ENDBRANCH   6   9
ENDBRANCH   4   5
ENDBRANCH   3   4
ENDBRANCH   2   3
ENDBRANCH   1   2
BRANCH   1  31
ATOM     31  C   UNL A   1      36.292  23.339  23.662  1.00  0.00     0.021 C 
BRANCH  31  32
ATOM     32  C   UNL A   1      36.908  23.653  25.021  1.00  0.00     0.116 C 
BRANCH  32  33
ATOM     33  N   UNL A   1      37.825  22.618  25.468  1.00  0.00    -0.352 N 
ATOM     34  C   UNL A   1      38.978  22.751  26.203  1.00  0.00     0.251 C 
ATOM     35  H   UNL A   1      37.589  21.698  25.210  1.00  0.00     0.163 HD
ATOM     36  O   UNL A   1      39.726  21.791  26.361  1.00  0.00    -0.269 OA
BRANCH  34  37
ATOM     37  C   UNL A   1      39.325  24.067  26.781  1.00  0.00     0.039 A 
ATOM     38  C   UNL A   1      38.909  24.370  28.080  1.00  0.00     0.014 A 
ATOM     39  C   UNL A   1      40.076  24.989  26.046  1.00  0.00     0.014 A 
ATOM     40  C   UNL A   1      39.306  25.573  28.671  1.00  0.00     0.010 A 
ATOM     41  C   UNL A   1      40.520  26.157  26.657  1.00  0.00     0.010 A 
ATOM     42  C   UNL A   1      40.143  26.460  27.976  1.00  0.00    -0.014 A 
BRANCH  42  43
ATOM     43  C   UNL A   1      40.647  27.712  28.597  1.00  0.00     0.031 A 
ATOM     44  C   UNL A   1      42.020  27.741  29.208  1.00  0.00     0.074 A 
ATOM     45  C   UNL A   1      39.834  28.782  28.705  1.00  0.00     0.049 A 
ATOM     46  N   UNL A   1      42.580  28.674  29.934  1.00  0.00    -0.248 NA
ATOM     47  C   UNL A   1      42.864  26.552  29.000  1.00  0.00     0.031 C 
ATOM     48  C   UNL A   1      38.469  28.868  28.181  1.00  0.00     0.029 A 
ATOM     49  N   UNL A   1      40.030  29.997  29.317  1.00  0.00    -0.354 N 
ATOM     50  C   UNL A   1      43.825  28.173  30.298  1.00  0.00     0.074 A 
ATOM     51  C   UNL A   1      43.927  26.843  29.738  1.00  0.00     0.031 C 
ATOM     52  C   UNL A   1      37.951  30.068  28.496  1.00  0.00     0.029 A 
ATOM     53  C   UNL A   1      38.928  30.818  29.279  1.00  0.00     0.049 A 
ATOM     54  H   UNL A   1      40.880  30.254  29.743  1.00  0.00     0.167 HD
ATOM     55  C   UNL A   1      44.796  28.770  31.027  1.00  0.00     0.031 A 
ATOM     56  C   UNL A   1      38.715  32.028  29.834  1.00  0.00     0.031 A 
ATOM     57  C   UNL A   1      44.702  30.104  31.558  1.00  0.00     0.049 A 
ATOM     58  C   UNL A   1      39.813  32.674  30.635  1.00  0.00     0.074 A 
ATOM     59  C   UNL A   1      45.662  30.823  32.247  1.00  0.00     0.029 A 
ATOM     60  N   UNL A   1      43.584  30.918  31.458  1.00  0.00    -0.354 N 
ATOM     61  N   UNL A   1      41.006  32.209  30.916  1.00  0.00    -0.248 NA
ATOM     62  C   UNL A   1      39.539  34.007  31.190  1.00  0.00     0.031 C 
ATOM     63  C   UNL A   1      45.108  32.055  32.607  1.00  0.00     0.029 A 
ATOM     64  C   UNL A   1      43.823  32.124  32.093  1.00  0.00     0.049 A 
ATOM     65  H   UNL A   1      42.746  30.675  31.003  1.00  0.00     0.167 HD
ATOM     66  C   UNL A   1      41.636  33.205  31.653  1.00  0.00     0.074 A 
ATOM     67  C   UNL A   1      40.696  34.300  31.769  1.00  0.00     0.031 C 
ATOM     68  C   UNL A   1      42.882  33.211  32.185  1.00  0.00     0.031 A 
BRANCH  55  69
ATOM     69  C   UNL A   1      46.049  27.984  31.306  1.00  0.00    -0.014 A 
ATOM     70  C   UNL A   1      46.098  27.031  32.339  1.00  0.00     0.010 A 
ATOM     71  C   UNL A   1      47.176  28.159  30.482  1.00  0.00     0.010 A 
ATOM     72  C   UNL A   1      47.260  26.291  32.563  1.00  0.00     0.020 A 
ATOM     73  C   UNL A   1      48.332  27.400  30.685  1.00  0.00     0.020 A 
ATOM     74  C   UNL A   1      48.371  26.480  31.734  1.00  0.00     0.054 A 
BRANCH  74  75
ATOM     75  S   UNL A   1      49.853  25.477  32.024  1.00  0.00     0.124 S 
ATOM     76  O   UNL A   1      49.396  24.555  33.061  1.00  0.00    -0.237 OA
ATOM     77  O   UNL A   1      50.095  24.876  30.714  1.00  0.00    -0.237 OA
ATOM     78  O   UNL A   1      50.854  26.451  32.453  1.00  0.00    -0.744 OA
ENDBRANCH  74  75
ENDBRANCH  55  69
BRANCH  56  79
ATOM     79  C   UNL A   1      37.399  32.703  29.664  1.00  0.00    -0.014 A 
ATOM     80  C   UNL A   1      36.410  32.603  30.658  1.00  0.00     0.010 A 
ATOM     81  C   UNL A   1      37.129  33.452  28.504  1.00  0.00     0.010 A 
ATOM     82  C   UNL A   1      35.167  33.222  30.486  1.00  0.00     0.020 A 
ATOM     83  C   UNL A   1      35.897  34.093  28.340  1.00  0.00     0.020 A 
ATOM     84  C   UNL A   1      34.919  33.961  29.327  1.00  0.00     0.054 A 
BRANCH  84  85
ATOM     85  S   UNL A   1      33.315  34.791  29.140  1.00  0.00     0.124 S 
ATOM     86  O   UNL A   1      32.655  33.950  28.145  1.00  0.00    -0.237 OA
ATOM     87  O   UNL A   1      32.765  34.725  30.492  1.00  0.00    -0.237 OA
ATOM     88  O   UNL A   1      33.677  36.132  28.687  1.00  0.00    -0.744 OA
ENDBRANCH  84  85
ENDBRANCH  56  79
BRANCH  68  89
ATOM     89  C   UNL A   1      43.332  34.454  32.905  1.00  0.00    -0.014 A 
ATOM     90  C   UNL A   1      43.697  35.613  32.199  1.00  0.00     0.010 A 
ATOM     91  C   UNL A   1      43.296  34.487  34.311  1.00  0.00     0.010 A 
ATOM     92  C   UNL A   1      44.029  36.782  32.889  1.00  0.00     0.020 A 
ATOM     93  C   UNL A   1      43.603  35.660  35.003  1.00  0.00     0.020 A 
ATOM     94  C   UNL A   1      43.975  36.799  34.286  1.00  0.00     0.054 A 
BRANCH  94  95
ATOM     95  S   UNL A   1      44.333  38.350  35.155  1.00  0.00     0.124 S 
ATOM     96  O   UNL A   1      45.785  38.442  35.028  1.00  0.00    -0.237 OA
ATOM     97  O   UNL A   1      43.572  39.333  34.386  1.00  0.00    -0.237 OA
ATOM     98  O   UNL A   1      43.839  38.111  36.510  1.00  0.00    -0.744 OA
ENDBRANCH  94  95
ENDBRANCH  68  89
ENDBRANCH  42  43
ENDBRANCH  34  37
ENDBRANCH  32  33
ENDBRANCH  31  32
ENDBRANCH   1  31
TORSDOF 19
ENDMDL
MODEL 2
REMARK VINA RESULT:     -10.9      3.152      4.500
REMARK SMILES Cc1cc(N2N=C(C(=O)NCCCCCCNC(=O)c3ccc(-c4c5nc(c(-c6ccc(S(=O)(=O)[O-])cc6)c6ccc([nH]6)c(-c6ccc(S(=O)(=O)[O-])cc6)c6nc(c(-c7ccc(S(=O)(=O)[O-])cc7)c7ccc4[nH]7)C=C6)C=C5)cc3)C[C@H]2c2ccccc2)c([N+](=O)[O-])cc1C
REMARK SMILES IDX 14 1 13 2 12 3 11 4 10 5 8 6 9 7 7 9 5 10 6 11 81 12 80 13
REMARK SMILES IDX 4 14 1 15 2 16 3 17 93 18 92 19 94 20 88 21 89 22 90 23
REMARK SMILES IDX 91 24 82 25 83 26 87 27 84 28 86 29 85 30 15 31 16 32 17 33
REMARK SMILES IDX 18 34 19 36 20 37 21 38 79 39 22 40 78 41 23 42 24 43 25 44
REMARK SMILES IDX 72 45 26 46 77 47 71 48 73 49 27 50 76 51 70 52 69 53 28 55
REMARK SMILES IDX 58 56 39 57 57 58 40 59 43 60 56 61 74 62 41 63 42 64 55 66
REMARK SMILES IDX 75 67 44 68 29 69 30 70 38 71 31 72 37 73 32 74 33 75 34 76
REMARK SMILES IDX 35 77 36 78 59 79 60 80 68 81 61 82 67 83 62 84 63 85 64 86
REMARK SMILES IDX 65 87 66 88 45 89 46 90 54 91 47 92 53 93 48 94 49 95 50 96
REMARK SMILES IDX 51 97 52 98
REMARK H PARENT 10 8 17 35 73 54 43 65
REMARK Flexibility Score: inf
ROOT
ATOM      1  C   UNL A   1      37.239  22.909  25.664  1.00  0.00     0.002 C 
ENDROOT
BRANCH   1   2
ATOM      2  C   UNL A   1      36.778  22.364  24.309  1.00  0.00     0.002 C 
BRANCH   2   3
ATOM      3  C   UNL A   1      35.432  22.891  23.806  1.00  0.00     0.021 C 
BRANCH   3   4
ATOM      4  C   UNL A   1      34.631  23.706  24.815  1.00  0.00     0.116 C 
BRANCH   4   5
ATOM      5  N   UNL A   1      33.325  23.130  25.062  1.00  0.00    -0.351 N 
ATOM      6  C   UNL A   1      32.089  23.656  25.339  1.00  0.00     0.267 C 
ATOM      7  O   UNL A   1      31.165  22.864  25.515  1.00  0.00    -0.268 OA
ATOM      8  H   UNL A   1      33.325  22.146  25.023  1.00  0.00     0.163 HD
BRANCH   6   9
ATOM      9  C   UNL A   1      31.785  25.147  25.396  1.00  0.00     0.128 C 
ATOM     10  N   UNL A   1      31.464  27.134  24.667  1.00  0.00    -0.250 N 
ATOM     11  N   UNL A   1      31.646  25.838  24.301  1.00  0.00    -0.171 NA
ATOM     12  C   UNL A   1      31.400  27.332  26.121  1.00  0.00     0.144 C 
ATOM     13  C   UNL A   1      31.576  25.911  26.661  1.00  0.00     0.096 C 
BRANCH  10  14
ATOM     14  C   UNL A   1      30.751  27.991  23.826  1.00  0.00     0.138 A 
ATOM     15  C   UNL A   1      27.031  28.557  23.189  1.00  0.00     0.045 C 
ATOM     16  C   UNL A   1      28.521  28.721  23.057  1.00  0.00    -0.046 A 
ATOM     17  C   UNL A   1      29.349  27.970  23.909  1.00  0.00     0.039 A 
ATOM     18  C   UNL A   1      29.108  29.582  22.114  1.00  0.00    -0.041 A 
ATOM     19  C   UNL A   1      30.508  29.653  22.043  1.00  0.00     0.091 A 
ATOM     20  C   UNL A   1      28.305  30.446  21.180  1.00  0.00     0.045 C 
ATOM     21  C   UNL A   1      31.310  28.857  22.881  1.00  0.00     0.294 A 
BRANCH  21  22
ATOM     22  N   UNL A   1      32.749  28.910  22.666  1.00  0.00     0.065 N 
ATOM     23  O   UNL A   1      33.424  29.533  23.501  1.00  0.00    -0.258 OA
ATOM     24  O   UNL A   1      33.194  28.437  21.608  1.00  0.00    -0.258 OA
ENDBRANCH  21  22
ENDBRANCH  10  14
BRANCH  12  25
ATOM     25  C   UNL A   1      32.426  28.353  26.597  1.00  0.00    -0.023 A 
ATOM     26  C   UNL A   1      32.095  29.663  26.986  1.00  0.00     0.006 A 
ATOM     27  C   UNL A   1      33.776  27.965  26.682  1.00  0.00     0.006 A 
ATOM     28  C   UNL A   1      33.084  30.560  27.400  1.00  0.00     0.000 A 
ATOM     29  C   UNL A   1      34.757  28.848  27.139  1.00  0.00     0.000 A 
ATOM     30  C   UNL A   1      34.411  30.151  27.484  1.00  0.00     0.000 A 
ENDBRANCH  12  25
ENDBRANCH   6   9
ENDBRANCH   4   5
ENDBRANCH   3   4
ENDBRANCH   2   3
ENDBRANCH   1   2
BRANCH   1  31
ATOM     31  C   UNL A   1      38.643  22.490  26.109  1.00  0.00     0.021 C 
BRANCH  31  32
ATOM     32  C   UNL A   1      39.480  23.593  26.748  1.00  0.00     0.116 C 
BRANCH  32  33
ATOM     33  N   UNL A   1      40.723  23.832  26.035  1.00  0.00    -0.352 N 
ATOM     34  C   UNL A   1      41.564  24.915  26.113  1.00  0.00     0.251 C 
ATOM     35  H   UNL A   1      41.000  23.123  25.411  1.00  0.00     0.163 HD
ATOM     36  O   UNL A   1      42.495  25.035  25.322  1.00  0.00    -0.269 OA
BRANCH  34  37
ATOM     37  C   UNL A   1      41.325  25.949  27.143  1.00  0.00     0.039 A 
ATOM     38  C   UNL A   1      40.454  25.668  28.199  1.00  0.00     0.014 A 
ATOM     39  C   UNL A   1      41.976  27.184  27.072  1.00  0.00     0.014 A 
ATOM     40  C   UNL A   1      40.288  26.602  29.226  1.00  0.00     0.010 A 
ATOM     41  C   UNL A   1      41.856  28.086  28.125  1.00  0.00     0.010 A 
ATOM     42  C   UNL A   1      41.014  27.803  29.214  1.00  0.00    -0.014 A 
BRANCH  42  43
ATOM     43  C   UNL A   1      40.922  28.786  30.323  1.00  0.00     0.031 A 
ATOM     44  C   UNL A   1      41.803  28.632  31.533  1.00  0.00     0.074 A 
ATOM     45  C   UNL A   1      39.978  29.748  30.291  1.00  0.00     0.049 A 
ATOM     46  N   UNL A   1      41.766  29.280  32.668  1.00  0.00    -0.248 NA
ATOM     47  C   UNL A   1      42.843  27.591  31.467  1.00  0.00     0.031 C 
ATOM     48  C   UNL A   1      39.042  29.983  29.190  1.00  0.00     0.029 A 
ATOM     49  N   UNL A   1      39.632  30.695  31.226  1.00  0.00    -0.354 N 
ATOM     50  C   UNL A   1      42.751  28.704  33.463  1.00  0.00     0.074 A 
ATOM     51  C   UNL A   1      43.349  27.637  32.692  1.00  0.00     0.031 C 
ATOM     52  C   UNL A   1      38.229  31.003  29.513  1.00  0.00     0.029 A 
ATOM     53  C   UNL A   1      38.555  31.466  30.858  1.00  0.00     0.049 A 
ATOM     54  H   UNL A   1      40.111  30.808  32.079  1.00  0.00     0.167 HD
ATOM     55  C   UNL A   1      43.126  29.041  34.719  1.00  0.00     0.031 A 
ATOM     56  C   UNL A   1      37.887  32.421  31.535  1.00  0.00     0.031 A 
ATOM     57  C   UNL A   1      42.549  30.122  35.471  1.00  0.00     0.049 A 
ATOM     58  C   UNL A   1      38.328  32.781  32.928  1.00  0.00     0.074 A 
ATOM     59  C   UNL A   1      42.912  30.587  36.723  1.00  0.00     0.029 A 
ATOM     60  N   UNL A   1      41.490  30.907  35.044  1.00  0.00    -0.354 N 
ATOM     61  N   UNL A   1      39.302  32.267  33.639  1.00  0.00    -0.248 NA
ATOM     62  C   UNL A   1      37.585  33.852  33.608  1.00  0.00     0.031 C 
ATOM     63  C   UNL A   1      42.041  31.622  37.073  1.00  0.00     0.029 A 
ATOM     64  C   UNL A   1      41.171  31.838  36.016  1.00  0.00     0.049 A 
ATOM     65  H   UNL A   1      41.033  30.816  34.177  1.00  0.00     0.167 HD
ATOM     66  C   UNL A   1      39.309  32.972  34.837  1.00  0.00     0.074 A 
ATOM     67  C   UNL A   1      38.248  33.953  34.753  1.00  0.00     0.031 C 
ATOM     68  C   UNL A   1      40.122  32.820  35.909  1.00  0.00     0.031 A 
BRANCH  55  69
ATOM     69  C   UNL A   1      44.212  28.225  35.370  1.00  0.00    -0.014 A 
ATOM     70  C   UNL A   1      45.567  28.578  35.240  1.00  0.00     0.010 A 
ATOM     71  C   UNL A   1      43.865  27.125  36.176  1.00  0.00     0.010 A 
ATOM     72  C   UNL A   1      46.556  27.827  35.876  1.00  0.00     0.020 A 
ATOM     73  C   UNL A   1      44.850  26.387  36.837  1.00  0.00     0.020 A 
ATOM     74  C   UNL A   1      46.192  26.735  36.670  1.00  0.00     0.054 A 
BRANCH  74  75
ATOM     75  S   UNL A   1      47.496  25.800  37.517  1.00  0.00     0.124 S 
ATOM     76  O   UNL A   1      48.554  25.781  36.510  1.00  0.00    -0.237 OA
ATOM     77  O   UNL A   1      47.765  26.621  38.695  1.00  0.00    -0.237 OA
ATOM     78  O   UNL A   1      46.874  24.507  37.791  1.00  0.00    -0.744 OA
ENDBRANCH  74  75
ENDBRANCH  55  69
BRANCH  56  79
ATOM     79  C   UNL A   1      36.716  33.095  30.910  1.00  0.00    -0.014 A 
ATOM     80  C   UNL A   1      36.858  33.805  29.705  1.00  0.00     0.010 A 
ATOM     81  C   UNL A   1      35.449  33.028  31.519  1.00  0.00     0.010 A 
ATOM     82  C   UNL A   1      35.760  34.455  29.132  1.00  0.00     0.020 A 
ATOM     83  C   UNL A   1      34.344  33.654  30.935  1.00  0.00     0.020 A 
ATOM     84  C   UNL A   1      34.510  34.376  29.752  1.00  0.00     0.054 A 
BRANCH  84  85
ATOM     85  S   UNL A   1      33.088  35.191  28.971  1.00  0.00     0.124 S 
ATOM     86  O   UNL A   1      33.691  36.410  28.443  1.00  0.00    -0.237 OA
ATOM     87  O   UNL A   1      32.667  34.208  27.976  1.00  0.00    -0.237 OA
ATOM     88  O   UNL A   1      32.155  35.381  30.080  1.00  0.00    -0.744 OA
ENDBRANCH  84  85
ENDBRANCH  56  79
BRANCH  68  89
ATOM     89  C   UNL A   1      39.938  33.760  37.069  1.00  0.00    -0.014 A 
ATOM     90  C   UNL A   1      40.535  35.033  37.078  1.00  0.00     0.010 A 
ATOM     91  C   UNL A   1      39.075  33.398  38.121  1.00  0.00     0.010 A 
ATOM     92  C   UNL A   1      40.280  35.923  38.125  1.00  0.00     0.020 A 
ATOM     93  C   UNL A   1      38.799  34.294  39.155  1.00  0.00     0.020 A 
ATOM     94  C   UNL A   1      39.411  35.549  39.154  1.00  0.00     0.054 A 
BRANCH  94  95
ATOM     95  S   UNL A   1      39.035  36.751  40.460  1.00  0.00     0.124 S 
ATOM     96  O   UNL A   1      38.492  37.871  39.695  1.00  0.00    -0.237 OA
ATOM     97  O   UNL A   1      38.070  36.033  41.290  1.00  0.00    -0.237 OA
ATOM     98  O   UNL A   1      40.330  36.995  41.090  1.00  0.00    -0.744 OA
ENDBRANCH  94  95
ENDBRANCH  68  89
ENDBRANCH  42  43
ENDBRANCH  34  37
ENDBRANCH  32  33
ENDBRANCH  31  32
ENDBRANCH   1  31
TORSDOF 19
ENDMDL
MODEL 3
REMARK VINA RESULT:     -10.7      3.791      8.961
REMARK SMILES Cc1cc(N2N=C(C(=O)NCCCCCCNC(=O)c3ccc(-c4c5nc(c(-c6ccc(S(=O)(=O)[O-])cc6)c6ccc([nH]6)c(-c6ccc(S(=O)(=O)[O-])cc6)c6nc(c(-c7ccc(S(=O)(=O)[O-])cc7)c7ccc4[nH]7)C=C6)C=C5)cc3)C[C@H]2c2ccccc2)c([N+](=O)[O-])cc1C
REMARK SMILES IDX 14 1 13 2 12 3 11 4 10 5 8 6 9 7 7 9 5 10 6 11 81 12 80 13
REMARK SMILES IDX 4 14 1 15 2 16 3 17 93 18 92 19 94 20 88 21 89 22 90 23
REMARK SMILES IDX 91 24 82 25 83 26 87 27 84 28 86 29 85 30 15 31 16 32 17 33
REMARK SMILES IDX 18 34 19 36 20 37 21 38 79 39 22 40 78 41 23 42 24 43 25 44
REMARK SMILES IDX 72 45 26 46 77 47 71 48 73 49 27 50 76 51 70 52 69 53 28 55
REMARK SMILES IDX 58 56 39 57 57 58 40 59 43 60 56 61 74 62 41 63 42 64 55 66
REMARK SMILES IDX 75 67 44 68 29 69 30 70 38 71 31 72 37 73 32 74 33 75 34 76
REMARK SMILES IDX 35 77 36 78 59 79 60 80 68 81 61 82 67 83 62 84 63 85 64 86
REMARK SMILES IDX 65 87 66 88 45 89 46 90 54 91 47 92 53 93 48 94 49 95 50 96
REMARK SMILES IDX 51 97 52 98
REMARK H PARENT 10 8 17 35 73 54 43 65
REMARK Flexibility Score: inf
ROOT
ATOM      1  C   UNL A   1      36.522  21.854  25.513  1.00  0.00     0.002 C 
ENDROOT
BRANCH   1   2
ATOM      2  C   UNL A   1      36.390  23.313  25.960  1.00  0.00     0.002 C 
BRANCH   2   3
ATOM      3  C   UNL A   1      35.065  23.996  25.617  1.00  0.00     0.021 C 
BRANCH   3   4
ATOM      4  C   UNL A   1      34.299  23.384  24.448  1.00  0.00     0.116 C 
BRANCH   4   5
ATOM      5  N   UNL A   1      33.017  22.852  24.861  1.00  0.00    -0.351 N 
ATOM      6  C   UNL A   1      31.839  23.420  25.278  1.00  0.00     0.267 C 
ATOM      7  O   UNL A   1      30.920  22.659  25.577  1.00  0.00    -0.268 OA
ATOM      8  H   UNL A   1      32.982  21.868  24.836  1.00  0.00     0.163 HD
BRANCH   6   9
ATOM      9  C   UNL A   1      31.590  24.920  25.351  1.00  0.00     0.128 C 
ATOM     10  N   UNL A   1      31.317  26.921  24.639  1.00  0.00    -0.250 N 
ATOM     11  N   UNL A   1      31.444  25.621  24.263  1.00  0.00    -0.171 NA
ATOM     12  C   UNL A   1      31.304  27.113  26.096  1.00  0.00     0.144 C 
ATOM     13  C   UNL A   1      31.445  25.684  26.624  1.00  0.00     0.096 C 
BRANCH  10  14
ATOM     14  C   UNL A   1      30.611  27.806  23.823  1.00  0.00     0.138 A 
ATOM     15  C   UNL A   1      26.895  28.445  23.234  1.00  0.00     0.045 C 
ATOM     16  C   UNL A   1      28.386  28.588  23.092  1.00  0.00    -0.046 A 
ATOM     17  C   UNL A   1      29.210  27.806  23.920  1.00  0.00     0.039 A 
ATOM     18  C   UNL A   1      28.977  29.459  22.161  1.00  0.00    -0.041 A 
ATOM     19  C   UNL A   1      30.378  29.509  22.077  1.00  0.00     0.091 A 
ATOM     20  C   UNL A   1      28.180  30.355  21.253  1.00  0.00     0.045 C 
ATOM     21  C   UNL A   1      31.175  28.683  22.892  1.00  0.00     0.294 A 
BRANCH  21  22
ATOM     22  N   UNL A   1      32.613  28.717  22.663  1.00  0.00     0.065 N 
ATOM     23  O   UNL A   1      33.082  27.874  21.882  1.00  0.00    -0.258 OA
ATOM     24  O   UNL A   1      33.290  29.499  23.350  1.00  0.00    -0.258 OA
ENDBRANCH  21  22
ENDBRANCH  10  14
BRANCH  12  25
ATOM     25  C   UNL A   1      32.378  28.096  26.545  1.00  0.00    -0.023 A 
ATOM     26  C   UNL A   1      32.095  29.343  27.129  1.00  0.00     0.006 A 
ATOM     27  C   UNL A   1      33.730  27.733  26.397  1.00  0.00     0.006 A 
ATOM     28  C   UNL A   1      33.126  30.208  27.508  1.00  0.00     0.000 A 
ATOM     29  C   UNL A   1      34.758  28.579  26.818  1.00  0.00     0.000 A 
ATOM     30  C   UNL A   1      34.454  29.823  27.360  1.00  0.00     0.000 A 
ENDBRANCH  12  25
ENDBRANCH   6   9
ENDBRANCH   4   5
ENDBRANCH   3   4
ENDBRANCH   2   3
ENDBRANCH   1   2
BRANCH   1  31
ATOM     31  C   UNL A   1      37.907  21.429  25.019  1.00  0.00     0.021 C 
BRANCH  31  32
ATOM     32  C   UNL A   1      39.013  21.463  26.069  1.00  0.00     0.116 C 
BRANCH  32  33
ATOM     33  N   UNL A   1      39.861  20.285  26.022  1.00  0.00    -0.352 N 
ATOM     34  C   UNL A   1      41.230  20.207  26.111  1.00  0.00     0.251 C 
ATOM     35  H   UNL A   1      39.393  19.426  25.911  1.00  0.00     0.163 HD
ATOM     36  O   UNL A   1      41.806  19.145  25.892  1.00  0.00    -0.269 OA
BRANCH  34  37
ATOM     37  C   UNL A   1      42.006  21.419  26.449  1.00  0.00     0.039 A 
ATOM     38  C   UNL A   1      42.326  22.326  25.435  1.00  0.00     0.014 A 
ATOM     39  C   UNL A   1      42.398  21.665  27.768  1.00  0.00     0.014 A 
ATOM     40  C   UNL A   1      42.981  23.519  25.756  1.00  0.00     0.010 A 
ATOM     41  C   UNL A   1      42.996  22.879  28.093  1.00  0.00     0.010 A 
ATOM     42  C   UNL A   1      43.290  23.820  27.092  1.00  0.00    -0.014 A 
BRANCH  42  43
ATOM     43  C   UNL A   1      43.916  25.108  27.481  1.00  0.00     0.031 A 
ATOM     44  C   UNL A   1      43.074  26.195  28.090  1.00  0.00     0.074 A 
ATOM     45  C   UNL A   1      45.213  25.339  27.190  1.00  0.00     0.049 A 
ATOM     46  N   UNL A   1      43.391  27.438  28.348  1.00  0.00    -0.248 NA
ATOM     47  C   UNL A   1      41.683  25.846  28.425  1.00  0.00     0.031 C 
ATOM     48  C   UNL A   1      46.129  24.378  26.571  1.00  0.00     0.029 A 
ATOM     49  N   UNL A   1      45.980  26.468  27.352  1.00  0.00    -0.354 N 
ATOM     50  C   UNL A   1      42.233  28.027  28.842  1.00  0.00     0.074 A 
ATOM     51  C   UNL A   1      41.199  27.015  28.821  1.00  0.00     0.031 C 
ATOM     52  C   UNL A   1      47.329  24.958  26.405  1.00  0.00     0.029 A 
ATOM     53  C   UNL A   1      47.258  26.342  26.863  1.00  0.00     0.049 A 
ATOM     54  H   UNL A   1      45.644  27.290  27.778  1.00  0.00     0.167 HD
ATOM     55  C   UNL A   1      42.051  29.295  29.279  1.00  0.00     0.031 A 
ATOM     56  C   UNL A   1      48.256  27.244  26.769  1.00  0.00     0.031 A 
ATOM     57  C   UNL A   1      43.088  30.290  29.325  1.00  0.00     0.049 A 
ATOM     58  C   UNL A   1      48.030  28.645  27.267  1.00  0.00     0.074 A 
ATOM     59  C   UNL A   1      43.019  31.580  29.820  1.00  0.00     0.029 A 
ATOM     60  N   UNL A   1      44.381  30.106  28.861  1.00  0.00    -0.354 N 
ATOM     61  N   UNL A   1      46.945  29.167  27.789  1.00  0.00    -0.248 NA
ATOM     62  C   UNL A   1      49.161  29.579  27.171  1.00  0.00     0.031 C 
ATOM     63  C   UNL A   1      44.257  32.193  29.611  1.00  0.00     0.029 A 
ATOM     64  C   UNL A   1      45.114  31.267  29.037  1.00  0.00     0.049 A 
ATOM     65  H   UNL A   1      44.727  29.274  28.466  1.00  0.00     0.167 HD
ATOM     66  C   UNL A   1      47.273  30.479  28.111  1.00  0.00     0.074 A 
ATOM     67  C   UNL A   1      48.657  30.671  27.733  1.00  0.00     0.031 C 
ATOM     68  C   UNL A   1      46.496  31.437  28.671  1.00  0.00     0.031 A 
BRANCH  55  69
ATOM     69  C   UNL A   1      40.672  29.688  29.739  1.00  0.00    -0.014 A 
ATOM     70  C   UNL A   1      39.600  29.782  28.833  1.00  0.00     0.010 A 
ATOM     71  C   UNL A   1      40.432  29.907  31.108  1.00  0.00     0.010 A 
ATOM     72  C   UNL A   1      38.322  30.119  29.283  1.00  0.00     0.020 A 
ATOM     73  C   UNL A   1      39.149  30.217  31.566  1.00  0.00     0.020 A 
ATOM     74  C   UNL A   1      38.104  30.336  30.647  1.00  0.00     0.054 A 
BRANCH  74  75
ATOM     75  S   UNL A   1      36.426  30.734  31.207  1.00  0.00     0.124 S 
ATOM     76  O   UNL A   1      36.651  31.075  32.610  1.00  0.00    -0.237 OA
ATOM     77  O   UNL A   1      36.055  31.850  30.342  1.00  0.00    -0.237 OA
ATOM     78  O   UNL A   1      35.681  29.498  30.979  1.00  0.00    -0.744 OA
ENDBRANCH  74  75
ENDBRANCH  55  69
BRANCH  56  79
ATOM     79  C   UNL A   1      49.557  26.853  26.161  1.00  0.00    -0.014 A 
ATOM     80  C   UNL A   1      49.901  27.285  24.867  1.00  0.00     0.010 A 
ATOM     81  C   UNL A   1      50.461  26.046  26.874  1.00  0.00     0.010 A 
ATOM     82  C   UNL A   1      51.116  26.899  24.291  1.00  0.00     0.020 A 
ATOM     83  C   UNL A   1      51.687  25.679  26.312  1.00  0.00     0.020 A 
ATOM     84  C   UNL A   1      52.000  26.097  25.017  1.00  0.00     0.054 A 
BRANCH  84  85
ATOM     85  S   UNL A   1      53.590  25.640  24.269  1.00  0.00     0.124 S 
ATOM     86  O   UNL A   1      54.466  26.703  24.750  1.00  0.00    -0.237 OA
ATOM     87  O   UNL A   1      53.834  24.313  24.830  1.00  0.00    -0.237 OA
ATOM     88  O   UNL A   1      53.308  25.659  22.835  1.00  0.00    -0.744 OA
ENDBRANCH  84  85
ENDBRANCH  56  79
BRANCH  68  89
ATOM     89  C   UNL A   1      47.127  32.773  28.956  1.00  0.00    -0.014 A 
ATOM     90  C   UNL A   1      47.065  33.822  28.023  1.00  0.00     0.010 A 
ATOM     91  C   UNL A   1      47.706  33.007  30.217  1.00  0.00     0.010 A 
ATOM     92  C   UNL A   1      47.582  35.080  28.343  1.00  0.00     0.020 A 
ATOM     93  C   UNL A   1      48.201  34.269  30.549  1.00  0.00     0.020 A 
ATOM     94  C   UNL A   1      48.142  35.297  29.605  1.00  0.00     0.054 A 
BRANCH  94  95
ATOM     95  S   UNL A   1      48.734  36.959  30.025  1.00  0.00     0.124 S 
ATOM     96  O   UNL A   1      48.007  37.791  29.069  1.00  0.00    -0.237 OA
ATOM     97  O   UNL A   1      48.325  37.104  31.421  1.00  0.00    -0.237 OA
ATOM     98  O   UNL A   1      50.177  36.879  29.809  1.00  0.00    -0.744 OA
ENDBRANCH  94  95
ENDBRANCH  68  89
ENDBRANCH  42  43
ENDBRANCH  34  37
ENDBRANCH  32  33
ENDBRANCH  31  32
ENDBRANCH   1  31
TORSDOF 19
ENDMDL
