MODEL 1
REMARK VINA RESULT:     -10.2      0.000      0.000
REMARK SMILES O=C(CC1(NC(=O)C2(c3ccccc3)CC2)CCC1)NCCCCCCNC(=O)c1ccc(-c2c3nc(c(-c4ccc(S(=O)(=O)[O-])cc4)c4ccc([nH]4)c(-c4ccc(S(=O)(=O)[O-])cc4)c4nc(c(-c5ccc(S(=O)(=O)[O-])cc5)c5ccc2[nH]5)C=C4)C=C3)cc1
REMARK SMILES IDX 23 1 22 2 21 3 20 4 1 5 2 6 3 8 4 9 17 10 19 11 18 12 5 13
REMARK SMILES IDX 6 14 7 16 8 17 15 18 16 19 9 20 10 21 14 22 11 23 13 24
REMARK SMILES IDX 12 25 24 26 25 27 26 28 27 29 28 30 29 32 30 33 31 34 89 35
REMARK SMILES IDX 32 36 88 37 33 38 34 39 35 40 82 41 36 42 87 43 81 44 83 45
REMARK SMILES IDX 37 46 86 47 80 48 79 49 38 51 68 52 49 53 67 54 50 55 53 56
REMARK SMILES IDX 66 57 84 58 51 59 52 60 65 62 85 63 54 64 39 65 40 66 48 67
REMARK SMILES IDX 41 68 47 69 42 70 43 71 44 72 45 73 46 74 69 75 70 76 78 77
REMARK SMILES IDX 71 78 77 79 72 80 73 81 74 82 75 83 76 84 55 85 56 86 64 87
REMARK SMILES IDX 57 88 63 89 58 90 59 91 60 92 61 93 62 94
REMARK H PARENT 20 7 5 15 27 31 83 50 53 61
REMARK Flexibility Score: inf
ROOT
ATOM      1  C   UNL A   1      35.833  33.248  28.035  1.00  0.00     0.002 C 
ENDROOT
BRANCH   1   2
ATOM      2  C   UNL A   1      35.633  31.727  28.078  1.00  0.00     0.021 C 
BRANCH   2   3
ATOM      3  C   UNL A   1      34.179  31.267  28.050  1.00  0.00     0.116 C 
BRANCH   3   4
ATOM      4  N   UNL A   1      33.823  30.730  26.759  1.00  0.00    -0.356 N 
ATOM      5  O   UNL A   1      31.702  30.110  27.356  1.00  0.00    -0.275 OA
ATOM      6  C   UNL A   1      32.604  30.160  26.525  1.00  0.00     0.222 C 
ATOM      7  H   UNL A   1      34.478  30.777  26.025  1.00  0.00     0.163 HD
BRANCH   6   8
ATOM      8  C   UNL A   1      32.494  29.441  25.209  1.00  0.00     0.128 C 
BRANCH   8   9
ATOM      9  C   UNL A   1      33.133  28.062  25.071  1.00  0.00     0.049 C 
ATOM     10  C   UNL A   1      34.031  27.609  26.268  1.00  0.00     0.029 C 
ATOM     11  C   UNL A   1      32.133  26.941  25.507  1.00  0.00     0.029 C 
ATOM     12  C   UNL A   1      33.226  26.308  26.372  1.00  0.00     0.005 C 
BRANCH   9  13
ATOM     13  N   UNL A   1      33.767  27.754  23.754  1.00  0.00    -0.349 N 
ATOM     14  C   UNL A   1      33.265  27.409  22.514  1.00  0.00     0.231 C 
ATOM     15  H   UNL A   1      34.749  27.809  23.774  1.00  0.00     0.164 HD
ATOM     16  O   UNL A   1      34.034  27.464  21.554  1.00  0.00    -0.274 OA
BRANCH  14  17
ATOM     17  C   UNL A   1      31.847  26.917  22.306  1.00  0.00     0.074 C 
ATOM     18  C   UNL A   1      31.652  25.981  21.082  1.00  0.00     0.023 C 
ATOM     19  C   UNL A   1      31.591  25.418  22.454  1.00  0.00     0.023 C 
BRANCH  17  20
ATOM     20  C   UNL A   1      30.730  27.960  22.473  1.00  0.00    -0.032 A 
ATOM     21  C   UNL A   1      29.510  27.617  23.085  1.00  0.00     0.005 A 
ATOM     22  C   UNL A   1      30.821  29.269  21.971  1.00  0.00     0.005 A 
ATOM     23  C   UNL A   1      28.428  28.503  23.129  1.00  0.00     0.000 A 
ATOM     24  C   UNL A   1      29.731  30.142  21.962  1.00  0.00     0.000 A 
ATOM     25  C   UNL A   1      28.529  29.755  22.532  1.00  0.00     0.000 A 
ENDBRANCH  17  20
ENDBRANCH  14  17
ENDBRANCH   9  13
ENDBRANCH   8   9
ENDBRANCH   6   8
ENDBRANCH   3   4
ENDBRANCH   2   3
ENDBRANCH   1   2
BRANCH   1  26
ATOM     26  C   UNL A   1      36.812  33.808  29.071  1.00  0.00     0.002 C 
BRANCH  26  27
ATOM     27  C   UNL A   1      36.287  33.841  30.506  1.00  0.00     0.021 C 
BRANCH  27  28
ATOM     28  C   UNL A   1      37.125  33.057  31.505  1.00  0.00     0.116 C 
BRANCH  28  29
ATOM     29  N   UNL A   1      36.509  31.790  31.856  1.00  0.00    -0.352 N 
ATOM     30  C   UNL A   1      36.934  30.520  31.548  1.00  0.00     0.251 C 
ATOM     31  H   UNL A   1      35.680  31.847  32.384  1.00  0.00     0.163 HD
ATOM     32  O   UNL A   1      36.198  29.557  31.742  1.00  0.00    -0.269 OA
BRANCH  30  33
ATOM     33  C   UNL A   1      38.276  30.329  30.955  1.00  0.00     0.039 A 
ATOM     34  C   UNL A   1      39.334  29.945  31.781  1.00  0.00     0.014 A 
ATOM     35  C   UNL A   1      38.479  30.503  29.583  1.00  0.00     0.014 A 
ATOM     36  C   UNL A   1      40.585  29.681  31.218  1.00  0.00     0.010 A 
ATOM     37  C   UNL A   1      39.704  30.163  29.016  1.00  0.00     0.010 A 
ATOM     38  C   UNL A   1      40.772  29.754  29.828  1.00  0.00    -0.014 A 
BRANCH  38  39
ATOM     39  C   UNL A   1      42.078  29.410  29.205  1.00  0.00     0.031 A 
ATOM     40  C   UNL A   1      42.306  28.031  28.644  1.00  0.00     0.074 A 
ATOM     41  C   UNL A   1      43.077  30.316  29.202  1.00  0.00     0.049 A 
ATOM     42  N   UNL A   1      43.390  27.527  28.113  1.00  0.00    -0.248 NA
ATOM     43  C   UNL A   1      41.177  27.086  28.708  1.00  0.00     0.031 C 
ATOM     44  C   UNL A   1      42.995  31.674  29.747  1.00  0.00     0.029 A 
ATOM     45  N   UNL A   1      44.363  30.231  28.727  1.00  0.00    -0.354 N 
ATOM     46  C   UNL A   1      43.084  26.205  27.808  1.00  0.00     0.074 A 
ATOM     47  C   UNL A   1      41.726  25.973  28.245  1.00  0.00     0.031 C 
ATOM     48  C   UNL A   1      44.166  32.301  29.552  1.00  0.00     0.029 A 
ATOM     49  C   UNL A   1      45.100  31.379  28.912  1.00  0.00     0.049 A 
ATOM     50  H   UNL A   1      44.725  29.424  28.296  1.00  0.00     0.167 HD
ATOM     51  C   UNL A   1      43.861  25.274  27.205  1.00  0.00     0.031 A 
ATOM     52  C   UNL A   1      46.384  31.655  28.611  1.00  0.00     0.031 A 
ATOM     53  C   UNL A   1      45.202  25.519  26.747  1.00  0.00     0.049 A 
ATOM     54  C   UNL A   1      47.226  30.595  27.950  1.00  0.00     0.074 A 
ATOM     55  C   UNL A   1      46.039  24.664  26.051  1.00  0.00     0.029 A 
ATOM     56  N   UNL A   1      45.907  26.696  26.945  1.00  0.00    -0.354 N 
ATOM     57  N   UNL A   1      46.886  29.381  27.587  1.00  0.00    -0.248 NA
ATOM     58  C   UNL A   1      48.621  30.946  27.650  1.00  0.00     0.031 C 
ATOM     59  C   UNL A   1      47.273  25.299  25.887  1.00  0.00     0.029 A 
ATOM     60  C   UNL A   1      47.181  26.576  26.417  1.00  0.00     0.049 A 
ATOM     61  H   UNL A   1      45.554  27.497  27.394  1.00  0.00     0.167 HD
ATOM     62  C   UNL A   1      48.016  28.838  26.983  1.00  0.00     0.074 A 
ATOM     63  C   UNL A   1      49.041  29.860  27.017  1.00  0.00     0.031 C 
ATOM     64  C   UNL A   1      48.189  27.605  26.447  1.00  0.00     0.031 A 
BRANCH  51  65
ATOM     65  C   UNL A   1      43.291  23.893  27.010  1.00  0.00    -0.014 A 
ATOM     66  C   UNL A   1      42.505  23.575  25.888  1.00  0.00     0.010 A 
ATOM     67  C   UNL A   1      43.618  22.876  27.926  1.00  0.00     0.010 A 
ATOM     68  C   UNL A   1      42.039  22.272  25.697  1.00  0.00     0.020 A 
ATOM     69  C   UNL A   1      43.178  21.564  27.725  1.00  0.00     0.020 A 
ATOM     70  C   UNL A   1      42.383  21.274  26.615  1.00  0.00     0.054 A 
BRANCH  70  71
ATOM     71  S   UNL A   1      41.811  19.579  26.310  1.00  0.00     0.124 S 
ATOM     72  O   UNL A   1      42.650  19.176  25.183  1.00  0.00    -0.237 OA
ATOM     73  O   UNL A   1      42.101  18.913  27.578  1.00  0.00    -0.237 OA
ATOM     74  O   UNL A   1      40.393  19.740  26.004  1.00  0.00    -0.744 OA
ENDBRANCH  70  71
ENDBRANCH  51  65
BRANCH  52  75
ATOM     75  C   UNL A   1      46.965  32.990  28.930  1.00  0.00    -0.014 A 
ATOM     76  C   UNL A   1      47.014  34.002  27.952  1.00  0.00     0.010 A 
ATOM     77  C   UNL A   1      47.503  33.249  30.203  1.00  0.00     0.010 A 
ATOM     78  C   UNL A   1      47.625  35.228  28.229  1.00  0.00     0.020 A 
ATOM     79  C   UNL A   1      48.085  34.486  30.495  1.00  0.00     0.020 A 
ATOM     80  C   UNL A   1      48.160  35.461  29.500  1.00  0.00     0.054 A 
BRANCH  80  81
ATOM     81  S   UNL A   1      48.939  37.063  29.840  1.00  0.00     0.124 S 
ATOM     82  O   UNL A   1      48.418  37.378  31.166  1.00  0.00    -0.237 OA
ATOM     83  O   UNL A   1      50.363  36.743  29.777  1.00  0.00    -0.237 OA
ATOM     84  O   UNL A   1      48.452  37.916  28.757  1.00  0.00    -0.744 OA
ENDBRANCH  80  81
ENDBRANCH  52  75
BRANCH  64  85
ATOM     85  C   UNL A   1      49.517  27.300  25.805  1.00  0.00    -0.014 A 
ATOM     86  C   UNL A   1      50.578  26.747  26.542  1.00  0.00     0.010 A 
ATOM     87  C   UNL A   1      49.681  27.516  24.424  1.00  0.00     0.010 A 
ATOM     88  C   UNL A   1      51.789  26.441  25.915  1.00  0.00     0.020 A 
ATOM     89  C   UNL A   1      50.877  27.182  23.786  1.00  0.00     0.020 A 
ATOM     90  C   UNL A   1      51.930  26.658  24.539  1.00  0.00     0.054 A 
BRANCH  90  91
ATOM     91  S   UNL A   1      53.493  26.205  23.740  1.00  0.00     0.124 S 
ATOM     92  O   UNL A   1      54.315  27.385  23.989  1.00  0.00    -0.237 OA
ATOM     93  O   UNL A   1      53.886  25.000  24.467  1.00  0.00    -0.237 OA
ATOM     94  O   UNL A   1      53.120  25.989  22.344  1.00  0.00    -0.744 OA
ENDBRANCH  90  91
ENDBRANCH  64  85
ENDBRANCH  38  39
ENDBRANCH  30  33
ENDBRANCH  28  29
ENDBRANCH  27  28
ENDBRANCH  26  27
ENDBRANCH   1  26
TORSDOF 20
ENDMDL
MODEL 2
REMARK VINA RESULT:     -10.0      1.534      2.841
REMARK SMILES O=C(CC1(NC(=O)C2(c3ccccc3)CC2)CCC1)NCCCCCCNC(=O)c1ccc(-c2c3nc(c(-c4ccc(S(=O)(=O)[O-])cc4)c4ccc([nH]4)c(-c4ccc(S(=O)(=O)[O-])cc4)c4nc(c(-c5ccc(S(=O)(=O)[O-])cc5)c5ccc2[nH]5)C=C4)C=C3)cc1
REMARK SMILES IDX 23 1 22 2 21 3 20 4 1 5 2 6 3 8 4 9 17 10 19 11 18 12 5 13
REMARK SMILES IDX 6 14 7 16 8 17 15 18 16 19 9 20 10 21 14 22 11 23 13 24
REMARK SMILES IDX 12 25 24 26 25 27 26 28 27 29 28 30 29 32 30 33 31 34 89 35
REMARK SMILES IDX 32 36 88 37 33 38 34 39 35 40 82 41 36 42 87 43 81 44 83 45
REMARK SMILES IDX 37 46 86 47 80 48 79 49 38 51 68 52 49 53 67 54 50 55 53 56
REMARK SMILES IDX 66 57 84 58 51 59 52 60 65 62 85 63 54 64 39 65 40 66 48 67
REMARK SMILES IDX 41 68 47 69 42 70 43 71 44 72 45 73 46 74 69 75 70 76 78 77
REMARK SMILES IDX 71 78 77 79 72 80 73 81 74 82 75 83 76 84 55 85 56 86 64 87
REMARK SMILES IDX 57 88 63 89 58 90 59 91 60 92 61 93 62 94
REMARK H PARENT 20 7 5 15 27 31 83 50 53 61
REMARK Flexibility Score: inf
ROOT
ATOM      1  C   UNL A   1      35.371  32.767  27.994  1.00  0.00     0.002 C 
ENDROOT
BRANCH   1   2
ATOM      2  C   UNL A   1      35.401  31.249  27.773  1.00  0.00     0.021 C 
BRANCH   2   3
ATOM      3  C   UNL A   1      34.035  30.602  27.561  1.00  0.00     0.116 C 
BRANCH   3   4
ATOM      4  N   UNL A   1      34.099  29.553  26.573  1.00  0.00    -0.356 N 
ATOM      5  O   UNL A   1      32.570  28.192  27.599  1.00  0.00    -0.275 OA
ATOM      6  C   UNL A   1      33.371  28.403  26.693  1.00  0.00     0.222 C 
ATOM      7  H   UNL A   1      34.685  29.669  25.790  1.00  0.00     0.163 HD
BRANCH   6   8
ATOM      8  C   UNL A   1      33.741  27.326  25.711  1.00  0.00     0.128 C 
BRANCH   8   9
ATOM      9  C   UNL A   1      32.737  26.948  24.625  1.00  0.00     0.049 C 
ATOM     10  C   UNL A   1      31.873  28.123  24.063  1.00  0.00     0.029 C 
ATOM     11  C   UNL A   1      33.429  26.898  23.223  1.00  0.00     0.029 C 
ATOM     12  C   UNL A   1      32.295  27.745  22.638  1.00  0.00     0.005 C 
BRANCH   9  13
ATOM     13  N   UNL A   1      31.916  25.727  24.878  1.00  0.00    -0.349 N 
ATOM     14  C   UNL A   1      32.109  24.381  24.628  1.00  0.00     0.231 C 
ATOM     15  H   UNL A   1      31.056  25.921  25.316  1.00  0.00     0.164 HD
ATOM     16  O   UNL A   1      31.353  23.586  25.185  1.00  0.00    -0.274 OA
BRANCH  14  17
ATOM     17  C   UNL A   1      33.157  23.863  23.664  1.00  0.00     0.074 C 
ATOM     18  C   UNL A   1      32.663  22.761  22.689  1.00  0.00     0.023 C 
ATOM     19  C   UNL A   1      32.939  24.126  22.176  1.00  0.00     0.023 C 
BRANCH  17  20
ATOM     20  C   UNL A   1      34.551  23.590  24.254  1.00  0.00    -0.032 A 
ATOM     21  C   UNL A   1      34.793  23.744  25.631  1.00  0.00     0.005 A 
ATOM     22  C   UNL A   1      35.664  23.250  23.467  1.00  0.00     0.005 A 
ATOM     23  C   UNL A   1      36.079  23.636  26.174  1.00  0.00     0.000 A 
ATOM     24  C   UNL A   1      36.958  23.191  23.989  1.00  0.00     0.000 A 
ATOM     25  C   UNL A   1      37.167  23.395  25.343  1.00  0.00     0.000 A 
ENDBRANCH  17  20
ENDBRANCH  14  17
ENDBRANCH   9  13
ENDBRANCH   8   9
ENDBRANCH   6   8
ENDBRANCH   3   4
ENDBRANCH   2   3
ENDBRANCH   1   2
BRANCH   1  26
ATOM     26  C   UNL A   1      36.575  33.342  28.744  1.00  0.00     0.002 C 
BRANCH  26  27
ATOM     27  C   UNL A   1      36.316  33.701  30.207  1.00  0.00     0.021 C 
BRANCH  27  28
ATOM     28  C   UNL A   1      37.103  32.872  31.211  1.00  0.00     0.116 C 
BRANCH  28  29
ATOM     29  N   UNL A   1      36.462  31.598  31.486  1.00  0.00    -0.352 N 
ATOM     30  C   UNL A   1      36.871  30.340  31.118  1.00  0.00     0.251 C 
ATOM     31  H   UNL A   1      35.626  31.641  32.005  1.00  0.00     0.163 HD
ATOM     32  O   UNL A   1      36.117  29.380  31.251  1.00  0.00    -0.269 OA
BRANCH  30  33
ATOM     33  C   UNL A   1      38.218  30.158  30.534  1.00  0.00     0.039 A 
ATOM     34  C   UNL A   1      39.295  29.888  31.382  1.00  0.00     0.014 A 
ATOM     35  C   UNL A   1      38.411  30.228  29.151  1.00  0.00     0.014 A 
ATOM     36  C   UNL A   1      40.555  29.632  30.835  1.00  0.00     0.010 A 
ATOM     37  C   UNL A   1      39.648  29.895  28.606  1.00  0.00     0.010 A 
ATOM     38  C   UNL A   1      40.734  29.599  29.443  1.00  0.00    -0.014 A 
BRANCH  38  39
ATOM     39  C   UNL A   1      42.052  29.261  28.841  1.00  0.00     0.031 A 
ATOM     40  C   UNL A   1      42.309  27.872  28.319  1.00  0.00     0.074 A 
ATOM     41  C   UNL A   1      43.036  30.184  28.824  1.00  0.00     0.049 A 
ATOM     42  N   UNL A   1      43.407  27.373  27.812  1.00  0.00    -0.248 NA
ATOM     43  C   UNL A   1      41.195  26.910  28.396  1.00  0.00     0.031 C 
ATOM     44  C   UNL A   1      42.926  31.553  29.334  1.00  0.00     0.029 A 
ATOM     45  N   UNL A   1      44.328  30.108  28.364  1.00  0.00    -0.354 N 
ATOM     46  C   UNL A   1      43.125  26.039  27.539  1.00  0.00     0.074 A 
ATOM     47  C   UNL A   1      41.767  25.795  27.968  1.00  0.00     0.031 C 
ATOM     48  C   UNL A   1      44.089  32.195  29.133  1.00  0.00     0.029 A 
ATOM     49  C   UNL A   1      45.044  31.272  28.527  1.00  0.00     0.049 A 
ATOM     50  H   UNL A   1      44.708  29.296  27.959  1.00  0.00     0.167 HD
ATOM     51  C   UNL A   1      43.924  25.106  26.968  1.00  0.00     0.031 A 
ATOM     52  C   UNL A   1      46.326  31.563  28.232  1.00  0.00     0.031 A 
ATOM     53  C   UNL A   1      45.266  25.361  26.517  1.00  0.00     0.049 A 
ATOM     54  C   UNL A   1      47.192  30.500  27.607  1.00  0.00     0.074 A 
ATOM     55  C   UNL A   1      46.124  24.502  25.852  1.00  0.00     0.029 A 
ATOM     56  N   UNL A   1      45.949  26.554  26.691  1.00  0.00    -0.354 N 
ATOM     57  N   UNL A   1      46.877  29.271  27.272  1.00  0.00    -0.248 NA
ATOM     58  C   UNL A   1      48.585  30.866  27.312  1.00  0.00     0.031 C 
ATOM     59  C   UNL A   1      47.349  25.153  25.684  1.00  0.00     0.029 A 
ATOM     60  C   UNL A   1      47.230  26.442  26.179  1.00  0.00     0.049 A 
ATOM     61  H   UNL A   1      45.578  27.361  27.115  1.00  0.00     0.167 HD
ATOM     62  C   UNL A   1      48.022  28.732  26.694  1.00  0.00     0.074 A 
ATOM     63  C   UNL A   1      49.029  29.771  26.711  1.00  0.00     0.031 C 
ATOM     64  C   UNL A   1      48.220  27.489  26.192  1.00  0.00     0.031 A 
BRANCH  51  65
ATOM     65  C   UNL A   1      43.379  23.710  26.803  1.00  0.00    -0.014 A 
ATOM     66  C   UNL A   1      42.911  23.247  25.561  1.00  0.00     0.010 A 
ATOM     67  C   UNL A   1      43.414  22.823  27.895  1.00  0.00     0.010 A 
ATOM     68  C   UNL A   1      42.468  21.930  25.418  1.00  0.00     0.020 A 
ATOM     69  C   UNL A   1      42.999  21.496  27.750  1.00  0.00     0.020 A 
ATOM     70  C   UNL A   1      42.519  21.061  26.514  1.00  0.00     0.054 A 
BRANCH  70  71
ATOM     71  S   UNL A   1      41.991  19.341  26.284  1.00  0.00     0.124 S 
ATOM     72  O   UNL A   1      40.612  19.507  25.829  1.00  0.00    -0.237 OA
ATOM     73  O   UNL A   1      42.929  18.852  25.276  1.00  0.00    -0.237 OA
ATOM     74  O   UNL A   1      42.141  18.750  27.610  1.00  0.00    -0.744 OA
ENDBRANCH  70  71
ENDBRANCH  51  65
BRANCH  52  75
ATOM     75  C   UNL A   1      46.882  32.915  28.521  1.00  0.00    -0.014 A 
ATOM     76  C   UNL A   1      47.484  33.191  29.763  1.00  0.00     0.010 A 
ATOM     77  C   UNL A   1      46.783  33.946  27.569  1.00  0.00     0.010 A 
ATOM     78  C   UNL A   1      47.938  34.479  30.061  1.00  0.00     0.020 A 
ATOM     79  C   UNL A   1      47.267  35.227  27.850  1.00  0.00     0.020 A 
ATOM     80  C   UNL A   1      47.823  35.491  29.103  1.00  0.00     0.054 A 
BRANCH  80  81
ATOM     81  S   UNL A   1      48.428  37.152  29.508  1.00  0.00     0.124 S 
ATOM     82  O   UNL A   1      49.873  36.987  29.381  1.00  0.00    -0.237 OA
ATOM     83  O   UNL A   1      47.791  37.979  28.487  1.00  0.00    -0.237 OA
ATOM     84  O   UNL A   1      47.941  37.369  30.869  1.00  0.00    -0.744 OA
ENDBRANCH  80  81
ENDBRANCH  52  75
BRANCH  64  85
ATOM     85  C   UNL A   1      49.560  27.190  25.572  1.00  0.00    -0.014 A 
ATOM     86  C   UNL A   1      49.842  27.527  24.236  1.00  0.00     0.010 A 
ATOM     87  C   UNL A   1      50.574  26.619  26.363  1.00  0.00     0.010 A 
ATOM     88  C   UNL A   1      51.105  27.271  23.696  1.00  0.00     0.020 A 
ATOM     89  C   UNL A   1      51.847  26.391  25.837  1.00  0.00     0.020 A 
ATOM     90  C   UNL A   1      52.101  26.706  24.501  1.00  0.00     0.054 A 
BRANCH  90  91
ATOM     91  S   UNL A   1      53.746  26.432  23.790  1.00  0.00     0.124 S 
ATOM     92  O   UNL A   1      54.348  25.522  24.759  1.00  0.00    -0.237 OA
ATOM     93  O   UNL A   1      53.437  25.847  22.486  1.00  0.00    -0.237 OA
ATOM     94  O   UNL A   1      54.332  27.769  23.743  1.00  0.00    -0.744 OA
ENDBRANCH  90  91
ENDBRANCH  64  85
ENDBRANCH  38  39
ENDBRANCH  30  33
ENDBRANCH  28  29
ENDBRANCH  27  28
ENDBRANCH  26  27
ENDBRANCH   1  26
TORSDOF 20
ENDMDL
MODEL 3
REMARK VINA RESULT:     -10.0      5.762     11.119
REMARK SMILES O=C(CC1(NC(=O)C2(c3ccccc3)CC2)CCC1)NCCCCCCNC(=O)c1ccc(-c2c3nc(c(-c4ccc(S(=O)(=O)[O-])cc4)c4ccc([nH]4)c(-c4ccc(S(=O)(=O)[O-])cc4)c4nc(c(-c5ccc(S(=O)(=O)[O-])cc5)c5ccc2[nH]5)C=C4)C=C3)cc1
REMARK SMILES IDX 23 1 22 2 21 3 20 4 1 5 2 6 3 8 4 9 17 10 19 11 18 12 5 13
REMARK SMILES IDX 6 14 7 16 8 17 15 18 16 19 9 20 10 21 14 22 11 23 13 24
REMARK SMILES IDX 12 25 24 26 25 27 26 28 27 29 28 30 29 32 30 33 31 34 89 35
REMARK SMILES IDX 32 36 88 37 33 38 34 39 35 40 82 41 36 42 87 43 81 44 83 45
REMARK SMILES IDX 37 46 86 47 80 48 79 49 38 51 68 52 49 53 67 54 50 55 53 56
REMARK SMILES IDX 66 57 84 58 51 59 52 60 65 62 85 63 54 64 39 65 40 66 48 67
REMARK SMILES IDX 41 68 47 69 42 70 43 71 44 72 45 73 46 74 69 75 70 76 78 77
REMARK SMILES IDX 71 78 77 79 72 80 73 81 74 82 75 83 76 84 55 85 56 86 64 87
REMARK SMILES IDX 57 88 63 89 58 90 59 91 60 92 61 93 62 94
REMARK H PARENT 20 7 5 15 27 31 83 50 53 61
REMARK Flexibility Score: inf
ROOT
ATOM      1  C   UNL A   1      40.250  23.466  27.174  1.00  0.00     0.002 C 
ENDROOT
BRANCH   1   2
ATOM      2  C   UNL A   1      38.945  23.957  26.534  1.00  0.00     0.021 C 
BRANCH   2   3
ATOM      3  C   UNL A   1      38.170  22.897  25.755  1.00  0.00     0.116 C 
BRANCH   3   4
ATOM      4  N   UNL A   1      37.149  23.495  24.930  1.00  0.00    -0.356 N 
ATOM      5  O   UNL A   1      35.481  23.326  26.488  1.00  0.00    -0.275 OA
ATOM      6  C   UNL A   1      35.861  23.634  25.363  1.00  0.00     0.222 C 
ATOM      7  H   UNL A   1      37.388  23.812  24.029  1.00  0.00     0.163 HD
BRANCH   6   8
ATOM      8  C   UNL A   1      34.887  24.049  24.296  1.00  0.00     0.128 C 
BRANCH   8   9
ATOM      9  C   UNL A   1      33.453  23.529  24.369  1.00  0.00     0.049 C 
ATOM     10  C   UNL A   1      32.537  23.897  23.157  1.00  0.00     0.029 C 
ATOM     11  C   UNL A   1      33.375  22.048  23.871  1.00  0.00     0.029 C 
ATOM     12  C   UNL A   1      32.183  22.415  22.982  1.00  0.00     0.005 C 
BRANCH   9  13
ATOM     13  N   UNL A   1      32.750  23.709  25.673  1.00  0.00    -0.349 N 
ATOM     14  C   UNL A   1      32.084  24.770  26.258  1.00  0.00     0.231 C 
ATOM     15  H   UNL A   1      32.762  22.901  26.236  1.00  0.00     0.164 HD
ATOM     16  O   UNL A   1      31.388  24.530  27.244  1.00  0.00    -0.274 OA
BRANCH  14  17
ATOM     17  C   UNL A   1      32.226  26.199  25.775  1.00  0.00     0.074 C 
ATOM     18  C   UNL A   1      32.562  27.235  26.883  1.00  0.00     0.023 C 
ATOM     19  C   UNL A   1      33.602  26.852  25.896  1.00  0.00     0.023 C 
BRANCH  17  20
ATOM     20  C   UNL A   1      31.172  26.688  24.768  1.00  0.00    -0.032 A 
ATOM     21  C   UNL A   1      31.420  27.808  23.953  1.00  0.00     0.005 A 
ATOM     22  C   UNL A   1      29.896  26.113  24.653  1.00  0.00     0.005 A 
ATOM     23  C   UNL A   1      30.432  28.358  23.128  1.00  0.00     0.000 A 
ATOM     24  C   UNL A   1      28.887  26.683  23.874  1.00  0.00     0.000 A 
ATOM     25  C   UNL A   1      29.152  27.814  23.118  1.00  0.00     0.000 A 
ENDBRANCH  17  20
ENDBRANCH  14  17
ENDBRANCH   9  13
ENDBRANCH   8   9
ENDBRANCH   6   8
ENDBRANCH   3   4
ENDBRANCH   2   3
ENDBRANCH   1   2
BRANCH   1  26
ATOM     26  C   UNL A   1      40.416  21.945  27.236  1.00  0.00     0.002 C 
BRANCH  26  27
ATOM     27  C   UNL A   1      41.491  21.372  26.312  1.00  0.00     0.021 C 
BRANCH  27  28
ATOM     28  C   UNL A   1      42.368  22.417  25.638  1.00  0.00     0.116 C 
BRANCH  28  29
ATOM     29  N   UNL A   1      43.781  22.116  25.782  1.00  0.00    -0.352 N 
ATOM     30  C   UNL A   1      44.728  22.798  26.508  1.00  0.00     0.251 C 
ATOM     31  H   UNL A   1      44.103  21.322  25.298  1.00  0.00     0.163 HD
ATOM     32  O   UNL A   1      45.921  22.538  26.368  1.00  0.00    -0.269 OA
BRANCH  30  33
ATOM     33  C   UNL A   1      44.299  23.865  27.438  1.00  0.00     0.039 A 
ATOM     34  C   UNL A   1      43.678  23.510  28.638  1.00  0.00     0.014 A 
ATOM     35  C   UNL A   1      44.534  25.210  27.137  1.00  0.00     0.014 A 
ATOM     36  C   UNL A   1      43.345  24.504  29.561  1.00  0.00     0.010 A 
ATOM     37  C   UNL A   1      44.273  26.188  28.091  1.00  0.00     0.010 A 
ATOM     38  C   UNL A   1      43.670  25.847  29.311  1.00  0.00    -0.014 A 
BRANCH  38  39
ATOM     39  C   UNL A   1      43.384  26.910  30.311  1.00  0.00     0.031 A 
ATOM     40  C   UNL A   1      44.268  27.065  31.521  1.00  0.00     0.074 A 
ATOM     41  C   UNL A   1      42.295  27.692  30.163  1.00  0.00     0.049 A 
ATOM     42  N   UNL A   1      44.149  27.893  32.527  1.00  0.00    -0.248 NA
ATOM     43  C   UNL A   1      45.423  26.156  31.628  1.00  0.00     0.031 C 
ATOM     44  C   UNL A   1      41.339  27.618  29.056  1.00  0.00     0.029 A 
ATOM     45  N   UNL A   1      41.804  28.703  30.953  1.00  0.00    -0.354 N 
ATOM     46  C   UNL A   1      45.192  27.587  33.395  1.00  0.00     0.074 A 
ATOM     47  C   UNL A   1      45.912  26.475  32.817  1.00  0.00     0.031 C 
ATOM     48  C   UNL A   1      40.395  28.559  29.222  1.00  0.00     0.029 A 
ATOM     49  C   UNL A   1      40.647  29.273  30.470  1.00  0.00     0.049 A 
ATOM     50  H   UNL A   1      42.237  28.992  31.788  1.00  0.00     0.167 HD
ATOM     51  C   UNL A   1      45.526  28.189  34.561  1.00  0.00     0.031 A 
ATOM     52  C   UNL A   1      39.872  30.251  30.978  1.00  0.00     0.031 A 
ATOM     53  C   UNL A   1      44.822  29.312  35.118  1.00  0.00     0.049 A 
ATOM     54  C   UNL A   1      40.265  30.893  32.282  1.00  0.00     0.074 A 
ATOM     55  C   UNL A   1      45.135  30.043  36.251  1.00  0.00     0.029 A 
ATOM     56  N   UNL A   1      43.664  29.864  34.593  1.00  0.00    -0.354 N 
ATOM     57  N   UNL A   1      41.308  30.649  33.040  1.00  0.00    -0.248 NA
ATOM     58  C   UNL A   1      39.380  31.949  32.795  1.00  0.00     0.031 C 
ATOM     59  C   UNL A   1      44.129  30.992  36.449  1.00  0.00     0.029 A 
ATOM     60  C   UNL A   1      43.229  30.901  35.400  1.00  0.00     0.049 A 
ATOM     61  H   UNL A   1      43.218  29.563  33.769  1.00  0.00     0.167 HD
ATOM     62  C   UNL A   1      41.223  31.548  34.099  1.00  0.00     0.074 A 
ATOM     63  C   UNL A   1      40.037  32.348  33.876  1.00  0.00     0.031 C 
ATOM     64  C   UNL A   1      42.053  31.698  35.160  1.00  0.00     0.031 A 
BRANCH  51  65
ATOM     65  C   UNL A   1      46.701  27.642  35.330  1.00  0.00    -0.014 A 
ATOM     66  C   UNL A   1      47.992  28.177  35.176  1.00  0.00     0.010 A 
ATOM     67  C   UNL A   1      46.490  26.629  36.284  1.00  0.00     0.010 A 
ATOM     68  C   UNL A   1      49.054  27.695  35.945  1.00  0.00     0.020 A 
ATOM     69  C   UNL A   1      47.544  26.163  37.076  1.00  0.00     0.020 A 
ATOM     70  C   UNL A   1      48.822  26.694  36.894  1.00  0.00     0.054 A 
BRANCH  70  71
ATOM     71  S   UNL A   1      50.208  26.128  37.918  1.00  0.00     0.124 S 
ATOM     72  O   UNL A   1      49.693  24.870  38.455  1.00  0.00    -0.237 OA
ATOM     73  O   UNL A   1      51.290  25.999  36.945  1.00  0.00    -0.237 OA
ATOM     74  O   UNL A   1      50.378  27.199  38.896  1.00  0.00    -0.744 OA
ENDBRANCH  70  71
ENDBRANCH  51  65
BRANCH  52  75
ATOM     75  C   UNL A   1      38.641  30.689  30.261  1.00  0.00    -0.014 A 
ATOM     76  C   UNL A   1      38.669  31.808  29.408  1.00  0.00     0.010 A 
ATOM     77  C   UNL A   1      37.423  30.010  30.452  1.00  0.00     0.010 A 
ATOM     78  C   UNL A   1      37.499  32.263  28.793  1.00  0.00     0.020 A 
ATOM     79  C   UNL A   1      36.258  30.441  29.812  1.00  0.00     0.020 A 
ATOM     80  C   UNL A   1      36.299  31.577  29.003  1.00  0.00     0.054 A 
BRANCH  80  81
ATOM     81  S   UNL A   1      34.794  32.180  28.188  1.00  0.00     0.124 S 
ATOM     82  O   UNL A   1      35.258  33.419  27.572  1.00  0.00    -0.237 OA
ATOM     83  O   UNL A   1      34.477  31.093  27.265  1.00  0.00    -0.237 OA
ATOM     84  O   UNL A   1      33.851  32.344  29.292  1.00  0.00    -0.744 OA
ENDBRANCH  80  81
ENDBRANCH  52  75
BRANCH  64  85
ATOM     85  C   UNL A   1      41.744  32.799  36.140  1.00  0.00    -0.014 A 
ATOM     86  C   UNL A   1      42.309  34.080  36.008  1.00  0.00     0.010 A 
ATOM     87  C   UNL A   1      40.820  32.561  37.175  1.00  0.00     0.010 A 
ATOM     88  C   UNL A   1      41.978  35.093  36.911  1.00  0.00     0.020 A 
ATOM     89  C   UNL A   1      40.462  33.580  38.060  1.00  0.00     0.020 A 
ATOM     90  C   UNL A   1      41.054  34.838  37.931  1.00  0.00     0.054 A 
BRANCH  90  91
ATOM     91  S   UNL A   1      40.603  36.185  39.057  1.00  0.00     0.124 S 
ATOM     92  O   UNL A   1      40.252  35.459  40.274  1.00  0.00    -0.237 OA
ATOM     93  O   UNL A   1      41.834  36.970  39.126  1.00  0.00    -0.237 OA
ATOM     94  O   UNL A   1      39.488  36.844  38.382  1.00  0.00    -0.744 OA
ENDBRANCH  90  91
ENDBRANCH  64  85
ENDBRANCH  38  39
ENDBRANCH  30  33
ENDBRANCH  28  29
ENDBRANCH  27  28
ENDBRANCH  26  27
ENDBRANCH   1  26
TORSDOF 20
ENDMDL
