MODEL 1
REMARK VINA RESULT:     -11.2      0.000      0.000
REMARK SMILES CSCC[C@@H](NC(=O)[C@@]1(C)Oc2ccccc2NC1=O)C(=O)NCCCCCCNC(=O)c1ccc(-c2c3nc(c(-c4ccc(S(=O)(=O)[O-])cc4)c4ccc([nH]4)c(-c4ccc(S(=O)(=O)[O-])cc4)c4nc(c(-c5ccc(S(=O)(=O)[O-])cc5)c5ccc2[nH]5)C=C4)C=C3)cc1
REMARK SMILES IDX 26 1 25 2 24 3 23 4 21 5 22 6 5 8 4 9 3 10 2 11 1 12 6 13
REMARK SMILES IDX 7 14 8 16 9 17 10 18 11 19 19 20 12 21 18 22 20 23 13 24
REMARK SMILES IDX 17 25 14 27 16 28 15 29 27 30 28 31 29 32 30 33 31 34 32 36
REMARK SMILES IDX 33 37 34 38 92 39 35 40 91 41 36 42 37 43 38 44 85 45 39 46
REMARK SMILES IDX 90 47 84 48 86 49 40 50 89 51 83 52 82 53 41 55 71 56 52 57
REMARK SMILES IDX 70 58 53 59 56 60 69 61 87 62 54 63 55 64 68 66 88 67 57 68
REMARK SMILES IDX 42 69 43 70 51 71 44 72 50 73 45 74 46 75 47 76 48 77 49 78
REMARK SMILES IDX 72 79 73 80 81 81 74 82 80 83 75 84 76 85 77 86 78 87 79 88
REMARK SMILES IDX 58 89 59 90 67 91 60 92 66 93 61 94 62 95 63 96 64 97 65 98
REMARK H PARENT 23 7 6 15 18 26 30 35 86 54 56 65
REMARK Flexibility Score: inf
ROOT
ATOM      1  C   UNL A   1      37.984  23.684  26.335  1.00  0.00     0.002 C 
ENDROOT
BRANCH   1   2
ATOM      2  C   UNL A   1      36.503  23.572  25.924  1.00  0.00     0.021 C 
BRANCH   2   3
ATOM      3  C   UNL A   1      36.006  22.286  25.248  1.00  0.00     0.116 C 
BRANCH   3   4
ATOM      4  N   UNL A   1      35.630  22.457  23.848  1.00  0.00    -0.354 N 
ATOM      5  C   UNL A   1      34.388  22.750  23.336  1.00  0.00     0.242 C 
ATOM      6  O   UNL A   1      34.318  23.203  22.186  1.00  0.00    -0.273 OA
ATOM      7  H   UNL A   1      36.354  22.351  23.190  1.00  0.00     0.163 HD
BRANCH   5   8
ATOM      8  C   UNL A   1      33.079  22.520  24.154  1.00  0.00     0.172 C 
BRANCH   8   9
ATOM      9  C   UNL A   1      32.796  21.000  24.021  1.00  0.00     0.046 C 
BRANCH   9  10
ATOM     10  C   UNL A   1      33.234  20.099  25.168  1.00  0.00     0.072 C 
BRANCH  10  11
ATOM     11  S   UNL A   1      33.320  18.337  24.716  1.00  0.00    -0.165 SA
ATOM     12  C   UNL A   1      32.417  18.367  23.152  1.00  0.00     0.085 C 
ENDBRANCH  10  11
ENDBRANCH   9  10
ENDBRANCH   8   9
BRANCH   8  13
ATOM     13  N   UNL A   1      32.933  22.948  25.580  1.00  0.00    -0.340 N 
ATOM     14  C   UNL A   1      32.207  23.893  26.263  1.00  0.00     0.274 C 
ATOM     15  H   UNL A   1      33.503  22.416  26.181  1.00  0.00     0.164 HD
ATOM     16  O   UNL A   1      31.957  23.582  27.439  1.00  0.00    -0.270 OA
BRANCH  14  17
ATOM     17  C   UNL A   1      31.686  25.252  25.694  1.00  0.00     0.261 C 
ATOM     18  C   UNL A   1      30.373  24.979  24.956  1.00  0.00     0.079 C 
ATOM     19  O   UNL A   1      31.392  26.197  26.775  1.00  0.00    -0.466 OA
ATOM     20  C   UNL A   1      32.720  25.917  24.832  1.00  0.00     0.278 C 
ATOM     21  C   UNL A   1      31.605  27.541  26.502  1.00  0.00     0.145 A 
ATOM     22  N   UNL A   1      32.356  27.093  24.256  1.00  0.00    -0.319 N 
ATOM     23  O   UNL A   1      33.914  25.675  24.898  1.00  0.00    -0.269 OA
ATOM     24  C   UNL A   1      31.562  28.435  27.566  1.00  0.00     0.049 A 
ATOM     25  C   UNL A   1      31.996  28.023  25.237  1.00  0.00     0.084 A 
ATOM     26  H   UNL A   1      32.346  27.267  23.287  1.00  0.00     0.170 HD
ATOM     27  C   UNL A   1      31.933  29.773  27.366  1.00  0.00     0.004 A 
ATOM     28  C   UNL A   1      32.323  29.359  25.021  1.00  0.00     0.030 A 
ATOM     29  C   UNL A   1      32.308  30.233  26.100  1.00  0.00     0.002 A 
ENDBRANCH  14  17
ENDBRANCH   8  13
ENDBRANCH   5   8
ENDBRANCH   3   4
ENDBRANCH   2   3
ENDBRANCH   1   2
BRANCH   1  30
ATOM     30  C   UNL A   1      38.933  22.490  26.136  1.00  0.00     0.002 C 
BRANCH  30  31
ATOM     31  C   UNL A   1      39.980  22.219  27.205  1.00  0.00     0.021 C 
BRANCH  31  32
ATOM     32  C   UNL A   1      41.228  23.079  27.140  1.00  0.00     0.116 C 
BRANCH  32  33
ATOM     33  N   UNL A   1      41.280  23.992  26.009  1.00  0.00    -0.352 N 
ATOM     34  C   UNL A   1      41.347  25.372  26.036  1.00  0.00     0.251 C 
ATOM     35  H   UNL A   1      41.265  23.577  25.117  1.00  0.00     0.163 HD
ATOM     36  O   UNL A   1      41.347  26.019  25.002  1.00  0.00    -0.269 OA
BRANCH  34  37
ATOM     37  C   UNL A   1      41.354  26.055  27.354  1.00  0.00     0.039 A 
ATOM     38  C   UNL A   1      40.217  26.049  28.162  1.00  0.00     0.014 A 
ATOM     39  C   UNL A   1      42.479  26.791  27.731  1.00  0.00     0.014 A 
ATOM     40  C   UNL A   1      40.129  26.939  29.226  1.00  0.00     0.010 A 
ATOM     41  C   UNL A   1      42.424  27.609  28.865  1.00  0.00     0.010 A 
ATOM     42  C   UNL A   1      41.226  27.740  29.585  1.00  0.00    -0.014 A 
BRANCH  42  43
ATOM     43  C   UNL A   1      41.084  28.714  30.700  1.00  0.00     0.031 A 
ATOM     44  C   UNL A   1      39.979  29.741  30.693  1.00  0.00     0.074 A 
ATOM     45  C   UNL A   1      41.910  28.622  31.761  1.00  0.00     0.049 A 
ATOM     46  N   UNL A   1      39.690  30.640  31.601  1.00  0.00    -0.248 NA
ATOM     47  C   UNL A   1      39.084  29.768  29.524  1.00  0.00     0.031 C 
ATOM     48  C   UNL A   1      42.997  27.649  31.896  1.00  0.00     0.029 A 
ATOM     49  N   UNL A   1      41.942  29.319  32.943  1.00  0.00    -0.354 N 
ATOM     50  C   UNL A   1      38.598  31.346  31.108  1.00  0.00     0.074 A 
ATOM     51  C   UNL A   1      38.292  30.795  29.807  1.00  0.00     0.031 C 
ATOM     52  C   UNL A   1      43.538  27.761  33.117  1.00  0.00     0.029 A 
ATOM     53  C   UNL A   1      42.892  28.862  33.826  1.00  0.00     0.049 A 
ATOM     54  H   UNL A   1      41.341  30.075  33.140  1.00  0.00     0.167 HD
ATOM     55  C   UNL A   1      37.907  32.353  31.693  1.00  0.00     0.031 A 
ATOM     56  C   UNL A   1      43.219  29.277  35.065  1.00  0.00     0.031 A 
ATOM     57  C   UNL A   1      38.205  32.884  32.999  1.00  0.00     0.049 A 
ATOM     58  C   UNL A   1      42.460  30.417  35.679  1.00  0.00     0.074 A 
ATOM     59  C   UNL A   1      37.560  33.906  33.674  1.00  0.00     0.029 A 
ATOM     60  N   UNL A   1      39.218  32.432  33.831  1.00  0.00    -0.354 N 
ATOM     61  N   UNL A   1      41.445  31.084  35.185  1.00  0.00    -0.248 NA
ATOM     62  C   UNL A   1      42.886  30.864  37.012  1.00  0.00     0.031 C 
ATOM     63  C   UNL A   1      38.214  34.108  34.891  1.00  0.00     0.029 A 
ATOM     64  C   UNL A   1      39.223  33.165  35.007  1.00  0.00     0.049 A 
ATOM     65  H   UNL A   1      39.839  31.698  33.620  1.00  0.00     0.167 HD
ATOM     66  C   UNL A   1      41.099  32.019  36.153  1.00  0.00     0.074 A 
ATOM     67  C   UNL A   1      42.003  31.821  37.268  1.00  0.00     0.031 C 
ATOM     68  C   UNL A   1      40.124  32.958  36.115  1.00  0.00     0.031 A 
BRANCH  55  69
ATOM     69  C   UNL A   1      36.752  32.965  30.942  1.00  0.00    -0.014 A 
ATOM     70  C   UNL A   1      36.999  33.915  29.934  1.00  0.00     0.010 A 
ATOM     71  C   UNL A   1      35.422  32.699  31.317  1.00  0.00     0.010 A 
ATOM     72  C   UNL A   1      35.944  34.612  29.337  1.00  0.00     0.020 A 
ATOM     73  C   UNL A   1      34.363  33.373  30.703  1.00  0.00     0.020 A 
ATOM     74  C   UNL A   1      34.631  34.344  29.734  1.00  0.00     0.054 A 
BRANCH  74  75
ATOM     75  S   UNL A   1      33.277  35.277  28.969  1.00  0.00     0.124 S 
ATOM     76  O   UNL A   1      33.992  36.342  28.272  1.00  0.00    -0.237 OA
ATOM     77  O   UNL A   1      32.642  34.278  28.113  1.00  0.00    -0.237 OA
ATOM     78  O   UNL A   1      32.471  35.707  30.110  1.00  0.00    -0.744 OA
ENDBRANCH  74  75
ENDBRANCH  55  69
BRANCH  56  79
ATOM     79  C   UNL A   1      44.306  28.572  35.800  1.00  0.00    -0.014 A 
ATOM     80  C   UNL A   1      44.007  27.484  36.642  1.00  0.00     0.010 A 
ATOM     81  C   UNL A   1      45.628  29.045  35.740  1.00  0.00     0.010 A 
ATOM     82  C   UNL A   1      44.992  26.924  37.457  1.00  0.00     0.020 A 
ATOM     83  C   UNL A   1      46.625  28.464  36.531  1.00  0.00     0.020 A 
ATOM     84  C   UNL A   1      46.293  27.430  37.408  1.00  0.00     0.054 A 
BRANCH  84  85
ATOM     85  S   UNL A   1      47.543  26.728  38.518  1.00  0.00     0.124 S 
ATOM     86  O   UNL A   1      46.843  25.566  39.060  1.00  0.00    -0.237 OA
ATOM     87  O   UNL A   1      48.648  26.430  37.611  1.00  0.00    -0.237 OA
ATOM     88  O   UNL A   1      47.797  27.805  39.471  1.00  0.00    -0.744 OA
ENDBRANCH  84  85
ENDBRANCH  56  79
BRANCH  68  89
ATOM     89  C   UNL A   1      39.951  33.853  37.313  1.00  0.00    -0.014 A 
ATOM     90  C   UNL A   1      39.010  33.513  38.304  1.00  0.00     0.010 A 
ATOM     91  C   UNL A   1      40.612  35.090  37.392  1.00  0.00     0.010 A 
ATOM     92  C   UNL A   1      38.710  34.406  39.333  1.00  0.00     0.020 A 
ATOM     93  C   UNL A   1      40.334  35.976  38.437  1.00  0.00     0.020 A 
ATOM     94  C   UNL A   1      39.366  35.638  39.386  1.00  0.00     0.054 A 
BRANCH  94  95
ATOM     95  S   UNL A   1      38.938  36.801  40.711  1.00  0.00     0.124 S 
ATOM     96  O   UNL A   1      40.252  37.217  41.192  1.00  0.00    -0.237 OA
ATOM     97  O   UNL A   1      38.172  37.827  40.007  1.00  0.00    -0.237 OA
ATOM     98  O   UNL A   1      38.161  35.986  41.642  1.00  0.00    -0.744 OA
ENDBRANCH  94  95
ENDBRANCH  68  89
ENDBRANCH  42  43
ENDBRANCH  34  37
ENDBRANCH  32  33
ENDBRANCH  31  32
ENDBRANCH  30  31
ENDBRANCH   1  30
TORSDOF 21
ENDMDL
MODEL 2
REMARK VINA RESULT:     -11.1      1.568      3.455
REMARK SMILES CSCC[C@@H](NC(=O)[C@@]1(C)Oc2ccccc2NC1=O)C(=O)NCCCCCCNC(=O)c1ccc(-c2c3nc(c(-c4ccc(S(=O)(=O)[O-])cc4)c4ccc([nH]4)c(-c4ccc(S(=O)(=O)[O-])cc4)c4nc(c(-c5ccc(S(=O)(=O)[O-])cc5)c5ccc2[nH]5)C=C4)C=C3)cc1
REMARK SMILES IDX 26 1 25 2 24 3 23 4 21 5 22 6 5 8 4 9 3 10 2 11 1 12 6 13
REMARK SMILES IDX 7 14 8 16 9 17 10 18 11 19 19 20 12 21 18 22 20 23 13 24
REMARK SMILES IDX 17 25 14 27 16 28 15 29 27 30 28 31 29 32 30 33 31 34 32 36
REMARK SMILES IDX 33 37 34 38 92 39 35 40 91 41 36 42 37 43 38 44 85 45 39 46
REMARK SMILES IDX 90 47 84 48 86 49 40 50 89 51 83 52 82 53 41 55 71 56 52 57
REMARK SMILES IDX 70 58 53 59 56 60 69 61 87 62 54 63 55 64 68 66 88 67 57 68
REMARK SMILES IDX 42 69 43 70 51 71 44 72 50 73 45 74 46 75 47 76 48 77 49 78
REMARK SMILES IDX 72 79 73 80 81 81 74 82 80 83 75 84 76 85 77 86 78 87 79 88
REMARK SMILES IDX 58 89 59 90 67 91 60 92 66 93 61 94 62 95 63 96 64 97 65 98
REMARK H PARENT 23 7 6 15 18 26 30 35 86 54 56 65
REMARK Flexibility Score: inf
ROOT
ATOM      1  C   UNL A   1      36.839  22.121  24.129  1.00  0.00     0.002 C 
ENDROOT
BRANCH   1   2
ATOM      2  C   UNL A   1      36.024  23.027  23.187  1.00  0.00     0.021 C 
BRANCH   2   3
ATOM      3  C   UNL A   1      34.886  23.883  23.764  1.00  0.00     0.116 C 
BRANCH   3   4
ATOM      4  N   UNL A   1      33.748  24.043  22.864  1.00  0.00    -0.354 N 
ATOM      5  C   UNL A   1      32.770  25.010  22.902  1.00  0.00     0.242 C 
ATOM      6  O   UNL A   1      32.100  25.207  21.880  1.00  0.00    -0.273 OA
ATOM      7  H   UNL A   1      33.671  23.379  22.142  1.00  0.00     0.163 HD
BRANCH   5   8
ATOM      8  C   UNL A   1      32.482  25.847  24.187  1.00  0.00     0.172 C 
BRANCH   8   9
ATOM      9  C   UNL A   1      32.810  27.310  23.783  1.00  0.00     0.046 C 
BRANCH   9  10
ATOM     10  C   UNL A   1      33.802  28.074  24.649  1.00  0.00     0.072 C 
BRANCH  10  11
ATOM     11  S   UNL A   1      33.514  27.869  26.436  1.00  0.00    -0.165 SA
ATOM     12  C   UNL A   1      34.725  29.040  27.088  1.00  0.00     0.085 C 
ENDBRANCH  10  11
ENDBRANCH   9  10
ENDBRANCH   8   9
BRANCH   8  13
ATOM     13  N   UNL A   1      31.172  25.794  24.907  1.00  0.00    -0.340 N 
ATOM     14  C   UNL A   1      30.612  25.017  25.891  1.00  0.00     0.274 C 
ATOM     15  H   UNL A   1      30.555  26.496  24.597  1.00  0.00     0.164 HD
ATOM     16  O   UNL A   1      29.755  25.605  26.570  1.00  0.00    -0.270 OA
BRANCH  14  17
ATOM     17  C   UNL A   1      30.966  23.529  26.212  1.00  0.00     0.261 C 
ATOM     18  C   UNL A   1      29.837  22.952  27.069  1.00  0.00     0.079 C 
ATOM     19  O   UNL A   1      31.038  22.728  24.987  1.00  0.00    -0.466 OA
ATOM     20  C   UNL A   1      32.315  23.415  26.861  1.00  0.00     0.278 C 
ATOM     21  C   UNL A   1      31.955  21.687  24.976  1.00  0.00     0.145 A 
ATOM     22  N   UNL A   1      32.708  22.163  27.216  1.00  0.00    -0.319 N 
ATOM     23  O   UNL A   1      33.184  24.267  26.771  1.00  0.00    -0.269 OA
ATOM     24  C   UNL A   1      32.214  21.061  23.762  1.00  0.00     0.049 A 
ATOM     25  C   UNL A   1      32.732  21.327  26.096  1.00  0.00     0.084 A 
ATOM     26  H   UNL A   1      32.942  21.884  28.130  1.00  0.00     0.170 HD
ATOM     27  C   UNL A   1      33.250  20.120  23.672  1.00  0.00     0.004 A 
ATOM     28  C   UNL A   1      33.733  20.361  26.023  1.00  0.00     0.030 A 
ATOM     29  C   UNL A   1      34.003  19.769  24.797  1.00  0.00     0.002 A 
ENDBRANCH  14  17
ENDBRANCH   8  13
ENDBRANCH   5   8
ENDBRANCH   3   4
ENDBRANCH   2   3
ENDBRANCH   1   2
BRANCH   1  30
ATOM     30  C   UNL A   1      37.028  22.514  25.604  1.00  0.00     0.002 C 
BRANCH  30  31
ATOM     31  C   UNL A   1      37.799  23.788  25.915  1.00  0.00     0.021 C 
BRANCH  31  32
ATOM     32  C   UNL A   1      38.971  23.635  26.867  1.00  0.00     0.116 C 
BRANCH  32  33
ATOM     33  N   UNL A   1      40.280  23.763  26.248  1.00  0.00    -0.352 N 
ATOM     34  C   UNL A   1      41.209  24.771  26.428  1.00  0.00     0.251 C 
ATOM     35  H   UNL A   1      40.536  23.046  25.624  1.00  0.00     0.163 HD
ATOM     36  O   UNL A   1      42.260  24.770  25.810  1.00  0.00    -0.269 OA
BRANCH  34  37
ATOM     37  C   UNL A   1      40.870  25.890  27.342  1.00  0.00     0.039 A 
ATOM     38  C   UNL A   1      41.541  27.110  27.250  1.00  0.00     0.014 A 
ATOM     39  C   UNL A   1      39.943  25.674  28.365  1.00  0.00     0.014 A 
ATOM     40  C   UNL A   1      41.443  28.025  28.291  1.00  0.00     0.010 A 
ATOM     41  C   UNL A   1      39.770  26.643  29.358  1.00  0.00     0.010 A 
ATOM     42  C   UNL A   1      40.566  27.799  29.365  1.00  0.00    -0.014 A 
BRANCH  42  43
ATOM     43  C   UNL A   1      40.520  28.776  30.486  1.00  0.00     0.031 A 
ATOM     44  C   UNL A   1      39.466  29.855  30.529  1.00  0.00     0.074 A 
ATOM     45  C   UNL A   1      41.386  28.641  31.511  1.00  0.00     0.049 A 
ATOM     46  N   UNL A   1      39.261  30.763  31.450  1.00  0.00    -0.248 NA
ATOM     47  C   UNL A   1      38.523  29.927  29.401  1.00  0.00     0.031 C 
ATOM     48  C   UNL A   1      42.430  27.617  31.597  1.00  0.00     0.029 A 
ATOM     49  N   UNL A   1      41.503  29.333  32.690  1.00  0.00    -0.354 N 
ATOM     50  C   UNL A   1      38.183  31.522  31.005  1.00  0.00     0.074 A 
ATOM     51  C   UNL A   1      37.794  30.990  29.719  1.00  0.00     0.031 C 
ATOM     52  C   UNL A   1      43.030  27.700  32.793  1.00  0.00     0.029 A 
ATOM     53  C   UNL A   1      42.468  28.828  33.530  1.00  0.00     0.049 A 
ATOM     54  H   UNL A   1      40.949  30.116  32.914  1.00  0.00     0.167 HD
ATOM     55  C   UNL A   1      37.567  32.559  31.621  1.00  0.00     0.031 A 
ATOM     56  C   UNL A   1      42.869  29.223  34.755  1.00  0.00     0.031 A 
ATOM     57  C   UNL A   1      37.947  33.072  32.913  1.00  0.00     0.049 A 
ATOM     58  C   UNL A   1      42.193  30.397  35.401  1.00  0.00     0.074 A 
ATOM     59  C   UNL A   1      37.382  34.122  33.617  1.00  0.00     0.029 A 
ATOM     60  N   UNL A   1      38.972  32.569  33.700  1.00  0.00    -0.354 N 
ATOM     61  N   UNL A   1      41.190  31.113  34.954  1.00  0.00    -0.248 NA
ATOM     62  C   UNL A   1      42.697  30.819  36.715  1.00  0.00     0.031 C 
ATOM     63  C   UNL A   1      38.098  34.288  34.804  1.00  0.00     0.029 A 
ATOM     64  C   UNL A   1      39.065  33.298  34.875  1.00  0.00     0.049 A 
ATOM     65  H   UNL A   1      39.548  31.807  33.461  1.00  0.00     0.167 HD
ATOM     66  C   UNL A   1      40.932  32.060  35.937  1.00  0.00     0.074 A 
ATOM     67  C   UNL A   1      41.873  31.816  37.011  1.00  0.00     0.031 C 
ATOM     68  C   UNL A   1      40.002  33.045  35.942  1.00  0.00     0.031 A 
BRANCH  55  69
ATOM     69  C   UNL A   1      36.411  33.228  30.922  1.00  0.00    -0.014 A 
ATOM     70  C   UNL A   1      36.619  33.875  29.690  1.00  0.00     0.010 A 
ATOM     71  C   UNL A   1      35.151  33.328  31.540  1.00  0.00     0.010 A 
ATOM     72  C   UNL A   1      35.603  34.635  29.104  1.00  0.00     0.020 A 
ATOM     73  C   UNL A   1      34.123  34.065  30.944  1.00  0.00     0.020 A 
ATOM     74  C   UNL A   1      34.363  34.735  29.741  1.00  0.00     0.054 A 
BRANCH  74  75
ATOM     75  S   UNL A   1      33.065  35.749  28.980  1.00  0.00     0.124 S 
ATOM     76  O   UNL A   1      32.324  36.224  30.145  1.00  0.00    -0.237 OA
ATOM     77  O   UNL A   1      33.831  36.764  28.262  1.00  0.00    -0.237 OA
ATOM     78  O   UNL A   1      32.350  34.803  28.126  1.00  0.00    -0.744 OA
ENDBRANCH  74  75
ENDBRANCH  55  69
BRANCH  56  79
ATOM     79  C   UNL A   1      43.952  28.466  35.440  1.00  0.00    -0.014 A 
ATOM     80  C   UNL A   1      45.304  28.762  35.178  1.00  0.00     0.010 A 
ATOM     81  C   UNL A   1      43.641  27.383  36.280  1.00  0.00     0.010 A 
ATOM     82  C   UNL A   1      46.320  27.953  35.689  1.00  0.00     0.020 A 
ATOM     83  C   UNL A   1      44.660  26.590  36.821  1.00  0.00     0.020 A 
ATOM     84  C   UNL A   1      45.990  26.861  36.494  1.00  0.00     0.054 A 
BRANCH  84  85
ATOM     85  S   UNL A   1      47.322  25.788  37.098  1.00  0.00     0.124 S 
ATOM     86  O   UNL A   1      47.223  25.975  38.543  1.00  0.00    -0.237 OA
ATOM     87  O   UNL A   1      46.924  24.473  36.604  1.00  0.00    -0.237 OA
ATOM     88  O   UNL A   1      48.519  26.348  36.475  1.00  0.00    -0.744 OA
ENDBRANCH  84  85
ENDBRANCH  56  79
BRANCH  68  89
ATOM     89  C   UNL A   1      39.924  33.944  37.147  1.00  0.00    -0.014 A 
ATOM     90  C   UNL A   1      39.346  33.461  38.337  1.00  0.00     0.010 A 
ATOM     91  C   UNL A   1      40.294  35.297  37.064  1.00  0.00     0.010 A 
ATOM     92  C   UNL A   1      39.108  34.322  39.409  1.00  0.00     0.020 A 
ATOM     93  C   UNL A   1      40.082  36.156  38.147  1.00  0.00     0.020 A 
ATOM     94  C   UNL A   1      39.468  35.668  39.303  1.00  0.00     0.054 A 
BRANCH  94  95
ATOM     95  S   UNL A   1      39.120  36.780  40.693  1.00  0.00     0.124 S 
ATOM     96  O   UNL A   1      37.980  36.127  41.331  1.00  0.00    -0.237 OA
ATOM     97  O   UNL A   1      40.368  36.750  41.452  1.00  0.00    -0.237 OA
ATOM     98  O   UNL A   1      38.827  38.056  40.045  1.00  0.00    -0.744 OA
ENDBRANCH  94  95
ENDBRANCH  68  89
ENDBRANCH  42  43
ENDBRANCH  34  37
ENDBRANCH  32  33
ENDBRANCH  31  32
ENDBRANCH  30  31
ENDBRANCH   1  30
TORSDOF 21
ENDMDL
MODEL 3
REMARK VINA RESULT:     -10.5      6.150      8.485
REMARK SMILES CSCC[C@@H](NC(=O)[C@@]1(C)Oc2ccccc2NC1=O)C(=O)NCCCCCCNC(=O)c1ccc(-c2c3nc(c(-c4ccc(S(=O)(=O)[O-])cc4)c4ccc([nH]4)c(-c4ccc(S(=O)(=O)[O-])cc4)c4nc(c(-c5ccc(S(=O)(=O)[O-])cc5)c5ccc2[nH]5)C=C4)C=C3)cc1
REMARK SMILES IDX 26 1 25 2 24 3 23 4 21 5 22 6 5 8 4 9 3 10 2 11 1 12 6 13
REMARK SMILES IDX 7 14 8 16 9 17 10 18 11 19 19 20 12 21 18 22 20 23 13 24
REMARK SMILES IDX 17 25 14 27 16 28 15 29 27 30 28 31 29 32 30 33 31 34 32 36
REMARK SMILES IDX 33 37 34 38 92 39 35 40 91 41 36 42 37 43 38 44 85 45 39 46
REMARK SMILES IDX 90 47 84 48 86 49 40 50 89 51 83 52 82 53 41 55 71 56 52 57
REMARK SMILES IDX 70 58 53 59 56 60 69 61 87 62 54 63 55 64 68 66 88 67 57 68
REMARK SMILES IDX 42 69 43 70 51 71 44 72 50 73 45 74 46 75 47 76 48 77 49 78
REMARK SMILES IDX 72 79 73 80 81 81 74 82 80 83 75 84 76 85 77 86 78 87 79 88
REMARK SMILES IDX 58 89 59 90 67 91 60 92 66 93 61 94 62 95 63 96 64 97 65 98
REMARK H PARENT 23 7 6 15 18 26 30 35 86 54 56 65
REMARK Flexibility Score: inf
ROOT
ATOM      1  C   UNL A   1      38.587  23.761  25.698  1.00  0.00     0.002 C 
ENDROOT
BRANCH   1   2
ATOM      2  C   UNL A   1      37.054  23.719  25.850  1.00  0.00     0.021 C 
BRANCH   2   3
ATOM      3  C   UNL A   1      36.225  22.871  24.874  1.00  0.00     0.116 C 
BRANCH   3   4
ATOM      4  N   UNL A   1      35.654  21.667  25.471  1.00  0.00    -0.354 N 
ATOM      5  C   UNL A   1      34.339  21.266  25.470  1.00  0.00     0.242 C 
ATOM      6  O   UNL A   1      34.088  20.076  25.702  1.00  0.00    -0.273 OA
ATOM      7  H   UNL A   1      36.288  21.069  25.929  1.00  0.00     0.163 HD
BRANCH   5   8
ATOM      8  C   UNL A   1      33.168  22.262  25.196  1.00  0.00     0.172 C 
BRANCH   8   9
ATOM      9  C   UNL A   1      32.303  21.560  24.115  1.00  0.00     0.046 C 
BRANCH   9  10
ATOM     10  C   UNL A   1      32.267  22.186  22.727  1.00  0.00     0.072 C 
BRANCH  10  11
ATOM     11  S   UNL A   1      33.659  23.314  22.402  1.00  0.00    -0.165 SA
ATOM     12  C   UNL A   1      32.775  24.702  21.658  1.00  0.00     0.085 C 
ENDBRANCH  10  11
ENDBRANCH   9  10
ENDBRANCH   8   9
BRANCH   8  13
ATOM     13  N   UNL A   1      32.296  22.799  26.285  1.00  0.00    -0.340 N 
ATOM     14  C   UNL A   1      31.444  23.866  26.439  1.00  0.00     0.274 C 
ATOM     15  H   UNL A   1      32.343  22.246  27.098  1.00  0.00     0.164 HD
ATOM     16  O   UNL A   1      30.530  23.666  27.255  1.00  0.00    -0.270 OA
BRANCH  14  17
ATOM     17  C   UNL A   1      31.528  25.235  25.689  1.00  0.00     0.261 C 
ATOM     18  C   UNL A   1      30.598  25.164  24.476  1.00  0.00     0.079 C 
ATOM     19  O   UNL A   1      31.055  26.330  26.539  1.00  0.00    -0.466 OA
ATOM     20  C   UNL A   1      32.945  25.574  25.326  1.00  0.00     0.278 C 
ATOM     21  C   UNL A   1      31.667  27.564  26.364  1.00  0.00     0.145 A 
ATOM     22  N   UNL A   1      33.128  26.732  24.638  1.00  0.00    -0.319 N 
ATOM     23  O   UNL A   1      33.920  25.098  25.885  1.00  0.00    -0.269 OA
ATOM     24  C   UNL A   1      31.410  28.556  27.304  1.00  0.00     0.049 A 
ATOM     25  C   UNL A   1      32.633  27.815  25.370  1.00  0.00     0.084 A 
ATOM     26  H   UNL A   1      33.549  26.799  23.751  1.00  0.00     0.170 HD
ATOM     27  C   UNL A   1      32.131  29.758  27.261  1.00  0.00     0.004 A 
ATOM     28  C   UNL A   1      33.322  29.023  25.295  1.00  0.00     0.030 A 
ATOM     29  C   UNL A   1      33.079  29.992  26.260  1.00  0.00     0.002 A 
ENDBRANCH  14  17
ENDBRANCH   8  13
ENDBRANCH   5   8
ENDBRANCH   3   4
ENDBRANCH   2   3
ENDBRANCH   1   2
BRANCH   1  30
ATOM     30  C   UNL A   1      39.491  23.413  26.893  1.00  0.00     0.002 C 
BRANCH  30  31
ATOM     31  C   UNL A   1      39.770  21.945  27.178  1.00  0.00     0.021 C 
BRANCH  31  32
ATOM     32  C   UNL A   1      39.624  21.004  25.996  1.00  0.00     0.116 C 
BRANCH  32  33
ATOM     33  N   UNL A   1      40.385  19.769  26.104  1.00  0.00    -0.352 N 
ATOM     34  C   UNL A   1      41.744  19.624  26.307  1.00  0.00     0.251 C 
ATOM     35  H   UNL A   1      39.869  18.935  26.021  1.00  0.00     0.163 HD
ATOM     36  O   UNL A   1      42.258  18.519  26.339  1.00  0.00    -0.269 OA
BRANCH  34  37
ATOM     37  C   UNL A   1      42.577  20.849  26.419  1.00  0.00     0.039 A 
ATOM     38  C   UNL A   1      42.903  21.373  27.670  1.00  0.00     0.014 A 
ATOM     39  C   UNL A   1      42.945  21.527  25.255  1.00  0.00     0.014 A 
ATOM     40  C   UNL A   1      43.403  22.666  27.760  1.00  0.00     0.010 A 
ATOM     41  C   UNL A   1      43.544  22.788  25.349  1.00  0.00     0.010 A 
ATOM     42  C   UNL A   1      43.719  23.396  26.602  1.00  0.00    -0.014 A 
BRANCH  42  43
ATOM     43  C   UNL A   1      44.209  24.795  26.733  1.00  0.00     0.031 A 
ATOM     44  C   UNL A   1      43.288  25.896  27.195  1.00  0.00     0.074 A 
ATOM     45  C   UNL A   1      45.512  25.058  26.507  1.00  0.00     0.049 A 
ATOM     46  N   UNL A   1      43.562  27.161  27.399  1.00  0.00    -0.248 NA
ATOM     47  C   UNL A   1      41.885  25.541  27.465  1.00  0.00     0.031 C 
ATOM     48  C   UNL A   1      46.506  24.068  26.085  1.00  0.00     0.029 A 
ATOM     49  N   UNL A   1      46.235  26.217  26.639  1.00  0.00    -0.354 N 
ATOM     50  C   UNL A   1      42.368  27.751  27.800  1.00  0.00     0.074 A 
ATOM     51  C   UNL A   1      41.359  26.717  27.784  1.00  0.00     0.031 C 
ATOM     52  C   UNL A   1      47.717  24.641  26.066  1.00  0.00     0.029 A 
ATOM     53  C   UNL A   1      47.579  26.057  26.398  1.00  0.00     0.049 A 
ATOM     54  H   UNL A   1      45.829  27.080  26.884  1.00  0.00     0.167 HD
ATOM     55  C   UNL A   1      42.139  29.037  28.161  1.00  0.00     0.031 A 
ATOM     56  C   UNL A   1      48.595  26.942  26.432  1.00  0.00     0.031 A 
ATOM     57  C   UNL A   1      43.154  30.059  28.195  1.00  0.00     0.049 A 
ATOM     58  C   UNL A   1      48.309  28.368  26.803  1.00  0.00     0.074 A 
ATOM     59  C   UNL A   1      43.016  31.391  28.547  1.00  0.00     0.029 A 
ATOM     60  N   UNL A   1      44.491  29.865  27.882  1.00  0.00    -0.354 N 
ATOM     61  N   UNL A   1      47.169  28.909  27.158  1.00  0.00    -0.248 NA
ATOM     62  C   UNL A   1      49.441  29.305  26.779  1.00  0.00     0.031 C 
ATOM     63  C   UNL A   1      44.255  32.014  28.396  1.00  0.00     0.029 A 
ATOM     64  C   UNL A   1      45.184  31.058  28.018  1.00  0.00     0.049 A 
ATOM     65  H   UNL A   1      44.889  29.009  27.605  1.00  0.00     0.167 HD
ATOM     66  C   UNL A   1      47.447  30.245  27.416  1.00  0.00     0.074 A 
ATOM     67  C   UNL A   1      48.867  30.428  27.191  1.00  0.00     0.031 C 
ATOM     68  C   UNL A   1      46.599  31.230  27.797  1.00  0.00     0.031 A 
BRANCH  55  69
ATOM     69  C   UNL A   1      40.739  29.435  28.555  1.00  0.00    -0.014 A 
ATOM     70  C   UNL A   1      40.415  29.594  29.916  1.00  0.00     0.010 A 
ATOM     71  C   UNL A   1      39.715  29.527  27.595  1.00  0.00     0.010 A 
ATOM     72  C   UNL A   1      39.092  29.805  30.313  1.00  0.00     0.020 A 
ATOM     73  C   UNL A   1      38.394  29.765  27.986  1.00  0.00     0.020 A 
ATOM     74  C   UNL A   1      38.086  29.878  29.345  1.00  0.00     0.054 A 
BRANCH  74  75
ATOM     75  S   UNL A   1      36.370  30.124  29.880  1.00  0.00     0.124 S 
ATOM     76  O   UNL A   1      36.309  31.572  30.061  1.00  0.00    -0.237 OA
ATOM     77  O   UNL A   1      35.604  29.596  28.754  1.00  0.00    -0.237 OA
ATOM     78  O   UNL A   1      36.280  29.336  31.107  1.00  0.00    -0.744 OA
ENDBRANCH  74  75
ENDBRANCH  55  69
BRANCH  56  79
ATOM     79  C   UNL A   1      49.974  26.471  26.127  1.00  0.00    -0.014 A 
ATOM     80  C   UNL A   1      50.781  25.926  27.144  1.00  0.00     0.010 A 
ATOM     81  C   UNL A   1      50.522  26.655  24.847  1.00  0.00     0.010 A 
ATOM     82  C   UNL A   1      52.125  25.635  26.905  1.00  0.00     0.020 A 
ATOM     83  C   UNL A   1      51.860  26.333  24.595  1.00  0.00     0.020 A 
ATOM     84  C   UNL A   1      52.661  25.857  25.635  1.00  0.00     0.054 A 
BRANCH  84  85
ATOM     85  S   UNL A   1      54.423  25.527  25.363  1.00  0.00     0.124 S 
ATOM     86  O   UNL A   1      54.484  24.077  25.521  1.00  0.00    -0.237 OA
ATOM     87  O   UNL A   1      54.636  26.021  24.005  1.00  0.00    -0.237 OA
ATOM     88  O   UNL A   1      55.081  26.300  26.413  1.00  0.00    -0.744 OA
ENDBRANCH  84  85
ENDBRANCH  56  79
BRANCH  68  89
ATOM     89  C   UNL A   1      47.162  32.608  28.020  1.00  0.00    -0.014 A 
ATOM     90  C   UNL A   1      47.258  33.502  26.936  1.00  0.00     0.010 A 
ATOM     91  C   UNL A   1      47.720  32.970  29.258  1.00  0.00     0.010 A 
ATOM     92  C   UNL A   1      47.930  34.717  27.077  1.00  0.00     0.020 A 
ATOM     93  C   UNL A   1      48.369  34.198  29.410  1.00  0.00     0.020 A 
ATOM     94  C   UNL A   1      48.492  35.053  28.312  1.00  0.00     0.054 A 
BRANCH  94  95
ATOM     95  S   UNL A   1      49.390  36.620  28.467  1.00  0.00     0.124 S 
ATOM     96  O   UNL A   1      48.330  37.546  28.852  1.00  0.00    -0.237 OA
ATOM     97  O   UNL A   1      50.376  36.327  29.504  1.00  0.00    -0.237 OA
ATOM     98  O   UNL A   1      49.947  36.829  27.132  1.00  0.00    -0.744 OA
ENDBRANCH  94  95
ENDBRANCH  68  89
ENDBRANCH  42  43
ENDBRANCH  34  37
ENDBRANCH  32  33
ENDBRANCH  31  32
ENDBRANCH  30  31
ENDBRANCH   1  30
TORSDOF 21
ENDMDL
