MODEL 1
REMARK VINA RESULT:     -10.9      0.000      0.000
REMARK SMILES Cc1cc2c(c(C)c1Br)C=C(C(=O)NCCCCCCNC(=O)c1ccc(-c3c4nc(c(-c5ccc(S(=O)(=O)[O-])cc5)c5ccc([nH]5)c(-c5ccc(S(=O)(=O)[O-])cc5)c5nc(c(-c6ccc(S(=O)(=O)[O-])cc6)c6ccc3[nH]6)C=C5)C=C4)cc1)[C@@H](C(F)(F)F)O2
REMARK SMILES IDX 18 1 17 2 16 3 15 4 14 5 12 6 13 7 11 9 1 10 2 11 3 12 8 13
REMARK SMILES IDX 4 14 6 15 9 16 5 17 89 18 7 19 10 20 84 21 85 22 86 23 87 24
REMARK SMILES IDX 88 25 19 26 20 27 21 28 22 29 23 31 24 32 25 33 83 34 26 35
REMARK SMILES IDX 82 36 27 37 28 38 29 39 76 40 30 41 81 42 75 43 77 44 31 45
REMARK SMILES IDX 80 46 74 47 73 48 32 50 62 51 43 52 61 53 44 54 47 55 60 56
REMARK SMILES IDX 78 57 45 58 46 59 59 61 79 62 48 63 33 64 34 65 42 66 35 67
REMARK SMILES IDX 41 68 36 69 37 70 38 71 39 72 40 73 63 74 64 75 72 76 65 77
REMARK SMILES IDX 71 78 66 79 67 80 68 81 69 82 70 83 49 84 50 85 58 86 51 87
REMARK SMILES IDX 57 88 52 89 53 90 54 91 55 92 56 93
REMARK H PARENT 14 8 21 30 77 49 47 60
REMARK Flexibility Score: inf
ROOT
ATOM      1  C   UNL A   1      33.270  29.098  24.763  1.00  0.00     0.002 C 
ENDROOT
BRANCH   1   2
ATOM      2  C   UNL A   1      32.713  28.613  23.418  1.00  0.00     0.002 C 
BRANCH   2   3
ATOM      3  C   UNL A   1      32.863  27.113  23.153  1.00  0.00     0.021 C 
BRANCH   3   4
ATOM      4  C   UNL A   1      31.549  26.343  23.236  1.00  0.00     0.116 C 
BRANCH   4   5
ATOM      5  N   UNL A   1      31.180  26.057  24.611  1.00  0.00    -0.352 N 
ATOM      6  C   UNL A   1      31.453  25.107  25.535  1.00  0.00     0.251 C 
ATOM      7  O   UNL A   1      30.911  25.271  26.633  1.00  0.00    -0.270 OA
ATOM      8  H   UNL A   1      30.564  26.739  24.968  1.00  0.00     0.163 HD
BRANCH   6   9
ATOM      9  C   UNL A   1      32.335  23.920  25.317  1.00  0.00     0.067 C 
ATOM     10  C   UNL A   1      37.069  19.477  24.937  1.00  0.00     0.046 C 
ATOM     11  C   UNL A   1      36.275  20.741  25.119  1.00  0.00    -0.033 A 
ATOM     12  C   UNL A   1      34.892  20.638  24.940  1.00  0.00     0.051 A 
ATOM     13  C   UNL A   1      36.813  21.986  25.513  1.00  0.00     0.024 A 
ATOM     14  C   UNL A   1      34.065  21.740  25.108  1.00  0.00     0.128 A 
ATOM     15  C   UNL A   1      35.979  23.125  25.676  1.00  0.00    -0.026 A 
ATOM     16  Br  UNL A   1      38.693  22.102  25.856  1.00  0.00    -0.050 Br
ATOM     17  C   UNL A   1      34.582  22.983  25.476  1.00  0.00     0.021 A 
ATOM     18  O   UNL A   1      32.738  21.491  24.935  1.00  0.00    -0.475 OA
ATOM     19  C   UNL A   1      36.523  24.481  26.066  1.00  0.00     0.046 C 
ATOM     20  C   UNL A   1      33.623  24.075  25.680  1.00  0.00     0.026 C 
ATOM     21  C   UNL A   1      31.877  22.631  24.704  1.00  0.00     0.314 C 
BRANCH  21  22
ATOM     22  C   UNL A   1      31.595  22.752  23.195  1.00  0.00     0.429 C 
ATOM     23  F   UNL A   1      32.543  23.512  22.595  1.00  0.00    -0.167 F 
ATOM     24  F   UNL A   1      31.608  21.555  22.565  1.00  0.00    -0.167 F 
ATOM     25  F   UNL A   1      30.394  23.319  22.939  1.00  0.00    -0.167 F 
ENDBRANCH  21  22
ENDBRANCH   6   9
ENDBRANCH   4   5
ENDBRANCH   3   4
ENDBRANCH   2   3
ENDBRANCH   1   2
BRANCH   1  26
ATOM     26  C   UNL A   1      34.006  28.038  25.588  1.00  0.00     0.021 C 
BRANCH  26  27
ATOM     27  C   UNL A   1      33.892  28.221  27.097  1.00  0.00     0.116 C 
BRANCH  27  28
ATOM     28  N   UNL A   1      33.728  29.619  27.459  1.00  0.00    -0.352 N 
ATOM     29  C   UNL A   1      34.589  30.442  28.138  1.00  0.00     0.251 C 
ATOM     30  H   UNL A   1      32.880  30.032  27.178  1.00  0.00     0.163 HD
ATOM     31  O   UNL A   1      34.202  31.530  28.554  1.00  0.00    -0.269 OA
BRANCH  29  32
ATOM     32  C   UNL A   1      35.979  30.004  28.374  1.00  0.00     0.039 A 
ATOM     33  C   UNL A   1      36.910  30.117  27.340  1.00  0.00     0.014 A 
ATOM     34  C   UNL A   1      36.357  29.481  29.615  1.00  0.00     0.014 A 
ATOM     35  C   UNL A   1      38.236  29.748  27.566  1.00  0.00     0.010 A 
ATOM     36  C   UNL A   1      37.694  29.180  29.860  1.00  0.00     0.010 A 
ATOM     37  C   UNL A   1      38.643  29.299  28.834  1.00  0.00    -0.014 A 
BRANCH  37  38
ATOM     38  C   UNL A   1      40.054  28.922  29.092  1.00  0.00     0.031 A 
ATOM     39  C   UNL A   1      40.983  29.905  29.751  1.00  0.00     0.074 A 
ATOM     40  C   UNL A   1      40.502  27.707  28.718  1.00  0.00     0.049 A 
ATOM     41  N   UNL A   1      42.250  29.768  30.048  1.00  0.00    -0.248 NA
ATOM     42  C   UNL A   1      40.422  31.219  30.111  1.00  0.00     0.031 C 
ATOM     43  C   UNL A   1      39.700  26.677  28.052  1.00  0.00     0.029 A 
ATOM     44  N   UNL A   1      41.738  27.128  28.851  1.00  0.00    -0.354 N 
ATOM     45  C   UNL A   1      42.634  30.971  30.628  1.00  0.00     0.074 A 
ATOM     46  C   UNL A   1      41.486  31.849  30.588  1.00  0.00     0.031 C 
ATOM     47  C   UNL A   1      40.453  25.579  27.877  1.00  0.00     0.029 A 
ATOM     48  C   UNL A   1      41.800  25.839  28.378  1.00  0.00     0.049 A 
ATOM     49  H   UNL A   1      42.511  27.593  29.249  1.00  0.00     0.167 HD
ATOM     50  C   UNL A   1      43.826  31.304  31.177  1.00  0.00     0.031 A 
ATOM     51  C   UNL A   1      42.824  24.963  28.355  1.00  0.00     0.031 A 
ATOM     52  C   UNL A   1      44.962  30.425  31.226  1.00  0.00     0.049 A 
ATOM     53  C   UNL A   1      44.153  25.377  28.926  1.00  0.00     0.074 A 
ATOM     54  C   UNL A   1      46.206  30.660  31.784  1.00  0.00     0.029 A 
ATOM     55  N   UNL A   1      44.992  29.141  30.705  1.00  0.00    -0.354 N 
ATOM     56  N   UNL A   1      44.483  26.506  29.507  1.00  0.00    -0.248 NA
ATOM     57  C   UNL A   1      45.245  24.398  28.844  1.00  0.00     0.031 C 
ATOM     58  C   UNL A   1      47.004  29.536  31.557  1.00  0.00     0.029 A 
ATOM     59  C   UNL A   1      46.240  28.579  30.909  1.00  0.00     0.049 A 
ATOM     60  H   UNL A   1      44.238  28.695  30.256  1.00  0.00     0.167 HD
ATOM     61  C   UNL A   1      45.815  26.363  29.879  1.00  0.00     0.074 A 
ATOM     62  C   UNL A   1      46.224  25.033  29.474  1.00  0.00     0.031 C 
ATOM     63  C   UNL A   1      46.627  27.254  30.500  1.00  0.00     0.031 A 
BRANCH  50  64
ATOM     64  C   UNL A   1      43.957  32.672  31.787  1.00  0.00    -0.014 A 
ATOM     65  C   UNL A   1      44.419  33.759  31.022  1.00  0.00     0.010 A 
ATOM     66  C   UNL A   1      43.550  32.894  33.116  1.00  0.00     0.010 A 
ATOM     67  C   UNL A   1      44.494  35.037  31.581  1.00  0.00     0.020 A 
ATOM     68  C   UNL A   1      43.599  34.177  33.670  1.00  0.00     0.020 A 
ATOM     69  C   UNL A   1      44.080  35.239  32.900  1.00  0.00     0.054 A 
BRANCH  69  70
ATOM     70  S   UNL A   1      44.144  36.920  33.578  1.00  0.00     0.124 S 
ATOM     71  O   UNL A   1      43.639  37.714  32.461  1.00  0.00    -0.237 OA
ATOM     72  O   UNL A   1      43.258  36.829  34.735  1.00  0.00    -0.237 OA
ATOM     73  O   UNL A   1      45.557  37.115  33.891  1.00  0.00    -0.744 OA
ENDBRANCH  69  70
ENDBRANCH  50  64
BRANCH  51  74
ATOM     74  C   UNL A   1      42.628  23.597  27.792  1.00  0.00    -0.014 A 
ATOM     75  C   UNL A   1      42.969  23.325  26.456  1.00  0.00     0.010 A 
ATOM     76  C   UNL A   1      42.101  22.563  28.588  1.00  0.00     0.010 A 
ATOM     77  C   UNL A   1      42.768  22.049  25.919  1.00  0.00     0.020 A 
ATOM     78  C   UNL A   1      41.925  21.279  28.063  1.00  0.00     0.020 A 
ATOM     79  C   UNL A   1      42.249  21.034  26.728  1.00  0.00     0.054 A 
BRANCH  79  80
ATOM     80  S   UNL A   1      42.033  19.378  26.018  1.00  0.00     0.124 S 
ATOM     81  O   UNL A   1      40.588  19.321  25.815  1.00  0.00    -0.237 OA
ATOM     82  O   UNL A   1      42.841  19.450  24.802  1.00  0.00    -0.237 OA
ATOM     83  O   UNL A   1      42.556  18.490  27.053  1.00  0.00    -0.744 OA
ENDBRANCH  79  80
ENDBRANCH  51  74
BRANCH  63  84
ATOM     84  C   UNL A   1      48.038  26.822  30.798  1.00  0.00    -0.014 A 
ATOM     85  C   UNL A   1      49.083  27.101  29.901  1.00  0.00     0.010 A 
ATOM     86  C   UNL A   1      48.334  26.212  32.031  1.00  0.00     0.010 A 
ATOM     87  C   UNL A   1      50.399  26.761  30.225  1.00  0.00     0.020 A 
ATOM     88  C   UNL A   1      49.651  25.897  32.370  1.00  0.00     0.020 A 
ATOM     89  C   UNL A   1      50.676  26.168  31.461  1.00  0.00     0.054 A 
BRANCH  89  90
ATOM     90  S   UNL A   1      52.402  25.803  31.881  1.00  0.00     0.124 S 
ATOM     91  O   UNL A   1      52.651  26.733  32.978  1.00  0.00    -0.237 OA
ATOM     92  O   UNL A   1      52.347  24.391  32.255  1.00  0.00    -0.237 OA
ATOM     93  O   UNL A   1      53.128  26.087  30.646  1.00  0.00    -0.744 OA
ENDBRANCH  89  90
ENDBRANCH  63  84
ENDBRANCH  37  38
ENDBRANCH  29  32
ENDBRANCH  27  28
ENDBRANCH  26  27
ENDBRANCH   1  26
TORSDOF 17
ENDMDL
MODEL 2
REMARK VINA RESULT:     -10.9      2.851      9.237
REMARK SMILES Cc1cc2c(c(C)c1Br)C=C(C(=O)NCCCCCCNC(=O)c1ccc(-c3c4nc(c(-c5ccc(S(=O)(=O)[O-])cc5)c5ccc([nH]5)c(-c5ccc(S(=O)(=O)[O-])cc5)c5nc(c(-c6ccc(S(=O)(=O)[O-])cc6)c6ccc3[nH]6)C=C5)C=C4)cc1)[C@@H](C(F)(F)F)O2
REMARK SMILES IDX 18 1 17 2 16 3 15 4 14 5 12 6 13 7 11 9 1 10 2 11 3 12 8 13
REMARK SMILES IDX 4 14 6 15 9 16 5 17 89 18 7 19 10 20 84 21 85 22 86 23 87 24
REMARK SMILES IDX 88 25 19 26 20 27 21 28 22 29 23 31 24 32 25 33 83 34 26 35
REMARK SMILES IDX 82 36 27 37 28 38 29 39 76 40 30 41 81 42 75 43 77 44 31 45
REMARK SMILES IDX 80 46 74 47 73 48 32 50 62 51 43 52 61 53 44 54 47 55 60 56
REMARK SMILES IDX 78 57 45 58 46 59 59 61 79 62 48 63 33 64 34 65 42 66 35 67
REMARK SMILES IDX 41 68 36 69 37 70 38 71 39 72 40 73 63 74 64 75 72 76 65 77
REMARK SMILES IDX 71 78 66 79 67 80 68 81 69 82 70 83 49 84 50 85 58 86 51 87
REMARK SMILES IDX 57 88 52 89 53 90 54 91 55 92 56 93
REMARK H PARENT 14 8 21 30 77 49 47 60
REMARK Flexibility Score: inf
ROOT
ATOM      1  C   UNL A   1      35.214  22.732  26.526  1.00  0.00     0.002 C 
ENDROOT
BRANCH   1   2
ATOM      2  C   UNL A   1      33.732  22.339  26.600  1.00  0.00     0.002 C 
BRANCH   2   3
ATOM      3  C   UNL A   1      32.758  23.353  25.994  1.00  0.00     0.021 C 
BRANCH   3   4
ATOM      4  C   UNL A   1      32.090  22.870  24.712  1.00  0.00     0.116 C 
BRANCH   4   5
ATOM      5  N   UNL A   1      32.767  23.373  23.530  1.00  0.00    -0.352 N 
ATOM      6  C   UNL A   1      32.947  24.570  22.925  1.00  0.00     0.251 C 
ATOM      7  O   UNL A   1      33.638  24.541  21.901  1.00  0.00    -0.270 OA
ATOM      8  H   UNL A   1      33.216  22.649  23.036  1.00  0.00     0.163 HD
BRANCH   6   9
ATOM      9  C   UNL A   1      32.386  25.871  23.399  1.00  0.00     0.067 C 
ATOM     10  C   UNL A   1      31.081  31.669  26.042  1.00  0.00     0.046 C 
ATOM     11  C   UNL A   1      31.690  30.342  25.677  1.00  0.00    -0.033 A 
ATOM     12  C   UNL A   1      31.039  29.613  24.677  1.00  0.00     0.051 A 
ATOM     13  C   UNL A   1      32.887  29.825  26.219  1.00  0.00     0.024 A 
ATOM     14  C   UNL A   1      31.532  28.388  24.250  1.00  0.00     0.128 A 
ATOM     15  C   UNL A   1      33.396  28.566  25.798  1.00  0.00    -0.026 A 
ATOM     16  Br  UNL A   1      33.832  30.870  27.514  1.00  0.00    -0.050 Br
ATOM     17  C   UNL A   1      32.702  27.851  24.789  1.00  0.00     0.021 A 
ATOM     18  O   UNL A   1      30.819  27.802  23.249  1.00  0.00    -0.475 OA
ATOM     19  C   UNL A   1      34.657  27.965  26.379  1.00  0.00     0.046 C 
ATOM     20  C   UNL A   1      33.172  26.575  24.236  1.00  0.00     0.026 C 
ATOM     21  C   UNL A   1      31.027  26.386  23.032  1.00  0.00     0.314 C 
BRANCH  21  22
ATOM     22  C   UNL A   1      29.886  25.600  23.701  1.00  0.00     0.429 C 
ATOM     23  F   UNL A   1      30.136  25.435  25.023  1.00  0.00    -0.167 F 
ATOM     24  F   UNL A   1      28.694  26.235  23.614  1.00  0.00    -0.167 F 
ATOM     25  F   UNL A   1      29.719  24.373  23.160  1.00  0.00    -0.167 F 
ENDBRANCH  21  22
ENDBRANCH   6   9
ENDBRANCH   4   5
ENDBRANCH   3   4
ENDBRANCH   2   3
ENDBRANCH   1   2
BRANCH   1  26
ATOM     26  C   UNL A   1      35.513  24.019  25.751  1.00  0.00     0.021 C 
BRANCH  26  27
ATOM     27  C   UNL A   1      36.827  24.001  24.979  1.00  0.00     0.116 C 
BRANCH  27  28
ATOM     28  N   UNL A   1      37.687  22.910  25.406  1.00  0.00    -0.352 N 
ATOM     29  C   UNL A   1      38.852  22.960  26.127  1.00  0.00     0.251 C 
ATOM     30  H   UNL A   1      37.392  22.009  25.140  1.00  0.00     0.163 HD
ATOM     31  O   UNL A   1      39.569  21.967  26.211  1.00  0.00    -0.269 OA
BRANCH  29  32
ATOM     32  C   UNL A   1      39.241  24.220  26.792  1.00  0.00     0.039 A 
ATOM     33  C   UNL A   1      38.833  24.446  28.107  1.00  0.00     0.014 A 
ATOM     34  C   UNL A   1      40.006  25.174  26.112  1.00  0.00     0.014 A 
ATOM     35  C   UNL A   1      39.234  25.613  28.760  1.00  0.00     0.010 A 
ATOM     36  C   UNL A   1      40.462  26.302  26.788  1.00  0.00     0.010 A 
ATOM     37  C   UNL A   1      40.070  26.538  28.113  1.00  0.00    -0.014 A 
BRANCH  37  38
ATOM     38  C   UNL A   1      40.518  27.772  28.803  1.00  0.00     0.031 A 
ATOM     39  C   UNL A   1      41.920  27.864  29.340  1.00  0.00     0.074 A 
ATOM     40  C   UNL A   1      39.660  28.800  28.962  1.00  0.00     0.049 A 
ATOM     41  N   UNL A   1      42.493  28.849  29.982  1.00  0.00    -0.248 NA
ATOM     42  C   UNL A   1      42.790  26.691  29.143  1.00  0.00     0.031 C 
ATOM     43  C   UNL A   1      38.268  28.819  28.503  1.00  0.00     0.029 A 
ATOM     44  N   UNL A   1      39.832  30.028  29.546  1.00  0.00    -0.354 N 
ATOM     45  C   UNL A   1      43.784  28.417  30.263  1.00  0.00     0.074 A 
ATOM     46  C   UNL A   1      43.894  27.059  29.777  1.00  0.00     0.031 C 
ATOM     47  C   UNL A   1      37.730  30.018  28.783  1.00  0.00     0.029 A 
ATOM     48  C   UNL A   1      38.721  30.835  29.476  1.00  0.00     0.049 A 
ATOM     49  H   UNL A   1      40.674  30.308  29.975  1.00  0.00     0.167 HD
ATOM     50  C   UNL A   1      44.798  29.100  30.843  1.00  0.00     0.031 A 
ATOM     51  C   UNL A   1      38.524  32.093  29.918  1.00  0.00     0.031 A 
ATOM     52  C   UNL A   1      44.689  30.454  31.315  1.00  0.00     0.049 A 
ATOM     53  C   UNL A   1      39.653  32.812  30.605  1.00  0.00     0.074 A 
ATOM     54  C   UNL A   1      45.668  31.242  31.893  1.00  0.00     0.029 A 
ATOM     55  N   UNL A   1      43.537  31.222  31.256  1.00  0.00    -0.354 N 
ATOM     56  N   UNL A   1      40.879  32.399  30.824  1.00  0.00    -0.248 NA
ATOM     57  C   UNL A   1      39.375  34.168  31.099  1.00  0.00     0.031 C 
ATOM     58  C   UNL A   1      45.094  32.471  32.229  1.00  0.00     0.029 A 
ATOM     59  C   UNL A   1      43.773  32.469  31.808  1.00  0.00     0.049 A 
ATOM     60  H   UNL A   1      42.677  30.925  30.878  1.00  0.00     0.167 HD
ATOM     61  C   UNL A   1      41.524  33.454  31.461  1.00  0.00     0.074 A 
ATOM     62  C   UNL A   1      40.559  34.528  31.576  1.00  0.00     0.031 C 
ATOM     63  C   UNL A   1      42.800  33.525  31.912  1.00  0.00     0.031 A 
BRANCH  50  64
ATOM     64  C   UNL A   1      46.122  28.401  30.982  1.00  0.00    -0.014 A 
ATOM     65  C   UNL A   1      46.377  27.556  32.078  1.00  0.00     0.010 A 
ATOM     66  C   UNL A   1      47.098  28.531  29.977  1.00  0.00     0.010 A 
ATOM     67  C   UNL A   1      47.591  26.873  32.178  1.00  0.00     0.020 A 
ATOM     68  C   UNL A   1      48.304  27.829  30.061  1.00  0.00     0.020 A 
ATOM     69  C   UNL A   1      48.545  27.011  31.168  1.00  0.00     0.054 A 
BRANCH  69  70
ATOM     70  S   UNL A   1      50.091  26.071  31.304  1.00  0.00     0.124 S 
ATOM     71  O   UNL A   1      49.906  25.372  32.574  1.00  0.00    -0.237 OA
ATOM     72  O   UNL A   1      50.056  25.227  30.113  1.00  0.00    -0.237 OA
ATOM     73  O   UNL A   1      51.126  27.101  31.307  1.00  0.00    -0.744 OA
ENDBRANCH  69  70
ENDBRANCH  50  64
BRANCH  51  74
ATOM     74  C   UNL A   1      37.211  32.765  29.704  1.00  0.00    -0.014 A 
ATOM     75  C   UNL A   1      37.013  33.594  28.587  1.00  0.00     0.010 A 
ATOM     76  C   UNL A   1      36.154  32.579  30.614  1.00  0.00     0.010 A 
ATOM     77  C   UNL A   1      35.789  34.242  28.393  1.00  0.00     0.020 A 
ATOM     78  C   UNL A   1      34.919  33.203  30.409  1.00  0.00     0.020 A 
ATOM     79  C   UNL A   1      34.749  34.040  29.305  1.00  0.00     0.054 A 
BRANCH  79  80
ATOM     80  S   UNL A   1      33.159  34.863  29.011  1.00  0.00     0.124 S 
ATOM     81  O   UNL A   1      33.580  36.162  28.494  1.00  0.00    -0.237 OA
ATOM     82  O   UNL A   1      32.520  33.974  28.044  1.00  0.00    -0.237 OA
ATOM     83  O   UNL A   1      32.536  34.886  30.332  1.00  0.00    -0.744 OA
ENDBRANCH  79  80
ENDBRANCH  51  74
BRANCH  63  84
ATOM     84  C   UNL A   1      43.242  34.811  32.558  1.00  0.00    -0.014 A 
ATOM     85  C   UNL A   1      43.789  35.854  31.792  1.00  0.00     0.010 A 
ATOM     86  C   UNL A   1      43.021  35.010  33.934  1.00  0.00     0.010 A 
ATOM     87  C   UNL A   1      44.125  37.069  32.394  1.00  0.00     0.020 A 
ATOM     88  C   UNL A   1      43.329  36.233  34.534  1.00  0.00     0.020 A 
ATOM     89  C   UNL A   1      43.886  37.253  33.760  1.00  0.00     0.054 A 
BRANCH  89  90
ATOM     90  S   UNL A   1      44.267  38.865  34.498  1.00  0.00     0.124 S 
ATOM     91  O   UNL A   1      45.540  39.197  33.866  1.00  0.00    -0.237 OA
ATOM     92  O   UNL A   1      43.128  39.682  34.083  1.00  0.00    -0.237 OA
ATOM     93  O   UNL A   1      44.336  38.585  35.930  1.00  0.00    -0.744 OA
ENDBRANCH  89  90
ENDBRANCH  63  84
ENDBRANCH  37  38
ENDBRANCH  29  32
ENDBRANCH  27  28
ENDBRANCH  26  27
ENDBRANCH   1  26
TORSDOF 17
ENDMDL
MODEL 3
REMARK VINA RESULT:     -10.2      2.887      8.229
REMARK SMILES Cc1cc2c(c(C)c1Br)C=C(C(=O)NCCCCCCNC(=O)c1ccc(-c3c4nc(c(-c5ccc(S(=O)(=O)[O-])cc5)c5ccc([nH]5)c(-c5ccc(S(=O)(=O)[O-])cc5)c5nc(c(-c6ccc(S(=O)(=O)[O-])cc6)c6ccc3[nH]6)C=C5)C=C4)cc1)[C@@H](C(F)(F)F)O2
REMARK SMILES IDX 18 1 17 2 16 3 15 4 14 5 12 6 13 7 11 9 1 10 2 11 3 12 8 13
REMARK SMILES IDX 4 14 6 15 9 16 5 17 89 18 7 19 10 20 84 21 85 22 86 23 87 24
REMARK SMILES IDX 88 25 19 26 20 27 21 28 22 29 23 31 24 32 25 33 83 34 26 35
REMARK SMILES IDX 82 36 27 37 28 38 29 39 76 40 30 41 81 42 75 43 77 44 31 45
REMARK SMILES IDX 80 46 74 47 73 48 32 50 62 51 43 52 61 53 44 54 47 55 60 56
REMARK SMILES IDX 78 57 45 58 46 59 59 61 79 62 48 63 33 64 34 65 42 66 35 67
REMARK SMILES IDX 41 68 36 69 37 70 38 71 39 72 40 73 63 74 64 75 72 76 65 77
REMARK SMILES IDX 71 78 66 79 67 80 68 81 69 82 70 83 49 84 50 85 58 86 51 87
REMARK SMILES IDX 57 88 52 89 53 90 54 91 55 92 56 93
REMARK H PARENT 14 8 21 30 77 49 47 60
REMARK Flexibility Score: inf
ROOT
ATOM      1  C   UNL A   1      34.884  22.006  25.856  1.00  0.00     0.002 C 
ENDROOT
BRANCH   1   2
ATOM      2  C   UNL A   1      33.991  21.504  24.714  1.00  0.00     0.002 C 
BRANCH   2   3
ATOM      3  C   UNL A   1      32.485  21.595  24.976  1.00  0.00     0.021 C 
BRANCH   3   4
ATOM      4  C   UNL A   1      31.844  22.866  24.430  1.00  0.00     0.116 C 
BRANCH   4   5
ATOM      5  N   UNL A   1      32.593  23.407  23.310  1.00  0.00    -0.352 N 
ATOM      6  C   UNL A   1      32.853  24.627  22.789  1.00  0.00     0.251 C 
ATOM      7  O   UNL A   1      33.585  24.628  21.792  1.00  0.00    -0.270 OA
ATOM      8  H   UNL A   1      33.028  22.693  22.790  1.00  0.00     0.163 HD
BRANCH   6   9
ATOM      9  C   UNL A   1      32.332  25.923  23.321  1.00  0.00     0.067 C 
ATOM     10  C   UNL A   1      31.215  31.647  26.202  1.00  0.00     0.046 C 
ATOM     11  C   UNL A   1      31.785  30.320  25.777  1.00  0.00    -0.033 A 
ATOM     12  C   UNL A   1      31.100  29.647  24.761  1.00  0.00     0.051 A 
ATOM     13  C   UNL A   1      32.976  29.753  26.279  1.00  0.00     0.024 A 
ATOM     14  C   UNL A   1      31.556  28.427  24.280  1.00  0.00     0.128 A 
ATOM     15  C   UNL A   1      33.447  28.499  25.803  1.00  0.00    -0.026 A 
ATOM     16  Br  UNL A   1      33.968  30.724  27.597  1.00  0.00    -0.050 Br
ATOM     17  C   UNL A   1      32.719  27.840  24.779  1.00  0.00     0.021 A 
ATOM     18  O   UNL A   1      30.812  27.897  23.270  1.00  0.00    -0.475 OA
ATOM     19  C   UNL A   1      34.701  27.845  26.339  1.00  0.00     0.046 C 
ATOM     20  C   UNL A   1      33.149  26.575  24.170  1.00  0.00     0.026 C 
ATOM     21  C   UNL A   1      30.982  26.486  22.995  1.00  0.00     0.314 C 
BRANCH  21  22
ATOM     22  C   UNL A   1      29.831  25.703  23.653  1.00  0.00     0.429 C 
ATOM     23  F   UNL A   1      28.674  26.403  23.572  1.00  0.00    -0.167 F 
ATOM     24  F   UNL A   1      29.601  24.512  23.053  1.00  0.00    -0.167 F 
ATOM     25  F   UNL A   1      30.063  25.447  24.960  1.00  0.00    -0.167 F 
ENDBRANCH  21  22
ENDBRANCH   6   9
ENDBRANCH   4   5
ENDBRANCH   3   4
ENDBRANCH   2   3
ENDBRANCH   1   2
BRANCH   1  26
ATOM     26  C   UNL A   1      34.998  23.528  25.979  1.00  0.00     0.021 C 
BRANCH  26  27
ATOM     27  C   UNL A   1      36.402  24.077  25.751  1.00  0.00     0.116 C 
BRANCH  27  28
ATOM     28  N   UNL A   1      37.406  23.029  25.814  1.00  0.00    -0.352 N 
ATOM     29  C   UNL A   1      38.711  23.107  26.229  1.00  0.00     0.251 C 
ATOM     30  H   UNL A   1      37.109  22.139  25.516  1.00  0.00     0.163 HD
ATOM     31  O   UNL A   1      39.484  22.180  26.009  1.00  0.00    -0.269 OA
BRANCH  29  32
ATOM     32  C   UNL A   1      39.178  24.319  26.932  1.00  0.00     0.039 A 
ATOM     33  C   UNL A   1      38.871  24.478  28.284  1.00  0.00     0.014 A 
ATOM     34  C   UNL A   1      39.916  25.293  26.252  1.00  0.00     0.014 A 
ATOM     35  C   UNL A   1      39.346  25.597  28.969  1.00  0.00     0.010 A 
ATOM     36  C   UNL A   1      40.447  26.371  26.954  1.00  0.00     0.010 A 
ATOM     37  C   UNL A   1      40.157  26.539  28.315  1.00  0.00    -0.014 A 
BRANCH  37  38
ATOM     38  C   UNL A   1      40.684  27.723  29.037  1.00  0.00     0.031 A 
ATOM     39  C   UNL A   1      39.824  28.948  29.196  1.00  0.00     0.074 A 
ATOM     40  C   UNL A   1      41.938  27.703  29.532  1.00  0.00     0.049 A 
ATOM     41  N   UNL A   1      40.109  30.083  29.780  1.00  0.00    -0.248 NA
ATOM     42  C   UNL A   1      38.474  28.897  28.609  1.00  0.00     0.031 C 
ATOM     43  C   UNL A   1      42.873  26.580  29.423  1.00  0.00     0.029 A 
ATOM     44  N   UNL A   1      42.639  28.650  30.234  1.00  0.00    -0.354 N 
ATOM     45  C   UNL A   1      38.977  30.877  29.633  1.00  0.00     0.074 A 
ATOM     46  C   UNL A   1      38.024  30.120  28.853  1.00  0.00     0.031 C 
ATOM     47  C   UNL A   1      44.007  26.888  30.074  1.00  0.00     0.029 A 
ATOM     48  C   UNL A   1      43.897  28.241  30.610  1.00  0.00     0.049 A 
ATOM     49  H   UNL A   1      42.276  29.540  30.448  1.00  0.00     0.167 HD
ATOM     50  C   UNL A   1      38.740  32.113  30.132  1.00  0.00     0.031 A 
ATOM     51  C   UNL A   1      44.852  28.883  31.312  1.00  0.00     0.031 A 
ATOM     52  C   UNL A   1      39.685  32.858  30.918  1.00  0.00     0.049 A 
ATOM     53  C   UNL A   1      44.580  30.276  31.812  1.00  0.00     0.074 A 
ATOM     54  C   UNL A   1      39.528  34.107  31.491  1.00  0.00     0.029 A 
ATOM     55  N   UNL A   1      40.959  32.422  31.246  1.00  0.00    -0.354 N 
ATOM     56  N   UNL A   1      43.488  30.993  31.697  1.00  0.00    -0.248 NA
ATOM     57  C   UNL A   1      45.667  30.944  32.542  1.00  0.00     0.031 C 
ATOM     58  C   UNL A   1      40.726  34.447  32.126  1.00  0.00     0.029 A 
ATOM     59  C   UNL A   1      41.608  33.386  31.997  1.00  0.00     0.049 A 
ATOM     60  H   UNL A   1      41.345  31.554  30.985  1.00  0.00     0.167 HD
ATOM     61  C   UNL A   1      43.749  32.188  32.359  1.00  0.00     0.074 A 
ATOM     62  C   UNL A   1      45.095  32.090  32.887  1.00  0.00     0.031 C 
ATOM     63  C   UNL A   1      42.947  33.269  32.515  1.00  0.00     0.031 A 
BRANCH  50  64
ATOM     64  C   UNL A   1      37.395  32.729  29.861  1.00  0.00    -0.014 A 
ATOM     65  C   UNL A   1      36.361  32.643  30.811  1.00  0.00     0.010 A 
ATOM     66  C   UNL A   1      37.180  33.461  28.679  1.00  0.00     0.010 A 
ATOM     67  C   UNL A   1      35.129  33.258  30.574  1.00  0.00     0.020 A 
ATOM     68  C   UNL A   1      35.957  34.099  28.450  1.00  0.00     0.020 A 
ATOM     69  C   UNL A   1      34.936  33.985  29.397  1.00  0.00     0.054 A 
BRANCH  69  70
ATOM     70  S   UNL A   1      33.342  34.811  29.143  1.00  0.00     0.124 S 
ATOM     71  O   UNL A   1      32.676  33.902  28.213  1.00  0.00    -0.237 OA
ATOM     72  O   UNL A   1      32.784  34.848  30.492  1.00  0.00    -0.237 OA
ATOM     73  O   UNL A   1      33.708  36.111  28.586  1.00  0.00    -0.744 OA
ENDBRANCH  69  70
ENDBRANCH  50  64
BRANCH  51  74
ATOM     74  C   UNL A   1      46.146  28.207  31.607  1.00  0.00    -0.014 A 
ATOM     75  C   UNL A   1      47.231  28.336  30.723  1.00  0.00     0.010 A 
ATOM     76  C   UNL A   1      46.301  27.431  32.771  1.00  0.00     0.010 A 
ATOM     77  C   UNL A   1      48.441  27.686  30.986  1.00  0.00     0.020 A 
ATOM     78  C   UNL A   1      47.518  26.803  33.052  1.00  0.00     0.020 A 
ATOM     79  C   UNL A   1      48.577  26.925  32.151  1.00  0.00     0.054 A 
BRANCH  79  80
ATOM     80  S   UNL A   1      50.169  26.122  32.487  1.00  0.00     0.124 S 
ATOM     81  O   UNL A   1      50.525  26.685  33.786  1.00  0.00    -0.237 OA
ATOM     82  O   UNL A   1      49.812  24.706  32.487  1.00  0.00    -0.237 OA
ATOM     83  O   UNL A   1      51.009  26.545  31.369  1.00  0.00    -0.744 OA
ENDBRANCH  79  80
ENDBRANCH  51  74
BRANCH  63  84
ATOM     84  C   UNL A   1      43.489  34.434  33.300  1.00  0.00    -0.014 A 
ATOM     85  C   UNL A   1      44.194  35.469  32.662  1.00  0.00     0.010 A 
ATOM     86  C   UNL A   1      43.210  34.536  34.675  1.00  0.00     0.010 A 
ATOM     87  C   UNL A   1      44.626  36.579  33.391  1.00  0.00     0.020 A 
ATOM     88  C   UNL A   1      43.616  35.658  35.401  1.00  0.00     0.020 A 
ATOM     89  C   UNL A   1      44.328  36.671  34.755  1.00  0.00     0.054 A 
BRANCH  89  90
ATOM     90  S   UNL A   1      44.841  38.157  35.658  1.00  0.00     0.124 S 
ATOM     91  O   UNL A   1      46.290  38.136  35.481  1.00  0.00    -0.237 OA
ATOM     92  O   UNL A   1      44.136  39.221  34.946  1.00  0.00    -0.237 OA
ATOM     93  O   UNL A   1      44.375  37.914  37.021  1.00  0.00    -0.744 OA
ENDBRANCH  89  90
ENDBRANCH  63  84
ENDBRANCH  37  38
ENDBRANCH  29  32
ENDBRANCH  27  28
ENDBRANCH  26  27
ENDBRANCH   1  26
TORSDOF 17
ENDMDL
