MODEL 1
REMARK VINA RESULT:     -11.5      0.000      0.000
REMARK SMILES C[C@@H]1CC[C@@H](C(=O)NCCCCCCNC(=O)c2ccc(-c3c4nc(c(-c5ccc(S(=O)(=O)[O-])cc5)c5ccc([nH]5)c(-c5ccc(S(=O)(=O)[O-])cc5)c5nc(c(-c6ccc(S(=O)(=O)[O-])cc6)c6ccc3[nH]6)C=C5)C=C4)cc2)[C@H]2C(=O)N(c3ccccc3)C(=O)[C@@H]21
REMARK SMILES IDX 12 1 11 2 10 3 9 4 8 5 6 6 7 7 5 9 1 10 2 11 3 12 90 13 4 14
REMARK SMILES IDX 78 15 88 16 79 17 81 18 89 19 80 20 82 21 83 22 87 23 84 24
REMARK SMILES IDX 86 25 85 26 13 27 14 28 15 29 16 30 17 32 18 33 19 34 77 35
REMARK SMILES IDX 20 36 76 37 21 38 22 39 23 40 70 41 24 42 75 43 69 44 71 45
REMARK SMILES IDX 25 46 74 47 68 48 67 49 26 51 56 52 37 53 55 54 38 55 41 56
REMARK SMILES IDX 54 57 72 58 39 59 40 60 53 62 73 63 42 64 27 65 28 66 36 67
REMARK SMILES IDX 29 68 35 69 30 70 31 71 32 72 33 73 34 74 57 75 58 76 66 77
REMARK SMILES IDX 59 78 65 79 60 80 61 81 62 82 63 83 64 84 43 85 44 86 52 87
REMARK SMILES IDX 45 88 51 89 46 90 47 91 48 92 49 93 50 94
REMARK H PARENT 8 8 15 31 71 50 41 61
REMARK Flexibility Score: inf
ROOT
ATOM      1  C   UNL A   1      31.553  28.608  25.874  1.00  0.00     0.002 C 
ENDROOT
BRANCH   1   2
ATOM      2  C   UNL A   1      31.471  28.320  24.369  1.00  0.00     0.002 C 
BRANCH   2   3
ATOM      3  C   UNL A   1      32.798  28.433  23.614  1.00  0.00     0.021 C 
BRANCH   3   4
ATOM      4  C   UNL A   1      33.614  27.140  23.592  1.00  0.00     0.116 C 
BRANCH   4   5
ATOM      5  N   UNL A   1      33.640  26.532  22.281  1.00  0.00    -0.356 N 
ATOM      6  C   UNL A   1      33.003  25.472  21.730  1.00  0.00     0.223 C 
ATOM      7  O   UNL A   1      33.088  25.384  20.499  1.00  0.00    -0.275 OA
ATOM      8  H   UNL A   1      34.250  26.985  21.655  1.00  0.00     0.163 HD
BRANCH   6   9
ATOM      9  C   UNL A   1      32.216  24.403  22.504  1.00  0.00     0.092 C 
ATOM     10  C   UNL A   1      30.774  23.089  25.903  1.00  0.00     0.008 C 
ATOM     11  C   UNL A   1      31.360  24.425  25.448  1.00  0.00    -0.001 C 
ATOM     12  C   UNL A   1      30.458  25.079  24.374  1.00  0.00     0.005 C 
ATOM     13  C   UNL A   1      32.796  24.346  24.951  1.00  0.00     0.095 C 
ATOM     14  C   UNL A   1      30.765  24.745  22.897  1.00  0.00     0.014 C 
ATOM     15  C   UNL A   1      32.938  23.667  23.618  1.00  0.00     0.104 C 
ATOM     16  C   UNL A   1      33.870  23.666  25.759  1.00  0.00     0.237 C 
ATOM     17  C   UNL A   1      34.431  23.469  23.545  1.00  0.00     0.238 C 
ATOM     18  N   UNL A   1      34.881  23.354  24.856  1.00  0.00    -0.250 N 
ATOM     19  O   UNL A   1      33.846  23.583  26.975  1.00  0.00    -0.274 OA
ATOM     20  O   UNL A   1      35.038  23.301  22.498  1.00  0.00    -0.274 OA
BRANCH  18  21
ATOM     21  C   UNL A   1      36.207  22.990  25.226  1.00  0.00     0.052 A 
ATOM     22  C   UNL A   1      36.691  21.688  25.021  1.00  0.00     0.027 A 
ATOM     23  C   UNL A   1      37.070  23.911  25.840  1.00  0.00     0.027 A 
ATOM     24  C   UNL A   1      37.983  21.322  25.417  1.00  0.00     0.002 A 
ATOM     25  C   UNL A   1      38.355  23.542  26.255  1.00  0.00     0.002 A 
ATOM     26  C   UNL A   1      38.812  22.246  26.042  1.00  0.00     0.000 A 
ENDBRANCH  18  21
ENDBRANCH   6   9
ENDBRANCH   4   5
ENDBRANCH   3   4
ENDBRANCH   2   3
ENDBRANCH   1   2
BRANCH   1  27
ATOM     27  C   UNL A   1      32.442  27.663  26.688  1.00  0.00     0.021 C 
BRANCH  27  28
ATOM     28  C   UNL A   1      33.749  28.274  27.190  1.00  0.00     0.116 C 
BRANCH  28  29
ATOM     29  N   UNL A   1      33.630  29.705  27.413  1.00  0.00    -0.352 N 
ATOM     30  C   UNL A   1      34.492  30.575  28.034  1.00  0.00     0.251 C 
ATOM     31  H   UNL A   1      32.804  30.114  27.067  1.00  0.00     0.163 HD
ATOM     32  O   UNL A   1      34.110  31.703  28.328  1.00  0.00    -0.269 OA
BRANCH  30  33
ATOM     33  C   UNL A   1      35.873  30.153  28.353  1.00  0.00     0.039 A 
ATOM     34  C   UNL A   1      36.838  30.173  27.341  1.00  0.00     0.014 A 
ATOM     35  C   UNL A   1      36.206  29.702  29.633  1.00  0.00     0.014 A 
ATOM     36  C   UNL A   1      38.152  29.793  27.628  1.00  0.00     0.010 A 
ATOM     37  C   UNL A   1      37.528  29.379  29.931  1.00  0.00     0.010 A 
ATOM     38  C   UNL A   1      38.512  29.418  28.932  1.00  0.00    -0.014 A 
BRANCH  38  39
ATOM     39  C   UNL A   1      39.913  29.060  29.273  1.00  0.00     0.031 A 
ATOM     40  C   UNL A   1      40.818  30.078  29.912  1.00  0.00     0.074 A 
ATOM     41  C   UNL A   1      40.388  27.844  28.943  1.00  0.00     0.049 A 
ATOM     42  N   UNL A   1      42.089  29.981  30.208  1.00  0.00    -0.248 NA
ATOM     43  C   UNL A   1      40.222  31.384  30.241  1.00  0.00     0.031 C 
ATOM     44  C   UNL A   1      39.620  26.782  28.287  1.00  0.00     0.029 A 
ATOM     45  N   UNL A   1      41.638  27.299  29.099  1.00  0.00    -0.354 N 
ATOM     46  C   UNL A   1      42.450  31.214  30.736  1.00  0.00     0.074 A 
ATOM     47  C   UNL A   1      41.274  32.056  30.685  1.00  0.00     0.031 C 
ATOM     48  C   UNL A   1      40.409  25.710  28.113  1.00  0.00     0.029 A 
ATOM     49  C   UNL A   1      41.748  26.020  28.608  1.00  0.00     0.049 A 
ATOM     50  H   UNL A   1      42.385  27.779  29.524  1.00  0.00     0.167 HD
ATOM     51  C   UNL A   1      43.648  31.607  31.231  1.00  0.00     0.031 A 
ATOM     52  C   UNL A   1      42.808  25.191  28.553  1.00  0.00     0.031 A 
ATOM     53  C   UNL A   1      44.811  30.763  31.293  1.00  0.00     0.049 A 
ATOM     54  C   UNL A   1      44.129  25.648  29.107  1.00  0.00     0.074 A 
ATOM     55  C   UNL A   1      46.054  31.048  31.830  1.00  0.00     0.029 A 
ATOM     56  N   UNL A   1      44.875  29.468  30.802  1.00  0.00    -0.354 N 
ATOM     57  N   UNL A   1      44.434  26.800  29.656  1.00  0.00    -0.248 NA
ATOM     58  C   UNL A   1      45.244  24.694  29.043  1.00  0.00     0.031 C 
ATOM     59  C   UNL A   1      46.883  29.940  31.624  1.00  0.00     0.029 A 
ATOM     60  C   UNL A   1      46.142  28.947  31.004  1.00  0.00     0.049 A 
ATOM     61  H   UNL A   1      44.130  28.988  30.373  1.00  0.00     0.167 HD
ATOM     62  C   UNL A   1      45.772  26.699  30.023  1.00  0.00     0.074 A 
ATOM     63  C   UNL A   1      46.211  25.372  29.646  1.00  0.00     0.031 C 
ATOM     64  C   UNL A   1      46.563  27.624  30.621  1.00  0.00     0.031 A 
BRANCH  51  65
ATOM     65  C   UNL A   1      43.760  33.019  31.741  1.00  0.00    -0.014 A 
ATOM     66  C   UNL A   1      43.511  33.325  33.092  1.00  0.00     0.010 A 
ATOM     67  C   UNL A   1      44.150  34.050  30.868  1.00  0.00     0.010 A 
ATOM     68  C   UNL A   1      43.607  34.642  33.549  1.00  0.00     0.020 A 
ATOM     69  C   UNL A   1      44.273  35.364  31.327  1.00  0.00     0.020 A 
ATOM     70  C   UNL A   1      43.983  35.656  32.661  1.00  0.00     0.054 A 
BRANCH  70  71
ATOM     71  S   UNL A   1      44.114  37.354  33.284  1.00  0.00     0.124 S 
ATOM     72  O   UNL A   1      44.185  38.123  32.044  1.00  0.00    -0.237 OA
ATOM     73  O   UNL A   1      42.879  37.513  34.049  1.00  0.00    -0.237 OA
ATOM     74  O   UNL A   1      45.338  37.338  34.079  1.00  0.00    -0.744 OA
ENDBRANCH  70  71
ENDBRANCH  51  65
BRANCH  52  75
ATOM     75  C   UNL A   1      42.658  23.836  27.957  1.00  0.00    -0.014 A 
ATOM     76  C   UNL A   1      42.199  22.762  28.740  1.00  0.00     0.010 A 
ATOM     77  C   UNL A   1      42.948  23.618  26.598  1.00  0.00     0.010 A 
ATOM     78  C   UNL A   1      42.047  21.491  28.178  1.00  0.00     0.020 A 
ATOM     79  C   UNL A   1      42.775  22.354  26.027  1.00  0.00     0.020 A 
ATOM     80  C   UNL A   1      42.335  21.296  26.825  1.00  0.00     0.054 A 
BRANCH  80  81
ATOM     81  S   UNL A   1      42.073  19.653  26.100  1.00  0.00     0.124 S 
ATOM     82  O   UNL A   1      42.925  19.703  24.917  1.00  0.00    -0.237 OA
ATOM     83  O   UNL A   1      42.522  18.761  27.167  1.00  0.00    -0.237 OA
ATOM     84  O   UNL A   1      40.636  19.621  25.838  1.00  0.00    -0.744 OA
ENDBRANCH  80  81
ENDBRANCH  52  75
BRANCH  64  85
ATOM     85  C   UNL A   1      47.980  27.224  30.930  1.00  0.00    -0.014 A 
ATOM     86  C   UNL A   1      48.302  26.558  32.125  1.00  0.00     0.010 A 
ATOM     87  C   UNL A   1      48.991  27.463  29.981  1.00  0.00     0.010 A 
ATOM     88  C   UNL A   1      49.617  26.157  32.375  1.00  0.00     0.020 A 
ATOM     89  C   UNL A   1      50.301  27.043  30.218  1.00  0.00     0.020 A 
ATOM     90  C   UNL A   1      50.609  26.402  31.420  1.00  0.00     0.054 A 
BRANCH  90  91
ATOM     91  S   UNL A   1      52.297  25.824  31.744  1.00  0.00     0.124 S 
ATOM     92  O   UNL A   1      52.706  26.685  32.850  1.00  0.00    -0.237 OA
ATOM     93  O   UNL A   1      52.096  24.417  32.084  1.00  0.00    -0.237 OA
ATOM     94  O   UNL A   1      52.992  26.059  30.481  1.00  0.00    -0.744 OA
ENDBRANCH  90  91
ENDBRANCH  64  85
ENDBRANCH  38  39
ENDBRANCH  30  33
ENDBRANCH  28  29
ENDBRANCH  27  28
ENDBRANCH   1  27
TORSDOF 17
ENDMDL
MODEL 2
REMARK VINA RESULT:     -11.5      2.680      3.331
REMARK SMILES C[C@@H]1CC[C@@H](C(=O)NCCCCCCNC(=O)c2ccc(-c3c4nc(c(-c5ccc(S(=O)(=O)[O-])cc5)c5ccc([nH]5)c(-c5ccc(S(=O)(=O)[O-])cc5)c5nc(c(-c6ccc(S(=O)(=O)[O-])cc6)c6ccc3[nH]6)C=C5)C=C4)cc2)[C@H]2C(=O)N(c3ccccc3)C(=O)[C@@H]21
REMARK SMILES IDX 12 1 11 2 10 3 9 4 8 5 6 6 7 7 5 9 1 10 2 11 3 12 90 13 4 14
REMARK SMILES IDX 78 15 88 16 79 17 81 18 89 19 80 20 82 21 83 22 87 23 84 24
REMARK SMILES IDX 86 25 85 26 13 27 14 28 15 29 16 30 17 32 18 33 19 34 77 35
REMARK SMILES IDX 20 36 76 37 21 38 22 39 23 40 70 41 24 42 75 43 69 44 71 45
REMARK SMILES IDX 25 46 74 47 68 48 67 49 26 51 56 52 37 53 55 54 38 55 41 56
REMARK SMILES IDX 54 57 72 58 39 59 40 60 53 62 73 63 42 64 27 65 28 66 36 67
REMARK SMILES IDX 29 68 35 69 30 70 31 71 32 72 33 73 34 74 57 75 58 76 66 77
REMARK SMILES IDX 59 78 65 79 60 80 61 81 62 82 63 83 64 84 43 85 44 86 52 87
REMARK SMILES IDX 45 88 51 89 46 90 47 91 48 92 49 93 50 94
REMARK H PARENT 8 8 15 31 71 50 41 61
REMARK Flexibility Score: inf
ROOT
ATOM      1  C   UNL A   1      33.583  28.466  26.168  1.00  0.00     0.002 C 
ENDROOT
BRANCH   1   2
ATOM      2  C   UNL A   1      32.425  28.769  25.207  1.00  0.00     0.002 C 
BRANCH   2   3
ATOM      3  C   UNL A   1      32.419  27.945  23.917  1.00  0.00     0.021 C 
BRANCH   3   4
ATOM      4  C   UNL A   1      33.600  26.981  23.789  1.00  0.00     0.116 C 
BRANCH   4   5
ATOM      5  N   UNL A   1      33.677  26.383  22.475  1.00  0.00    -0.356 N 
ATOM      6  C   UNL A   1      33.120  25.284  21.915  1.00  0.00     0.223 C 
ATOM      7  O   UNL A   1      33.219  25.208  20.684  1.00  0.00    -0.275 OA
ATOM      8  H   UNL A   1      34.259  26.880  21.856  1.00  0.00     0.163 HD
BRANCH   6   9
ATOM      9  C   UNL A   1      32.403  24.160  22.679  1.00  0.00     0.092 C 
ATOM     10  C   UNL A   1      31.059  22.718  26.066  1.00  0.00     0.008 C 
ATOM     11  C   UNL A   1      31.561  24.092  25.626  1.00  0.00    -0.001 C 
ATOM     12  C   UNL A   1      30.615  24.704  24.564  1.00  0.00     0.005 C 
ATOM     13  C   UNL A   1      32.996  24.108  25.122  1.00  0.00     0.095 C 
ATOM     14  C   UNL A   1      30.935  24.408  23.082  1.00  0.00     0.014 C 
ATOM     15  C   UNL A   1      33.173  23.455  23.780  1.00  0.00     0.104 C 
ATOM     16  C   UNL A   1      34.114  23.484  25.917  1.00  0.00     0.237 C 
ATOM     17  C   UNL A   1      34.675  23.349  23.699  1.00  0.00     0.238 C 
ATOM     18  N   UNL A   1      35.137  23.245  25.006  1.00  0.00    -0.250 N 
ATOM     19  O   UNL A   1      34.101  23.385  27.132  1.00  0.00    -0.274 OA
ATOM     20  O   UNL A   1      35.286  23.232  22.648  1.00  0.00    -0.274 OA
BRANCH  18  21
ATOM     21  C   UNL A   1      36.486  22.958  25.366  1.00  0.00     0.052 A 
ATOM     22  C   UNL A   1      37.043  21.688  25.155  1.00  0.00     0.027 A 
ATOM     23  C   UNL A   1      37.297  23.927  25.977  1.00  0.00     0.027 A 
ATOM     24  C   UNL A   1      38.357  21.396  25.541  1.00  0.00     0.002 A 
ATOM     25  C   UNL A   1      38.605  23.632  26.382  1.00  0.00     0.002 A 
ATOM     26  C   UNL A   1      39.134  22.366  26.163  1.00  0.00     0.000 A 
ENDBRANCH  18  21
ENDBRANCH   6   9
ENDBRANCH   4   5
ENDBRANCH   3   4
ENDBRANCH   2   3
ENDBRANCH   1   2
BRANCH   1  27
ATOM     27  C   UNL A   1      33.881  29.543  27.216  1.00  0.00     0.021 C 
BRANCH  27  28
ATOM     28  C   UNL A   1      35.217  29.389  27.941  1.00  0.00     0.116 C 
BRANCH  28  29
ATOM     29  N   UNL A   1      35.286  30.217  29.134  1.00  0.00    -0.352 N 
ATOM     30  C   UNL A   1      36.324  30.411  30.012  1.00  0.00     0.251 C 
ATOM     31  H   UNL A   1      34.463  30.713  29.346  1.00  0.00     0.163 HD
ATOM     32  O   UNL A   1      36.114  30.966  31.087  1.00  0.00    -0.269 OA
BRANCH  30  33
ATOM     33  C   UNL A   1      37.686  29.949  29.670  1.00  0.00     0.039 A 
ATOM     34  C   UNL A   1      38.086  29.955  28.330  1.00  0.00     0.014 A 
ATOM     35  C   UNL A   1      38.551  29.475  30.659  1.00  0.00     0.014 A 
ATOM     36  C   UNL A   1      39.374  29.536  27.989  1.00  0.00     0.010 A 
ATOM     37  C   UNL A   1      39.854  29.113  30.325  1.00  0.00     0.010 A 
ATOM     38  C   UNL A   1      40.277  29.136  28.987  1.00  0.00    -0.014 A 
BRANCH  38  39
ATOM     39  C   UNL A   1      41.668  28.738  28.655  1.00  0.00     0.031 A 
ATOM     40  C   UNL A   1      42.764  29.768  28.629  1.00  0.00     0.074 A 
ATOM     41  C   UNL A   1      41.930  27.462  28.308  1.00  0.00     0.049 A 
ATOM     42  N   UNL A   1      44.019  29.629  28.285  1.00  0.00    -0.248 NA
ATOM     43  C   UNL A   1      42.396  31.139  29.021  1.00  0.00     0.031 C 
ATOM     44  C   UNL A   1      40.946  26.377  28.259  1.00  0.00     0.029 A 
ATOM     45  N   UNL A   1      43.101  26.864  27.914  1.00  0.00    -0.354 N 
ATOM     46  C   UNL A   1      44.584  30.894  28.397  1.00  0.00     0.074 A 
ATOM     47  C   UNL A   1      43.527  31.795  28.804  1.00  0.00     0.031 C 
ATOM     48  C   UNL A   1      41.557  25.246  27.875  1.00  0.00     0.029 A 
ATOM     49  C   UNL A   1      42.965  25.530  27.614  1.00  0.00     0.049 A 
ATOM     50  H   UNL A   1      43.958  27.346  27.854  1.00  0.00     0.167 HD
ATOM     51  C   UNL A   1      45.869  31.270  28.191  1.00  0.00     0.031 A 
ATOM     52  C   UNL A   1      43.870  24.636  27.168  1.00  0.00     0.031 A 
ATOM     53  C   UNL A   1      46.920  30.369  27.800  1.00  0.00     0.049 A 
ATOM     54  C   UNL A   1      45.290  25.076  26.946  1.00  0.00     0.074 A 
ATOM     55  C   UNL A   1      48.266  30.641  27.624  1.00  0.00     0.029 A 
ATOM     56  N   UNL A   1      46.744  29.022  27.524  1.00  0.00    -0.354 N 
ATOM     57  N   UNL A   1      45.817  26.266  27.114  1.00  0.00    -0.248 NA
ATOM     58  C   UNL A   1      46.238  24.053  26.484  1.00  0.00     0.031 C 
ATOM     59  C   UNL A   1      48.896  29.466  27.199  1.00  0.00     0.029 A 
ATOM     60  C   UNL A   1      47.953  28.453  27.158  1.00  0.00     0.049 A 
ATOM     61  H   UNL A   1      45.888  28.540  27.579  1.00  0.00     0.167 HD
ATOM     62  C   UNL A   1      47.165  26.128  26.799  1.00  0.00     0.074 A 
ATOM     63  C   UNL A   1      47.373  24.739  26.444  1.00  0.00     0.031 C 
ATOM     64  C   UNL A   1      48.142  27.068  26.806  1.00  0.00     0.031 A 
BRANCH  51  65
ATOM     65  C   UNL A   1      46.207  32.724  28.384  1.00  0.00    -0.014 A 
ATOM     66  C   UNL A   1      46.485  33.242  29.661  1.00  0.00     0.010 A 
ATOM     67  C   UNL A   1      46.278  33.579  27.269  1.00  0.00     0.010 A 
ATOM     68  C   UNL A   1      46.786  34.597  29.826  1.00  0.00     0.020 A 
ATOM     69  C   UNL A   1      46.605  34.929  27.426  1.00  0.00     0.020 A 
ATOM     70  C   UNL A   1      46.838  35.434  28.707  1.00  0.00     0.054 A 
BRANCH  70  71
ATOM     71  S   UNL A   1      47.245  37.185  28.947  1.00  0.00     0.124 S 
ATOM     72  O   UNL A   1      46.662  37.451  30.260  1.00  0.00    -0.237 OA
ATOM     73  O   UNL A   1      48.705  37.187  28.898  1.00  0.00    -0.237 OA
ATOM     74  O   UNL A   1      46.585  37.851  27.827  1.00  0.00    -0.744 OA
ENDBRANCH  70  71
ENDBRANCH  51  65
BRANCH  52  75
ATOM     75  C   UNL A   1      43.456  23.230  26.913  1.00  0.00    -0.014 A 
ATOM     76  C   UNL A   1      43.590  22.671  25.631  1.00  0.00     0.010 A 
ATOM     77  C   UNL A   1      42.949  22.435  27.958  1.00  0.00     0.010 A 
ATOM     78  C   UNL A   1      43.212  21.347  25.393  1.00  0.00     0.020 A 
ATOM     79  C   UNL A   1      42.592  21.103  27.729  1.00  0.00     0.020 A 
ATOM     80  C   UNL A   1      42.717  20.571  26.445  1.00  0.00     0.054 A 
BRANCH  80  81
ATOM     81  S   UNL A   1      42.288  18.836  26.129  1.00  0.00     0.124 S 
ATOM     82  O   UNL A   1      42.518  18.224  27.433  1.00  0.00    -0.237 OA
ATOM     83  O   UNL A   1      40.892  18.926  25.708  1.00  0.00    -0.237 OA
ATOM     84  O   UNL A   1      43.222  18.441  25.076  1.00  0.00    -0.744 OA
ENDBRANCH  80  81
ENDBRANCH  52  75
BRANCH  64  85
ATOM     85  C   UNL A   1      49.532  26.623  26.444  1.00  0.00    -0.014 A 
ATOM     86  C   UNL A   1      50.344  25.951  27.374  1.00  0.00     0.010 A 
ATOM     87  C   UNL A   1      50.006  26.823  25.135  1.00  0.00     0.010 A 
ATOM     88  C   UNL A   1      51.617  25.507  27.007  1.00  0.00     0.020 A 
ATOM     89  C   UNL A   1      51.268  26.360  24.758  1.00  0.00     0.020 A 
ATOM     90  C   UNL A   1      52.072  25.715  25.701  1.00  0.00     0.054 A 
BRANCH  90  91
ATOM     91  S   UNL A   1      53.706  25.082  25.232  1.00  0.00     0.124 S 
ATOM     92  O   UNL A   1      53.845  25.582  23.867  1.00  0.00    -0.237 OA
ATOM     93  O   UNL A   1      54.586  25.700  26.221  1.00  0.00    -0.237 OA
ATOM     94  O   UNL A   1      53.564  23.633  25.354  1.00  0.00    -0.744 OA
ENDBRANCH  90  91
ENDBRANCH  64  85
ENDBRANCH  38  39
ENDBRANCH  30  33
ENDBRANCH  28  29
ENDBRANCH  27  28
ENDBRANCH   1  27
TORSDOF 17
ENDMDL
MODEL 3
REMARK VINA RESULT:     -11.3      4.356     10.124
REMARK SMILES C[C@@H]1CC[C@@H](C(=O)NCCCCCCNC(=O)c2ccc(-c3c4nc(c(-c5ccc(S(=O)(=O)[O-])cc5)c5ccc([nH]5)c(-c5ccc(S(=O)(=O)[O-])cc5)c5nc(c(-c6ccc(S(=O)(=O)[O-])cc6)c6ccc3[nH]6)C=C5)C=C4)cc2)[C@H]2C(=O)N(c3ccccc3)C(=O)[C@@H]21
REMARK SMILES IDX 12 1 11 2 10 3 9 4 8 5 6 6 7 7 5 9 1 10 2 11 3 12 90 13 4 14
REMARK SMILES IDX 78 15 88 16 79 17 81 18 89 19 80 20 82 21 83 22 87 23 84 24
REMARK SMILES IDX 86 25 85 26 13 27 14 28 15 29 16 30 17 32 18 33 19 34 77 35
REMARK SMILES IDX 20 36 76 37 21 38 22 39 23 40 70 41 24 42 75 43 69 44 71 45
REMARK SMILES IDX 25 46 74 47 68 48 67 49 26 51 56 52 37 53 55 54 38 55 41 56
REMARK SMILES IDX 54 57 72 58 39 59 40 60 53 62 73 63 42 64 27 65 28 66 36 67
REMARK SMILES IDX 29 68 35 69 30 70 31 71 32 72 33 73 34 74 57 75 58 76 66 77
REMARK SMILES IDX 59 78 65 79 60 80 61 81 62 82 63 83 64 84 43 85 44 86 52 87
REMARK SMILES IDX 45 88 51 89 46 90 47 91 48 92 49 93 50 94
REMARK H PARENT 8 8 15 31 71 50 41 61
REMARK Flexibility Score: inf
ROOT
ATOM      1  C   UNL A   1      37.516  22.941  25.280  1.00  0.00     0.002 C 
ENDROOT
BRANCH   1   2
ATOM      2  C   UNL A   1      36.259  22.230  25.800  1.00  0.00     0.002 C 
BRANCH   2   3
ATOM      3  C   UNL A   1      35.190  23.152  26.392  1.00  0.00     0.021 C 
BRANCH   3   4
ATOM      4  C   UNL A   1      33.834  23.066  25.689  1.00  0.00     0.116 C 
BRANCH   4   5
ATOM      5  N   UNL A   1      32.734  23.334  26.587  1.00  0.00    -0.356 N 
ATOM      6  C   UNL A   1      31.503  23.870  26.423  1.00  0.00     0.223 C 
ATOM      7  O   UNL A   1      30.729  23.725  27.378  1.00  0.00    -0.275 OA
ATOM      8  H   UNL A   1      32.920  23.069  27.517  1.00  0.00     0.163 HD
BRANCH   6   9
ATOM      9  C   UNL A   1      31.020  24.628  25.176  1.00  0.00     0.092 C 
ATOM     10  C   UNL A   1      31.857  26.433  21.800  1.00  0.00     0.008 C 
ATOM     11  C   UNL A   1      32.648  25.522  22.738  1.00  0.00    -0.001 C 
ATOM     12  C   UNL A   1      32.024  24.106  22.776  1.00  0.00     0.005 C 
ATOM     13  C   UNL A   1      32.813  26.062  24.150  1.00  0.00     0.095 C 
ATOM     14  C   UNL A   1      30.951  23.838  23.854  1.00  0.00     0.014 C 
ATOM     15  C   UNL A   1      31.547  26.034  24.960  1.00  0.00     0.104 C 
ATOM     16  C   UNL A   1      33.309  27.462  24.402  1.00  0.00     0.237 C 
ATOM     17  C   UNL A   1      31.936  26.884  26.144  1.00  0.00     0.238 C 
ATOM     18  N   UNL A   1      32.894  27.783  25.690  1.00  0.00    -0.250 N 
ATOM     19  O   UNL A   1      34.047  28.061  23.639  1.00  0.00    -0.274 OA
ATOM     20  O   UNL A   1      31.367  26.834  27.224  1.00  0.00    -0.274 OA
BRANCH  18  21
ATOM     21  C   UNL A   1      33.404  28.874  26.452  1.00  0.00     0.052 A 
ATOM     22  C   UNL A   1      32.661  30.052  26.626  1.00  0.00     0.027 A 
ATOM     23  C   UNL A   1      34.682  28.824  27.029  1.00  0.00     0.027 A 
ATOM     24  C   UNL A   1      33.177  31.137  27.346  1.00  0.00     0.002 A 
ATOM     25  C   UNL A   1      35.208  29.915  27.732  1.00  0.00     0.002 A 
ATOM     26  C   UNL A   1      34.454  31.072  27.890  1.00  0.00     0.000 A 
ENDBRANCH  18  21
ENDBRANCH   6   9
ENDBRANCH   4   5
ENDBRANCH   3   4
ENDBRANCH   2   3
ENDBRANCH   1   2
BRANCH   1  27
ATOM     27  C   UNL A   1      38.078  24.047  26.180  1.00  0.00     0.021 C 
BRANCH  27  28
ATOM     28  C   UNL A   1      39.376  23.696  26.905  1.00  0.00     0.116 C 
BRANCH  28  29
ATOM     29  N   UNL A   1      40.549  24.054  26.123  1.00  0.00    -0.352 N 
ATOM     30  C   UNL A   1      41.344  25.170  26.190  1.00  0.00     0.251 C 
ATOM     31  H   UNL A   1      40.813  23.395  25.440  1.00  0.00     0.163 HD
ATOM     32  O   UNL A   1      42.149  25.398  25.292  1.00  0.00    -0.269 OA
BRANCH  30  33
ATOM     33  C   UNL A   1      41.229  26.099  27.335  1.00  0.00     0.039 A 
ATOM     34  C   UNL A   1      42.037  27.240  27.365  1.00  0.00     0.014 A 
ATOM     35  C   UNL A   1      40.359  25.827  28.394  1.00  0.00     0.014 A 
ATOM     36  C   UNL A   1      41.931  28.137  28.431  1.00  0.00     0.010 A 
ATOM     37  C   UNL A   1      40.213  26.751  29.426  1.00  0.00     0.010 A 
ATOM     38  C   UNL A   1      40.999  27.912  29.456  1.00  0.00    -0.014 A 
BRANCH  38  39
ATOM     39  C   UNL A   1      40.831  28.878  30.572  1.00  0.00     0.031 A 
ATOM     40  C   UNL A   1      41.676  28.758  31.810  1.00  0.00     0.074 A 
ATOM     41  C   UNL A   1      39.868  29.817  30.498  1.00  0.00     0.049 A 
ATOM     42  N   UNL A   1      41.620  29.452  32.918  1.00  0.00    -0.248 NA
ATOM     43  C   UNL A   1      42.706  27.705  31.812  1.00  0.00     0.031 C 
ATOM     44  C   UNL A   1      38.958  30.014  29.366  1.00  0.00     0.029 A 
ATOM     45  N   UNL A   1      39.482  30.776  31.402  1.00  0.00    -0.354 N 
ATOM     46  C   UNL A   1      42.587  28.908  33.755  1.00  0.00     0.074 A 
ATOM     47  C   UNL A   1      43.190  27.802  33.042  1.00  0.00     0.031 C 
ATOM     48  C   UNL A   1      38.133  31.038  29.636  1.00  0.00     0.029 A 
ATOM     49  C   UNL A   1      38.427  31.546  30.973  1.00  0.00     0.049 A 
ATOM     50  H   UNL A   1      39.920  30.900  32.275  1.00  0.00     0.167 HD
ATOM     51  C   UNL A   1      42.950  29.301  34.999  1.00  0.00     0.031 A 
ATOM     52  C   UNL A   1      37.765  32.545  31.588  1.00  0.00     0.031 A 
ATOM     53  C   UNL A   1      42.358  30.410  35.700  1.00  0.00     0.049 A 
ATOM     54  C   UNL A   1      38.184  32.963  32.969  1.00  0.00     0.074 A 
ATOM     55  C   UNL A   1      42.697  30.924  36.939  1.00  0.00     0.029 A 
ATOM     56  N   UNL A   1      41.306  31.176  35.222  1.00  0.00    -0.354 N 
ATOM     57  N   UNL A   1      39.141  32.473  33.721  1.00  0.00    -0.248 NA
ATOM     58  C   UNL A   1      37.441  34.074  33.582  1.00  0.00     0.031 C 
ATOM     59  C   UNL A   1      41.819  31.974  37.230  1.00  0.00     0.029 A 
ATOM     60  C   UNL A   1      40.967  32.145  36.150  1.00  0.00     0.049 A 
ATOM     61  H   UNL A   1      40.864  31.049  34.351  1.00  0.00     0.167 HD
ATOM     62  C   UNL A   1      39.130  33.232  34.887  1.00  0.00     0.074 A 
ATOM     63  C   UNL A   1      38.081  34.219  34.735  1.00  0.00     0.031 C 
ATOM     64  C   UNL A   1      39.919  33.120  35.984  1.00  0.00     0.031 A 
BRANCH  51  65
ATOM     65  C   UNL A   1      44.039  28.520  35.685  1.00  0.00    -0.014 A 
ATOM     66  C   UNL A   1      45.392  28.875  35.535  1.00  0.00     0.010 A 
ATOM     67  C   UNL A   1      43.705  27.435  36.516  1.00  0.00     0.010 A 
ATOM     68  C   UNL A   1      46.393  28.133  36.168  1.00  0.00     0.020 A 
ATOM     69  C   UNL A   1      44.701  26.707  37.172  1.00  0.00     0.020 A 
ATOM     70  C   UNL A   1      46.041  27.049  36.979  1.00  0.00     0.054 A 
BRANCH  70  71
ATOM     71  S   UNL A   1      47.359  26.112  37.800  1.00  0.00     0.124 S 
ATOM     72  O   UNL A   1      47.659  25.084  36.807  1.00  0.00    -0.237 OA
ATOM     73  O   UNL A   1      48.400  27.120  37.993  1.00  0.00    -0.237 OA
ATOM     74  O   UNL A   1      46.729  25.630  39.026  1.00  0.00    -0.744 OA
ENDBRANCH  70  71
ENDBRANCH  51  65
BRANCH  52  75
ATOM     75  C   UNL A   1      36.638  33.223  30.892  1.00  0.00    -0.014 A 
ATOM     76  C   UNL A   1      35.314  33.020  31.318  1.00  0.00     0.010 A 
ATOM     77  C   UNL A   1      36.886  34.096  29.817  1.00  0.00     0.010 A 
ATOM     78  C   UNL A   1      34.256  33.666  30.671  1.00  0.00     0.020 A 
ATOM     79  C   UNL A   1      35.833  34.762  29.184  1.00  0.00     0.020 A 
ATOM     80  C   UNL A   1      34.523  34.534  29.609  1.00  0.00     0.054 A 
BRANCH  80  81
ATOM     81  S   UNL A   1      33.141  35.410  28.823  1.00  0.00     0.124 S 
ATOM     82  O   UNL A   1      33.835  36.389  27.993  1.00  0.00    -0.237 OA
ATOM     83  O   UNL A   1      32.457  34.339  28.102  1.00  0.00    -0.237 OA
ATOM     84  O   UNL A   1      32.398  35.959  29.955  1.00  0.00    -0.744 OA
ENDBRANCH  80  81
ENDBRANCH  52  75
BRANCH  64  85
ATOM     85  C   UNL A   1      39.699  34.107  37.097  1.00  0.00    -0.014 A 
ATOM     86  C   UNL A   1      38.855  33.805  38.179  1.00  0.00     0.010 A 
ATOM     87  C   UNL A   1      40.399  35.328  37.090  1.00  0.00     0.010 A 
ATOM     88  C   UNL A   1      38.695  34.717  39.224  1.00  0.00     0.020 A 
ATOM     89  C   UNL A   1      40.260  36.232  38.145  1.00  0.00     0.020 A 
ATOM     90  C   UNL A   1      39.399  35.926  39.201  1.00  0.00     0.054 A 
BRANCH  90  91
ATOM     91  S   UNL A   1      39.218  37.071  40.597  1.00  0.00     0.124 S 
ATOM     92  O   UNL A   1      40.594  37.509  40.809  1.00  0.00    -0.237 OA
ATOM     93  O   UNL A   1      38.310  38.085  40.065  1.00  0.00    -0.237 OA
ATOM     94  O   UNL A   1      38.657  36.238  41.657  1.00  0.00    -0.744 OA
ENDBRANCH  90  91
ENDBRANCH  64  85
ENDBRANCH  38  39
ENDBRANCH  30  33
ENDBRANCH  28  29
ENDBRANCH  27  28
ENDBRANCH   1  27
TORSDOF 17
ENDMDL
