MODEL 1
REMARK VINA RESULT:      -9.6      0.000      0.000
REMARK SMILES Cn1ccnc(N[C@H]2C=C[C@H](C(=O)NCCCCCCNC(=O)c3ccc(-c4c5nc(c(-c6ccc(S(=O)(=O)[O-])cc6)c6ccc([nH]6)c(-c6ccc(S(=O)(=O)[O-])cc6)c6nc(c(-c7ccc(S(=O)(=O)[O-])cc7)c7ccc4[nH]7)C=C6)C=C5)cc3)C2)c1=O
REMARK SMILES IDX 18 1 17 2 16 3 15 4 14 5 12 6 13 7 11 9 8 10 9 11 84 12
REMARK SMILES IDX 10 13 7 14 6 16 1 17 2 18 3 19 85 20 4 21 86 22 5 23 19 24
REMARK SMILES IDX 20 25 21 26 22 27 23 29 24 30 25 31 83 32 26 33 82 34 27 35
REMARK SMILES IDX 28 36 29 37 76 38 30 39 81 40 75 41 77 42 31 43 80 44 74 45
REMARK SMILES IDX 73 46 32 48 62 49 43 50 61 51 44 52 47 53 60 54 78 55 45 56
REMARK SMILES IDX 46 57 59 59 79 60 48 61 33 62 34 63 42 64 35 65 41 66 36 67
REMARK SMILES IDX 37 68 38 69 39 70 40 71 63 72 64 73 72 74 65 75 71 76 66 77
REMARK SMILES IDX 67 78 68 79 69 80 70 81 49 82 50 83 58 84 51 85 57 86 52 87
REMARK SMILES IDX 53 88 54 89 55 90 56 91
REMARK H PARENT 14 8 7 15 21 28 77 47 47 58
REMARK Flexibility Score: inf
ROOT
ATOM      1  C   UNL A   1      39.348  33.439  30.232  1.00  0.00     0.002 C 
ENDROOT
BRANCH   1   2
ATOM      2  C   UNL A   1      40.553  32.550  30.550  1.00  0.00     0.002 C 
BRANCH   2   3
ATOM      3  C   UNL A   1      41.130  32.717  31.958  1.00  0.00     0.021 C 
BRANCH   3   4
ATOM      4  C   UNL A   1      40.113  32.549  33.081  1.00  0.00     0.116 C 
BRANCH   4   5
ATOM      5  N   UNL A   1      39.921  33.779  33.833  1.00  0.00    -0.356 N 
ATOM      6  C   UNL A   1      38.748  34.423  34.122  1.00  0.00     0.227 C 
ATOM      7  O   UNL A   1      38.783  35.421  34.842  1.00  0.00    -0.274 OA
ATOM      8  H   UNL A   1      40.740  34.204  34.177  1.00  0.00     0.163 HD
BRANCH   6   9
ATOM      9  C   UNL A   1      37.463  33.858  33.528  1.00  0.00     0.103 C 
ATOM     10  C   UNL A   1      35.316  35.036  33.391  1.00  0.00     0.104 C 
ATOM     11  C   UNL A   1      35.342  34.101  34.542  1.00  0.00    -0.006 C 
ATOM     12  C   UNL A   1      36.661  34.867  32.685  1.00  0.00     0.046 C 
ATOM     13  C   UNL A   1      36.518  33.476  34.636  1.00  0.00    -0.016 C 
BRANCH  10  14
ATOM     14  N   UNL A   1      34.170  34.814  32.553  1.00  0.00    -0.359 N 
ATOM     15  H   UNL A   1      33.325  34.754  33.055  1.00  0.00     0.162 HD
BRANCH  14  16
ATOM     16  C   UNL A   1      34.007  34.668  31.192  1.00  0.00     0.193 A 
ATOM     17  C   UNL A   1      34.360  32.293  28.192  1.00  0.00     0.153 C 
ATOM     18  N   UNL A   1      34.097  33.460  29.009  1.00  0.00    -0.314 N 
ATOM     19  C   UNL A   1      33.659  34.634  28.454  1.00  0.00     0.109 A 
ATOM     20  C   UNL A   1      34.299  33.359  30.383  1.00  0.00     0.293 A 
ATOM     21  C   UNL A   1      33.415  35.700  29.223  1.00  0.00     0.131 A 
ATOM     22  O   UNL A   1      34.688  32.329  30.916  1.00  0.00    -0.265 OA
ATOM     23  N   UNL A   1      33.577  35.750  30.579  1.00  0.00    -0.233 NA
ENDBRANCH  14  16
ENDBRANCH  10  14
ENDBRANCH   6   9
ENDBRANCH   4   5
ENDBRANCH   3   4
ENDBRANCH   2   3
ENDBRANCH   1   2
BRANCH   1  24
ATOM     24  C   UNL A   1      38.089  32.691  29.791  1.00  0.00     0.021 C 
BRANCH  24  25
ATOM     25  C   UNL A   1      37.791  31.422  30.583  1.00  0.00     0.116 C 
BRANCH  25  26
ATOM     26  N   UNL A   1      36.895  30.526  29.870  1.00  0.00    -0.352 N 
ATOM     27  C   UNL A   1      37.186  29.597  28.902  1.00  0.00     0.251 C 
ATOM     28  H   UNL A   1      35.944  30.595  30.117  1.00  0.00     0.163 HD
ATOM     29  O   UNL A   1      36.280  29.056  28.277  1.00  0.00    -0.269 OA
BRANCH  27  30
ATOM     30  C   UNL A   1      38.597  29.272  28.600  1.00  0.00     0.039 A 
ATOM     31  C   UNL A   1      39.042  29.355  27.280  1.00  0.00     0.014 A 
ATOM     32  C   UNL A   1      39.478  28.893  29.618  1.00  0.00     0.014 A 
ATOM     33  C   UNL A   1      40.386  29.117  26.989  1.00  0.00     0.010 A 
ATOM     34  C   UNL A   1      40.832  28.732  29.337  1.00  0.00     0.010 A 
ATOM     35  C   UNL A   1      41.301  28.838  28.020  1.00  0.00    -0.014 A 
BRANCH  35  36
ATOM     36  C   UNL A   1      42.748  28.661  27.737  1.00  0.00     0.031 A 
ATOM     37  C   UNL A   1      43.705  29.806  27.934  1.00  0.00     0.074 A 
ATOM     38  C   UNL A   1      43.192  27.485  27.248  1.00  0.00     0.049 A 
ATOM     39  N   UNL A   1      44.990  29.855  27.694  1.00  0.00    -0.248 NA
ATOM     40  C   UNL A   1      43.143  31.068  28.444  1.00  0.00     0.031 C 
ATOM     41  C   UNL A   1      42.359  26.311  26.977  1.00  0.00     0.029 A 
ATOM     42  N   UNL A   1      44.455  27.084  26.888  1.00  0.00    -0.354 N 
ATOM     43  C   UNL A   1      45.386  31.151  28.009  1.00  0.00     0.074 A 
ATOM     44  C   UNL A   1      44.197  31.870  28.408  1.00  0.00     0.031 C 
ATOM     45  C   UNL A   1      43.136  25.315  26.522  1.00  0.00     0.029 A 
ATOM     46  C   UNL A   1      44.512  25.790  26.423  1.00  0.00     0.049 A 
ATOM     47  H   UNL A   1      45.245  27.667  26.955  1.00  0.00     0.167 HD
ATOM     48  C   UNL A   1      46.630  31.687  27.989  1.00  0.00     0.031 A 
ATOM     49  C   UNL A   1      45.551  25.069  25.959  1.00  0.00     0.031 A 
ATOM     50  C   UNL A   1      47.812  30.965  27.597  1.00  0.00     0.049 A 
ATOM     51  C   UNL A   1      46.919  25.695  25.924  1.00  0.00     0.074 A 
ATOM     52  C   UNL A   1      49.124  31.404  27.595  1.00  0.00     0.029 A 
ATOM     53  N   UNL A   1      47.827  29.657  27.135  1.00  0.00    -0.354 N 
ATOM     54  N   UNL A   1      47.283  26.901  26.293  1.00  0.00    -0.248 NA
ATOM     55  C   UNL A   1      48.019  24.862  25.421  1.00  0.00     0.031 C 
ATOM     56  C   UNL A   1      49.924  30.385  27.070  1.00  0.00     0.029 A 
ATOM     57  C   UNL A   1      49.122  29.285  26.816  1.00  0.00     0.049 A 
ATOM     58  H   UNL A   1      47.034  29.080  27.048  1.00  0.00     0.167 HD
ATOM     59  C   UNL A   1      48.659  26.958  26.096  1.00  0.00     0.074 A 
ATOM     60  C   UNL A   1      49.063  25.662  25.593  1.00  0.00     0.031 C 
ATOM     61  C   UNL A   1      49.511  27.989  26.316  1.00  0.00     0.031 A 
BRANCH  48  62
ATOM     62  C   UNL A   1      46.778  33.132  28.393  1.00  0.00    -0.014 A 
ATOM     63  C   UNL A   1      46.951  33.498  29.740  1.00  0.00     0.010 A 
ATOM     64  C   UNL A   1      46.801  34.134  27.406  1.00  0.00     0.010 A 
ATOM     65  C   UNL A   1      47.106  34.841  30.096  1.00  0.00     0.020 A 
ATOM     66  C   UNL A   1      46.989  35.475  27.753  1.00  0.00     0.020 A 
ATOM     67  C   UNL A   1      47.125  35.820  29.099  1.00  0.00     0.054 A 
BRANCH  67  68
ATOM     68  S   UNL A   1      47.364  37.551  29.589  1.00  0.00     0.124 S 
ATOM     69  O   UNL A   1      47.552  37.432  31.033  1.00  0.00    -0.237 OA
ATOM     70  O   UNL A   1      48.552  37.936  28.830  1.00  0.00    -0.237 OA
ATOM     71  O   UNL A   1      46.124  38.204  29.174  1.00  0.00    -0.744 OA
ENDBRANCH  67  68
ENDBRANCH  48  62
BRANCH  49  72
ATOM     72  C   UNL A   1      45.341  23.670  25.492  1.00  0.00    -0.014 A 
ATOM     73  C   UNL A   1      45.002  23.403  24.154  1.00  0.00     0.010 A 
ATOM     74  C   UNL A   1      45.479  22.594  26.388  1.00  0.00     0.010 A 
ATOM     75  C   UNL A   1      44.780  22.090  23.727  1.00  0.00     0.020 A 
ATOM     76  C   UNL A   1      45.291  21.277  25.957  1.00  0.00     0.020 A 
ATOM     77  C   UNL A   1      44.928  21.035  24.631  1.00  0.00     0.054 A 
BRANCH  77  78
ATOM     78  S   UNL A   1      44.673  19.337  24.044  1.00  0.00     0.124 S 
ATOM     79  O   UNL A   1      45.913  18.685  24.452  1.00  0.00    -0.237 OA
ATOM     80  O   UNL A   1      43.473  18.931  24.771  1.00  0.00    -0.237 OA
ATOM     81  O   UNL A   1      44.494  19.497  22.603  1.00  0.00    -0.744 OA
ENDBRANCH  77  78
ENDBRANCH  49  72
BRANCH  61  82
ATOM     82  C   UNL A   1      50.976  27.752  26.051  1.00  0.00    -0.014 A 
ATOM     83  C   UNL A   1      51.749  26.931  26.890  1.00  0.00     0.010 A 
ATOM     84  C   UNL A   1      51.570  28.316  24.906  1.00  0.00     0.010 A 
ATOM     85  C   UNL A   1      53.100  26.708  26.609  1.00  0.00     0.020 A 
ATOM     86  C   UNL A   1      52.911  28.068  24.604  1.00  0.00     0.020 A 
ATOM     87  C   UNL A   1      53.671  27.276  25.466  1.00  0.00     0.054 A 
BRANCH  87  88
ATOM     88  S   UNL A   1      55.414  26.933  25.100  1.00  0.00     0.124 S 
ATOM     89  O   UNL A   1      56.055  27.207  26.383  1.00  0.00    -0.237 OA
ATOM     90  O   UNL A   1      55.386  25.528  24.698  1.00  0.00    -0.237 OA
ATOM     91  O   UNL A   1      55.736  27.873  24.029  1.00  0.00    -0.744 OA
ENDBRANCH  87  88
ENDBRANCH  61  82
ENDBRANCH  35  36
ENDBRANCH  27  30
ENDBRANCH  25  26
ENDBRANCH  24  25
ENDBRANCH   1  24
TORSDOF 18
ENDMDL
MODEL 2
REMARK VINA RESULT:      -9.5      4.498      9.587
REMARK SMILES Cn1ccnc(N[C@H]2C=C[C@H](C(=O)NCCCCCCNC(=O)c3ccc(-c4c5nc(c(-c6ccc(S(=O)(=O)[O-])cc6)c6ccc([nH]6)c(-c6ccc(S(=O)(=O)[O-])cc6)c6nc(c(-c7ccc(S(=O)(=O)[O-])cc7)c7ccc4[nH]7)C=C6)C=C5)cc3)C2)c1=O
REMARK SMILES IDX 18 1 17 2 16 3 15 4 14 5 12 6 13 7 11 9 8 10 9 11 84 12
REMARK SMILES IDX 10 13 7 14 6 16 1 17 2 18 3 19 85 20 4 21 86 22 5 23 19 24
REMARK SMILES IDX 20 25 21 26 22 27 23 29 24 30 25 31 83 32 26 33 82 34 27 35
REMARK SMILES IDX 28 36 29 37 76 38 30 39 81 40 75 41 77 42 31 43 80 44 74 45
REMARK SMILES IDX 73 46 32 48 62 49 43 50 61 51 44 52 47 53 60 54 78 55 45 56
REMARK SMILES IDX 46 57 59 59 79 60 48 61 33 62 34 63 42 64 35 65 41 66 36 67
REMARK SMILES IDX 37 68 38 69 39 70 40 71 63 72 64 73 72 74 65 75 71 76 66 77
REMARK SMILES IDX 67 78 68 79 69 80 70 81 49 82 50 83 58 84 51 85 57 86 52 87
REMARK SMILES IDX 53 88 54 89 55 90 56 91
REMARK H PARENT 14 8 7 15 21 28 77 47 47 58
REMARK Flexibility Score: inf
ROOT
ATOM      1  C   UNL A   1      39.222  23.249  26.396  1.00  0.00     0.002 C 
ENDROOT
BRANCH   1   2
ATOM      2  C   UNL A   1      37.746  23.658  26.376  1.00  0.00     0.002 C 
BRANCH   2   3
ATOM      3  C   UNL A   1      37.061  23.553  25.010  1.00  0.00     0.021 C 
BRANCH   3   4
ATOM      4  C   UNL A   1      36.151  22.341  24.853  1.00  0.00     0.116 C 
BRANCH   4   5
ATOM      5  N   UNL A   1      35.667  21.849  26.133  1.00  0.00    -0.356 N 
ATOM      6  C   UNL A   1      34.418  21.982  26.675  1.00  0.00     0.227 C 
ATOM      7  O   UNL A   1      34.177  21.427  27.748  1.00  0.00    -0.274 OA
ATOM      8  H   UNL A   1      36.324  21.360  26.680  1.00  0.00     0.163 HD
BRANCH   6   9
ATOM      9  C   UNL A   1      33.396  22.815  25.911  1.00  0.00     0.103 C 
ATOM     10  C   UNL A   1      31.225  23.559  26.778  1.00  0.00     0.104 C 
ATOM     11  C   UNL A   1      31.077  22.360  25.917  1.00  0.00    -0.006 C 
ATOM     12  C   UNL A   1      32.714  23.906  26.756  1.00  0.00     0.046 C 
ATOM     13  C   UNL A   1      32.258  21.936  25.463  1.00  0.00    -0.016 C 
BRANCH  10  14
ATOM     14  N   UNL A   1      30.357  24.624  26.358  1.00  0.00    -0.359 N 
ATOM     15  H   UNL A   1      29.431  24.521  26.677  1.00  0.00     0.162 HD
BRANCH  14  16
ATOM     16  C   UNL A   1      30.550  25.760  25.603  1.00  0.00     0.193 A 
ATOM     17  C   UNL A   1      31.701  29.427  25.627  1.00  0.00     0.153 C 
ATOM     18  N   UNL A   1      31.193  28.139  25.200  1.00  0.00    -0.314 N 
ATOM     19  C   UNL A   1      30.792  27.925  23.907  1.00  0.00     0.109 A 
ATOM     20  C   UNL A   1      31.124  27.116  26.141  1.00  0.00     0.293 A 
ATOM     21  C   UNL A   1      30.330  26.729  23.528  1.00  0.00     0.131 A 
ATOM     22  O   UNL A   1      31.473  27.266  27.304  1.00  0.00    -0.265 OA
ATOM     23  N   UNL A   1      30.199  25.638  24.341  1.00  0.00    -0.233 NA
ENDBRANCH  14  16
ENDBRANCH  10  14
ENDBRANCH   6   9
ENDBRANCH   4   5
ENDBRANCH   3   4
ENDBRANCH   2   3
ENDBRANCH   1   2
BRANCH   1  24
ATOM     24  C   UNL A   1      39.492  21.819  26.866  1.00  0.00     0.021 C 
BRANCH  24  25
ATOM     25  C   UNL A   1      39.485  20.772  25.758  1.00  0.00     0.116 C 
BRANCH  25  26
ATOM     26  N   UNL A   1      40.365  19.653  26.052  1.00  0.00    -0.352 N 
ATOM     27  C   UNL A   1      41.705  19.658  26.351  1.00  0.00     0.251 C 
ATOM     28  H   UNL A   1      39.940  18.765  26.035  1.00  0.00     0.163 HD
ATOM     29  O   UNL A   1      42.330  18.604  26.391  1.00  0.00    -0.269 OA
BRANCH  27  30
ATOM     30  C   UNL A   1      42.394  20.943  26.599  1.00  0.00     0.039 A 
ATOM     31  C   UNL A   1      42.786  21.721  25.509  1.00  0.00     0.014 A 
ATOM     32  C   UNL A   1      42.647  21.380  27.903  1.00  0.00     0.014 A 
ATOM     33  C   UNL A   1      43.377  22.967  25.727  1.00  0.00     0.010 A 
ATOM     34  C   UNL A   1      43.164  22.654  28.118  1.00  0.00     0.010 A 
ATOM     35  C   UNL A   1      43.539  23.460  27.033  1.00  0.00    -0.014 A 
BRANCH  35  36
ATOM     36  C   UNL A   1      44.093  24.816  27.280  1.00  0.00     0.031 A 
ATOM     37  C   UNL A   1      43.188  25.937  27.718  1.00  0.00     0.074 A 
ATOM     38  C   UNL A   1      45.401  25.053  27.055  1.00  0.00     0.049 A 
ATOM     39  N   UNL A   1      43.480  27.194  27.933  1.00  0.00    -0.248 NA
ATOM     40  C   UNL A   1      41.766  25.610  27.917  1.00  0.00     0.031 C 
ATOM     41  C   UNL A   1      46.375  24.060  26.592  1.00  0.00     0.029 A 
ATOM     42  N   UNL A   1      46.139  26.204  27.180  1.00  0.00    -0.354 N 
ATOM     43  C   UNL A   1      42.281  27.808  28.279  1.00  0.00     0.074 A 
ATOM     44  C   UNL A   1      41.249  26.798  28.193  1.00  0.00     0.031 C 
ATOM     45  C   UNL A   1      47.583  24.637  26.501  1.00  0.00     0.029 A 
ATOM     46  C   UNL A   1      47.466  26.050  26.852  1.00  0.00     0.049 A 
ATOM     47  H   UNL A   1      45.755  27.060  27.477  1.00  0.00     0.167 HD
ATOM     48  C   UNL A   1      42.061  29.092  28.653  1.00  0.00     0.031 A 
ATOM     49  C   UNL A   1      48.474  26.943  26.825  1.00  0.00     0.031 A 
ATOM     50  C   UNL A   1      43.092  30.091  28.743  1.00  0.00     0.049 A 
ATOM     51  C   UNL A   1      48.199  28.368  27.223  1.00  0.00     0.074 A 
ATOM     52  C   UNL A   1      42.979  31.405  29.164  1.00  0.00     0.029 A 
ATOM     53  N   UNL A   1      44.422  29.894  28.404  1.00  0.00    -0.354 N 
ATOM     54  N   UNL A   1      47.070  28.911  27.613  1.00  0.00    -0.248 NA
ATOM     55  C   UNL A   1      49.336  29.298  27.188  1.00  0.00     0.031 C 
ATOM     56  C   UNL A   1      44.227  32.019  29.018  1.00  0.00     0.029 A 
ATOM     57  C   UNL A   1      45.133  31.069  28.577  1.00  0.00     0.049 A 
ATOM     58  H   UNL A   1      44.803  29.043  28.087  1.00  0.00     0.167 HD
ATOM     59  C   UNL A   1      47.369  30.239  27.900  1.00  0.00     0.074 A 
ATOM     60  C   UNL A   1      48.786  30.411  27.655  1.00  0.00     0.031 C 
ATOM     61  C   UNL A   1      46.545  31.227  28.330  1.00  0.00     0.031 A 
BRANCH  48  62
ATOM     62  C   UNL A   1      40.646  29.493  28.986  1.00  0.00    -0.014 A 
ATOM     63  C   UNL A   1      39.679  29.656  27.978  1.00  0.00     0.010 A 
ATOM     64  C   UNL A   1      40.265  29.654  30.330  1.00  0.00     0.010 A 
ATOM     65  C   UNL A   1      38.367  30.009  28.305  1.00  0.00     0.020 A 
ATOM     66  C   UNL A   1      38.946  29.975  30.665  1.00  0.00     0.020 A 
ATOM     67  C   UNL A   1      38.009  30.165  29.647  1.00  0.00     0.054 A 
BRANCH  67  68
ATOM     68  S   UNL A   1      36.290  30.589  30.043  1.00  0.00     0.124 S 
ATOM     69  O   UNL A   1      36.350  32.046  30.129  1.00  0.00    -0.237 OA
ATOM     70  O   UNL A   1      35.558  30.056  28.896  1.00  0.00    -0.237 OA
ATOM     71  O   UNL A   1      36.045  29.901  31.309  1.00  0.00    -0.744 OA
ENDBRANCH  67  68
ENDBRANCH  48  62
BRANCH  49  72
ATOM     72  C   UNL A   1      49.839  26.516  26.409  1.00  0.00    -0.014 A 
ATOM     73  C   UNL A   1      50.730  25.951  27.339  1.00  0.00     0.010 A 
ATOM     74  C   UNL A   1      50.257  26.674  25.074  1.00  0.00     0.010 A 
ATOM     75  C   UNL A   1      52.019  25.576  26.949  1.00  0.00     0.020 A 
ATOM     76  C   UNL A   1      51.534  26.269  24.673  1.00  0.00     0.020 A 
ATOM     77  C   UNL A   1      52.412  25.735  25.618  1.00  0.00     0.054 A 
BRANCH  77  78
ATOM     78  S   UNL A   1      54.076  25.205  25.127  1.00  0.00     0.124 S 
ATOM     79  O   UNL A   1      54.863  25.540  26.309  1.00  0.00    -0.237 OA
ATOM     80  O   UNL A   1      53.889  23.779  24.872  1.00  0.00    -0.237 OA
ATOM     81  O   UNL A   1      54.355  26.011  23.940  1.00  0.00    -0.744 OA
ENDBRANCH  77  78
ENDBRANCH  49  72
BRANCH  61  82
ATOM     82  C   UNL A   1      47.159  32.576  28.604  1.00  0.00    -0.014 A 
ATOM     83  C   UNL A   1      47.222  33.568  27.610  1.00  0.00     0.010 A 
ATOM     84  C   UNL A   1      47.626  32.871  29.898  1.00  0.00     0.010 A 
ATOM     85  C   UNL A   1      47.775  34.820  27.896  1.00  0.00     0.020 A 
ATOM     86  C   UNL A   1      48.148  34.132  30.197  1.00  0.00     0.020 A 
ATOM     87  C   UNL A   1      48.232  35.094  29.189  1.00  0.00     0.054 A 
BRANCH  87  88
ATOM     88  S   UNL A   1      48.902  36.741  29.546  1.00  0.00     0.124 S 
ATOM     89  O   UNL A   1      50.325  36.555  29.279  1.00  0.00    -0.237 OA
ATOM     90  O   UNL A   1      48.189  37.589  28.593  1.00  0.00    -0.237 OA
ATOM     91  O   UNL A   1      48.554  36.962  30.948  1.00  0.00    -0.744 OA
ENDBRANCH  87  88
ENDBRANCH  61  82
ENDBRANCH  35  36
ENDBRANCH  27  30
ENDBRANCH  25  26
ENDBRANCH  24  25
ENDBRANCH   1  24
TORSDOF 18
ENDMDL
MODEL 3
REMARK VINA RESULT:      -9.4      4.051     10.335
REMARK SMILES Cn1ccnc(N[C@H]2C=C[C@H](C(=O)NCCCCCCNC(=O)c3ccc(-c4c5nc(c(-c6ccc(S(=O)(=O)[O-])cc6)c6ccc([nH]6)c(-c6ccc(S(=O)(=O)[O-])cc6)c6nc(c(-c7ccc(S(=O)(=O)[O-])cc7)c7ccc4[nH]7)C=C6)C=C5)cc3)C2)c1=O
REMARK SMILES IDX 18 1 17 2 16 3 15 4 14 5 12 6 13 7 11 9 8 10 9 11 84 12
REMARK SMILES IDX 10 13 7 14 6 16 1 17 2 18 3 19 85 20 4 21 86 22 5 23 19 24
REMARK SMILES IDX 20 25 21 26 22 27 23 29 24 30 25 31 83 32 26 33 82 34 27 35
REMARK SMILES IDX 28 36 29 37 76 38 30 39 81 40 75 41 77 42 31 43 80 44 74 45
REMARK SMILES IDX 73 46 32 48 62 49 43 50 61 51 44 52 47 53 60 54 78 55 45 56
REMARK SMILES IDX 46 57 59 59 79 60 48 61 33 62 34 63 42 64 35 65 41 66 36 67
REMARK SMILES IDX 37 68 38 69 39 70 40 71 63 72 64 73 72 74 65 75 71 76 66 77
REMARK SMILES IDX 67 78 68 79 69 80 70 81 49 82 50 83 58 84 51 85 57 86 52 87
REMARK SMILES IDX 53 88 54 89 55 90 56 91
REMARK H PARENT 14 8 7 15 21 28 77 47 47 58
REMARK Flexibility Score: inf
ROOT
ATOM      1  C   UNL A   1      41.016  22.127  28.028  1.00  0.00     0.002 C 
ENDROOT
BRANCH   1   2
ATOM      2  C   UNL A   1      40.578  23.079  26.911  1.00  0.00     0.002 C 
BRANCH   2   3
ATOM      3  C   UNL A   1      39.369  23.957  27.243  1.00  0.00     0.021 C 
BRANCH   3   4
ATOM      4  C   UNL A   1      38.262  23.929  26.195  1.00  0.00     0.116 C 
BRANCH   4   5
ATOM      5  N   UNL A   1      37.592  22.639  26.142  1.00  0.00    -0.356 N 
ATOM      6  C   UNL A   1      36.426  22.315  25.504  1.00  0.00     0.227 C 
ATOM      7  O   UNL A   1      36.054  21.141  25.511  1.00  0.00    -0.274 OA
ATOM      8  H   UNL A   1      38.034  21.906  26.629  1.00  0.00     0.163 HD
BRANCH   6   9
ATOM      9  C   UNL A   1      35.655  23.436  24.818  1.00  0.00     0.103 C 
ATOM     10  C   UNL A   1      33.230  23.484  24.447  1.00  0.00     0.104 C 
ATOM     11  C   UNL A   1      33.952  23.063  23.222  1.00  0.00    -0.006 C 
ATOM     12  C   UNL A   1      34.311  23.779  25.488  1.00  0.00     0.046 C 
ATOM     13  C   UNL A   1      35.271  23.011  23.426  1.00  0.00    -0.016 C 
BRANCH  10  14
ATOM     14  N   UNL A   1      32.337  24.579  24.187  1.00  0.00    -0.359 N 
ATOM     15  H   UNL A   1      31.597  24.343  23.581  1.00  0.00     0.162 HD
BRANCH  14  16
ATOM     16  C   UNL A   1      32.299  25.890  24.610  1.00  0.00     0.193 A 
ATOM     17  C   UNL A   1      31.426  28.267  27.500  1.00  0.00     0.153 C 
ATOM     18  N   UNL A   1      31.849  27.748  26.216  1.00  0.00    -0.314 N 
ATOM     19  C   UNL A   1      32.252  28.584  25.208  1.00  0.00     0.109 A 
ATOM     20  C   UNL A   1      31.841  26.368  26.030  1.00  0.00     0.293 A 
ATOM     21  C   UNL A   1      32.645  28.089  24.030  1.00  0.00     0.131 A 
ATOM     22  O   UNL A   1      31.490  25.589  26.904  1.00  0.00    -0.265 OA
ATOM     23  N   UNL A   1      32.681  26.762  23.702  1.00  0.00    -0.233 NA
ENDBRANCH  14  16
ENDBRANCH  10  14
ENDBRANCH   6   9
ENDBRANCH   4   5
ENDBRANCH   3   4
ENDBRANCH   2   3
ENDBRANCH   1   2
BRANCH   1  24
ATOM     24  C   UNL A   1      41.161  20.663  27.612  1.00  0.00     0.021 C 
BRANCH  24  25
ATOM     25  C   UNL A   1      40.918  20.393  26.131  1.00  0.00     0.116 C 
BRANCH  25  26
ATOM     26  N   UNL A   1      41.983  19.605  25.533  1.00  0.00    -0.352 N 
ATOM     27  C   UNL A   1      43.239  19.998  25.144  1.00  0.00     0.251 C 
ATOM     28  H   UNL A   1      41.773  18.655  25.385  1.00  0.00     0.163 HD
ATOM     29  O   UNL A   1      43.945  19.240  24.486  1.00  0.00    -0.269 OA
BRANCH  27  30
ATOM     30  C   UNL A   1      43.727  21.348  25.500  1.00  0.00     0.039 A 
ATOM     31  C   UNL A   1      43.430  22.419  24.656  1.00  0.00     0.014 A 
ATOM     32  C   UNL A   1      44.469  21.556  26.667  1.00  0.00     0.014 A 
ATOM     33  C   UNL A   1      43.826  23.709  25.012  1.00  0.00     0.010 A 
ATOM     34  C   UNL A   1      44.794  22.851  27.059  1.00  0.00     0.010 A 
ATOM     35  C   UNL A   1      44.480  23.942  26.235  1.00  0.00    -0.014 A 
BRANCH  35  36
ATOM     36  C   UNL A   1      44.837  25.317  26.667  1.00  0.00     0.031 A 
ATOM     37  C   UNL A   1      46.201  25.878  26.363  1.00  0.00     0.074 A 
ATOM     38  C   UNL A   1      43.953  26.042  27.382  1.00  0.00     0.049 A 
ATOM     39  N   UNL A   1      46.710  27.035  26.701  1.00  0.00    -0.248 NA
ATOM     40  C   UNL A   1      47.124  25.018  25.602  1.00  0.00     0.031 C 
ATOM     41  C   UNL A   1      42.612  25.598  27.774  1.00  0.00     0.029 A 
ATOM     42  N   UNL A   1      44.049  27.306  27.911  1.00  0.00    -0.354 N 
ATOM     43  C   UNL A   1      48.010  27.037  26.207  1.00  0.00     0.074 A 
ATOM     44  C   UNL A   1      48.230  25.746  25.593  1.00  0.00     0.031 C 
ATOM     45  C   UNL A   1      42.004  26.581  28.454  1.00  0.00     0.029 A 
ATOM     46  C   UNL A   1      42.922  27.708  28.589  1.00  0.00     0.049 A 
ATOM     47  H   UNL A   1      44.849  27.871  27.815  1.00  0.00     0.167 HD
ATOM     48  C   UNL A   1      48.930  28.030  26.244  1.00  0.00     0.031 A 
ATOM     49  C   UNL A   1      42.658  28.850  29.254  1.00  0.00     0.031 A 
ATOM     50  C   UNL A   1      48.704  29.316  26.850  1.00  0.00     0.049 A 
ATOM     51  C   UNL A   1      43.705  29.929  29.300  1.00  0.00     0.074 A 
ATOM     52  C   UNL A   1      49.554  30.407  26.891  1.00  0.00     0.029 A 
ATOM     53  N   UNL A   1      47.549  29.684  27.524  1.00  0.00    -0.354 N 
ATOM     54  N   UNL A   1      44.904  29.936  28.766  1.00  0.00    -0.248 NA
ATOM     55  C   UNL A   1      43.362  31.158  30.027  1.00  0.00     0.031 C 
ATOM     56  C   UNL A   1      48.939  31.411  27.645  1.00  0.00     0.029 A 
ATOM     57  C   UNL A   1      47.677  30.973  28.010  1.00  0.00     0.049 A 
ATOM     58  H   UNL A   1      46.756  29.112  27.639  1.00  0.00     0.167 HD
ATOM     59  C   UNL A   1      45.444  31.182  29.068  1.00  0.00     0.074 A 
ATOM     60  C   UNL A   1      44.436  31.905  29.814  1.00  0.00     0.031 C 
ATOM     61  C   UNL A   1      46.664  31.683  28.752  1.00  0.00     0.031 A 
BRANCH  48  62
ATOM     62  C   UNL A   1      50.275  27.764  25.617  1.00  0.00    -0.014 A 
ATOM     63  C   UNL A   1      51.361  27.311  26.387  1.00  0.00     0.010 A 
ATOM     64  C   UNL A   1      50.440  27.914  24.228  1.00  0.00     0.010 A 
ATOM     65  C   UNL A   1      52.596  27.050  25.787  1.00  0.00     0.020 A 
ATOM     66  C   UNL A   1      51.663  27.623  23.618  1.00  0.00     0.020 A 
ATOM     67  C   UNL A   1      52.738  27.206  24.405  1.00  0.00     0.054 A 
BRANCH  67  68
ATOM     68  S   UNL A   1      54.343  26.825  23.649  1.00  0.00     0.124 S 
ATOM     69  O   UNL A   1      54.731  25.611  24.364  1.00  0.00    -0.237 OA
ATOM     70  O   UNL A   1      53.997  26.642  22.242  1.00  0.00    -0.237 OA
ATOM     71  O   UNL A   1      55.154  28.005  23.942  1.00  0.00    -0.744 OA
ENDBRANCH  67  68
ENDBRANCH  48  62
BRANCH  49  72
ATOM     72  C   UNL A   1      41.342  29.034  29.929  1.00  0.00    -0.014 A 
ATOM     73  C   UNL A   1      41.138  28.574  31.242  1.00  0.00     0.010 A 
ATOM     74  C   UNL A   1      40.283  29.674  29.259  1.00  0.00     0.010 A 
ATOM     75  C   UNL A   1      39.894  28.727  31.862  1.00  0.00     0.020 A 
ATOM     76  C   UNL A   1      39.048  29.858  29.887  1.00  0.00     0.020 A 
ATOM     77  C   UNL A   1      38.857  29.370  31.181  1.00  0.00     0.054 A 
BRANCH  77  78
ATOM     78  S   UNL A   1      37.264  29.591  32.020  1.00  0.00     0.124 S 
ATOM     79  O   UNL A   1      36.314  29.335  30.942  1.00  0.00    -0.237 OA
ATOM     80  O   UNL A   1      37.319  28.577  33.071  1.00  0.00    -0.237 OA
ATOM     81  O   UNL A   1      37.316  30.972  32.494  1.00  0.00    -0.744 OA
ENDBRANCH  77  78
ENDBRANCH  49  72
BRANCH  61  82
ATOM     82  C   UNL A   1      46.968  33.097  29.177  1.00  0.00    -0.014 A 
ATOM     83  C   UNL A   1      46.671  34.192  28.348  1.00  0.00     0.010 A 
ATOM     84  C   UNL A   1      47.508  33.332  30.456  1.00  0.00     0.010 A 
ATOM     85  C   UNL A   1      46.941  35.495  28.776  1.00  0.00     0.020 A 
ATOM     86  C   UNL A   1      47.749  34.634  30.900  1.00  0.00     0.020 A 
ATOM     87  C   UNL A   1      47.476  35.708  30.050  1.00  0.00     0.054 A 
BRANCH  87  88
ATOM     88  S   UNL A   1      47.774  37.411  30.598  1.00  0.00     0.124 S 
ATOM     89  O   UNL A   1      46.686  38.135  29.947  1.00  0.00    -0.237 OA
ATOM     90  O   UNL A   1      47.676  37.300  32.052  1.00  0.00    -0.237 OA
ATOM     91  O   UNL A   1      49.112  37.709  30.092  1.00  0.00    -0.744 OA
ENDBRANCH  87  88
ENDBRANCH  61  82
ENDBRANCH  35  36
ENDBRANCH  27  30
ENDBRANCH  25  26
ENDBRANCH  24  25
ENDBRANCH   1  24
TORSDOF 18
ENDMDL
