MODEL 1
REMARK VINA RESULT:     -10.3      0.000      0.000
REMARK SMILES O=C(NCCCCCCNC(=O)c1cc(OCc2ccc(Br)cc2F)cs1)c1ccc(-c2c3nc(c(-c4ccc(S(=O)(=O)[O-])cc4)c4ccc([nH]4)c(-c4ccc(S(=O)(=O)[O-])cc4)c4nc(c(-c5ccc(S(=O)(=O)[O-])cc5)c5ccc2[nH]5)C=C4)C=C3)cc1
REMARK SMILES IDX 6 1 5 2 4 3 3 4 1 5 2 6 28 8 29 9 87 10 30 11 86 12 31 13
REMARK SMILES IDX 32 14 33 15 80 16 34 17 85 18 79 19 81 20 35 21 84 22 78 23
REMARK SMILES IDX 77 24 36 26 66 27 47 28 65 29 48 30 51 31 64 32 82 33 49 34
REMARK SMILES IDX 50 35 63 37 83 38 52 39 37 40 38 41 46 42 39 43 45 44 40 45
REMARK SMILES IDX 41 46 42 47 43 48 44 49 67 50 68 51 76 52 69 53 75 54 70 55
REMARK SMILES IDX 71 56 72 57 73 58 74 59 53 60 54 61 62 62 55 63 61 64 56 65
REMARK SMILES IDX 57 66 58 67 59 68 60 69 7 70 8 71 9 72 10 73 11 74 12 76
REMARK SMILES IDX 13 77 14 78 27 79 15 80 26 81 16 82 17 83 18 84 19 85 24 86
REMARK SMILES IDX 20 87 23 88 25 89 21 90 22 91
REMARK H PARENT 3 7 81 25 51 36 10 75
REMARK Flexibility Score: inf
ROOT
ATOM      1  C   UNL A   1      34.723  24.052  23.712  1.00  0.00     0.002 C 
ENDROOT
BRANCH   1   2
ATOM      2  C   UNL A   1      36.113  23.425  23.815  1.00  0.00     0.021 C 
BRANCH   2   3
ATOM      3  C   UNL A   1      36.847  23.709  25.118  1.00  0.00     0.116 C 
BRANCH   3   4
ATOM      4  N   UNL A   1      37.817  22.680  25.442  1.00  0.00    -0.352 N 
ATOM      5  O   UNL A   1      39.815  21.879  26.110  1.00  0.00    -0.269 OA
ATOM      6  C   UNL A   1      39.021  22.815  26.089  1.00  0.00     0.251 C 
ATOM      7  H   UNL A   1      37.581  21.765  25.162  1.00  0.00     0.163 HD
BRANCH   6   8
ATOM      8  C   UNL A   1      39.360  24.097  26.749  1.00  0.00     0.039 A 
ATOM      9  C   UNL A   1      38.990  24.336  28.075  1.00  0.00     0.014 A 
ATOM     10  C   UNL A   1      40.084  25.058  26.039  1.00  0.00     0.014 A 
ATOM     11  C   UNL A   1      39.260  25.569  28.661  1.00  0.00     0.010 A 
ATOM     12  C   UNL A   1      40.424  26.266  26.655  1.00  0.00     0.010 A 
ATOM     13  C   UNL A   1      40.012  26.532  27.970  1.00  0.00    -0.014 A 
BRANCH  13  14
ATOM     14  C   UNL A   1      40.481  27.748  28.683  1.00  0.00     0.031 A 
ATOM     15  C   UNL A   1      39.572  28.922  28.916  1.00  0.00     0.074 A 
ATOM     16  C   UNL A   1      41.765  27.789  29.091  1.00  0.00     0.049 A 
ATOM     17  N   UNL A   1      39.850  30.070  29.478  1.00  0.00    -0.248 NA
ATOM     18  C   UNL A   1      38.180  28.799  28.458  1.00  0.00     0.031 C 
ATOM     19  C   UNL A   1      42.744  26.711  28.905  1.00  0.00     0.029 A 
ATOM     20  N   UNL A   1      42.475  28.768  29.740  1.00  0.00    -0.354 N 
ATOM     21  C   UNL A   1      38.680  30.819  29.418  1.00  0.00     0.074 A 
ATOM     22  C   UNL A   1      37.689  29.996  28.757  1.00  0.00     0.031 C 
ATOM     23  C   UNL A   1      43.916  27.080  29.441  1.00  0.00     0.029 A 
ATOM     24  C   UNL A   1      43.796  28.442  29.944  1.00  0.00     0.049 A 
ATOM     25  H   UNL A   1      42.078  29.619  30.031  1.00  0.00     0.167 HD
ATOM     26  C   UNL A   1      38.463  32.078  29.869  1.00  0.00     0.031 A 
ATOM     27  C   UNL A   1      44.815  29.169  30.440  1.00  0.00     0.031 A 
ATOM     28  C   UNL A   1      39.460  32.883  30.530  1.00  0.00     0.049 A 
ATOM     29  C   UNL A   1      44.550  30.578  30.890  1.00  0.00     0.074 A 
ATOM     30  C   UNL A   1      39.311  34.142  31.088  1.00  0.00     0.029 A 
ATOM     31  N   UNL A   1      40.788  32.525  30.703  1.00  0.00    -0.354 N 
ATOM     32  N   UNL A   1      43.415  31.233  30.907  1.00  0.00    -0.248 NA
ATOM     33  C   UNL A   1      45.700  31.346  31.384  1.00  0.00     0.031 C 
ATOM     34  C   UNL A   1      40.564  34.575  31.528  1.00  0.00     0.029 A 
ATOM     35  C   UNL A   1      41.480  33.559  31.310  1.00  0.00     0.049 A 
ATOM     36  H   UNL A   1      41.180  31.663  30.433  1.00  0.00     0.167 HD
ATOM     37  C   UNL A   1      43.712  32.489  31.423  1.00  0.00     0.074 A 
ATOM     38  C   UNL A   1      45.127  32.489  31.734  1.00  0.00     0.031 C 
ATOM     39  C   UNL A   1      42.889  33.547  31.614  1.00  0.00     0.031 A 
BRANCH  26  40
ATOM     40  C   UNL A   1      37.108  32.698  29.642  1.00  0.00    -0.014 A 
ATOM     41  C   UNL A   1      36.122  32.694  30.644  1.00  0.00     0.010 A 
ATOM     42  C   UNL A   1      36.861  33.396  28.444  1.00  0.00     0.010 A 
ATOM     43  C   UNL A   1      34.909  33.361  30.446  1.00  0.00     0.020 A 
ATOM     44  C   UNL A   1      35.660  34.084  28.251  1.00  0.00     0.020 A 
ATOM     45  C   UNL A   1      34.688  34.056  29.252  1.00  0.00     0.054 A 
BRANCH  45  46
ATOM     46  S   UNL A   1      33.128  34.961  29.048  1.00  0.00     0.124 S 
ATOM     47  O   UNL A   1      33.596  36.272  28.603  1.00  0.00    -0.237 OA
ATOM     48  O   UNL A   1      32.429  34.168  28.039  1.00  0.00    -0.237 OA
ATOM     49  O   UNL A   1      32.532  34.934  30.381  1.00  0.00    -0.744 OA
ENDBRANCH  45  46
ENDBRANCH  26  40
BRANCH  27  50
ATOM     50  C   UNL A   1      46.189  28.597  30.477  1.00  0.00    -0.014 A 
ATOM     51  C   UNL A   1      46.652  27.902  31.606  1.00  0.00     0.010 A 
ATOM     52  C   UNL A   1      47.048  28.756  29.372  1.00  0.00     0.010 A 
ATOM     53  C   UNL A   1      47.958  27.404  31.643  1.00  0.00     0.020 A 
ATOM     54  C   UNL A   1      48.341  28.228  29.390  1.00  0.00     0.020 A 
ATOM     55  C   UNL A   1      48.795  27.574  30.535  1.00  0.00     0.054 A 
BRANCH  55  56
ATOM     56  S   UNL A   1      50.479  26.904  30.599  1.00  0.00     0.124 S 
ATOM     57  O   UNL A   1      51.276  28.112  30.790  1.00  0.00    -0.237 OA
ATOM     58  O   UNL A   1      50.416  26.000  31.744  1.00  0.00    -0.237 OA
ATOM     59  O   UNL A   1      50.636  26.248  29.304  1.00  0.00    -0.744 OA
ENDBRANCH  55  56
ENDBRANCH  27  50
BRANCH  39  60
ATOM     60  C   UNL A   1      43.490  34.796  32.201  1.00  0.00    -0.014 A 
ATOM     61  C   UNL A   1      44.013  35.805  31.375  1.00  0.00     0.010 A 
ATOM     62  C   UNL A   1      43.467  34.992  33.594  1.00  0.00     0.010 A 
ATOM     63  C   UNL A   1      44.514  36.984  31.932  1.00  0.00     0.020 A 
ATOM     64  C   UNL A   1      43.938  36.182  34.153  1.00  0.00     0.020 A 
ATOM     65  C   UNL A   1      44.467  37.168  33.317  1.00  0.00     0.054 A 
BRANCH  65  66
ATOM     66  S   UNL A   1      45.054  38.739  34.007  1.00  0.00     0.124 S 
ATOM     67  O   UNL A   1      45.732  39.341  32.862  1.00  0.00    -0.237 OA
ATOM     68  O   UNL A   1      43.813  39.391  34.417  1.00  0.00    -0.237 OA
ATOM     69  O   UNL A   1      45.929  38.331  35.104  1.00  0.00    -0.744 OA
ENDBRANCH  65  66
ENDBRANCH  39  60
ENDBRANCH  13  14
ENDBRANCH   6   8
ENDBRANCH   3   4
ENDBRANCH   2   3
ENDBRANCH   1   2
BRANCH   1  70
ATOM     70  C   UNL A   1      33.917  23.655  22.472  1.00  0.00     0.002 C 
BRANCH  70  71
ATOM     71  C   UNL A   1      32.688  24.521  22.180  1.00  0.00     0.021 C 
BRANCH  71  72
ATOM     72  C   UNL A   1      32.999  25.926  21.668  1.00  0.00     0.116 C 
BRANCH  72  73
ATOM     73  N   UNL A   1      31.851  26.813  21.780  1.00  0.00    -0.351 N 
ATOM     74  C   UNL A   1      31.029  27.028  22.862  1.00  0.00     0.261 C 
ATOM     75  H   UNL A   1      31.632  27.329  20.971  1.00  0.00     0.163 HD
ATOM     76  O   UNL A   1      29.990  27.668  22.682  1.00  0.00    -0.268 OA
BRANCH  74  77
ATOM     77  C   UNL A   1      31.441  26.498  24.142  1.00  0.00     0.096 A 
ATOM     78  C   UNL A   1      30.931  25.409  24.822  1.00  0.00     0.072 A 
ATOM     79  S   UNL A   1      32.712  27.241  25.009  1.00  0.00    -0.135 S 
ATOM     80  C   UNL A   1      31.441  25.318  26.146  1.00  0.00     0.131 A 
ATOM     81  C   UNL A   1      32.449  26.229  26.366  1.00  0.00     0.112 A 
BRANCH  80  82
ATOM     82  O   UNL A   1      31.057  24.497  27.157  1.00  0.00    -0.488 OA
BRANCH  82  83
ATOM     83  C   UNL A   1      30.751  23.148  26.776  1.00  0.00     0.268 C 
BRANCH  83  84
ATOM     84  C   UNL A   1      31.944  22.359  26.283  1.00  0.00     0.025 A 
ATOM     85  C   UNL A   1      31.931  21.703  25.045  1.00  0.00     0.011 A 
ATOM     86  C   UNL A   1      33.077  22.227  27.095  1.00  0.00     0.130 A 
ATOM     87  C   UNL A   1      33.030  20.942  24.635  1.00  0.00     0.016 A 
ATOM     88  C   UNL A   1      34.174  21.467  26.701  1.00  0.00     0.055 A 
ATOM     89  F   UNL A   1      33.124  22.860  28.275  1.00  0.00    -0.207 F 
ATOM     90  C   UNL A   1      34.140  20.820  25.470  1.00  0.00     0.020 A 
ATOM     91  Br  UNL A   1      35.599  19.746  24.928  1.00  0.00    -0.051 Br
ENDBRANCH  83  84
ENDBRANCH  82  83
ENDBRANCH  80  82
ENDBRANCH  74  77
ENDBRANCH  72  73
ENDBRANCH  71  72
ENDBRANCH  70  71
ENDBRANCH   1  70
TORSDOF 19
ENDMDL
MODEL 2
REMARK VINA RESULT:     -10.1      2.025      3.053
REMARK SMILES O=C(NCCCCCCNC(=O)c1cc(OCc2ccc(Br)cc2F)cs1)c1ccc(-c2c3nc(c(-c4ccc(S(=O)(=O)[O-])cc4)c4ccc([nH]4)c(-c4ccc(S(=O)(=O)[O-])cc4)c4nc(c(-c5ccc(S(=O)(=O)[O-])cc5)c5ccc2[nH]5)C=C4)C=C3)cc1
REMARK SMILES IDX 6 1 5 2 4 3 3 4 1 5 2 6 28 8 29 9 87 10 30 11 86 12 31 13
REMARK SMILES IDX 32 14 33 15 80 16 34 17 85 18 79 19 81 20 35 21 84 22 78 23
REMARK SMILES IDX 77 24 36 26 66 27 47 28 65 29 48 30 51 31 64 32 82 33 49 34
REMARK SMILES IDX 50 35 63 37 83 38 52 39 37 40 38 41 46 42 39 43 45 44 40 45
REMARK SMILES IDX 41 46 42 47 43 48 44 49 67 50 68 51 76 52 69 53 75 54 70 55
REMARK SMILES IDX 71 56 72 57 73 58 74 59 53 60 54 61 62 62 55 63 61 64 56 65
REMARK SMILES IDX 57 66 58 67 59 68 60 69 7 70 8 71 9 72 10 73 11 74 12 76
REMARK SMILES IDX 13 77 14 78 27 79 15 80 26 81 16 82 17 83 18 84 19 85 24 86
REMARK SMILES IDX 20 87 23 88 25 89 21 90 22 91
REMARK H PARENT 3 7 81 25 51 36 10 75
REMARK Flexibility Score: inf
ROOT
ATOM      1  C   UNL A   1      35.110  21.639  26.060  1.00  0.00     0.002 C 
ENDROOT
BRANCH   1   2
ATOM      2  C   UNL A   1      35.218  23.076  25.547  1.00  0.00     0.021 C 
BRANCH   2   3
ATOM      3  C   UNL A   1      36.578  23.728  25.757  1.00  0.00     0.116 C 
BRANCH   3   4
ATOM      4  N   UNL A   1      37.645  22.752  25.879  1.00  0.00    -0.352 N 
ATOM      5  O   UNL A   1      39.770  22.060  26.173  1.00  0.00    -0.269 OA
ATOM      6  C   UNL A   1      38.932  22.946  26.317  1.00  0.00     0.251 C 
ATOM      7  H   UNL A   1      37.416  21.832  25.613  1.00  0.00     0.163 HD
BRANCH   6   8
ATOM      8  C   UNL A   1      39.306  24.231  26.951  1.00  0.00     0.039 A 
ATOM      9  C   UNL A   1      39.000  24.481  28.292  1.00  0.00     0.014 A 
ATOM     10  C   UNL A   1      39.999  25.185  26.201  1.00  0.00     0.014 A 
ATOM     11  C   UNL A   1      39.302  25.716  28.856  1.00  0.00     0.010 A 
ATOM     12  C   UNL A   1      40.372  26.396  26.792  1.00  0.00     0.010 A 
ATOM     13  C   UNL A   1      40.023  26.672  28.123  1.00  0.00    -0.014 A 
BRANCH  13  14
ATOM     14  C   UNL A   1      40.529  27.891  28.805  1.00  0.00     0.031 A 
ATOM     15  C   UNL A   1      39.638  29.071  29.070  1.00  0.00     0.074 A 
ATOM     16  C   UNL A   1      41.831  27.929  29.154  1.00  0.00     0.049 A 
ATOM     17  N   UNL A   1      39.945  30.223  29.609  1.00  0.00    -0.248 NA
ATOM     18  C   UNL A   1      38.225  28.952  28.675  1.00  0.00     0.031 C 
ATOM     19  C   UNL A   1      42.796  26.845  28.932  1.00  0.00     0.029 A 
ATOM     20  N   UNL A   1      42.574  28.909  29.762  1.00  0.00    -0.354 N 
ATOM     21  C   UNL A   1      38.777  30.976  29.596  1.00  0.00     0.074 A 
ATOM     22  C   UNL A   1      37.754  30.153  28.987  1.00  0.00     0.031 C 
ATOM     23  C   UNL A   1      43.992  27.212  29.411  1.00  0.00     0.029 A 
ATOM     24  C   UNL A   1      43.901  28.579  29.909  1.00  0.00     0.049 A 
ATOM     25  H   UNL A   1      42.194  29.765  30.064  1.00  0.00     0.167 HD
ATOM     26  C   UNL A   1      38.587  32.240  30.046  1.00  0.00     0.031 A 
ATOM     27  C   UNL A   1      44.945  29.305  30.353  1.00  0.00     0.031 A 
ATOM     28  C   UNL A   1      39.616  33.045  30.656  1.00  0.00     0.049 A 
ATOM     29  C   UNL A   1      44.707  30.718  30.803  1.00  0.00     0.074 A 
ATOM     30  C   UNL A   1      39.498  34.309  31.210  1.00  0.00     0.029 A 
ATOM     31  N   UNL A   1      40.949  32.682  30.771  1.00  0.00    -0.354 N 
ATOM     32  N   UNL A   1      43.576  31.379  30.866  1.00  0.00    -0.248 NA
ATOM     33  C   UNL A   1      45.882  31.485  31.239  1.00  0.00     0.031 C 
ATOM     34  C   UNL A   1      40.772  34.740  31.590  1.00  0.00     0.029 A 
ATOM     35  C   UNL A   1      41.672  33.717  31.338  1.00  0.00     0.049 A 
ATOM     36  H   UNL A   1      41.325  31.816  30.491  1.00  0.00     0.167 HD
ATOM     37  C   UNL A   1      43.903  32.637  31.359  1.00  0.00     0.074 A 
ATOM     38  C   UNL A   1      45.330  32.633  31.605  1.00  0.00     0.031 C 
ATOM     39  C   UNL A   1      43.093  33.701  31.578  1.00  0.00     0.031 A 
BRANCH  26  40
ATOM     40  C   UNL A   1      37.226  32.865  29.877  1.00  0.00    -0.014 A 
ATOM     41  C   UNL A   1      36.284  32.868  30.921  1.00  0.00     0.010 A 
ATOM     42  C   UNL A   1      36.929  33.558  28.688  1.00  0.00     0.010 A 
ATOM     43  C   UNL A   1      35.067  33.540  30.773  1.00  0.00     0.020 A 
ATOM     44  C   UNL A   1      35.724  34.251  28.545  1.00  0.00     0.020 A 
ATOM     45  C   UNL A   1      34.796  34.231  29.587  1.00  0.00     0.054 A 
BRANCH  45  46
ATOM     46  S   UNL A   1      33.233  35.142  29.447  1.00  0.00     0.124 S 
ATOM     47  O   UNL A   1      32.669  34.981  30.785  1.00  0.00    -0.237 OA
ATOM     48  O   UNL A   1      33.680  36.493  29.114  1.00  0.00    -0.237 OA
ATOM     49  O   UNL A   1      32.516  34.445  28.383  1.00  0.00    -0.744 OA
ENDBRANCH  45  46
ENDBRANCH  26  40
BRANCH  27  50
ATOM     50  C   UNL A   1      46.317  28.727  30.331  1.00  0.00    -0.014 A 
ATOM     51  C   UNL A   1      46.819  28.019  31.436  1.00  0.00     0.010 A 
ATOM     52  C   UNL A   1      47.134  28.892  29.196  1.00  0.00     0.010 A 
ATOM     53  C   UNL A   1      48.124  27.515  31.418  1.00  0.00     0.020 A 
ATOM     54  C   UNL A   1      48.424  28.359  29.160  1.00  0.00     0.020 A 
ATOM     55  C   UNL A   1      48.918  27.691  30.281  1.00  0.00     0.054 A 
BRANCH  55  56
ATOM     56  S   UNL A   1      50.600  27.014  30.275  1.00  0.00     0.124 S 
ATOM     57  O   UNL A   1      51.302  27.958  29.411  1.00  0.00    -0.237 OA
ATOM     58  O   UNL A   1      50.963  27.058  31.688  1.00  0.00    -0.237 OA
ATOM     59  O   UNL A   1      50.426  25.672  29.725  1.00  0.00    -0.744 OA
ENDBRANCH  55  56
ENDBRANCH  27  50
BRANCH  39  60
ATOM     60  C   UNL A   1      43.726  34.951  32.128  1.00  0.00    -0.014 A 
ATOM     61  C   UNL A   1      44.174  35.972  31.272  1.00  0.00     0.010 A 
ATOM     62  C   UNL A   1      43.809  35.136  33.520  1.00  0.00     0.010 A 
ATOM     63  C   UNL A   1      44.705  37.152  31.799  1.00  0.00     0.020 A 
ATOM     64  C   UNL A   1      44.311  36.326  34.051  1.00  0.00     0.020 A 
ATOM     65  C   UNL A   1      44.763  37.324  33.185  1.00  0.00     0.054 A 
BRANCH  65  66
ATOM     66  S   UNL A   1      45.387  38.895  33.842  1.00  0.00     0.124 S 
ATOM     67  O   UNL A   1      46.479  39.199  32.920  1.00  0.00    -0.237 OA
ATOM     68  O   UNL A   1      44.220  39.768  33.742  1.00  0.00    -0.237 OA
ATOM     69  O   UNL A   1      45.797  38.565  35.204  1.00  0.00    -0.744 OA
ENDBRANCH  65  66
ENDBRANCH  39  60
ENDBRANCH  13  14
ENDBRANCH   6   8
ENDBRANCH   3   4
ENDBRANCH   2   3
ENDBRANCH   1   2
BRANCH   1  70
ATOM     70  C   UNL A   1      35.091  20.559  24.975  1.00  0.00     0.002 C 
BRANCH  70  71
ATOM     71  C   UNL A   1      33.969  19.523  25.097  1.00  0.00     0.021 C 
BRANCH  71  72
ATOM     72  C   UNL A   1      32.577  20.041  24.740  1.00  0.00     0.116 C 
BRANCH  72  73
ATOM     73  N   UNL A   1      32.323  19.978  23.309  1.00  0.00    -0.351 N 
ATOM     74  C   UNL A   1      32.056  21.006  22.433  1.00  0.00     0.261 C 
ATOM     75  H   UNL A   1      32.344  19.078  22.913  1.00  0.00     0.163 HD
ATOM     76  O   UNL A   1      31.669  20.715  21.299  1.00  0.00    -0.268 OA
BRANCH  74  77
ATOM     77  C   UNL A   1      32.257  22.360  22.897  1.00  0.00     0.096 A 
ATOM     78  C   UNL A   1      31.549  23.046  23.865  1.00  0.00     0.072 A 
ATOM     79  S   UNL A   1      33.500  23.321  22.227  1.00  0.00    -0.135 S 
ATOM     80  C   UNL A   1      31.893  24.425  23.901  1.00  0.00     0.131 A 
ATOM     81  C   UNL A   1      32.970  24.702  23.090  1.00  0.00     0.112 A 
BRANCH  80  82
ATOM     82  O   UNL A   1      31.304  25.437  24.589  1.00  0.00    -0.488 OA
BRANCH  82  83
ATOM     83  C   UNL A   1      31.697  25.562  25.963  1.00  0.00     0.268 C 
BRANCH  83  84
ATOM     84  C   UNL A   1      32.359  26.881  26.299  1.00  0.00     0.025 A 
ATOM     85  C   UNL A   1      33.653  27.189  25.857  1.00  0.00     0.011 A 
ATOM     86  C   UNL A   1      31.696  27.807  27.114  1.00  0.00     0.130 A 
ATOM     87  C   UNL A   1      34.257  28.395  26.221  1.00  0.00     0.016 A 
ATOM     88  C   UNL A   1      32.290  29.008  27.489  1.00  0.00     0.055 A 
ATOM     89  F   UNL A   1      30.450  27.547  27.534  1.00  0.00    -0.207 F 
ATOM     90  C   UNL A   1      33.577  29.293  27.044  1.00  0.00     0.020 A 
ATOM     91  Br  UNL A   1      34.425  30.897  27.572  1.00  0.00    -0.051 Br
ENDBRANCH  83  84
ENDBRANCH  82  83
ENDBRANCH  80  82
ENDBRANCH  74  77
ENDBRANCH  72  73
ENDBRANCH  71  72
ENDBRANCH  70  71
ENDBRANCH   1  70
TORSDOF 19
ENDMDL
MODEL 3
REMARK VINA RESULT:     -10.1      2.210      8.738
REMARK SMILES O=C(NCCCCCCNC(=O)c1cc(OCc2ccc(Br)cc2F)cs1)c1ccc(-c2c3nc(c(-c4ccc(S(=O)(=O)[O-])cc4)c4ccc([nH]4)c(-c4ccc(S(=O)(=O)[O-])cc4)c4nc(c(-c5ccc(S(=O)(=O)[O-])cc5)c5ccc2[nH]5)C=C4)C=C3)cc1
REMARK SMILES IDX 6 1 5 2 4 3 3 4 1 5 2 6 28 8 29 9 87 10 30 11 86 12 31 13
REMARK SMILES IDX 32 14 33 15 80 16 34 17 85 18 79 19 81 20 35 21 84 22 78 23
REMARK SMILES IDX 77 24 36 26 66 27 47 28 65 29 48 30 51 31 64 32 82 33 49 34
REMARK SMILES IDX 50 35 63 37 83 38 52 39 37 40 38 41 46 42 39 43 45 44 40 45
REMARK SMILES IDX 41 46 42 47 43 48 44 49 67 50 68 51 76 52 69 53 75 54 70 55
REMARK SMILES IDX 71 56 72 57 73 58 74 59 53 60 54 61 62 62 55 63 61 64 56 65
REMARK SMILES IDX 57 66 58 67 59 68 60 69 7 70 8 71 9 72 10 73 11 74 12 76
REMARK SMILES IDX 13 77 14 78 27 79 15 80 26 81 16 82 17 83 18 84 19 85 24 86
REMARK SMILES IDX 20 87 23 88 25 89 21 90 22 91
REMARK H PARENT 3 7 81 25 51 36 10 75
REMARK Flexibility Score: inf
ROOT
ATOM      1  C   UNL A   1      35.146  22.077  25.460  1.00  0.00     0.002 C 
ENDROOT
BRANCH   1   2
ATOM      2  C   UNL A   1      35.614  23.466  25.896  1.00  0.00     0.021 C 
BRANCH   2   3
ATOM      3  C   UNL A   1      36.956  23.897  25.320  1.00  0.00     0.116 C 
BRANCH   3   4
ATOM      4  N   UNL A   1      37.980  22.882  25.485  1.00  0.00    -0.352 N 
ATOM      5  O   UNL A   1      40.047  22.107  25.938  1.00  0.00    -0.269 OA
ATOM      6  C   UNL A   1      39.224  23.010  26.053  1.00  0.00     0.251 C 
ATOM      7  H   UNL A   1      37.753  21.986  25.146  1.00  0.00     0.163 HD
BRANCH   6   8
ATOM      8  C   UNL A   1      39.570  24.246  26.793  1.00  0.00     0.039 A 
ATOM      9  C   UNL A   1      39.125  24.440  28.104  1.00  0.00     0.014 A 
ATOM     10  C   UNL A   1      40.375  25.207  26.176  1.00  0.00     0.014 A 
ATOM     11  C   UNL A   1      39.406  25.633  28.764  1.00  0.00     0.010 A 
ATOM     12  C   UNL A   1      40.722  26.370  26.869  1.00  0.00     0.010 A 
ATOM     13  C   UNL A   1      40.237  26.594  28.167  1.00  0.00    -0.014 A 
BRANCH  13  14
ATOM     14  C   UNL A   1      40.707  27.755  28.965  1.00  0.00     0.031 A 
ATOM     15  C   UNL A   1      42.022  27.730  29.692  1.00  0.00     0.074 A 
ATOM     16  C   UNL A   1      39.901  28.833  29.052  1.00  0.00     0.049 A 
ATOM     17  N   UNL A   1      42.544  28.645  30.467  1.00  0.00    -0.248 NA
ATOM     18  C   UNL A   1      42.855  26.527  29.539  1.00  0.00     0.031 C 
ATOM     19  C   UNL A   1      38.593  28.962  28.399  1.00  0.00     0.029 A 
ATOM     20  N   UNL A   1      40.052  30.021  29.722  1.00  0.00    -0.354 N 
ATOM     21  C   UNL A   1      43.751  28.123  30.918  1.00  0.00     0.074 A 
ATOM     22  C   UNL A   1      43.881  26.805  30.334  1.00  0.00     0.031 C 
ATOM     23  C   UNL A   1      38.072  30.164  28.685  1.00  0.00     0.029 A 
ATOM     24  C   UNL A   1      38.970  30.862  29.597  1.00  0.00     0.049 A 
ATOM     25  H   UNL A   1      40.855  30.249  30.242  1.00  0.00     0.167 HD
ATOM     26  C   UNL A   1      44.658  28.694  31.746  1.00  0.00     0.031 A 
ATOM     27  C   UNL A   1      38.703  32.044  30.181  1.00  0.00     0.031 A 
ATOM     28  C   UNL A   1      44.516  30.011  32.316  1.00  0.00     0.049 A 
ATOM     29  C   UNL A   1      39.710  32.629  31.130  1.00  0.00     0.074 A 
ATOM     30  C   UNL A   1      45.418  30.704  33.106  1.00  0.00     0.029 A 
ATOM     31  N   UNL A   1      43.401  30.824  32.178  1.00  0.00    -0.354 N 
ATOM     32  N   UNL A   1      40.886  32.159  31.470  1.00  0.00    -0.248 NA
ATOM     33  C   UNL A   1      39.356  33.900  31.776  1.00  0.00     0.031 C 
ATOM     34  C   UNL A   1      44.817  31.900  33.509  1.00  0.00     0.029 A 
ATOM     35  C   UNL A   1      43.570  31.985  32.912  1.00  0.00     0.049 A 
ATOM     36  H   UNL A   1      42.606  30.606  31.639  1.00  0.00     0.167 HD
ATOM     37  C   UNL A   1      41.417  33.083  32.362  1.00  0.00     0.074 A 
ATOM     38  C   UNL A   1      40.448  34.152  32.484  1.00  0.00     0.031 C 
ATOM     39  C   UNL A   1      42.597  33.042  33.026  1.00  0.00     0.031 A 
BRANCH  26  40
ATOM     40  C   UNL A   1      45.881  27.901  32.129  1.00  0.00    -0.014 A 
ATOM     41  C   UNL A   1      47.072  27.985  31.388  1.00  0.00     0.010 A 
ATOM     42  C   UNL A   1      45.868  27.145  33.318  1.00  0.00     0.010 A 
ATOM     43  C   UNL A   1      48.222  27.316  31.820  1.00  0.00     0.020 A 
ATOM     44  C   UNL A   1      47.021  26.495  33.765  1.00  0.00     0.020 A 
ATOM     45  C   UNL A   1      48.190  26.579  33.008  1.00  0.00     0.054 A 
BRANCH  45  46
ATOM     46  S   UNL A   1      49.714  25.771  33.572  1.00  0.00     0.124 S 
ATOM     47  O   UNL A   1      50.545  26.915  33.938  1.00  0.00    -0.237 OA
ATOM     48  O   UNL A   1      49.246  24.953  34.690  1.00  0.00    -0.237 OA
ATOM     49  O   UNL A   1      50.166  25.022  32.402  1.00  0.00    -0.744 OA
ENDBRANCH  45  46
ENDBRANCH  26  40
BRANCH  27  50
ATOM     50  C   UNL A   1      37.399  32.720  29.933  1.00  0.00    -0.014 A 
ATOM     51  C   UNL A   1      36.264  32.399  30.696  1.00  0.00     0.010 A 
ATOM     52  C   UNL A   1      37.289  33.689  28.918  1.00  0.00     0.010 A 
ATOM     53  C   UNL A   1      35.036  33.011  30.426  1.00  0.00     0.020 A 
ATOM     54  C   UNL A   1      36.074  34.330  28.670  1.00  0.00     0.020 A 
ATOM     55  C   UNL A   1      34.949  33.971  29.413  1.00  0.00     0.054 A 
BRANCH  55  56
ATOM     56  S   UNL A   1      33.350  34.764  29.094  1.00  0.00     0.124 S 
ATOM     57  O   UNL A   1      32.705  33.798  28.211  1.00  0.00    -0.237 OA
ATOM     58  O   UNL A   1      32.781  34.878  30.434  1.00  0.00    -0.237 OA
ATOM     59  O   UNL A   1      33.717  36.034  28.471  1.00  0.00    -0.744 OA
ENDBRANCH  55  56
ENDBRANCH  27  50
BRANCH  39  60
ATOM     60  C   UNL A   1      42.919  34.197  33.937  1.00  0.00    -0.014 A 
ATOM     61  C   UNL A   1      42.678  34.117  35.319  1.00  0.00     0.010 A 
ATOM     62  C   UNL A   1      43.536  35.347  33.412  1.00  0.00     0.010 A 
ATOM     63  C   UNL A   1      43.037  35.174  36.160  1.00  0.00     0.020 A 
ATOM     64  C   UNL A   1      43.924  36.392  34.253  1.00  0.00     0.020 A 
ATOM     65  C   UNL A   1      43.664  36.301  35.622  1.00  0.00     0.054 A 
BRANCH  65  66
ATOM     66  S   UNL A   1      44.188  37.625  36.746  1.00  0.00     0.124 S 
ATOM     67  O   UNL A   1      45.496  37.150  37.189  1.00  0.00    -0.237 OA
ATOM     68  O   UNL A   1      44.207  38.796  35.873  1.00  0.00    -0.237 OA
ATOM     69  O   UNL A   1      43.150  37.639  37.775  1.00  0.00    -0.744 OA
ENDBRANCH  65  66
ENDBRANCH  39  60
ENDBRANCH  13  14
ENDBRANCH   6   8
ENDBRANCH   3   4
ENDBRANCH   2   3
ENDBRANCH   1   2
BRANCH   1  70
ATOM     70  C   UNL A   1      34.399  21.274  26.528  1.00  0.00     0.002 C 
BRANCH  70  71
ATOM     71  C   UNL A   1      33.258  20.393  26.012  1.00  0.00     0.021 C 
BRANCH  71  72
ATOM     72  C   UNL A   1      32.178  21.136  25.228  1.00  0.00     0.116 C 
BRANCH  72  73
ATOM     73  N   UNL A   1      32.169  20.759  23.822  1.00  0.00    -0.351 N 
ATOM     74  C   UNL A   1      32.070  21.567  22.712  1.00  0.00     0.261 C 
ATOM     75  H   UNL A   1      32.244  19.795  23.641  1.00  0.00     0.163 HD
ATOM     76  O   UNL A   1      31.877  21.029  21.620  1.00  0.00    -0.268 OA
BRANCH  74  77
ATOM     77  C   UNL A   1      32.210  22.994  22.898  1.00  0.00     0.096 A 
ATOM     78  C   UNL A   1      31.246  23.904  23.288  1.00  0.00     0.072 A 
ATOM     79  S   UNL A   1      33.716  23.751  22.625  1.00  0.00    -0.135 S 
ATOM     80  C   UNL A   1      31.694  25.246  23.155  1.00  0.00     0.131 A 
ATOM     81  C   UNL A   1      33.033  25.307  22.842  1.00  0.00     0.112 A 
BRANCH  80  82
ATOM     82  O   UNL A   1      30.989  26.400  23.277  1.00  0.00    -0.488 OA
BRANCH  82  83
ATOM     83  C   UNL A   1      30.551  26.721  24.605  1.00  0.00     0.268 C 
BRANCH  83  84
ATOM     84  C   UNL A   1      31.454  27.689  25.337  1.00  0.00     0.025 A 
ATOM     85  C   UNL A   1      31.388  29.071  25.111  1.00  0.00     0.011 A 
ATOM     86  C   UNL A   1      32.420  27.206  26.228  1.00  0.00     0.130 A 
ATOM     87  C   UNL A   1      32.266  29.938  25.767  1.00  0.00     0.016 A 
ATOM     88  C   UNL A   1      33.304  28.059  26.882  1.00  0.00     0.055 A 
ATOM     89  F   UNL A   1      32.492  25.891  26.478  1.00  0.00    -0.207 F 
ATOM     90  C   UNL A   1      33.226  29.427  26.640  1.00  0.00     0.020 A 
ATOM     91  Br  UNL A   1      34.441  30.605  27.482  1.00  0.00    -0.051 Br
ENDBRANCH  83  84
ENDBRANCH  82  83
ENDBRANCH  80  82
ENDBRANCH  74  77
ENDBRANCH  72  73
ENDBRANCH  71  72
ENDBRANCH  70  71
ENDBRANCH   1  70
TORSDOF 19
ENDMDL
