MODEL 1
REMARK VINA RESULT:     -12.5      0.000      0.000
REMARK SMILES COc1cc2c(CC(=O)NCCCCCCNC(=O)c3ccc(-c4c5nc(c(-c6ccc(S(=O)(=O)[O-])cc6)c6ccc([nH]6)c(-c6ccc(S(=O)(=O)[O-])cc6)c6nc(c(-c7ccc(S(=O)(=O)[O-])cc7)c7ccc4[nH]7)C=C6)C=C5)cc3)c(C)n(C(=O)c3ccc(Cl)cc3)c2cc1Cl
REMARK SMILES IDX 13 1 12 2 11 3 10 4 8 5 9 6 7 8 6 9 3 10 4 11 94 12 5 13
REMARK SMILES IDX 93 14 95 15 92 16 80 17 82 18 81 19 2 20 1 21 83 22 84 23
REMARK SMILES IDX 85 24 86 25 91 26 87 27 90 28 88 29 89 30 14 31 15 32 16 33
REMARK SMILES IDX 17 34 18 35 19 37 20 38 21 39 79 40 22 41 78 42 23 43 24 44
REMARK SMILES IDX 25 45 72 46 26 47 77 48 71 49 73 50 27 51 76 52 70 53 69 54
REMARK SMILES IDX 28 56 58 57 39 58 57 59 40 60 43 61 56 62 74 63 41 64 42 65
REMARK SMILES IDX 55 67 75 68 44 69 29 70 30 71 38 72 31 73 37 74 32 75 33 76
REMARK SMILES IDX 34 77 35 78 36 79 59 80 60 81 68 82 61 83 67 84 62 85 63 86
REMARK SMILES IDX 64 87 65 88 66 89 45 90 46 91 54 92 47 93 53 94 48 95 49 96
REMARK SMILES IDX 50 97 51 98 52 99
REMARK H PARENT 10 7 17 36 73 55 43 66
REMARK Flexibility Score: inf
ROOT
ATOM      1  C   UNL A   1      31.434  28.015  26.206  1.00  0.00     0.002 C 
ENDROOT
BRANCH   1   2
ATOM      2  C   UNL A   1      30.854  27.223  25.029  1.00  0.00     0.021 C 
BRANCH   2   3
ATOM      3  C   UNL A   1      29.872  26.129  25.453  1.00  0.00     0.116 C 
BRANCH   3   4
ATOM      4  N   UNL A   1      30.443  25.279  26.481  1.00  0.00    -0.356 N 
ATOM      5  C   UNL A   1      31.171  24.133  26.334  1.00  0.00     0.224 C 
ATOM      6  O   UNL A   1      31.511  23.514  27.345  1.00  0.00    -0.275 OA
ATOM      7  H   UNL A   1      30.285  25.567  27.409  1.00  0.00     0.163 HD
BRANCH   5   8
ATOM      8  C   UNL A   1      31.595  23.669  24.948  1.00  0.00     0.138 C 
BRANCH   8   9
ATOM      9  C   UNL A   1      32.956  23.029  24.907  1.00  0.00    -0.009 A 
ATOM     10  C   UNL A   1      32.977  19.201  24.695  1.00  0.00     0.138 A 
ATOM     11  C   UNL A   1      32.410  20.482  24.747  1.00  0.00     0.058 A 
ATOM     12  C   UNL A   1      34.358  19.061  24.721  1.00  0.00     0.085 A 
ATOM     13  C   UNL A   1      33.231  21.634  24.821  1.00  0.00     0.008 A 
ATOM     14  C   UNL A   1      35.179  20.184  24.860  1.00  0.00     0.051 A 
ATOM     15  Cl  UNL A   1      35.162  17.547  24.495  1.00  0.00    -0.080 Cl
ATOM     16  C   UNL A   1      34.620  21.479  24.843  1.00  0.00     0.058 A 
ATOM     17  C   UNL A   1      34.180  23.687  25.009  1.00  0.00     0.028 A 
ATOM     18  N   UNL A   1      35.205  22.757  24.788  1.00  0.00    -0.280 N 
ATOM     19  C   UNL A   1      34.398  25.150  25.255  1.00  0.00     0.065 C 
BRANCH  10  20
ATOM     20  O   UNL A   1      32.099  18.159  24.547  1.00  0.00    -0.495 OA
ATOM     21  C   UNL A   1      32.068  17.649  23.215  1.00  0.00     0.278 C 
ENDBRANCH  10  20
BRANCH  18  22
ATOM     22  C   UNL A   1      36.581  23.059  24.533  1.00  0.00     0.262 C 
ATOM     23  O   UNL A   1      36.928  23.396  23.416  1.00  0.00    -0.268 OA
BRANCH  22  24
ATOM     24  C   UNL A   1      37.652  22.998  25.549  1.00  0.00     0.040 A 
ATOM     25  C   UNL A   1      37.939  24.103  26.358  1.00  0.00     0.015 A 
ATOM     26  C   UNL A   1      38.416  21.829  25.630  1.00  0.00     0.015 A 
ATOM     27  C   UNL A   1      39.068  24.068  27.182  1.00  0.00     0.021 A 
ATOM     28  C   UNL A   1      39.533  21.797  26.466  1.00  0.00     0.021 A 
ATOM     29  C   UNL A   1      39.868  22.924  27.219  1.00  0.00     0.041 A 
ATOM     30  Cl  UNL A   1      41.299  22.912  28.174  1.00  0.00    -0.084 Cl
ENDBRANCH  22  24
ENDBRANCH  18  22
ENDBRANCH   8   9
ENDBRANCH   5   8
ENDBRANCH   3   4
ENDBRANCH   2   3
ENDBRANCH   1   2
BRANCH   1  31
ATOM     31  C   UNL A   1      32.873  28.510  26.010  1.00  0.00     0.002 C 
BRANCH  31  32
ATOM     32  C   UNL A   1      33.531  29.136  27.246  1.00  0.00     0.021 C 
BRANCH  32  33
ATOM     33  C   UNL A   1      34.079  30.546  27.022  1.00  0.00     0.116 C 
BRANCH  33  34
ATOM     34  N   UNL A   1      34.025  31.380  28.205  1.00  0.00    -0.352 N 
ATOM     35  C   UNL A   1      34.916  31.751  29.173  1.00  0.00     0.251 C 
ATOM     36  H   UNL A   1      33.135  31.775  28.345  1.00  0.00     0.163 HD
ATOM     37  O   UNL A   1      34.501  32.580  29.988  1.00  0.00    -0.269 OA
BRANCH  35  38
ATOM     38  C   UNL A   1      36.290  31.201  29.347  1.00  0.00     0.039 A 
ATOM     39  C   UNL A   1      37.467  31.944  29.420  1.00  0.00     0.014 A 
ATOM     40  C   UNL A   1      36.385  29.794  29.384  1.00  0.00     0.014 A 
ATOM     41  C   UNL A   1      38.705  31.301  29.431  1.00  0.00     0.010 A 
ATOM     42  C   UNL A   1      37.617  29.148  29.409  1.00  0.00     0.010 A 
ATOM     43  C   UNL A   1      38.781  29.904  29.384  1.00  0.00    -0.014 A 
BRANCH  43  44
ATOM     44  C   UNL A   1      40.107  29.286  29.408  1.00  0.00     0.031 A 
ATOM     45  C   UNL A   1      40.602  28.931  30.766  1.00  0.00     0.074 A 
ATOM     46  C   UNL A   1      40.831  28.980  28.312  1.00  0.00     0.049 A 
ATOM     47  N   UNL A   1      41.593  29.458  31.406  1.00  0.00    -0.248 NA
ATOM     48  C   UNL A   1      39.827  27.960  31.552  1.00  0.00     0.031 C 
ATOM     49  C   UNL A   1      40.408  29.010  26.908  1.00  0.00     0.029 A 
ATOM     50  N   UNL A   1      42.104  28.491  28.235  1.00  0.00    -0.354 N 
ATOM     51  C   UNL A   1      41.678  28.776  32.617  1.00  0.00     0.074 A 
ATOM     52  C   UNL A   1      40.496  27.957  32.707  1.00  0.00     0.031 C 
ATOM     53  C   UNL A   1      41.314  28.350  26.150  1.00  0.00     0.029 A 
ATOM     54  C   UNL A   1      42.455  28.007  26.982  1.00  0.00     0.049 A 
ATOM     55  H   UNL A   1      42.720  28.482  29.004  1.00  0.00     0.167 HD
ATOM     56  C   UNL A   1      42.807  28.794  33.377  1.00  0.00     0.031 A 
ATOM     57  C   UNL A   1      43.599  27.358  26.653  1.00  0.00     0.031 A 
ATOM     58  C   UNL A   1      43.725  29.812  32.947  1.00  0.00     0.049 A 
ATOM     59  C   UNL A   1      44.622  27.740  27.651  1.00  0.00     0.074 A 
ATOM     60  C   UNL A   1      43.780  31.185  33.025  1.00  0.00     0.029 A 
ATOM     61  N   UNL A   1      44.614  29.418  31.980  1.00  0.00    -0.354 N 
ATOM     62  N   UNL A   1      45.094  28.949  27.773  1.00  0.00    -0.248 NA
ATOM     63  C   UNL A   1      44.904  26.843  28.762  1.00  0.00     0.031 C 
ATOM     64  C   UNL A   1      44.482  31.602  31.857  1.00  0.00     0.029 A 
ATOM     65  C   UNL A   1      44.874  30.469  31.140  1.00  0.00     0.049 A 
ATOM     66  H   UNL A   1      45.006  28.519  31.902  1.00  0.00     0.167 HD
ATOM     67  C   UNL A   1      45.352  29.086  29.124  1.00  0.00     0.074 A 
ATOM     68  C   UNL A   1      45.375  27.725  29.646  1.00  0.00     0.031 C 
ATOM     69  C   UNL A   1      45.240  30.297  29.743  1.00  0.00     0.031 A 
BRANCH  56  70
ATOM     70  C   UNL A   1      43.243  27.667  34.279  1.00  0.00    -0.014 A 
ATOM     71  C   UNL A   1      43.131  26.313  33.906  1.00  0.00     0.010 A 
ATOM     72  C   UNL A   1      44.007  27.951  35.430  1.00  0.00     0.010 A 
ATOM     73  C   UNL A   1      43.701  25.287  34.662  1.00  0.00     0.020 A 
ATOM     74  C   UNL A   1      44.616  26.929  36.177  1.00  0.00     0.020 A 
ATOM     75  C   UNL A   1      44.443  25.600  35.794  1.00  0.00     0.054 A 
BRANCH  75  76
ATOM     76  S   UNL A   1      45.207  24.242  36.716  1.00  0.00     0.124 S 
ATOM     77  O   UNL A   1      46.622  24.597  36.652  1.00  0.00    -0.237 OA
ATOM     78  O   UNL A   1      44.585  24.367  38.031  1.00  0.00    -0.237 OA
ATOM     79  O   UNL A   1      44.827  23.053  35.958  1.00  0.00    -0.744 OA
ENDBRANCH  75  76
ENDBRANCH  56  70
BRANCH  57  80
ATOM     80  C   UNL A   1      43.747  26.136  25.821  1.00  0.00    -0.014 A 
ATOM     81  C   UNL A   1      42.720  25.171  25.815  1.00  0.00     0.010 A 
ATOM     82  C   UNL A   1      45.013  25.754  25.332  1.00  0.00     0.010 A 
ATOM     83  C   UNL A   1      42.973  23.847  25.437  1.00  0.00     0.020 A 
ATOM     84  C   UNL A   1      45.273  24.427  24.950  1.00  0.00     0.020 A 
ATOM     85  C   UNL A   1      44.259  23.473  25.048  1.00  0.00     0.054 A 
BRANCH  85  86
ATOM     86  S   UNL A   1      44.598  21.708  24.779  1.00  0.00     0.124 S 
ATOM     87  O   UNL A   1      43.405  21.082  25.341  1.00  0.00    -0.237 OA
ATOM     88  O   UNL A   1      44.722  21.630  23.326  1.00  0.00    -0.237 OA
ATOM     89  O   UNL A   1      45.834  21.474  25.521  1.00  0.00    -0.744 OA
ENDBRANCH  85  86
ENDBRANCH  57  80
BRANCH  69  90
ATOM     90  C   UNL A   1      45.292  31.549  28.899  1.00  0.00    -0.014 A 
ATOM     91  C   UNL A   1      44.077  31.984  28.337  1.00  0.00     0.010 A 
ATOM     92  C   UNL A   1      46.479  32.204  28.517  1.00  0.00     0.010 A 
ATOM     93  C   UNL A   1      44.045  33.004  27.386  1.00  0.00     0.020 A 
ATOM     94  C   UNL A   1      46.450  33.252  27.581  1.00  0.00     0.020 A 
ATOM     95  C   UNL A   1      45.234  33.623  27.001  1.00  0.00     0.054 A 
BRANCH  95  96
ATOM     96  S   UNL A   1      45.149  34.895  25.710  1.00  0.00     0.124 S 
ATOM     97  O   UNL A   1      45.452  36.114  26.457  1.00  0.00    -0.237 OA
ATOM     98  O   UNL A   1      46.182  34.468  24.769  1.00  0.00    -0.237 OA
ATOM     99  O   UNL A   1      43.780  34.800  25.209  1.00  0.00    -0.744 OA
ENDBRANCH  95  96
ENDBRANCH  69  90
ENDBRANCH  43  44
ENDBRANCH  35  38
ENDBRANCH  33  34
ENDBRANCH  32  33
ENDBRANCH  31  32
ENDBRANCH   1  31
TORSDOF 20
ENDMDL
MODEL 2
REMARK VINA RESULT:     -11.1      2.010      3.379
REMARK SMILES COc1cc2c(CC(=O)NCCCCCCNC(=O)c3ccc(-c4c5nc(c(-c6ccc(S(=O)(=O)[O-])cc6)c6ccc([nH]6)c(-c6ccc(S(=O)(=O)[O-])cc6)c6nc(c(-c7ccc(S(=O)(=O)[O-])cc7)c7ccc4[nH]7)C=C6)C=C5)cc3)c(C)n(C(=O)c3ccc(Cl)cc3)c2cc1Cl
REMARK SMILES IDX 13 1 12 2 11 3 10 4 8 5 9 6 7 8 6 9 3 10 4 11 94 12 5 13
REMARK SMILES IDX 93 14 95 15 92 16 80 17 82 18 81 19 2 20 1 21 83 22 84 23
REMARK SMILES IDX 85 24 86 25 91 26 87 27 90 28 88 29 89 30 14 31 15 32 16 33
REMARK SMILES IDX 17 34 18 35 19 37 20 38 21 39 79 40 22 41 78 42 23 43 24 44
REMARK SMILES IDX 25 45 72 46 26 47 77 48 71 49 73 50 27 51 76 52 70 53 69 54
REMARK SMILES IDX 28 56 58 57 39 58 57 59 40 60 43 61 56 62 74 63 41 64 42 65
REMARK SMILES IDX 55 67 75 68 44 69 29 70 30 71 38 72 31 73 37 74 32 75 33 76
REMARK SMILES IDX 34 77 35 78 36 79 59 80 60 81 68 82 61 83 67 84 62 85 63 86
REMARK SMILES IDX 64 87 65 88 66 89 45 90 46 91 54 92 47 93 53 94 48 95 49 96
REMARK SMILES IDX 50 97 51 98 52 99
REMARK H PARENT 10 7 17 36 73 55 43 66
REMARK Flexibility Score: inf
ROOT
ATOM      1  C   UNL A   1      33.095  29.362  26.492  1.00  0.00     0.002 C 
ENDROOT
BRANCH   1   2
ATOM      2  C   UNL A   1      31.664  28.829  26.356  1.00  0.00     0.021 C 
BRANCH   2   3
ATOM      3  C   UNL A   1      31.545  27.635  25.407  1.00  0.00     0.116 C 
BRANCH   3   4
ATOM      4  N   UNL A   1      30.634  26.635  25.931  1.00  0.00    -0.356 N 
ATOM      5  C   UNL A   1      30.927  25.414  26.468  1.00  0.00     0.224 C 
ATOM      6  O   UNL A   1      29.996  24.674  26.797  1.00  0.00    -0.275 OA
ATOM      7  H   UNL A   1      29.679  26.867  25.895  1.00  0.00     0.163 HD
BRANCH   5   8
ATOM      8  C   UNL A   1      32.375  25.007  26.702  1.00  0.00     0.138 C 
BRANCH   8   9
ATOM      9  C   UNL A   1      32.861  23.920  25.782  1.00  0.00    -0.009 A 
ATOM     10  C   UNL A   1      32.542  24.662  22.034  1.00  0.00     0.138 A 
ATOM     11  C   UNL A   1      32.446  24.922  23.409  1.00  0.00     0.058 A 
ATOM     12  C   UNL A   1      33.044  23.442  21.601  1.00  0.00     0.085 A 
ATOM     13  C   UNL A   1      32.858  23.955  24.358  1.00  0.00     0.008 A 
ATOM     14  C   UNL A   1      33.393  22.454  22.526  1.00  0.00     0.051 A 
ATOM     15  Cl  UNL A   1      33.360  23.084  19.939  1.00  0.00    -0.080 Cl
ATOM     16  C   UNL A   1      33.364  22.733  23.908  1.00  0.00     0.058 A 
ATOM     17  C   UNL A   1      33.340  22.669  26.164  1.00  0.00     0.028 A 
ATOM     18  N   UNL A   1      33.818  22.008  25.025  1.00  0.00    -0.280 N 
ATOM     19  C   UNL A   1      33.400  22.115  27.556  1.00  0.00     0.065 C 
BRANCH  10  20
ATOM     20  O   UNL A   1      32.189  25.691  21.200  1.00  0.00    -0.495 OA
ATOM     21  C   UNL A   1      31.487  26.733  21.878  1.00  0.00     0.278 C 
ENDBRANCH  10  20
BRANCH  18  22
ATOM     22  C   UNL A   1      34.632  20.831  25.009  1.00  0.00     0.262 C 
ATOM     23  O   UNL A   1      35.843  20.934  25.076  1.00  0.00    -0.268 OA
BRANCH  22  24
ATOM     24  C   UNL A   1      34.108  19.453  24.918  1.00  0.00     0.040 A 
ATOM     25  C   UNL A   1      32.795  19.156  25.302  1.00  0.00     0.015 A 
ATOM     26  C   UNL A   1      34.982  18.442  24.504  1.00  0.00     0.015 A 
ATOM     27  C   UNL A   1      32.390  17.820  25.367  1.00  0.00     0.021 A 
ATOM     28  C   UNL A   1      34.565  17.111  24.558  1.00  0.00     0.021 A 
ATOM     29  C   UNL A   1      33.281  16.805  25.013  1.00  0.00     0.041 A 
ATOM     30  Cl  UNL A   1      32.807  15.158  25.169  1.00  0.00    -0.084 Cl
ENDBRANCH  22  24
ENDBRANCH  18  22
ENDBRANCH   8   9
ENDBRANCH   5   8
ENDBRANCH   3   4
ENDBRANCH   2   3
ENDBRANCH   1   2
BRANCH   1  31
ATOM     31  C   UNL A   1      33.228  30.672  27.279  1.00  0.00     0.002 C 
BRANCH  31  32
ATOM     32  C   UNL A   1      34.665  31.136  27.553  1.00  0.00     0.021 C 
BRANCH  32  33
ATOM     33  C   UNL A   1      34.766  32.436  28.351  1.00  0.00     0.116 C 
BRANCH  33  34
ATOM     34  N   UNL A   1      34.721  32.238  29.785  1.00  0.00    -0.352 N 
ATOM     35  C   UNL A   1      35.547  31.668  30.712  1.00  0.00     0.251 C 
ATOM     36  H   UNL A   1      33.900  32.600  30.188  1.00  0.00     0.163 HD
ATOM     37  O   UNL A   1      35.190  31.786  31.888  1.00  0.00    -0.269 OA
BRANCH  35  38
ATOM     38  C   UNL A   1      36.781  30.886  30.415  1.00  0.00     0.039 A 
ATOM     39  C   UNL A   1      36.877  29.497  30.352  1.00  0.00     0.014 A 
ATOM     40  C   UNL A   1      37.958  31.644  30.239  1.00  0.00     0.014 A 
ATOM     41  C   UNL A   1      38.122  28.883  30.216  1.00  0.00     0.010 A 
ATOM     42  C   UNL A   1      39.200  31.037  30.089  1.00  0.00     0.010 A 
ATOM     43  C   UNL A   1      39.288  29.652  30.125  1.00  0.00    -0.014 A 
BRANCH  43  44
ATOM     44  C   UNL A   1      40.563  28.952  29.974  1.00  0.00     0.031 A 
ATOM     45  C   UNL A   1      41.325  28.770  31.240  1.00  0.00     0.074 A 
ATOM     46  C   UNL A   1      41.023  28.435  28.816  1.00  0.00     0.049 A 
ATOM     47  N   UNL A   1      42.449  29.315  31.569  1.00  0.00    -0.248 NA
ATOM     48  C   UNL A   1      40.701  27.985  32.314  1.00  0.00     0.031 C 
ATOM     49  C   UNL A   1      40.310  28.285  27.544  1.00  0.00     0.029 A 
ATOM     50  N   UNL A   1      42.230  27.850  28.558  1.00  0.00    -0.354 N 
ATOM     51  C   UNL A   1      42.767  28.817  32.829  1.00  0.00     0.074 A 
ATOM     52  C   UNL A   1      41.602  28.107  33.292  1.00  0.00     0.031 C 
ATOM     53  C   UNL A   1      41.006  27.456  26.732  1.00  0.00     0.029 A 
ATOM     54  C   UNL A   1      42.286  27.161  27.354  1.00  0.00     0.049 A 
ATOM     55  H   UNL A   1      42.996  27.912  29.175  1.00  0.00     0.167 HD
ATOM     56  C   UNL A   1      44.033  28.869  33.327  1.00  0.00     0.031 A 
ATOM     57  C   UNL A   1      43.307  26.390  26.907  1.00  0.00     0.031 A 
ATOM     58  C   UNL A   1      44.874  29.743  32.559  1.00  0.00     0.049 A 
ATOM     59  C   UNL A   1      44.534  26.843  27.597  1.00  0.00     0.074 A 
ATOM     60  C   UNL A   1      44.997  31.104  32.401  1.00  0.00     0.029 A 
ATOM     61  N   UNL A   1      45.520  29.146  31.506  1.00  0.00    -0.354 N 
ATOM     62  N   UNL A   1      45.067  28.019  27.422  1.00  0.00    -0.248 NA
ATOM     63  C   UNL A   1      45.014  26.104  28.756  1.00  0.00     0.031 C 
ATOM     64  C   UNL A   1      45.447  31.291  31.062  1.00  0.00     0.029 A 
ATOM     65  C   UNL A   1      45.633  30.038  30.472  1.00  0.00     0.049 A 
ATOM     66  H   UNL A   1      45.851  28.220  31.495  1.00  0.00     0.167 HD
ATOM     67  C   UNL A   1      45.613  28.339  28.651  1.00  0.00     0.074 A 
ATOM     68  C   UNL A   1      45.696  27.074  29.370  1.00  0.00     0.031 C 
ATOM     69  C   UNL A   1      45.683  29.633  29.076  1.00  0.00     0.031 A 
BRANCH  56  70
ATOM     70  C   UNL A   1      44.609  27.861  34.290  1.00  0.00    -0.014 A 
ATOM     71  C   UNL A   1      44.738  28.121  35.669  1.00  0.00     0.010 A 
ATOM     72  C   UNL A   1      44.806  26.529  33.870  1.00  0.00     0.010 A 
ATOM     73  C   UNL A   1      45.098  27.125  36.579  1.00  0.00     0.020 A 
ATOM     74  C   UNL A   1      45.131  25.512  34.782  1.00  0.00     0.020 A 
ATOM     75  C   UNL A   1      45.291  25.823  36.131  1.00  0.00     0.054 A 
BRANCH  75  76
ATOM     76  S   UNL A   1      45.706  24.554  37.353  1.00  0.00     0.124 S 
ATOM     77  O   UNL A   1      44.812  24.898  38.457  1.00  0.00    -0.237 OA
ATOM     78  O   UNL A   1      45.383  23.318  36.644  1.00  0.00    -0.237 OA
ATOM     79  O   UNL A   1      47.127  24.772  37.609  1.00  0.00    -0.744 OA
ENDBRANCH  75  76
ENDBRANCH  56  70
BRANCH  57  80
ATOM     80  C   UNL A   1      43.227  25.050  26.270  1.00  0.00    -0.014 A 
ATOM     81  C   UNL A   1      42.894  23.926  27.054  1.00  0.00     0.010 A 
ATOM     82  C   UNL A   1      43.813  24.822  25.008  1.00  0.00     0.010 A 
ATOM     83  C   UNL A   1      43.232  22.632  26.644  1.00  0.00     0.020 A 
ATOM     84  C   UNL A   1      44.154  23.524  24.590  1.00  0.00     0.020 A 
ATOM     85  C   UNL A   1      43.898  22.442  25.434  1.00  0.00     0.054 A 
BRANCH  85  86
ATOM     86  S   UNL A   1      44.514  20.777  25.041  1.00  0.00     0.124 S 
ATOM     87  O   UNL A   1      45.845  20.799  25.640  1.00  0.00    -0.237 OA
ATOM     88  O   UNL A   1      43.540  19.917  25.707  1.00  0.00    -0.237 OA
ATOM     89  O   UNL A   1      44.486  20.732  23.581  1.00  0.00    -0.744 OA
ENDBRANCH  85  86
ENDBRANCH  57  80
BRANCH  69  90
ATOM     90  C   UNL A   1      45.600  30.739  28.048  1.00  0.00    -0.014 A 
ATOM     91  C   UNL A   1      46.821  31.241  27.560  1.00  0.00     0.010 A 
ATOM     92  C   UNL A   1      44.410  31.391  27.674  1.00  0.00     0.010 A 
ATOM     93  C   UNL A   1      46.866  32.387  26.768  1.00  0.00     0.020 A 
ATOM     94  C   UNL A   1      44.445  32.530  26.851  1.00  0.00     0.020 A 
ATOM     95  C   UNL A   1      45.678  33.035  26.428  1.00  0.00     0.054 A 
BRANCH  95  96
ATOM     96  S   UNL A   1      45.792  34.561  25.454  1.00  0.00     0.124 S 
ATOM     97  O   UNL A   1      44.913  34.272  24.323  1.00  0.00    -0.237 OA
ATOM     98  O   UNL A   1      45.299  35.575  26.383  1.00  0.00    -0.237 OA
ATOM     99  O   UNL A   1      47.212  34.665  25.124  1.00  0.00    -0.744 OA
ENDBRANCH  95  96
ENDBRANCH  69  90
ENDBRANCH  43  44
ENDBRANCH  35  38
ENDBRANCH  33  34
ENDBRANCH  32  33
ENDBRANCH  31  32
ENDBRANCH   1  31
TORSDOF 20
ENDMDL
MODEL 3
REMARK VINA RESULT:     -10.9      4.899     12.183
REMARK SMILES COc1cc2c(CC(=O)NCCCCCCNC(=O)c3ccc(-c4c5nc(c(-c6ccc(S(=O)(=O)[O-])cc6)c6ccc([nH]6)c(-c6ccc(S(=O)(=O)[O-])cc6)c6nc(c(-c7ccc(S(=O)(=O)[O-])cc7)c7ccc4[nH]7)C=C6)C=C5)cc3)c(C)n(C(=O)c3ccc(Cl)cc3)c2cc1Cl
REMARK SMILES IDX 13 1 12 2 11 3 10 4 8 5 9 6 7 8 6 9 3 10 4 11 94 12 5 13
REMARK SMILES IDX 93 14 95 15 92 16 80 17 82 18 81 19 2 20 1 21 83 22 84 23
REMARK SMILES IDX 85 24 86 25 91 26 87 27 90 28 88 29 89 30 14 31 15 32 16 33
REMARK SMILES IDX 17 34 18 35 19 37 20 38 21 39 79 40 22 41 78 42 23 43 24 44
REMARK SMILES IDX 25 45 72 46 26 47 77 48 71 49 73 50 27 51 76 52 70 53 69 54
REMARK SMILES IDX 28 56 58 57 39 58 57 59 40 60 43 61 56 62 74 63 41 64 42 65
REMARK SMILES IDX 55 67 75 68 44 69 29 70 30 71 38 72 31 73 37 74 32 75 33 76
REMARK SMILES IDX 34 77 35 78 36 79 59 80 60 81 68 82 61 83 67 84 62 85 63 86
REMARK SMILES IDX 64 87 65 88 66 89 45 90 46 91 54 92 47 93 53 94 48 95 49 96
REMARK SMILES IDX 50 97 51 98 52 99
REMARK H PARENT 10 7 17 36 73 55 43 66
REMARK Flexibility Score: inf
ROOT
ATOM      1  C   UNL A   1      44.104  25.351  26.059  1.00  0.00     0.002 C 
ENDROOT
BRANCH   1   2
ATOM      2  C   UNL A   1      45.267  26.057  26.766  1.00  0.00     0.021 C 
BRANCH   2   3
ATOM      3  C   UNL A   1      45.221  25.932  28.290  1.00  0.00     0.116 C 
BRANCH   3   4
ATOM      4  N   UNL A   1      44.830  24.596  28.697  1.00  0.00    -0.356 N 
ATOM      5  C   UNL A   1      44.457  24.156  29.936  1.00  0.00     0.224 C 
ATOM      6  O   UNL A   1      44.226  22.955  30.092  1.00  0.00    -0.275 OA
ATOM      7  H   UNL A   1      44.833  23.915  27.987  1.00  0.00     0.163 HD
BRANCH   5   8
ATOM      8  C   UNL A   1      44.282  25.146  31.079  1.00  0.00     0.138 C 
BRANCH   8   9
ATOM      9  C   UNL A   1      45.202  24.902  32.245  1.00  0.00    -0.009 A 
ATOM     10  C   UNL A   1      48.809  26.118  31.788  1.00  0.00     0.138 A 
ATOM     11  C   UNL A   1      47.466  25.915  31.436  1.00  0.00     0.058 A 
ATOM     12  C   UNL A   1      49.270  25.673  33.020  1.00  0.00     0.085 A 
ATOM     13  C   UNL A   1      46.577  25.264  32.326  1.00  0.00     0.008 A 
ATOM     14  C   UNL A   1      48.420  24.972  33.880  1.00  0.00     0.051 A 
ATOM     15  Cl  UNL A   1      50.855  26.018  33.620  1.00  0.00    -0.080 Cl
ATOM     16  C   UNL A   1      47.054  24.824  33.564  1.00  0.00     0.058 A 
ATOM     17  C   UNL A   1      44.882  24.226  33.420  1.00  0.00     0.028 A 
ATOM     18  N   UNL A   1      45.963  24.335  34.305  1.00  0.00    -0.280 N 
ATOM     19  C   UNL A   1      43.589  23.536  33.738  1.00  0.00     0.065 C 
BRANCH  10  20
ATOM     20  O   UNL A   1      49.566  26.825  30.890  1.00  0.00    -0.495 OA
ATOM     21  C   UNL A   1      49.999  26.029  29.787  1.00  0.00     0.278 C 
ENDBRANCH  10  20
BRANCH  18  22
ATOM     22  C   UNL A   1      45.946  24.026  35.702  1.00  0.00     0.262 C 
ATOM     23  O   UNL A   1      45.786  24.917  36.516  1.00  0.00    -0.268 OA
BRANCH  22  24
ATOM     24  C   UNL A   1      46.110  22.667  36.260  1.00  0.00     0.040 A 
ATOM     25  C   UNL A   1      45.997  21.537  35.443  1.00  0.00     0.015 A 
ATOM     26  C   UNL A   1      46.311  22.541  37.639  1.00  0.00     0.015 A 
ATOM     27  C   UNL A   1      45.984  20.269  36.033  1.00  0.00     0.021 A 
ATOM     28  C   UNL A   1      46.312  21.272  38.218  1.00  0.00     0.021 A 
ATOM     29  C   UNL A   1      46.123  20.144  37.417  1.00  0.00     0.041 A 
ATOM     30  Cl  UNL A   1      46.029  18.590  38.149  1.00  0.00    -0.084 Cl
ENDBRANCH  22  24
ENDBRANCH  18  22
ENDBRANCH   8   9
ENDBRANCH   5   8
ENDBRANCH   3   4
ENDBRANCH   2   3
ENDBRANCH   1   2
BRANCH   1  31
ATOM     31  C   UNL A   1      44.507  24.167  25.170  1.00  0.00     0.002 C 
BRANCH  31  32
ATOM     32  C   UNL A   1      43.364  23.231  24.758  1.00  0.00     0.021 C 
BRANCH  32  33
ATOM     33  C   UNL A   1      43.091  22.096  25.746  1.00  0.00     0.116 C 
BRANCH  33  34
ATOM     34  N   UNL A   1      41.691  21.735  25.837  1.00  0.00    -0.352 N 
ATOM     35  C   UNL A   1      40.548  22.374  26.226  1.00  0.00     0.251 C 
ATOM     36  H   UNL A   1      41.524  20.809  25.552  1.00  0.00     0.163 HD
ATOM     37  O   UNL A   1      39.502  21.739  26.064  1.00  0.00    -0.269 OA
BRANCH  35  38
ATOM     38  C   UNL A   1      40.476  23.718  26.866  1.00  0.00     0.039 A 
ATOM     39  C   UNL A   1      39.882  24.855  26.323  1.00  0.00     0.014 A 
ATOM     40  C   UNL A   1      41.127  23.836  28.113  1.00  0.00     0.014 A 
ATOM     41  C   UNL A   1      40.016  26.090  26.957  1.00  0.00     0.010 A 
ATOM     42  C   UNL A   1      41.252  25.064  28.756  1.00  0.00     0.010 A 
ATOM     43  C   UNL A   1      40.736  26.202  28.152  1.00  0.00    -0.014 A 
BRANCH  43  44
ATOM     44  C   UNL A   1      40.834  27.522  28.775  1.00  0.00     0.031 A 
ATOM     45  C   UNL A   1      42.055  28.291  28.409  1.00  0.00     0.074 A 
ATOM     46  C   UNL A   1      39.891  28.069  29.568  1.00  0.00     0.049 A 
ATOM     47  N   UNL A   1      43.042  28.615  29.176  1.00  0.00    -0.248 NA
ATOM     48  C   UNL A   1      42.257  28.634  26.994  1.00  0.00     0.031 C 
ATOM     49  C   UNL A   1      38.530  27.586  29.825  1.00  0.00     0.029 A 
ATOM     50  N   UNL A   1      39.931  29.245  30.262  1.00  0.00    -0.354 N 
ATOM     51  C   UNL A   1      43.923  29.348  28.386  1.00  0.00     0.074 A 
ATOM     52  C   UNL A   1      43.455  29.221  27.029  1.00  0.00     0.031 C 
ATOM     53  C   UNL A   1      37.810  28.563  30.423  1.00  0.00     0.029 A 
ATOM     54  C   UNL A   1      38.699  29.666  30.745  1.00  0.00     0.049 A 
ATOM     55  H   UNL A   1      40.764  29.751  30.407  1.00  0.00     0.167 HD
ATOM     56  C   UNL A   1      44.872  30.161  28.927  1.00  0.00     0.031 A 
ATOM     57  C   UNL A   1      38.426  30.846  31.354  1.00  0.00     0.031 A 
ATOM     58  C   UNL A   1      45.041  29.923  30.333  1.00  0.00     0.049 A 
ATOM     59  C   UNL A   1      39.695  31.348  31.925  1.00  0.00     0.074 A 
ATOM     60  C   UNL A   1      45.606  28.932  31.103  1.00  0.00     0.029 A 
ATOM     61  N   UNL A   1      44.221  30.660  31.148  1.00  0.00    -0.354 N 
ATOM     62  N   UNL A   1      40.335  30.755  32.893  1.00  0.00    -0.248 NA
ATOM     63  C   UNL A   1      40.453  32.357  31.199  1.00  0.00     0.031 C 
ATOM     64  C   UNL A   1      44.846  28.910  32.308  1.00  0.00     0.029 A 
ATOM     65  C   UNL A   1      43.883  29.920  32.250  1.00  0.00     0.049 A 
ATOM     66  H   UNL A   1      43.921  31.580  30.968  1.00  0.00     0.167 HD
ATOM     67  C   UNL A   1      41.669  30.998  32.628  1.00  0.00     0.074 A 
ATOM     68  C   UNL A   1      41.672  32.111  31.686  1.00  0.00     0.031 C 
ATOM     69  C   UNL A   1      42.633  30.096  32.972  1.00  0.00     0.031 A 
BRANCH  56  70
ATOM     70  C   UNL A   1      45.393  31.414  28.268  1.00  0.00    -0.014 A 
ATOM     71  C   UNL A   1      46.745  31.571  27.906  1.00  0.00     0.010 A 
ATOM     72  C   UNL A   1      44.483  32.370  27.771  1.00  0.00     0.010 A 
ATOM     73  C   UNL A   1      47.185  32.649  27.135  1.00  0.00     0.020 A 
ATOM     74  C   UNL A   1      44.909  33.437  26.964  1.00  0.00     0.020 A 
ATOM     75  C   UNL A   1      46.263  33.577  26.665  1.00  0.00     0.054 A 
BRANCH  75  76
ATOM     76  S   UNL A   1      46.870  34.930  25.627  1.00  0.00     0.124 S 
ATOM     77  O   UNL A   1      46.764  36.072  26.532  1.00  0.00    -0.237 OA
ATOM     78  O   UNL A   1      48.230  34.499  25.313  1.00  0.00    -0.237 OA
ATOM     79  O   UNL A   1      45.944  34.942  24.498  1.00  0.00    -0.744 OA
ENDBRANCH  75  76
ENDBRANCH  56  70
BRANCH  57  80
ATOM     80  C   UNL A   1      37.273  31.751  31.114  1.00  0.00    -0.014 A 
ATOM     81  C   UNL A   1      37.507  33.086  30.725  1.00  0.00     0.010 A 
ATOM     82  C   UNL A   1      35.993  31.423  31.604  1.00  0.00     0.010 A 
ATOM     83  C   UNL A   1      36.537  34.076  30.917  1.00  0.00     0.020 A 
ATOM     84  C   UNL A   1      35.014  32.413  31.798  1.00  0.00     0.020 A 
ATOM     85  C   UNL A   1      35.312  33.742  31.493  1.00  0.00     0.054 A 
BRANCH  85  86
ATOM     86  S   UNL A   1      34.169  35.086  31.928  1.00  0.00     0.124 S 
ATOM     87  O   UNL A   1      35.023  35.964  32.721  1.00  0.00    -0.237 OA
ATOM     88  O   UNL A   1      33.779  35.604  30.619  1.00  0.00    -0.237 OA
ATOM     89  O   UNL A   1      33.106  34.412  32.670  1.00  0.00    -0.744 OA
ENDBRANCH  85  86
ENDBRANCH  57  80
BRANCH  69  90
ATOM     90  C   UNL A   1      42.316  29.069  34.036  1.00  0.00    -0.014 A 
ATOM     91  C   UNL A   1      42.812  29.325  35.328  1.00  0.00     0.010 A 
ATOM     92  C   UNL A   1      41.706  27.825  33.786  1.00  0.00     0.010 A 
ATOM     93  C   UNL A   1      42.752  28.355  36.329  1.00  0.00     0.020 A 
ATOM     94  C   UNL A   1      41.615  26.855  34.798  1.00  0.00     0.020 A 
ATOM     95  C   UNL A   1      42.167  27.119  36.055  1.00  0.00     0.054 A 
BRANCH  95  96
ATOM     96  S   UNL A   1      42.175  25.867  37.368  1.00  0.00     0.124 S 
ATOM     97  O   UNL A   1      42.598  24.668  36.648  1.00  0.00    -0.237 OA
ATOM     98  O   UNL A   1      43.150  26.401  38.317  1.00  0.00    -0.237 OA
ATOM     99  O   UNL A   1      40.795  25.846  37.847  1.00  0.00    -0.744 OA
ENDBRANCH  95  96
ENDBRANCH  69  90
ENDBRANCH  43  44
ENDBRANCH  35  38
ENDBRANCH  33  34
ENDBRANCH  32  33
ENDBRANCH  31  32
ENDBRANCH   1  31
TORSDOF 20
ENDMDL
