MODEL 1
REMARK VINA RESULT:     -11.8      0.000      0.000
REMARK SMILES CC(=O)NS(=O)(=O)c1cc(-c2ccn(C(F)F)c(=O)c2)ccc1C(=O)NCCCCCCNC(=O)c1ccc(-c2c3nc(c(-c4ccc(S(=O)(=O)[O-])cc4)c4ccc([nH]4)c(-c4ccc(S(=O)(=O)[O-])cc4)c4nc(c(-c5ccc(S(=O)(=O)[O-])cc5)c5ccc2[nH]5)C=C4)C=C3)cc1
REMARK SMILES IDX 30 1 29 2 28 3 27 4 26 5 24 6 25 7 23 9 8 10 9 11 10 12
REMARK SMILES IDX 22 13 21 14 5 15 6 16 7 17 4 18 1 19 2 20 3 21 11 23 12 24
REMARK SMILES IDX 20 25 13 26 18 27 14 28 19 29 15 30 16 31 17 32 31 33 32 34
REMARK SMILES IDX 33 35 34 36 35 38 36 39 37 40 95 41 38 42 94 43 39 44 40 45
REMARK SMILES IDX 41 46 88 47 42 48 93 49 87 50 89 51 43 52 92 53 86 54 85 55
REMARK SMILES IDX 44 57 74 58 55 59 73 60 56 61 59 62 72 63 90 64 57 65 58 66
REMARK SMILES IDX 71 68 91 69 60 70 45 71 46 72 54 73 47 74 53 75 48 76 49 77
REMARK SMILES IDX 50 78 51 79 52 80 75 81 76 82 84 83 77 84 83 85 78 86 79 87
REMARK SMILES IDX 80 88 81 89 82 90 61 91 62 92 70 93 63 94 69 95 64 96 65 97
REMARK SMILES IDX 66 98 67 99 68 100
REMARK H PARENT 26 8 4 22 33 37 89 56 59 67
REMARK Flexibility Score: inf
ROOT
ATOM      1  C   UNL A   1      37.067  23.405  26.123  1.00  0.00     0.002 C 
ENDROOT
BRANCH   1   2
ATOM      2  C   UNL A   1      37.218  22.147  25.262  1.00  0.00     0.002 C 
BRANCH   2   3
ATOM      3  C   UNL A   1      36.839  22.335  23.791  1.00  0.00     0.021 C 
BRANCH   3   4
ATOM      4  C   UNL A   1      35.779  23.412  23.535  1.00  0.00     0.116 C 
BRANCH   4   5
ATOM      5  N   UNL A   1      34.581  22.798  22.990  1.00  0.00    -0.352 N 
ATOM      6  C   UNL A   1      33.290  23.233  22.899  1.00  0.00     0.252 C 
ATOM      7  O   UNL A   1      32.436  22.491  22.413  1.00  0.00    -0.269 OA
ATOM      8  H   UNL A   1      34.727  21.898  22.616  1.00  0.00     0.163 HD
BRANCH   6   9
ATOM      9  C   UNL A   1      32.866  24.608  23.242  1.00  0.00     0.060 A 
ATOM     10  C   UNL A   1      32.119  24.981  24.364  1.00  0.00     0.101 A 
ATOM     11  C   UNL A   1      31.542  26.263  24.432  1.00  0.00     0.031 A 
ATOM     12  C   UNL A   1      31.644  27.148  23.352  1.00  0.00    -0.017 A 
ATOM     13  C   UNL A   1      33.034  25.541  22.200  1.00  0.00     0.016 A 
ATOM     14  C   UNL A   1      32.423  26.797  22.249  1.00  0.00     0.009 A 
BRANCH  10  15
ATOM     15  S   UNL A   1      31.754  23.837  25.658  1.00  0.00     0.264 S 
ATOM     16  O   UNL A   1      30.607  23.085  25.219  1.00  0.00    -0.201 OA
ATOM     17  O   UNL A   1      31.787  24.533  26.927  1.00  0.00    -0.201 OA
BRANCH  15  18
ATOM     18  N   UNL A   1      33.006  22.751  25.655  1.00  0.00    -0.249 N 
ATOM     19  C   UNL A   1      33.246  22.374  28.118  1.00  0.00     0.115 C 
ATOM     20  C   UNL A   1      33.477  21.945  26.698  1.00  0.00     0.230 C 
ATOM     21  O   UNL A   1      34.169  20.976  26.423  1.00  0.00    -0.274 OA
ATOM     22  H   UNL A   1      33.487  22.662  24.801  1.00  0.00     0.183 HD
ENDBRANCH  15  18
ENDBRANCH  10  15
BRANCH  12  23
ATOM     23  C   UNL A   1      30.755  28.322  23.301  1.00  0.00    -0.011 A 
ATOM     24  C   UNL A   1      30.802  29.329  24.345  1.00  0.00     0.027 A 
ATOM     25  C   UNL A   1      29.939  28.504  22.249  1.00  0.00     0.080 A 
ATOM     26  C   UNL A   1      30.078  30.448  24.248  1.00  0.00     0.095 A 
ATOM     27  C   UNL A   1      29.093  29.731  22.149  1.00  0.00     0.255 A 
ATOM     28  N   UNL A   1      29.249  30.662  23.165  1.00  0.00    -0.258 N 
ATOM     29  O   UNL A   1      28.334  29.843  21.192  1.00  0.00    -0.269 OA
BRANCH  28  30
ATOM     30  C   UNL A   1      28.485  31.881  23.066  1.00  0.00     0.451 C 
ATOM     31  F   UNL A   1      27.468  31.900  23.959  1.00  0.00    -0.185 F 
ATOM     32  F   UNL A   1      29.267  32.965  23.292  1.00  0.00    -0.185 F 
ENDBRANCH  28  30
ENDBRANCH  12  23
ENDBRANCH   6   9
ENDBRANCH   4   5
ENDBRANCH   3   4
ENDBRANCH   2   3
ENDBRANCH   1   2
BRANCH   1  33
ATOM     33  C   UNL A   1      38.344  24.224  26.368  1.00  0.00     0.021 C 
BRANCH  33  34
ATOM     34  C   UNL A   1      39.575  23.450  26.849  1.00  0.00     0.116 C 
BRANCH  34  35
ATOM     35  N   UNL A   1      40.761  23.738  26.065  1.00  0.00    -0.352 N 
ATOM     36  C   UNL A   1      41.662  24.765  26.210  1.00  0.00     0.251 C 
ATOM     37  H   UNL A   1      40.946  23.113  25.329  1.00  0.00     0.163 HD
ATOM     38  O   UNL A   1      42.554  24.917  25.380  1.00  0.00    -0.269 OA
BRANCH  36  39
ATOM     39  C   UNL A   1      41.545  25.713  27.343  1.00  0.00     0.039 A 
ATOM     40  C   UNL A   1      42.215  26.939  27.256  1.00  0.00     0.014 A 
ATOM     41  C   UNL A   1      40.823  25.390  28.497  1.00  0.00     0.014 A 
ATOM     42  C   UNL A   1      42.115  27.865  28.298  1.00  0.00     0.010 A 
ATOM     43  C   UNL A   1      40.717  26.321  29.535  1.00  0.00     0.010 A 
ATOM     44  C   UNL A   1      41.353  27.569  29.438  1.00  0.00    -0.014 A 
BRANCH  44  45
ATOM     45  C   UNL A   1      41.190  28.572  30.515  1.00  0.00     0.031 A 
ATOM     46  C   UNL A   1      42.107  28.586  31.701  1.00  0.00     0.074 A 
ATOM     47  C   UNL A   1      40.188  29.468  30.438  1.00  0.00     0.049 A 
ATOM     48  N   UNL A   1      42.055  29.336  32.772  1.00  0.00    -0.248 NA
ATOM     49  C   UNL A   1      43.222  27.627  31.684  1.00  0.00     0.031 C 
ATOM     50  C   UNL A   1      39.221  29.561  29.343  1.00  0.00     0.029 A 
ATOM     51  N   UNL A   1      39.818  30.467  31.301  1.00  0.00    -0.354 N 
ATOM     52  C   UNL A   1      43.109  28.923  33.574  1.00  0.00     0.074 A 
ATOM     53  C   UNL A   1      43.797  27.868  32.855  1.00  0.00     0.031 C 
ATOM     54  C   UNL A   1      38.369  30.568  29.600  1.00  0.00     0.029 A 
ATOM     55  C   UNL A   1      38.722  31.179  30.880  1.00  0.00     0.049 A 
ATOM     56  H   UNL A   1      40.291  30.655  32.143  1.00  0.00     0.167 HD
ATOM     57  C   UNL A   1      43.469  29.371  34.801  1.00  0.00     0.031 A 
ATOM     58  C   UNL A   1      38.068  32.203  31.458  1.00  0.00     0.031 A 
ATOM     59  C   UNL A   1      42.810  30.428  35.518  1.00  0.00     0.049 A 
ATOM     60  C   UNL A   1      38.522  32.726  32.787  1.00  0.00     0.074 A 
ATOM     61  C   UNL A   1      43.093  30.927  36.778  1.00  0.00     0.029 A 
ATOM     62  N   UNL A   1      41.740  31.162  35.030  1.00  0.00    -0.354 N 
ATOM     63  N   UNL A   1      39.502  32.300  33.545  1.00  0.00    -0.248 NA
ATOM     64  C   UNL A   1      37.778  33.868  33.339  1.00  0.00     0.031 C 
ATOM     65  C   UNL A   1      42.196  31.971  37.049  1.00  0.00     0.029 A 
ATOM     66  C   UNL A   1      41.358  32.119  35.955  1.00  0.00     0.049 A 
ATOM     67  H   UNL A   1      41.314  31.023  34.154  1.00  0.00     0.167 HD
ATOM     68  C   UNL A   1      39.489  33.114  34.669  1.00  0.00     0.074 A 
ATOM     69  C   UNL A   1      38.413  34.067  34.488  1.00  0.00     0.031 C 
ATOM     70  C   UNL A   1      40.292  33.065  35.760  1.00  0.00     0.031 A 
BRANCH  57  71
ATOM     71  C   UNL A   1      44.633  28.680  35.446  1.00  0.00    -0.014 A 
ATOM     72  C   UNL A   1      45.941  29.156  35.257  1.00  0.00     0.010 A 
ATOM     73  C   UNL A   1      44.419  27.528  36.223  1.00  0.00     0.010 A 
ATOM     74  C   UNL A   1      47.026  28.464  35.802  1.00  0.00     0.020 A 
ATOM     75  C   UNL A   1      45.501  26.836  36.771  1.00  0.00     0.020 A 
ATOM     76  C   UNL A   1      46.800  27.297  36.538  1.00  0.00     0.054 A 
BRANCH  76  77
ATOM     77  S   UNL A   1      48.204  26.371  37.220  1.00  0.00     0.124 S 
ATOM     78  O   UNL A   1      49.293  26.789  36.340  1.00  0.00    -0.237 OA
ATOM     79  O   UNL A   1      48.292  26.853  38.596  1.00  0.00    -0.237 OA
ATOM     80  O   UNL A   1      47.783  24.979  37.079  1.00  0.00    -0.744 OA
ENDBRANCH  76  77
ENDBRANCH  57  71
BRANCH  58  81
ATOM     81  C   UNL A   1      36.897  32.791  30.766  1.00  0.00    -0.014 A 
ATOM     82  C   UNL A   1      35.595  32.440  31.161  1.00  0.00     0.010 A 
ATOM     83  C   UNL A   1      37.082  33.756  29.763  1.00  0.00     0.010 A 
ATOM     84  C   UNL A   1      34.490  33.057  30.570  1.00  0.00     0.020 A 
ATOM     85  C   UNL A   1      35.979  34.378  29.174  1.00  0.00     0.020 A 
ATOM     86  C   UNL A   1      34.689  34.024  29.582  1.00  0.00     0.054 A 
BRANCH  86  87
ATOM     87  S   UNL A   1      33.269  34.910  28.880  1.00  0.00     0.124 S 
ATOM     88  O   UNL A   1      32.779  33.961  27.887  1.00  0.00    -0.237 OA
ATOM     89  O   UNL A   1      32.400  35.119  30.036  1.00  0.00    -0.237 OA
ATOM     90  O   UNL A   1      33.879  36.127  28.347  1.00  0.00    -0.744 OA
ENDBRANCH  86  87
ENDBRANCH  58  81
BRANCH  70  91
ATOM     91  C   UNL A   1      40.029  34.073  36.840  1.00  0.00    -0.014 A 
ATOM     92  C   UNL A   1      40.621  35.346  36.778  1.00  0.00     0.010 A 
ATOM     93  C   UNL A   1      39.176  33.757  37.910  1.00  0.00     0.010 A 
ATOM     94  C   UNL A   1      40.379  36.285  37.784  1.00  0.00     0.020 A 
ATOM     95  C   UNL A   1      38.930  34.695  38.917  1.00  0.00     0.020 A 
ATOM     96  C   UNL A   1      39.544  35.949  38.854  1.00  0.00     0.054 A 
BRANCH  96  97
ATOM     97  S   UNL A   1      39.206  37.176  40.148  1.00  0.00     0.124 S 
ATOM     98  O   UNL A   1      38.464  36.387  41.126  1.00  0.00    -0.237 OA
ATOM     99  O   UNL A   1      40.541  37.600  40.567  1.00  0.00    -0.237 OA
ATOM    100  O   UNL A   1      38.430  38.197  39.447  1.00  0.00    -0.744 OA
ENDBRANCH  96  97
ENDBRANCH  70  91
ENDBRANCH  44  45
ENDBRANCH  36  39
ENDBRANCH  34  35
ENDBRANCH  33  34
ENDBRANCH   1  33
TORSDOF 20
ENDMDL
MODEL 2
REMARK VINA RESULT:     -11.8      3.318      9.353
REMARK SMILES CC(=O)NS(=O)(=O)c1cc(-c2ccn(C(F)F)c(=O)c2)ccc1C(=O)NCCCCCCNC(=O)c1ccc(-c2c3nc(c(-c4ccc(S(=O)(=O)[O-])cc4)c4ccc([nH]4)c(-c4ccc(S(=O)(=O)[O-])cc4)c4nc(c(-c5ccc(S(=O)(=O)[O-])cc5)c5ccc2[nH]5)C=C4)C=C3)cc1
REMARK SMILES IDX 30 1 29 2 28 3 27 4 26 5 24 6 25 7 23 9 8 10 9 11 10 12
REMARK SMILES IDX 22 13 21 14 5 15 6 16 7 17 4 18 1 19 2 20 3 21 11 23 12 24
REMARK SMILES IDX 20 25 13 26 18 27 14 28 19 29 15 30 16 31 17 32 31 33 32 34
REMARK SMILES IDX 33 35 34 36 35 38 36 39 37 40 95 41 38 42 94 43 39 44 40 45
REMARK SMILES IDX 41 46 88 47 42 48 93 49 87 50 89 51 43 52 92 53 86 54 85 55
REMARK SMILES IDX 44 57 74 58 55 59 73 60 56 61 59 62 72 63 90 64 57 65 58 66
REMARK SMILES IDX 71 68 91 69 60 70 45 71 46 72 54 73 47 74 53 75 48 76 49 77
REMARK SMILES IDX 50 78 51 79 52 80 75 81 76 82 84 83 77 84 83 85 78 86 79 87
REMARK SMILES IDX 80 88 81 89 82 90 61 91 62 92 70 93 63 94 69 95 64 96 65 97
REMARK SMILES IDX 66 98 67 99 68 100
REMARK H PARENT 26 8 4 22 33 37 89 56 59 67
REMARK Flexibility Score: inf
ROOT
ATOM      1  C   UNL A   1      35.238  31.957  27.979  1.00  0.00     0.002 C 
ENDROOT
BRANCH   1   2
ATOM      2  C   UNL A   1      35.248  30.439  27.776  1.00  0.00     0.002 C 
BRANCH   2   3
ATOM      3  C   UNL A   1      34.154  29.916  26.841  1.00  0.00     0.021 C 
BRANCH   3   4
ATOM      4  C   UNL A   1      33.923  28.402  26.908  1.00  0.00     0.116 C 
BRANCH   4   5
ATOM      5  N   UNL A   1      32.518  28.133  27.161  1.00  0.00    -0.352 N 
ATOM      6  C   UNL A   1      31.689  27.132  26.743  1.00  0.00     0.252 C 
ATOM      7  O   UNL A   1      30.504  27.152  27.077  1.00  0.00    -0.269 OA
ATOM      8  H   UNL A   1      32.081  28.798  27.742  1.00  0.00     0.163 HD
BRANCH   6   9
ATOM      9  C   UNL A   1      32.156  25.941  26.003  1.00  0.00     0.060 A 
ATOM     10  C   UNL A   1      32.117  25.770  24.615  1.00  0.00     0.101 A 
ATOM     11  C   UNL A   1      32.325  24.494  24.057  1.00  0.00     0.031 A 
ATOM     12  C   UNL A   1      32.496  23.375  24.880  1.00  0.00    -0.017 A 
ATOM     13  C   UNL A   1      32.416  24.820  26.815  1.00  0.00     0.016 A 
ATOM     14  C   UNL A   1      32.577  23.547  26.262  1.00  0.00     0.009 A 
BRANCH  10  15
ATOM     15  S   UNL A   1      31.676  27.089  23.529  1.00  0.00     0.264 S 
ATOM     16  O   UNL A   1      31.722  26.547  22.196  1.00  0.00    -0.201 OA
ATOM     17  O   UNL A   1      32.408  28.278  23.909  1.00  0.00    -0.201 OA
BRANCH  15  18
ATOM     18  N   UNL A   1      30.070  27.382  23.818  1.00  0.00    -0.249 N 
ATOM     19  C   UNL A   1      29.708  29.322  22.279  1.00  0.00     0.115 C 
ATOM     20  C   UNL A   1      29.175  28.183  23.099  1.00  0.00     0.230 C 
ATOM     21  O   UNL A   1      27.976  28.007  23.255  1.00  0.00    -0.274 OA
ATOM     22  H   UNL A   1      29.693  26.930  24.607  1.00  0.00     0.183 HD
ENDBRANCH  15  18
ENDBRANCH  10  15
BRANCH  12  23
ATOM     23  C   UNL A   1      32.361  22.028  24.298  1.00  0.00    -0.011 A 
ATOM     24  C   UNL A   1      32.196  21.857  22.866  1.00  0.00     0.027 A 
ATOM     25  C   UNL A   1      32.457  20.942  25.082  1.00  0.00     0.080 A 
ATOM     26  C   UNL A   1      32.182  20.637  22.321  1.00  0.00     0.095 A 
ATOM     27  C   UNL A   1      32.401  19.572  24.491  1.00  0.00     0.255 A 
ATOM     28  N   UNL A   1      32.300  19.509  23.109  1.00  0.00    -0.258 N 
ATOM     29  O   UNL A   1      32.456  18.606  25.244  1.00  0.00    -0.269 OA
BRANCH  28  30
ATOM     30  C   UNL A   1      32.300  18.200  22.506  1.00  0.00     0.451 C 
ATOM     31  F   UNL A   1      32.148  18.275  21.163  1.00  0.00    -0.185 F 
ATOM     32  F   UNL A   1      33.458  17.545  22.765  1.00  0.00    -0.185 F 
ENDBRANCH  28  30
ENDBRANCH  12  23
ENDBRANCH   6   9
ENDBRANCH   4   5
ENDBRANCH   3   4
ENDBRANCH   2   3
ENDBRANCH   1   2
BRANCH   1  33
ATOM     33  C   UNL A   1      33.858  32.622  28.102  1.00  0.00     0.021 C 
BRANCH  33  34
ATOM     34  C   UNL A   1      33.822  34.151  28.021  1.00  0.00     0.116 C 
BRANCH  34  35
ATOM     35  N   UNL A   1      33.063  34.753  29.100  1.00  0.00    -0.352 N 
ATOM     36  C   UNL A   1      33.325  34.743  30.449  1.00  0.00     0.251 C 
ATOM     37  H   UNL A   1      32.248  35.234  28.831  1.00  0.00     0.163 HD
ATOM     38  O   UNL A   1      32.507  35.215  31.234  1.00  0.00    -0.269 OA
BRANCH  36  39
ATOM     39  C   UNL A   1      34.573  34.136  30.968  1.00  0.00     0.039 A 
ATOM     40  C   UNL A   1      35.790  34.756  30.664  1.00  0.00     0.014 A 
ATOM     41  C   UNL A   1      34.558  32.949  31.708  1.00  0.00     0.014 A 
ATOM     42  C   UNL A   1      36.987  34.222  31.148  1.00  0.00     0.010 A 
ATOM     43  C   UNL A   1      35.755  32.420  32.199  1.00  0.00     0.010 A 
ATOM     44  C   UNL A   1      36.977  33.059  31.932  1.00  0.00    -0.014 A 
BRANCH  44  45
ATOM     45  C   UNL A   1      38.235  32.525  32.504  1.00  0.00     0.031 A 
ATOM     46  C   UNL A   1      39.142  31.653  31.688  1.00  0.00     0.074 A 
ATOM     47  C   UNL A   1      38.554  32.808  33.780  1.00  0.00     0.049 A 
ATOM     48  N   UNL A   1      40.235  31.033  32.056  1.00  0.00    -0.248 NA
ATOM     49  C   UNL A   1      38.769  31.445  30.282  1.00  0.00     0.031 C 
ATOM     50  C   UNL A   1      37.757  33.638  34.686  1.00  0.00     0.029 A 
ATOM     51  N   UNL A   1      39.631  32.424  34.536  1.00  0.00    -0.354 N 
ATOM     52  C   UNL A   1      40.668  30.336  30.937  1.00  0.00     0.074 A 
ATOM     53  C   UNL A   1      39.728  30.626  29.871  1.00  0.00     0.031 C 
ATOM     54  C   UNL A   1      38.378  33.703  35.876  1.00  0.00     0.029 A 
ATOM     55  C   UNL A   1      39.605  32.911  35.819  1.00  0.00     0.049 A 
ATOM     56  H   UNL A   1      40.355  31.851  34.192  1.00  0.00     0.167 HD
ATOM     57  C   UNL A   1      41.741  29.519  30.808  1.00  0.00     0.031 A 
ATOM     58  C   UNL A   1      40.464  32.737  36.839  1.00  0.00     0.031 A 
ATOM     59  C   UNL A   1      42.691  29.238  31.849  1.00  0.00     0.049 A 
ATOM     60  C   UNL A   1      41.681  31.882  36.656  1.00  0.00     0.074 A 
ATOM     61  C   UNL A   1      43.794  28.401  31.811  1.00  0.00     0.029 A 
ATOM     62  N   UNL A   1      42.660  29.798  33.116  1.00  0.00    -0.354 N 
ATOM     63  N   UNL A   1      42.055  31.203  35.599  1.00  0.00    -0.248 NA
ATOM     64  C   UNL A   1      42.590  31.767  37.806  1.00  0.00     0.031 C 
ATOM     65  C   UNL A   1      44.435  28.462  33.057  1.00  0.00     0.029 A 
ATOM     66  C   UNL A   1      43.730  29.338  33.866  1.00  0.00     0.049 A 
ATOM     67  H   UNL A   1      41.977  30.430  33.436  1.00  0.00     0.167 HD
ATOM     68  C   UNL A   1      43.238  30.572  35.958  1.00  0.00     0.074 A 
ATOM     69  C   UNL A   1      43.527  30.959  37.324  1.00  0.00     0.031 C 
ATOM     70  C   UNL A   1      44.009  29.736  35.220  1.00  0.00     0.031 A 
BRANCH  57  71
ATOM     71  C   UNL A   1      41.916  28.856  29.475  1.00  0.00    -0.014 A 
ATOM     72  C   UNL A   1      41.448  27.549  29.260  1.00  0.00     0.010 A 
ATOM     73  C   UNL A   1      42.580  29.534  28.438  1.00  0.00     0.010 A 
ATOM     74  C   UNL A   1      41.679  26.912  28.037  1.00  0.00     0.020 A 
ATOM     75  C   UNL A   1      42.811  28.901  27.215  1.00  0.00     0.020 A 
ATOM     76  C   UNL A   1      42.377  27.585  27.030  1.00  0.00     0.054 A 
BRANCH  76  77
ATOM     77  S   UNL A   1      42.714  26.755  25.453  1.00  0.00     0.124 S 
ATOM     78  O   UNL A   1      42.778  27.885  24.529  1.00  0.00    -0.237 OA
ATOM     79  O   UNL A   1      43.982  26.071  25.693  1.00  0.00    -0.237 OA
ATOM     80  O   UNL A   1      41.560  25.875  25.287  1.00  0.00    -0.744 OA
ENDBRANCH  76  77
ENDBRANCH  57  71
BRANCH  58  81
ATOM     81  C   UNL A   1      40.182  33.395  38.137  1.00  0.00    -0.014 A 
ATOM     82  C   UNL A   1      40.738  34.653  38.426  1.00  0.00     0.010 A 
ATOM     83  C   UNL A   1      39.301  32.798  39.053  1.00  0.00     0.010 A 
ATOM     84  C   UNL A   1      40.405  35.314  39.611  1.00  0.00     0.020 A 
ATOM     85  C   UNL A   1      38.963  33.458  40.236  1.00  0.00     0.020 A 
ATOM     86  C   UNL A   1      39.517  34.713  40.507  1.00  0.00     0.054 A 
BRANCH  86  87
ATOM     87  S   UNL A   1      38.993  35.605  41.999  1.00  0.00     0.124 S 
ATOM     88  O   UNL A   1      39.853  35.020  43.020  1.00  0.00    -0.237 OA
ATOM     89  O   UNL A   1      39.267  37.002  41.668  1.00  0.00    -0.237 OA
ATOM     90  O   UNL A   1      37.574  35.266  42.095  1.00  0.00    -0.744 OA
ENDBRANCH  86  87
ENDBRANCH  58  81
BRANCH  70  91
ATOM     91  C   UNL A   1      45.236  29.184  35.885  1.00  0.00    -0.014 A 
ATOM     92  C   UNL A   1      46.481  29.810  35.702  1.00  0.00     0.010 A 
ATOM     93  C   UNL A   1      45.145  28.049  36.707  1.00  0.00     0.010 A 
ATOM     94  C   UNL A   1      47.625  29.296  36.318  1.00  0.00     0.020 A 
ATOM     95  C   UNL A   1      46.288  27.534  37.326  1.00  0.00     0.020 A 
ATOM     96  C   UNL A   1      47.523  28.154  37.117  1.00  0.00     0.054 A 
BRANCH  96  97
ATOM     97  S   UNL A   1      49.003  27.500  37.940  1.00  0.00     0.124 S 
ATOM     98  O   UNL A   1      48.512  26.238  38.486  1.00  0.00    -0.237 OA
ATOM     99  O   UNL A   1      49.969  27.378  36.850  1.00  0.00    -0.237 OA
ATOM    100  O   UNL A   1      49.319  28.530  38.928  1.00  0.00    -0.744 OA
ENDBRANCH  96  97
ENDBRANCH  70  91
ENDBRANCH  44  45
ENDBRANCH  36  39
ENDBRANCH  34  35
ENDBRANCH  33  34
ENDBRANCH   1  33
TORSDOF 20
ENDMDL
MODEL 3
REMARK VINA RESULT:     -11.7      5.700     12.617
REMARK SMILES CC(=O)NS(=O)(=O)c1cc(-c2ccn(C(F)F)c(=O)c2)ccc1C(=O)NCCCCCCNC(=O)c1ccc(-c2c3nc(c(-c4ccc(S(=O)(=O)[O-])cc4)c4ccc([nH]4)c(-c4ccc(S(=O)(=O)[O-])cc4)c4nc(c(-c5ccc(S(=O)(=O)[O-])cc5)c5ccc2[nH]5)C=C4)C=C3)cc1
REMARK SMILES IDX 30 1 29 2 28 3 27 4 26 5 24 6 25 7 23 9 8 10 9 11 10 12
REMARK SMILES IDX 22 13 21 14 5 15 6 16 7 17 4 18 1 19 2 20 3 21 11 23 12 24
REMARK SMILES IDX 20 25 13 26 18 27 14 28 19 29 15 30 16 31 17 32 31 33 32 34
REMARK SMILES IDX 33 35 34 36 35 38 36 39 37 40 95 41 38 42 94 43 39 44 40 45
REMARK SMILES IDX 41 46 88 47 42 48 93 49 87 50 89 51 43 52 92 53 86 54 85 55
REMARK SMILES IDX 44 57 74 58 55 59 73 60 56 61 59 62 72 63 90 64 57 65 58 66
REMARK SMILES IDX 71 68 91 69 60 70 45 71 46 72 54 73 47 74 53 75 48 76 49 77
REMARK SMILES IDX 50 78 51 79 52 80 75 81 76 82 84 83 77 84 83 85 78 86 79 87
REMARK SMILES IDX 80 88 81 89 82 90 61 91 62 92 70 93 63 94 69 95 64 96 65 97
REMARK SMILES IDX 66 98 67 99 68 100
REMARK H PARENT 26 8 4 22 33 37 89 56 59 67
REMARK Flexibility Score: inf
ROOT
ATOM      1  C   UNL A   1      34.332  34.358  30.430  1.00  0.00     0.002 C 
ENDROOT
BRANCH   1   2
ATOM      2  C   UNL A   1      35.305  33.452  31.190  1.00  0.00     0.002 C 
BRANCH   2   3
ATOM      3  C   UNL A   1      34.664  32.632  32.314  1.00  0.00     0.021 C 
BRANCH   3   4
ATOM      4  C   UNL A   1      34.664  33.316  33.686  1.00  0.00     0.116 C 
BRANCH   4   5
ATOM      5  N   UNL A   1      35.784  34.238  33.772  1.00  0.00    -0.352 N 
ATOM      6  C   UNL A   1      37.088  34.061  34.135  1.00  0.00     0.252 C 
ATOM      7  O   UNL A   1      37.844  35.032  34.158  1.00  0.00    -0.269 OA
ATOM      8  H   UNL A   1      35.560  35.164  33.521  1.00  0.00     0.163 HD
BRANCH   6   9
ATOM      9  C   UNL A   1      37.691  32.735  34.392  1.00  0.00     0.060 A 
ATOM     10  C   UNL A   1      38.119  32.255  35.635  1.00  0.00     0.101 A 
ATOM     11  C   UNL A   1      38.928  31.105  35.704  1.00  0.00     0.031 A 
ATOM     12  C   UNL A   1      39.374  30.475  34.536  1.00  0.00    -0.017 A 
ATOM     13  C   UNL A   1      38.076  32.040  33.229  1.00  0.00     0.016 A 
ATOM     14  C   UNL A   1      38.916  30.925  33.297  1.00  0.00     0.009 A 
BRANCH  10  15
ATOM     15  S   UNL A   1      37.790  33.131  37.132  1.00  0.00     0.264 S 
ATOM     16  O   UNL A   1      36.367  33.344  37.169  1.00  0.00    -0.201 OA
ATOM     17  O   UNL A   1      38.742  34.213  37.264  1.00  0.00    -0.201 OA
BRANCH  15  18
ATOM     18  N   UNL A   1      38.094  32.050  38.352  1.00  0.00    -0.249 N 
ATOM     19  C   UNL A   1      37.346  33.408  40.316  1.00  0.00     0.115 C 
ATOM     20  C   UNL A   1      37.674  32.086  39.687  1.00  0.00     0.230 C 
ATOM     21  O   UNL A   1      37.703  31.052  40.337  1.00  0.00    -0.274 OA
ATOM     22  H   UNL A   1      38.649  31.276  38.103  1.00  0.00     0.183 HD
ENDBRANCH  15  18
ENDBRANCH  10  15
BRANCH  12  23
ATOM     23  C   UNL A   1      40.481  29.508  34.621  1.00  0.00    -0.011 A 
ATOM     24  C   UNL A   1      40.909  28.771  33.446  1.00  0.00     0.027 A 
ATOM     25  C   UNL A   1      41.150  29.348  35.775  1.00  0.00     0.080 A 
ATOM     26  C   UNL A   1      41.980  27.975  33.490  1.00  0.00     0.095 A 
ATOM     27  C   UNL A   1      42.325  28.428  35.850  1.00  0.00     0.255 A 
ATOM     28  N   UNL A   1      42.693  27.813  34.663  1.00  0.00    -0.258 N 
ATOM     29  O   UNL A   1      42.886  28.281  36.931  1.00  0.00    -0.269 OA
BRANCH  28  30
ATOM     30  C   UNL A   1      43.857  26.963  34.693  1.00  0.00     0.451 C 
ATOM     31  F   UNL A   1      43.659  25.830  33.979  1.00  0.00    -0.185 F 
ATOM     32  F   UNL A   1      44.939  27.601  34.184  1.00  0.00    -0.185 F 
ENDBRANCH  28  30
ENDBRANCH  12  23
ENDBRANCH   6   9
ENDBRANCH   4   5
ENDBRANCH   3   4
ENDBRANCH   2   3
ENDBRANCH   1   2
BRANCH   1  33
ATOM     33  C   UNL A   1      34.101  34.023  28.948  1.00  0.00     0.021 C 
BRANCH  33  34
ATOM     34  C   UNL A   1      34.940  32.884  28.362  1.00  0.00     0.116 C 
BRANCH  34  35
ATOM     35  N   UNL A   1      34.152  31.708  28.049  1.00  0.00    -0.352 N 
ATOM     36  C   UNL A   1      34.553  30.396  27.966  1.00  0.00     0.251 C 
ATOM     37  H   UNL A   1      33.198  31.871  27.870  1.00  0.00     0.163 HD
ATOM     38  O   UNL A   1      33.764  29.539  27.577  1.00  0.00    -0.269 OA
BRANCH  36  39
ATOM     39  C   UNL A   1      35.942  30.013  28.310  1.00  0.00     0.039 A 
ATOM     40  C   UNL A   1      36.897  29.985  27.288  1.00  0.00     0.014 A 
ATOM     41  C   UNL A   1      36.300  29.645  29.612  1.00  0.00     0.014 A 
ATOM     42  C   UNL A   1      38.221  29.644  27.577  1.00  0.00     0.010 A 
ATOM     43  C   UNL A   1      37.626  29.312  29.901  1.00  0.00     0.010 A 
ATOM     44  C   UNL A   1      38.598  29.320  28.888  1.00  0.00    -0.014 A 
BRANCH  44  45
ATOM     45  C   UNL A   1      40.013  29.022  29.213  1.00  0.00     0.031 A 
ATOM     46  C   UNL A   1      40.631  27.710  28.833  1.00  0.00     0.074 A 
ATOM     47  C   UNL A   1      40.744  29.934  29.880  1.00  0.00     0.049 A 
ATOM     48  N   UNL A   1      41.824  27.252  29.112  1.00  0.00    -0.248 NA
ATOM     49  C   UNL A   1      39.797  26.792  28.043  1.00  0.00     0.031 C 
ATOM     50  C   UNL A   1      40.264  31.247  30.315  1.00  0.00     0.029 A 
ATOM     51  N   UNL A   1      42.045  29.891  30.311  1.00  0.00    -0.354 N 
ATOM     52  C   UNL A   1      41.879  25.979  28.561  1.00  0.00     0.074 A 
ATOM     53  C   UNL A   1      40.603  25.747  27.913  1.00  0.00     0.031 C 
ATOM     54  C   UNL A   1      41.262  31.886  30.948  1.00  0.00     0.029 A 
ATOM     55  C   UNL A   1      42.442  31.025  30.974  1.00  0.00     0.049 A 
ATOM     56  H   UNL A   1      42.638  29.119  30.160  1.00  0.00     0.167 HD
ATOM     57  C   UNL A   1      42.892  25.081  28.598  1.00  0.00     0.031 A 
ATOM     58  C   UNL A   1      43.619  31.338  31.547  1.00  0.00     0.031 A 
ATOM     59  C   UNL A   1      44.169  25.304  29.220  1.00  0.00     0.049 A 
ATOM     60  C   UNL A   1      44.749  30.354  31.521  1.00  0.00     0.074 A 
ATOM     61  C   UNL A   1      45.243  24.437  29.327  1.00  0.00     0.029 A 
ATOM     62  N   UNL A   1      44.551  26.488  29.831  1.00  0.00    -0.354 N 
ATOM     63  N   UNL A   1      44.770  29.141  31.022  1.00  0.00    -0.248 NA
ATOM     64  C   UNL A   1      46.014  30.780  32.137  1.00  0.00     0.031 C 
ATOM     65  C   UNL A   1      46.280  25.103  29.997  1.00  0.00     0.029 A 
ATOM     66  C   UNL A   1      45.848  26.383  30.305  1.00  0.00     0.049 A 
ATOM     67  H   UNL A   1      43.982  27.288  29.915  1.00  0.00     0.167 HD
ATOM     68  C   UNL A   1      46.046  28.655  31.273  1.00  0.00     0.074 A 
ATOM     69  C   UNL A   1      46.773  29.706  31.954  1.00  0.00     0.031 C 
ATOM     70  C   UNL A   1      46.562  27.438  30.974  1.00  0.00     0.031 A 
BRANCH  57  71
ATOM     71  C   UNL A   1      42.628  23.754  27.953  1.00  0.00    -0.014 A 
ATOM     72  C   UNL A   1      42.112  22.684  28.704  1.00  0.00     0.010 A 
ATOM     73  C   UNL A   1      42.927  23.565  26.593  1.00  0.00     0.010 A 
ATOM     74  C   UNL A   1      41.936  21.430  28.113  1.00  0.00     0.020 A 
ATOM     75  C   UNL A   1      42.751  22.314  25.998  1.00  0.00     0.020 A 
ATOM     76  C   UNL A   1      42.277  21.248  26.769  1.00  0.00     0.054 A 
BRANCH  76  77
ATOM     77  S   UNL A   1      42.087  19.616  26.000  1.00  0.00     0.124 S 
ATOM     78  O   UNL A   1      40.662  19.602  25.677  1.00  0.00    -0.237 OA
ATOM     79  O   UNL A   1      42.988  19.674  24.853  1.00  0.00    -0.237 OA
ATOM     80  O   UNL A   1      42.497  18.699  27.062  1.00  0.00    -0.744 OA
ENDBRANCH  76  77
ENDBRANCH  57  71
BRANCH  58  81
ATOM     81  C   UNL A   1      43.771  32.657  32.204  1.00  0.00    -0.014 A 
ATOM     82  C   UNL A   1      44.031  33.803  31.434  1.00  0.00     0.010 A 
ATOM     83  C   UNL A   1      43.585  32.779  33.591  1.00  0.00     0.010 A 
ATOM     84  C   UNL A   1      44.088  35.060  32.041  1.00  0.00     0.020 A 
ATOM     85  C   UNL A   1      43.637  34.036  34.199  1.00  0.00     0.020 A 
ATOM     86  C   UNL A   1      43.888  35.169  33.419  1.00  0.00     0.054 A 
BRANCH  86  87
ATOM     87  S   UNL A   1      43.855  36.805  34.204  1.00  0.00     0.124 S 
ATOM     88  O   UNL A   1      45.176  37.327  33.874  1.00  0.00    -0.237 OA
ATOM     89  O   UNL A   1      42.731  37.469  33.548  1.00  0.00    -0.237 OA
ATOM     90  O   UNL A   1      43.636  36.481  35.613  1.00  0.00    -0.744 OA
ENDBRANCH  86  87
ENDBRANCH  58  81
BRANCH  70  91
ATOM     91  C   UNL A   1      47.981  27.184  31.387  1.00  0.00    -0.014 A 
ATOM     92  C   UNL A   1      48.263  26.642  32.653  1.00  0.00     0.010 A 
ATOM     93  C   UNL A   1      49.037  27.472  30.506  1.00  0.00     0.010 A 
ATOM     94  C   UNL A   1      49.585  26.407  33.041  1.00  0.00     0.020 A 
ATOM     95  C   UNL A   1      50.360  27.236  30.891  1.00  0.00     0.020 A 
ATOM     96  C   UNL A   1      50.626  26.717  32.162  1.00  0.00     0.054 A 
BRANCH  96  97
ATOM     97  S   UNL A   1      52.342  26.388  32.652  1.00  0.00     0.124 S 
ATOM     98  O   UNL A   1      53.083  27.313  31.800  1.00  0.00    -0.237 OA
ATOM     99  O   UNL A   1      52.351  26.705  34.079  1.00  0.00    -0.237 OA
ATOM    100  O   UNL A   1      52.515  24.971  32.337  1.00  0.00    -0.744 OA
ENDBRANCH  96  97
ENDBRANCH  70  91
ENDBRANCH  44  45
ENDBRANCH  36  39
ENDBRANCH  34  35
ENDBRANCH  33  34
ENDBRANCH   1  33
TORSDOF 20
ENDMDL
