MODEL 1
REMARK VINA RESULT:     -11.5      0.000      0.000
REMARK SMILES CC(C)[C@@H](NC(=O)/C(=C\c1ccccc1F)NC(=O)c1ccccc1)C(=O)NCCCCCCNC(=O)c1ccc(-c2c3nc(c(-c4ccc(S(=O)(=O)[O-])cc4)c4ccc([nH]4)c(-c4ccc(S(=O)(=O)[O-])cc4)c4nc(c(-c5ccc(S(=O)(=O)[O-])cc5)c5ccc2[nH]5)C=C4)C=C3)cc1
REMARK SMILES IDX 31 1 30 2 29 3 28 4 26 5 27 6 4 8 2 9 1 10 3 11 5 12 6 13
REMARK SMILES IDX 7 15 8 16 9 17 17 18 18 19 19 21 20 22 21 23 25 24 22 25
REMARK SMILES IDX 24 26 23 27 10 28 11 29 15 30 12 31 14 32 16 33 13 34 32 35
REMARK SMILES IDX 33 36 34 37 35 38 36 39 37 41 38 42 39 43 97 44 40 45 96 46
REMARK SMILES IDX 41 47 42 48 43 49 90 50 44 51 95 52 89 53 91 54 45 55 94 56
REMARK SMILES IDX 88 57 87 58 46 60 76 61 57 62 75 63 58 64 61 65 74 66 92 67
REMARK SMILES IDX 59 68 60 69 73 71 93 72 62 73 47 74 48 75 56 76 49 77 55 78
REMARK SMILES IDX 50 79 51 80 52 81 53 82 54 83 77 84 78 85 86 86 79 87 85 88
REMARK SMILES IDX 80 89 81 90 82 91 83 92 84 93 63 94 64 95 72 96 65 97 71 98
REMARK SMILES IDX 66 99 67 100 68 101 69 102 70 103
REMARK H PARENT 28 7 5 14 17 20 35 40 91 59 61 70
REMARK Flexibility Score: inf
ROOT
ATOM      1  C   UNL A   1      32.573  29.741  27.180  1.00  0.00     0.002 C 
ENDROOT
BRANCH   1   2
ATOM      2  C   UNL A   1      31.797  28.482  27.587  1.00  0.00     0.021 C 
BRANCH   2   3
ATOM      3  C   UNL A   1      31.993  27.345  26.595  1.00  0.00     0.116 C 
BRANCH   3   4
ATOM      4  N   UNL A   1      30.707  26.723  26.395  1.00  0.00    -0.354 N 
ATOM      5  C   UNL A   1      30.463  25.673  25.572  1.00  0.00     0.242 C 
ATOM      6  O   UNL A   1      29.481  25.745  24.831  1.00  0.00    -0.273 OA
ATOM      7  H   UNL A   1      29.944  27.092  26.896  1.00  0.00     0.163 HD
BRANCH   5   8
ATOM      8  C   UNL A   1      31.478  24.537  25.448  1.00  0.00     0.174 C 
BRANCH   8   9
ATOM      9  C   UNL A   1      31.520  23.725  26.791  1.00  0.00     0.015 C 
ATOM     10  C   UNL A   1      30.376  22.710  26.878  1.00  0.00     0.010 C 
ATOM     11  C   UNL A   1      32.839  22.956  27.012  1.00  0.00     0.010 C 
ENDBRANCH   8   9
BRANCH   8  12
ATOM     12  N   UNL A   1      31.256  23.681  24.256  1.00  0.00    -0.339 N 
ATOM     13  C   UNL A   1      32.242  23.031  23.539  1.00  0.00     0.268 C 
ATOM     14  H   UNL A   1      30.326  23.567  23.949  1.00  0.00     0.164 HD
ATOM     15  O   UNL A   1      32.233  21.800  23.504  1.00  0.00    -0.268 OA
BRANCH  13  16
ATOM     16  C   UNL A   1      33.146  23.798  22.594  1.00  0.00     0.107 C 
ATOM     17  C   UNL A   1      34.483  23.926  22.765  1.00  0.00     0.043 C 
BRANCH  16  18
ATOM     18  N   UNL A   1      32.653  24.343  21.414  1.00  0.00    -0.317 N 
ATOM     19  C   UNL A   1      32.294  25.596  20.986  1.00  0.00     0.255 C 
ATOM     20  H   UNL A   1      32.533  23.663  20.713  1.00  0.00     0.170 HD
ATOM     21  O   UNL A   1      31.834  25.725  19.850  1.00  0.00    -0.269 OA
BRANCH  19  22
ATOM     22  C   UNL A   1      32.418  26.786  21.823  1.00  0.00     0.040 A 
ATOM     23  C   UNL A   1      33.693  27.277  22.111  1.00  0.00     0.014 A 
ATOM     24  C   UNL A   1      31.282  27.350  22.403  1.00  0.00     0.014 A 
ATOM     25  C   UNL A   1      33.823  28.397  22.929  1.00  0.00     0.001 A 
ATOM     26  C   UNL A   1      31.417  28.476  23.214  1.00  0.00     0.001 A 
ATOM     27  C   UNL A   1      32.685  29.003  23.466  1.00  0.00     0.000 A 
ENDBRANCH  19  22
ENDBRANCH  16  18
BRANCH  17  28
ATOM     28  C   UNL A   1      35.355  23.534  23.876  1.00  0.00     0.012 A 
ATOM     29  C   UNL A   1      36.148  22.386  23.694  1.00  0.00     0.011 A 
ATOM     30  C   UNL A   1      35.481  24.246  25.067  1.00  0.00     0.130 A 
ATOM     31  C   UNL A   1      37.148  22.061  24.615  1.00  0.00     0.001 A 
ATOM     32  C   UNL A   1      36.469  23.919  25.994  1.00  0.00     0.040 A 
ATOM     33  F   UNL A   1      34.672  25.278  25.332  1.00  0.00    -0.206 F 
ATOM     34  C   UNL A   1      37.328  22.848  25.750  1.00  0.00     0.003 A 
ENDBRANCH  17  28
ENDBRANCH  13  16
ENDBRANCH   8  12
ENDBRANCH   5   8
ENDBRANCH   3   4
ENDBRANCH   2   3
ENDBRANCH   1   2
BRANCH   1  35
ATOM     35  C   UNL A   1      31.780  30.709  26.297  1.00  0.00     0.002 C 
BRANCH  35  36
ATOM     36  C   UNL A   1      31.634  32.117  26.877  1.00  0.00     0.021 C 
BRANCH  36  37
ATOM     37  C   UNL A   1      32.929  32.702  27.420  1.00  0.00     0.116 C 
BRANCH  37  38
ATOM     38  N   UNL A   1      32.758  34.054  27.916  1.00  0.00    -0.352 N 
ATOM     39  C   UNL A   1      33.443  34.670  28.933  1.00  0.00     0.251 C 
ATOM     40  H   UNL A   1      32.066  34.594  27.470  1.00  0.00     0.163 HD
ATOM     41  O   UNL A   1      33.094  35.767  29.347  1.00  0.00    -0.269 OA
BRANCH  39  42
ATOM     42  C   UNL A   1      34.590  33.962  29.538  1.00  0.00     0.039 A 
ATOM     43  C   UNL A   1      35.878  34.292  29.118  1.00  0.00     0.014 A 
ATOM     44  C   UNL A   1      34.389  33.016  30.549  1.00  0.00     0.014 A 
ATOM     45  C   UNL A   1      36.975  33.701  29.746  1.00  0.00     0.010 A 
ATOM     46  C   UNL A   1      35.484  32.484  31.222  1.00  0.00     0.010 A 
ATOM     47  C   UNL A   1      36.787  32.813  30.819  1.00  0.00    -0.014 A 
BRANCH  47  48
ATOM     48  C   UNL A   1      37.946  32.209  31.522  1.00  0.00     0.031 A 
ATOM     49  C   UNL A   1      38.356  32.724  32.875  1.00  0.00     0.074 A 
ATOM     50  C   UNL A   1      38.655  31.230  30.926  1.00  0.00     0.049 A 
ATOM     51  N   UNL A   1      39.358  32.351  33.630  1.00  0.00    -0.248 NA
ATOM     52  C   UNL A   1      37.550  33.818  33.443  1.00  0.00     0.031 C 
ATOM     53  C   UNL A   1      38.379  30.671  29.600  1.00  0.00     0.029 A 
ATOM     54  N   UNL A   1      39.756  30.533  31.357  1.00  0.00    -0.354 N 
ATOM     55  C   UNL A   1      39.311  33.172  34.752  1.00  0.00     0.074 A 
ATOM     56  C   UNL A   1      38.218  34.097  34.553  1.00  0.00     0.031 C 
ATOM     57  C   UNL A   1      39.266  29.696  29.341  1.00  0.00     0.029 A 
ATOM     58  C   UNL A   1      40.197  29.588  30.459  1.00  0.00     0.049 A 
ATOM     59  H   UNL A   1      40.188  30.694  32.226  1.00  0.00     0.167 HD
ATOM     60  C   UNL A   1      40.093  33.143  35.856  1.00  0.00     0.031 A 
ATOM     61  C   UNL A   1      41.237  28.736  30.527  1.00  0.00     0.031 A 
ATOM     62  C   UNL A   1      41.174  32.214  36.052  1.00  0.00     0.049 A 
ATOM     63  C   UNL A   1      42.102  28.732  31.759  1.00  0.00     0.074 A 
ATOM     64  C   UNL A   1      41.993  32.069  37.158  1.00  0.00     0.029 A 
ATOM     65  N   UNL A   1      41.588  31.274  35.121  1.00  0.00    -0.354 N 
ATOM     66  N   UNL A   1      42.002  29.473  32.837  1.00  0.00    -0.248 NA
ATOM     67  C   UNL A   1      43.212  27.769  31.788  1.00  0.00     0.031 C 
ATOM     68  C   UNL A   1      42.938  31.079  36.873  1.00  0.00     0.029 A 
ATOM     69  C   UNL A   1      42.668  30.563  35.616  1.00  0.00     0.049 A 
ATOM     70  H   UNL A   1      41.175  31.133  34.239  1.00  0.00     0.167 HD
ATOM     71  C   UNL A   1      43.019  29.047  33.684  1.00  0.00     0.074 A 
ATOM     72  C   UNL A   1      43.711  27.974  32.999  1.00  0.00     0.031 C 
ATOM     73  C   UNL A   1      43.347  29.499  34.920  1.00  0.00     0.031 A 
BRANCH  60  74
ATOM     74  C   UNL A   1      39.810  34.156  36.935  1.00  0.00    -0.014 A 
ATOM     75  C   UNL A   1      40.319  35.467  36.854  1.00  0.00     0.010 A 
ATOM     76  C   UNL A   1      39.000  33.805  38.030  1.00  0.00     0.010 A 
ATOM     77  C   UNL A   1      40.062  36.390  37.871  1.00  0.00     0.020 A 
ATOM     78  C   UNL A   1      38.715  34.735  39.033  1.00  0.00     0.020 A 
ATOM     79  C   UNL A   1      39.264  36.016  38.957  1.00  0.00     0.054 A 
BRANCH  79  80
ATOM     80  S   UNL A   1      38.934  37.240  40.254  1.00  0.00     0.124 S 
ATOM     81  O   UNL A   1      38.115  36.473  41.189  1.00  0.00    -0.237 OA
ATOM     82  O   UNL A   1      40.275  37.576  40.726  1.00  0.00    -0.237 OA
ATOM     83  O   UNL A   1      38.236  38.312  39.551  1.00  0.00    -0.744 OA
ENDBRANCH  79  80
ENDBRANCH  60  74
BRANCH  61  84
ATOM     84  C   UNL A   1      41.507  27.802  29.400  1.00  0.00    -0.014 A 
ATOM     85  C   UNL A   1      42.591  28.021  28.533  1.00  0.00     0.010 A 
ATOM     86  C   UNL A   1      40.687  26.676  29.198  1.00  0.00     0.010 A 
ATOM     87  C   UNL A   1      42.840  27.143  27.473  1.00  0.00     0.020 A 
ATOM     88  C   UNL A   1      40.950  25.780  28.158  1.00  0.00     0.020 A 
ATOM     89  C   UNL A   1      42.019  26.027  27.294  1.00  0.00     0.054 A 
BRANCH  89  90
ATOM     90  S   UNL A   1      42.392  24.874  25.943  1.00  0.00     0.124 S 
ATOM     91  O   UNL A   1      41.807  25.556  24.793  1.00  0.00    -0.237 OA
ATOM     92  O   UNL A   1      43.851  24.817  25.972  1.00  0.00    -0.237 OA
ATOM     93  O   UNL A   1      41.719  23.642  26.351  1.00  0.00    -0.744 OA
ENDBRANCH  89  90
ENDBRANCH  61  84
BRANCH  73  94
ATOM     94  C   UNL A   1      44.488  28.817  35.628  1.00  0.00    -0.014 A 
ATOM     95  C   UNL A   1      44.275  27.689  36.439  1.00  0.00     0.010 A 
ATOM     96  C   UNL A   1      45.802  29.281  35.428  1.00  0.00     0.010 A 
ATOM     97  C   UNL A   1      45.354  27.056  37.063  1.00  0.00     0.020 A 
ATOM     98  C   UNL A   1      46.885  28.632  36.025  1.00  0.00     0.020 A 
ATOM     99  C   UNL A   1      46.651  27.530  36.851  1.00  0.00     0.054 A 
BRANCH  99 100
ATOM    100  S   UNL A   1      48.037  26.660  37.632  1.00  0.00     0.124 S 
ATOM    101  O   UNL A   1      47.381  25.482  38.192  1.00  0.00    -0.237 OA
ATOM    102  O   UNL A   1      48.932  26.405  36.506  1.00  0.00    -0.237 OA
ATOM    103  O   UNL A   1      48.539  27.618  38.615  1.00  0.00    -0.744 OA
ENDBRANCH  99 100
ENDBRANCH  73  94
ENDBRANCH  47  48
ENDBRANCH  39  42
ENDBRANCH  37  38
ENDBRANCH  36  37
ENDBRANCH  35  36
ENDBRANCH   1  35
TORSDOF 22
ENDMDL
MODEL 2
REMARK VINA RESULT:     -11.2      4.050      5.661
REMARK SMILES CC(C)[C@@H](NC(=O)/C(=C\c1ccccc1F)NC(=O)c1ccccc1)C(=O)NCCCCCCNC(=O)c1ccc(-c2c3nc(c(-c4ccc(S(=O)(=O)[O-])cc4)c4ccc([nH]4)c(-c4ccc(S(=O)(=O)[O-])cc4)c4nc(c(-c5ccc(S(=O)(=O)[O-])cc5)c5ccc2[nH]5)C=C4)C=C3)cc1
REMARK SMILES IDX 31 1 30 2 29 3 28 4 26 5 27 6 4 8 2 9 1 10 3 11 5 12 6 13
REMARK SMILES IDX 7 15 8 16 9 17 17 18 18 19 19 21 20 22 21 23 25 24 22 25
REMARK SMILES IDX 24 26 23 27 10 28 11 29 15 30 12 31 14 32 16 33 13 34 32 35
REMARK SMILES IDX 33 36 34 37 35 38 36 39 37 41 38 42 39 43 97 44 40 45 96 46
REMARK SMILES IDX 41 47 42 48 43 49 90 50 44 51 95 52 89 53 91 54 45 55 94 56
REMARK SMILES IDX 88 57 87 58 46 60 76 61 57 62 75 63 58 64 61 65 74 66 92 67
REMARK SMILES IDX 59 68 60 69 73 71 93 72 62 73 47 74 48 75 56 76 49 77 55 78
REMARK SMILES IDX 50 79 51 80 52 81 53 82 54 83 77 84 78 85 86 86 79 87 85 88
REMARK SMILES IDX 80 89 81 90 82 91 83 92 84 93 63 94 64 95 72 96 65 97 71 98
REMARK SMILES IDX 66 99 67 100 68 101 69 102 70 103
REMARK H PARENT 28 7 5 14 17 20 35 40 91 59 61 70
REMARK Flexibility Score: inf
ROOT
ATOM      1  C   UNL A   1      33.007  28.123  24.284  1.00  0.00     0.002 C 
ENDROOT
BRANCH   1   2
ATOM      2  C   UNL A   1      32.989  26.882  23.383  1.00  0.00     0.021 C 
BRANCH   2   3
ATOM      3  C   UNL A   1      32.963  25.591  24.188  1.00  0.00     0.116 C 
BRANCH   3   4
ATOM      4  N   UNL A   1      31.740  24.903  23.857  1.00  0.00    -0.354 N 
ATOM      5  C   UNL A   1      31.372  23.685  24.327  1.00  0.00     0.242 C 
ATOM      6  O   UNL A   1      30.935  22.869  23.514  1.00  0.00    -0.273 OA
ATOM      7  H   UNL A   1      31.120  25.355  23.239  1.00  0.00     0.163 HD
BRANCH   5   8
ATOM      8  C   UNL A   1      31.671  23.293  25.774  1.00  0.00     0.174 C 
BRANCH   8   9
ATOM      9  C   UNL A   1      30.556  23.877  26.713  1.00  0.00     0.015 C 
ATOM     10  C   UNL A   1      29.835  25.066  26.071  1.00  0.00     0.010 C 
ATOM     11  C   UNL A   1      29.481  22.847  27.116  1.00  0.00     0.010 C 
ENDBRANCH   8   9
BRANCH   8  12
ATOM     12  N   UNL A   1      31.880  21.835  25.954  1.00  0.00    -0.339 N 
ATOM     13  C   UNL A   1      33.097  21.184  25.880  1.00  0.00     0.268 C 
ATOM     14  H   UNL A   1      31.085  21.284  26.141  1.00  0.00     0.164 HD
ATOM     15  O   UNL A   1      33.526  20.617  26.886  1.00  0.00    -0.268 OA
BRANCH  13  16
ATOM     16  C   UNL A   1      33.760  20.929  24.541  1.00  0.00     0.107 C 
ATOM     17  C   UNL A   1      33.967  19.696  24.024  1.00  0.00     0.043 C 
BRANCH  16  18
ATOM     18  N   UNL A   1      34.111  21.981  23.702  1.00  0.00    -0.317 N 
ATOM     19  C   UNL A   1      35.165  22.854  23.611  1.00  0.00     0.255 C 
ATOM     20  H   UNL A   1      33.439  22.137  23.001  1.00  0.00     0.170 HD
ATOM     21  O   UNL A   1      35.137  23.728  22.742  1.00  0.00    -0.269 OA
BRANCH  19  22
ATOM     22  C   UNL A   1      36.315  22.805  24.509  1.00  0.00     0.040 A 
ATOM     23  C   UNL A   1      36.605  23.923  25.294  1.00  0.00     0.014 A 
ATOM     24  C   UNL A   1      37.162  21.696  24.496  1.00  0.00     0.014 A 
ATOM     25  C   UNL A   1      37.715  23.895  26.136  1.00  0.00     0.001 A 
ATOM     26  C   UNL A   1      38.266  21.670  25.346  1.00  0.00     0.001 A 
ATOM     27  C   UNL A   1      38.533  22.764  26.172  1.00  0.00     0.000 A 
ENDBRANCH  19  22
ENDBRANCH  16  18
BRANCH  17  28
ATOM     28  C   UNL A   1      33.773  18.362  24.601  1.00  0.00     0.012 A 
ATOM     29  C   UNL A   1      32.449  17.960  24.856  1.00  0.00     0.011 A 
ATOM     30  C   UNL A   1      34.803  17.462  24.865  1.00  0.00     0.130 A 
ATOM     31  C   UNL A   1      32.165  16.640  25.214  1.00  0.00     0.001 A 
ATOM     32  C   UNL A   1      34.526  16.146  25.233  1.00  0.00     0.040 A 
ATOM     33  F   UNL A   1      36.083  17.836  24.744  1.00  0.00    -0.206 F 
ATOM     34  C   UNL A   1      33.204  15.725  25.371  1.00  0.00     0.003 A 
ENDBRANCH  17  28
ENDBRANCH  13  16
ENDBRANCH   8  12
ENDBRANCH   5   8
ENDBRANCH   3   4
ENDBRANCH   2   3
ENDBRANCH   1   2
BRANCH   1  35
ATOM     35  C   UNL A   1      31.887  28.157  25.328  1.00  0.00     0.002 C 
BRANCH  35  36
ATOM     36  C   UNL A   1      32.328  27.767  26.740  1.00  0.00     0.021 C 
BRANCH  36  37
ATOM     37  C   UNL A   1      33.635  28.409  27.182  1.00  0.00     0.116 C 
BRANCH  37  38
ATOM     38  N   UNL A   1      33.491  29.826  27.449  1.00  0.00    -0.352 N 
ATOM     39  C   UNL A   1      34.408  30.671  28.023  1.00  0.00     0.251 C 
ATOM     40  H   UNL A   1      32.633  30.231  27.187  1.00  0.00     0.163 HD
ATOM     41  O   UNL A   1      34.099  31.816  28.325  1.00  0.00    -0.269 OA
BRANCH  39  42
ATOM     42  C   UNL A   1      35.764  30.155  28.300  1.00  0.00     0.039 A 
ATOM     43  C   UNL A   1      36.731  30.244  27.299  1.00  0.00     0.014 A 
ATOM     44  C   UNL A   1      36.084  29.633  29.557  1.00  0.00     0.014 A 
ATOM     45  C   UNL A   1      38.040  29.847  27.575  1.00  0.00     0.010 A 
ATOM     46  C   UNL A   1      37.404  29.309  29.853  1.00  0.00     0.010 A 
ATOM     47  C   UNL A   1      38.392  29.401  28.861  1.00  0.00    -0.014 A 
BRANCH  47  48
ATOM     48  C   UNL A   1      39.789  29.015  29.179  1.00  0.00     0.031 A 
ATOM     49  C   UNL A   1      40.709  30.005  29.841  1.00  0.00     0.074 A 
ATOM     50  C   UNL A   1      40.242  27.794  28.833  1.00  0.00     0.049 A 
ATOM     51  N   UNL A   1      41.969  29.868  30.167  1.00  0.00    -0.248 NA
ATOM     52  C   UNL A   1      40.148  31.329  30.156  1.00  0.00     0.031 C 
ATOM     53  C   UNL A   1      39.457  26.760  28.154  1.00  0.00     0.029 A 
ATOM     54  N   UNL A   1      41.475  27.216  29.004  1.00  0.00    -0.354 N 
ATOM     55  C   UNL A   1      42.353  31.089  30.710  1.00  0.00     0.074 A 
ATOM     56  C   UNL A   1      41.211  31.970  30.619  1.00  0.00     0.031 C 
ATOM     57  C   UNL A   1      40.217  25.664  27.995  1.00  0.00     0.029 A 
ATOM     58  C   UNL A   1      41.552  25.930  28.521  1.00  0.00     0.049 A 
ATOM     59  H   UNL A   1      42.231  27.678  29.431  1.00  0.00     0.167 HD
ATOM     60  C   UNL A   1      43.543  31.438  31.254  1.00  0.00     0.031 A 
ATOM     61  C   UNL A   1      42.584  25.064  28.500  1.00  0.00     0.031 A 
ATOM     62  C   UNL A   1      44.673  30.554  31.350  1.00  0.00     0.049 A 
ATOM     63  C   UNL A   1      43.901  25.480  29.098  1.00  0.00     0.074 A 
ATOM     64  C   UNL A   1      45.906  30.795  31.931  1.00  0.00     0.029 A 
ATOM     65  N   UNL A   1      44.712  29.261  30.851  1.00  0.00    -0.354 N 
ATOM     66  N   UNL A   1      44.225  26.617  29.665  1.00  0.00    -0.248 NA
ATOM     67  C   UNL A   1      44.987  24.490  29.064  1.00  0.00     0.031 C 
ATOM     68  C   UNL A   1      46.708  29.667  31.734  1.00  0.00     0.029 A 
ATOM     69  C   UNL A   1      45.956  28.700  31.087  1.00  0.00     0.049 A 
ATOM     70  H   UNL A   1      43.965  28.809  30.396  1.00  0.00     0.167 HD
ATOM     71  C   UNL A   1      45.544  26.471  30.080  1.00  0.00     0.074 A 
ATOM     72  C   UNL A   1      45.951  25.129  29.712  1.00  0.00     0.031 C 
ATOM     73  C   UNL A   1      46.345  27.364  30.712  1.00  0.00     0.031 A 
BRANCH  60  74
ATOM     74  C   UNL A   1      43.680  32.843  31.781  1.00  0.00    -0.014 A 
ATOM     75  C   UNL A   1      44.108  33.894  30.948  1.00  0.00     0.010 A 
ATOM     76  C   UNL A   1      43.350  33.124  33.119  1.00  0.00     0.010 A 
ATOM     77  C   UNL A   1      44.247  35.189  31.456  1.00  0.00     0.020 A 
ATOM     78  C   UNL A   1      43.458  34.424  33.622  1.00  0.00     0.020 A 
ATOM     79  C   UNL A   1      43.925  35.444  32.792  1.00  0.00     0.054 A 
BRANCH  79  80
ATOM     80  S   UNL A   1      44.100  37.136  33.420  1.00  0.00     0.124 S 
ATOM     81  O   UNL A   1      45.328  37.039  34.205  1.00  0.00    -0.237 OA
ATOM     82  O   UNL A   1      44.201  37.924  32.194  1.00  0.00    -0.237 OA
ATOM     83  O   UNL A   1      42.881  37.348  34.195  1.00  0.00    -0.744 OA
ENDBRANCH  79  80
ENDBRANCH  60  74
BRANCH  61  84
ATOM     84  C   UNL A   1      42.406  23.711  27.906  1.00  0.00    -0.014 A 
ATOM     85  C   UNL A   1      42.894  23.424  26.619  1.00  0.00     0.010 A 
ATOM     86  C   UNL A   1      41.759  22.695  28.633  1.00  0.00     0.010 A 
ATOM     87  C   UNL A   1      42.723  22.153  26.063  1.00  0.00     0.020 A 
ATOM     88  C   UNL A   1      41.612  21.414  28.092  1.00  0.00     0.020 A 
ATOM     89  C   UNL A   1      42.085  21.155  26.804  1.00  0.00     0.054 A 
BRANCH  89  90
ATOM     90  S   UNL A   1      41.919  19.499  26.082  1.00  0.00     0.124 S 
ATOM     91  O   UNL A   1      42.422  18.649  27.155  1.00  0.00    -0.237 OA
ATOM     92  O   UNL A   1      40.484  19.411  25.823  1.00  0.00    -0.237 OA
ATOM     93  O   UNL A   1      42.758  19.563  24.887  1.00  0.00    -0.744 OA
ENDBRANCH  89  90
ENDBRANCH  61  84
BRANCH  73  94
ATOM     94  C   UNL A   1      47.735  26.913  31.077  1.00  0.00    -0.014 A 
ATOM     95  C   UNL A   1      48.005  26.307  32.316  1.00  0.00     0.010 A 
ATOM     96  C   UNL A   1      48.774  27.046  30.136  1.00  0.00     0.010 A 
ATOM     97  C   UNL A   1      49.298  25.870  32.620  1.00  0.00     0.020 A 
ATOM     98  C   UNL A   1      50.059  26.583  30.425  1.00  0.00     0.020 A 
ATOM     99  C   UNL A   1      50.316  26.010  31.672  1.00  0.00     0.054 A 
BRANCH  99 100
ATOM    100  S   UNL A   1      51.972  25.390  32.073  1.00  0.00     0.124 S 
ATOM    101  O   UNL A   1      51.770  23.944  32.051  1.00  0.00    -0.237 OA
ATOM    102  O   UNL A   1      52.788  25.927  30.987  1.00  0.00    -0.237 OA
ATOM    103  O   UNL A   1      52.247  25.960  33.391  1.00  0.00    -0.744 OA
ENDBRANCH  99 100
ENDBRANCH  73  94
ENDBRANCH  47  48
ENDBRANCH  39  42
ENDBRANCH  37  38
ENDBRANCH  36  37
ENDBRANCH  35  36
ENDBRANCH   1  35
TORSDOF 22
ENDMDL
MODEL 3
REMARK VINA RESULT:     -11.2      4.144      5.825
REMARK SMILES CC(C)[C@@H](NC(=O)/C(=C\c1ccccc1F)NC(=O)c1ccccc1)C(=O)NCCCCCCNC(=O)c1ccc(-c2c3nc(c(-c4ccc(S(=O)(=O)[O-])cc4)c4ccc([nH]4)c(-c4ccc(S(=O)(=O)[O-])cc4)c4nc(c(-c5ccc(S(=O)(=O)[O-])cc5)c5ccc2[nH]5)C=C4)C=C3)cc1
REMARK SMILES IDX 31 1 30 2 29 3 28 4 26 5 27 6 4 8 2 9 1 10 3 11 5 12 6 13
REMARK SMILES IDX 7 15 8 16 9 17 17 18 18 19 19 21 20 22 21 23 25 24 22 25
REMARK SMILES IDX 24 26 23 27 10 28 11 29 15 30 12 31 14 32 16 33 13 34 32 35
REMARK SMILES IDX 33 36 34 37 35 38 36 39 37 41 38 42 39 43 97 44 40 45 96 46
REMARK SMILES IDX 41 47 42 48 43 49 90 50 44 51 95 52 89 53 91 54 45 55 94 56
REMARK SMILES IDX 88 57 87 58 46 60 76 61 57 62 75 63 58 64 61 65 74 66 92 67
REMARK SMILES IDX 59 68 60 69 73 71 93 72 62 73 47 74 48 75 56 76 49 77 55 78
REMARK SMILES IDX 50 79 51 80 52 81 53 82 54 83 77 84 78 85 86 86 79 87 85 88
REMARK SMILES IDX 80 89 81 90 82 91 83 92 84 93 63 94 64 95 72 96 65 97 71 98
REMARK SMILES IDX 66 99 67 100 68 101 69 102 70 103
REMARK H PARENT 28 7 5 14 17 20 35 40 91 59 61 70
REMARK Flexibility Score: inf
ROOT
ATOM      1  C   UNL A   1      31.366  29.617  24.841  1.00  0.00     0.002 C 
ENDROOT
BRANCH   1   2
ATOM      2  C   UNL A   1      31.067  28.699  23.649  1.00  0.00     0.021 C 
BRANCH   2   3
ATOM      3  C   UNL A   1      32.274  28.536  22.736  1.00  0.00     0.116 C 
BRANCH   3   4
ATOM      4  N   UNL A   1      32.049  27.361  21.932  1.00  0.00    -0.354 N 
ATOM      5  C   UNL A   1      32.677  26.169  22.092  1.00  0.00     0.242 C 
ATOM      6  O   UNL A   1      33.113  25.615  21.081  1.00  0.00    -0.273 OA
ATOM      7  H   UNL A   1      31.385  27.429  21.208  1.00  0.00     0.163 HD
BRANCH   5   8
ATOM      8  C   UNL A   1      32.987  25.641  23.492  1.00  0.00     0.174 C 
BRANCH   8   9
ATOM      9  C   UNL A   1      31.760  24.816  24.022  1.00  0.00     0.015 C 
ATOM     10  C   UNL A   1      31.135  25.459  25.263  1.00  0.00     0.010 C 
ATOM     11  C   UNL A   1      30.638  24.632  22.980  1.00  0.00     0.010 C 
ENDBRANCH   8   9
BRANCH   8  12
ATOM     12  N   UNL A   1      34.267  24.894  23.566  1.00  0.00    -0.339 N 
ATOM     13  C   UNL A   1      34.393  23.518  23.595  1.00  0.00     0.268 C 
ATOM     14  H   UNL A   1      35.098  25.423  23.597  1.00  0.00     0.164 HD
ATOM     15  O   UNL A   1      34.977  22.958  22.667  1.00  0.00    -0.268 OA
BRANCH  13  16
ATOM     16  C   UNL A   1      34.075  22.738  24.856  1.00  0.00     0.107 C 
ATOM     17  C   UNL A   1      34.996  22.407  25.791  1.00  0.00     0.043 C 
BRANCH  16  18
ATOM     18  N   UNL A   1      32.766  22.396  25.178  1.00  0.00    -0.317 N 
ATOM     19  C   UNL A   1      31.981  21.280  25.042  1.00  0.00     0.255 C 
ATOM     20  H   UNL A   1      32.285  23.137  25.610  1.00  0.00     0.170 HD
ATOM     21  O   UNL A   1      30.805  21.335  25.406  1.00  0.00    -0.269 OA
BRANCH  19  22
ATOM     22  C   UNL A   1      32.472  20.030  24.470  1.00  0.00     0.040 A 
ATOM     23  C   UNL A   1      32.126  19.708  23.155  1.00  0.00     0.014 A 
ATOM     24  C   UNL A   1      33.186  19.133  25.264  1.00  0.00     0.014 A 
ATOM     25  C   UNL A   1      32.569  18.507  22.608  1.00  0.00     0.001 A 
ATOM     26  C   UNL A   1      33.634  17.935  24.709  1.00  0.00     0.001 A 
ATOM     27  C   UNL A   1      33.335  17.631  23.380  1.00  0.00     0.000 A 
ENDBRANCH  19  22
ENDBRANCH  16  18
BRANCH  17  28
ATOM     28  C   UNL A   1      36.454  22.552  25.802  1.00  0.00     0.012 A 
ATOM     29  C   UNL A   1      36.970  23.825  26.111  1.00  0.00     0.011 A 
ATOM     30  C   UNL A   1      37.351  21.510  25.577  1.00  0.00     0.130 A 
ATOM     31  C   UNL A   1      38.337  24.000  26.340  1.00  0.00     0.001 A 
ATOM     32  C   UNL A   1      38.717  21.682  25.794  1.00  0.00     0.040 A 
ATOM     33  F   UNL A   1      36.914  20.310  25.174  1.00  0.00    -0.206 F 
ATOM     34  C   UNL A   1      39.206  22.919  26.212  1.00  0.00     0.003 A 
ENDBRANCH  17  28
ENDBRANCH  13  16
ENDBRANCH   8  12
ENDBRANCH   5   8
ENDBRANCH   3   4
ENDBRANCH   2   3
ENDBRANCH   1   2
BRANCH   1  35
ATOM     35  C   UNL A   1      31.780  28.876  26.116  1.00  0.00     0.002 C 
BRANCH  35  36
ATOM     36  C   UNL A   1      33.165  28.231  26.049  1.00  0.00     0.021 C 
BRANCH  36  37
ATOM     37  C   UNL A   1      34.061  28.560  27.234  1.00  0.00     0.116 C 
BRANCH  37  38
ATOM     38  N   UNL A   1      33.862  29.912  27.718  1.00  0.00    -0.352 N 
ATOM     39  C   UNL A   1      34.746  30.693  28.421  1.00  0.00     0.251 C 
ATOM     40  H   UNL A   1      32.988  30.319  27.519  1.00  0.00     0.163 HD
ATOM     41  O   UNL A   1      34.393  31.764  28.895  1.00  0.00    -0.269 OA
BRANCH  39  42
ATOM     42  C   UNL A   1      36.122  30.193  28.619  1.00  0.00     0.039 A 
ATOM     43  C   UNL A   1      37.033  30.307  27.569  1.00  0.00     0.014 A 
ATOM     44  C   UNL A   1      36.516  29.664  29.852  1.00  0.00     0.014 A 
ATOM     45  C   UNL A   1      38.361  29.927  27.771  1.00  0.00     0.010 A 
ATOM     46  C   UNL A   1      37.854  29.355  30.072  1.00  0.00     0.010 A 
ATOM     47  C   UNL A   1      38.787  29.472  29.031  1.00  0.00    -0.014 A 
BRANCH  47  48
ATOM     48  C   UNL A   1      40.204  29.104  29.270  1.00  0.00     0.031 A 
ATOM     49  C   UNL A   1      41.145  30.101  29.890  1.00  0.00     0.074 A 
ATOM     50  C   UNL A   1      40.654  27.892  28.889  1.00  0.00     0.049 A 
ATOM     51  N   UNL A   1      42.422  29.979  30.146  1.00  0.00    -0.248 NA
ATOM     52  C   UNL A   1      40.583  31.415  30.246  1.00  0.00     0.031 C 
ATOM     53  C   UNL A   1      39.848  26.852  28.244  1.00  0.00     0.029 A 
ATOM     54  N   UNL A   1      41.902  27.330  28.988  1.00  0.00    -0.354 N 
ATOM     55  C   UNL A   1      42.819  31.201  30.679  1.00  0.00     0.074 A 
ATOM     56  C   UNL A   1      41.661  32.067  30.657  1.00  0.00     0.031 C 
ATOM     57  C   UNL A   1      40.614  25.769  28.035  1.00  0.00     0.029 A 
ATOM     58  C   UNL A   1      41.971  26.049  28.491  1.00  0.00     0.049 A 
ATOM     59  H   UNL A   1      42.675  27.799  29.378  1.00  0.00     0.167 HD
ATOM     60  C   UNL A   1      44.031  31.562  31.161  1.00  0.00     0.031 A 
ATOM     61  C   UNL A   1      43.012  25.198  28.406  1.00  0.00     0.031 A 
ATOM     62  C   UNL A   1      45.177  30.694  31.189  1.00  0.00     0.049 A 
ATOM     63  C   UNL A   1      44.353  25.627  28.936  1.00  0.00     0.074 A 
ATOM     64  C   UNL A   1      46.436  30.947  31.704  1.00  0.00     0.029 A 
ATOM     65  N   UNL A   1      45.206  29.405  30.676  1.00  0.00    -0.354 N 
ATOM     66  N   UNL A   1      44.692  26.765  29.495  1.00  0.00    -0.248 NA
ATOM     67  C   UNL A   1      45.449  24.653  28.835  1.00  0.00     0.031 C 
ATOM     68  C   UNL A   1      47.241  29.832  31.454  1.00  0.00     0.029 A 
ATOM     69  C   UNL A   1      46.468  28.860  30.840  1.00  0.00     0.049 A 
ATOM     70  H   UNL A   1      44.442  28.946  30.259  1.00  0.00     0.167 HD
ATOM     71  C   UNL A   1      46.034  26.633  29.837  1.00  0.00     0.074 A 
ATOM     72  C   UNL A   1      46.438  25.301  29.436  1.00  0.00     0.031 C 
ATOM     73  C   UNL A   1      46.855  27.533  30.433  1.00  0.00     0.031 A 
BRANCH  60  74
ATOM     74  C   UNL A   1      44.178  32.965  31.692  1.00  0.00    -0.014 A 
ATOM     75  C   UNL A   1      44.571  34.024  30.852  1.00  0.00     0.010 A 
ATOM     76  C   UNL A   1      43.890  33.236  33.042  1.00  0.00     0.010 A 
ATOM     77  C   UNL A   1      44.719  35.316  31.363  1.00  0.00     0.020 A 
ATOM     78  C   UNL A   1      44.007  34.533  33.550  1.00  0.00     0.020 A 
ATOM     79  C   UNL A   1      44.440  35.561  32.711  1.00  0.00     0.054 A 
BRANCH  79  80
ATOM     80  S   UNL A   1      44.626  37.251  33.343  1.00  0.00     0.124 S 
ATOM     81  O   UNL A   1      43.268  37.556  33.788  1.00  0.00    -0.237 OA
ATOM     82  O   UNL A   1      45.613  37.088  34.408  1.00  0.00    -0.237 OA
ATOM     83  O   UNL A   1      45.086  38.007  32.182  1.00  0.00    -0.744 OA
ENDBRANCH  79  80
ENDBRANCH  60  74
BRANCH  61  84
ATOM     84  C   UNL A   1      42.821  23.847  27.811  1.00  0.00    -0.014 A 
ATOM     85  C   UNL A   1      43.015  23.638  26.435  1.00  0.00     0.010 A 
ATOM     86  C   UNL A   1      42.457  22.757  28.624  1.00  0.00     0.010 A 
ATOM     87  C   UNL A   1      42.832  22.368  25.878  1.00  0.00     0.020 A 
ATOM     88  C   UNL A   1      42.302  21.481  28.076  1.00  0.00     0.020 A 
ATOM     89  C   UNL A   1      42.479  21.297  26.703  1.00  0.00     0.054 A 
BRANCH  89  90
ATOM     90  S   UNL A   1      42.296  19.649  25.967  1.00  0.00     0.124 S 
ATOM     91  O   UNL A   1      42.515  18.778  27.116  1.00  0.00    -0.237 OA
ATOM     92  O   UNL A   1      40.930  19.685  25.449  1.00  0.00    -0.237 OA
ATOM     93  O   UNL A   1      43.341  19.614  24.945  1.00  0.00    -0.744 OA
ENDBRANCH  89  90
ENDBRANCH  61  84
BRANCH  73  94
ATOM     94  C   UNL A   1      48.269  27.098  30.719  1.00  0.00    -0.014 A 
ATOM     95  C   UNL A   1      49.307  27.342  29.803  1.00  0.00     0.010 A 
ATOM     96  C   UNL A   1      48.570  26.490  31.952  1.00  0.00     0.010 A 
ATOM     97  C   UNL A   1      50.616  26.956  30.103  1.00  0.00     0.020 A 
ATOM     98  C   UNL A   1      49.882  26.131  32.267  1.00  0.00     0.020 A 
ATOM     99  C   UNL A   1      50.895  26.354  31.333  1.00  0.00     0.054 A 
BRANCH  99 100
ATOM    100  S   UNL A   1      52.611  25.908  31.718  1.00  0.00     0.124 S 
ATOM    101  O   UNL A   1      52.465  24.546  32.225  1.00  0.00    -0.237 OA
ATOM    102  O   UNL A   1      53.271  26.028  30.420  1.00  0.00    -0.237 OA
ATOM    103  O   UNL A   1      53.014  26.902  32.710  1.00  0.00    -0.744 OA
ENDBRANCH  99 100
ENDBRANCH  73  94
ENDBRANCH  47  48
ENDBRANCH  39  42
ENDBRANCH  37  38
ENDBRANCH  36  37
ENDBRANCH  35  36
ENDBRANCH   1  35
TORSDOF 22
ENDMDL
