MODEL 1
REMARK VINA RESULT:     -10.6      0.000      0.000
REMARK SMILES CC(C)N(C(=O)[C@@H]1CCCC[C@H]1C(=O)NCCCCCCNC(=O)c1ccc(-c2c3nc(c(-c4ccc(S(=O)(=O)[O-])cc4)c4ccc([nH]4)c(-c4ccc(S(=O)(=O)[O-])cc4)c4nc(c(-c5ccc(S(=O)(=O)[O-])cc5)c5ccc2[nH]5)C=C4)C=C3)cc1)C(C)C
REMARK SMILES IDX 19 1 18 2 17 3 16 4 15 5 13 6 14 7 12 9 7 10 8 11 9 12 11 13
REMARK SMILES IDX 10 14 5 15 4 16 6 17 2 18 1 19 3 20 85 21 86 22 87 23 20 24
REMARK SMILES IDX 21 25 22 26 23 27 24 29 25 30 26 31 84 32 27 33 83 34 28 35
REMARK SMILES IDX 29 36 30 37 77 38 31 39 82 40 76 41 78 42 32 43 81 44 75 45
REMARK SMILES IDX 74 46 33 48 63 49 44 50 62 51 45 52 48 53 61 54 79 55 46 56
REMARK SMILES IDX 47 57 60 59 80 60 49 61 34 62 35 63 43 64 36 65 42 66 37 67
REMARK SMILES IDX 38 68 39 69 40 70 41 71 64 72 65 73 73 74 66 75 72 76 67 77
REMARK SMILES IDX 68 78 69 79 70 80 71 81 50 82 51 83 59 84 52 85 58 86 53 87
REMARK SMILES IDX 54 88 55 89 56 90 57 91
REMARK H PARENT 15 8 22 28 78 47 48 58
REMARK Flexibility Score: inf
ROOT
ATOM      1  C   UNL A   1      32.326  28.228  24.516  1.00  0.00     0.002 C 
ENDROOT
BRANCH   1   2
ATOM      2  C   UNL A   1      31.399  27.604  25.565  1.00  0.00     0.002 C 
BRANCH   2   3
ATOM      3  C   UNL A   1      30.160  26.876  25.028  1.00  0.00     0.021 C 
BRANCH   3   4
ATOM      4  C   UNL A   1      30.379  25.428  24.591  1.00  0.00     0.116 C 
BRANCH   4   5
ATOM      5  N   UNL A   1      30.272  24.493  25.693  1.00  0.00    -0.356 N 
ATOM      6  C   UNL A   1      31.202  23.724  26.306  1.00  0.00     0.223 C 
ATOM      7  O   UNL A   1      30.889  23.252  27.406  1.00  0.00    -0.275 OA
ATOM      8  H   UNL A   1      29.363  24.403  26.060  1.00  0.00     0.163 HD
BRANCH   6   9
ATOM      9  C   UNL A   1      32.605  23.463  25.730  1.00  0.00     0.091 C 
ATOM     10  C   UNL A   1      32.646  22.932  24.263  1.00  0.00     0.091 C 
ATOM     11  C   UNL A   1      33.934  23.430  23.524  1.00  0.00     0.014 C 
ATOM     12  C   UNL A   1      34.422  24.830  23.849  1.00  0.00     0.001 C 
ATOM     13  C   UNL A   1      33.361  24.770  26.065  1.00  0.00     0.014 C 
ATOM     14  C   UNL A   1      34.671  24.948  25.336  1.00  0.00     0.001 C 
BRANCH  10  15
ATOM     15  C   UNL A   1      32.583  21.374  23.928  1.00  0.00     0.226 C 
ATOM     16  N   UNL A   1      32.988  20.354  24.808  1.00  0.00    -0.338 N 
ATOM     17  O   UNL A   1      31.973  21.033  22.900  1.00  0.00    -0.275 OA
BRANCH  16  18
ATOM     18  C   UNL A   1      34.194  20.469  25.641  1.00  0.00     0.079 C 
ATOM     19  C   UNL A   1      35.474  20.877  24.923  1.00  0.00     0.031 C 
ATOM     20  C   UNL A   1      33.994  21.213  26.960  1.00  0.00     0.031 C 
ENDBRANCH  16  18
BRANCH  16  21
ATOM     21  C   UNL A   1      32.363  19.015  24.572  1.00  0.00     0.079 C 
ATOM     22  C   UNL A   1      32.604  18.462  23.165  1.00  0.00     0.031 C 
ATOM     23  C   UNL A   1      32.671  17.959  25.633  1.00  0.00     0.031 C 
ENDBRANCH  16  21
ENDBRANCH  10  15
ENDBRANCH   6   9
ENDBRANCH   4   5
ENDBRANCH   3   4
ENDBRANCH   2   3
ENDBRANCH   1   2
BRANCH   1  24
ATOM     24  C   UNL A   1      33.783  28.409  24.941  1.00  0.00     0.021 C 
BRANCH  24  25
ATOM     25  C   UNL A   1      34.003  28.537  26.440  1.00  0.00     0.116 C 
BRANCH  25  26
ATOM     26  N   UNL A   1      33.828  29.901  26.908  1.00  0.00    -0.352 N 
ATOM     27  C   UNL A   1      34.649  30.631  27.738  1.00  0.00     0.251 C 
ATOM     28  H   UNL A   1      33.018  30.363  26.592  1.00  0.00     0.163 HD
ATOM     29  O   UNL A   1      34.281  31.707  28.188  1.00  0.00    -0.269 OA
BRANCH  27  30
ATOM     30  C   UNL A   1      35.976  30.080  28.097  1.00  0.00     0.039 A 
ATOM     31  C   UNL A   1      37.025  30.177  27.181  1.00  0.00     0.014 A 
ATOM     32  C   UNL A   1      36.183  29.501  29.351  1.00  0.00     0.014 A 
ATOM     33  C   UNL A   1      38.303  29.743  27.546  1.00  0.00     0.010 A 
ATOM     34  C   UNL A   1      37.468  29.137  29.739  1.00  0.00     0.010 A 
ATOM     35  C   UNL A   1      38.540  29.246  28.837  1.00  0.00    -0.014 A 
BRANCH  35  36
ATOM     36  C   UNL A   1      39.887  28.797  29.271  1.00  0.00     0.031 A 
ATOM     37  C   UNL A   1      40.777  29.751  30.023  1.00  0.00     0.074 A 
ATOM     38  C   UNL A   1      40.342  27.577  28.923  1.00  0.00     0.049 A 
ATOM     39  N   UNL A   1      42.031  29.614  30.367  1.00  0.00    -0.248 NA
ATOM     40  C   UNL A   1      40.184  31.041  30.412  1.00  0.00     0.031 C 
ATOM     41  C   UNL A   1      39.587  26.568  28.178  1.00  0.00     0.029 A 
ATOM     42  N   UNL A   1      41.562  26.985  29.138  1.00  0.00    -0.354 N 
ATOM     43  C   UNL A   1      42.383  30.808  30.985  1.00  0.00     0.074 A 
ATOM     44  C   UNL A   1      41.226  31.673  30.929  1.00  0.00     0.031 C 
ATOM     45  C   UNL A   1      40.354  25.477  28.014  1.00  0.00     0.029 A 
ATOM     46  C   UNL A   1      41.668  25.724  28.600  1.00  0.00     0.049 A 
ATOM     47  H   UNL A   1      42.294  27.422  29.632  1.00  0.00     0.167 HD
ATOM     48  C   UNL A   1      43.560  31.148  31.565  1.00  0.00     0.031 A 
ATOM     49  C   UNL A   1      42.710  24.870  28.570  1.00  0.00     0.031 A 
ATOM     50  C   UNL A   1      44.702  30.278  31.638  1.00  0.00     0.049 A 
ATOM     51  C   UNL A   1      44.010  25.273  29.211  1.00  0.00     0.074 A 
ATOM     52  C   UNL A   1      45.926  30.514  32.238  1.00  0.00     0.029 A 
ATOM     53  N   UNL A   1      44.756  29.000  31.103  1.00  0.00    -0.354 N 
ATOM     54  N   UNL A   1      44.315  26.395  29.820  1.00  0.00    -0.248 NA
ATOM     55  C   UNL A   1      45.104  24.292  29.172  1.00  0.00     0.031 C 
ATOM     56  C   UNL A   1      46.736  29.393  32.031  1.00  0.00     0.029 A 
ATOM     57  C   UNL A   1      45.995  28.438  31.351  1.00  0.00     0.049 A 
ATOM     58  H   UNL A   1      44.022  28.559  30.618  1.00  0.00     0.167 HD
ATOM     59  C   UNL A   1      45.622  26.239  30.269  1.00  0.00     0.074 A 
ATOM     60  C   UNL A   1      46.049  24.915  29.864  1.00  0.00     0.031 C 
ATOM     61  C   UNL A   1      46.396  27.111  30.957  1.00  0.00     0.031 A 
BRANCH  48  62
ATOM     62  C   UNL A   1      43.665  32.526  32.161  1.00  0.00    -0.014 A 
ATOM     63  C   UNL A   1      44.130  33.614  31.398  1.00  0.00     0.010 A 
ATOM     64  C   UNL A   1      43.269  32.745  33.494  1.00  0.00     0.010 A 
ATOM     65  C   UNL A   1      44.242  34.883  31.970  1.00  0.00     0.020 A 
ATOM     66  C   UNL A   1      43.352  34.021  34.061  1.00  0.00     0.020 A 
ATOM     67  C   UNL A   1      43.856  35.077  33.299  1.00  0.00     0.054 A 
BRANCH  67  68
ATOM     68  S   UNL A   1      43.998  36.739  34.011  1.00  0.00     0.124 S 
ATOM     69  O   UNL A   1      43.870  36.465  35.441  1.00  0.00    -0.237 OA
ATOM     70  O   UNL A   1      45.323  37.166  33.571  1.00  0.00    -0.237 OA
ATOM     71  O   UNL A   1      42.882  37.469  33.415  1.00  0.00    -0.744 OA
ENDBRANCH  67  68
ENDBRANCH  48  62
BRANCH  49  72
ATOM     72  C   UNL A   1      42.564  23.538  27.920  1.00  0.00    -0.014 A 
ATOM     73  C   UNL A   1      42.080  22.439  28.653  1.00  0.00     0.010 A 
ATOM     74  C   UNL A   1      42.904  23.360  26.566  1.00  0.00     0.010 A 
ATOM     75  C   UNL A   1      41.960  21.183  28.051  1.00  0.00     0.020 A 
ATOM     76  C   UNL A   1      42.759  22.112  25.954  1.00  0.00     0.020 A 
ATOM     77  C   UNL A   1      42.300  21.027  26.704  1.00  0.00     0.054 A 
BRANCH  77  78
ATOM     78  S   UNL A   1      42.095  19.399  25.932  1.00  0.00     0.124 S 
ATOM     79  O   UNL A   1      42.582  18.504  26.976  1.00  0.00    -0.237 OA
ATOM     80  O   UNL A   1      40.657  19.349  25.674  1.00  0.00    -0.237 OA
ATOM     81  O   UNL A   1      42.931  19.481  24.736  1.00  0.00    -0.744 OA
ENDBRANCH  77  78
ENDBRANCH  49  72
BRANCH  61  82
ATOM     82  C   UNL A   1      47.766  26.650  31.377  1.00  0.00    -0.014 A 
ATOM     83  C   UNL A   1      47.968  25.955  32.581  1.00  0.00     0.010 A 
ATOM     84  C   UNL A   1      48.855  26.849  30.506  1.00  0.00     0.010 A 
ATOM     85  C   UNL A   1      49.241  25.482  32.916  1.00  0.00     0.020 A 
ATOM     86  C   UNL A   1      50.121  26.357  30.826  1.00  0.00     0.020 A 
ATOM     87  C   UNL A   1      50.309  25.684  32.034  1.00  0.00     0.054 A 
BRANCH  87  88
ATOM     88  S   UNL A   1      51.934  25.003  32.460  1.00  0.00     0.124 S 
ATOM     89  O   UNL A   1      52.772  25.518  31.382  1.00  0.00    -0.237 OA
ATOM     90  O   UNL A   1      52.188  25.577  33.780  1.00  0.00    -0.237 OA
ATOM     91  O   UNL A   1      51.720  23.558  32.448  1.00  0.00    -0.744 OA
ENDBRANCH  87  88
ENDBRANCH  61  82
ENDBRANCH  35  36
ENDBRANCH  27  30
ENDBRANCH  25  26
ENDBRANCH  24  25
ENDBRANCH   1  24
TORSDOF 19
ENDMDL
MODEL 2
REMARK VINA RESULT:     -10.6      1.274      2.247
REMARK SMILES CC(C)N(C(=O)[C@@H]1CCCC[C@H]1C(=O)NCCCCCCNC(=O)c1ccc(-c2c3nc(c(-c4ccc(S(=O)(=O)[O-])cc4)c4ccc([nH]4)c(-c4ccc(S(=O)(=O)[O-])cc4)c4nc(c(-c5ccc(S(=O)(=O)[O-])cc5)c5ccc2[nH]5)C=C4)C=C3)cc1)C(C)C
REMARK SMILES IDX 19 1 18 2 17 3 16 4 15 5 13 6 14 7 12 9 7 10 8 11 9 12 11 13
REMARK SMILES IDX 10 14 5 15 4 16 6 17 2 18 1 19 3 20 85 21 86 22 87 23 20 24
REMARK SMILES IDX 21 25 22 26 23 27 24 29 25 30 26 31 84 32 27 33 83 34 28 35
REMARK SMILES IDX 29 36 30 37 77 38 31 39 82 40 76 41 78 42 32 43 81 44 75 45
REMARK SMILES IDX 74 46 33 48 63 49 44 50 62 51 45 52 48 53 61 54 79 55 46 56
REMARK SMILES IDX 47 57 60 59 80 60 49 61 34 62 35 63 43 64 36 65 42 66 37 67
REMARK SMILES IDX 38 68 39 69 40 70 41 71 64 72 65 73 73 74 66 75 72 76 67 77
REMARK SMILES IDX 68 78 69 79 70 80 71 81 50 82 51 83 59 84 52 85 58 86 53 87
REMARK SMILES IDX 54 88 55 89 56 90 57 91
REMARK H PARENT 15 8 22 28 78 47 48 58
REMARK Flexibility Score: inf
ROOT
ATOM      1  C   UNL A   1      31.826  27.963  26.017  1.00  0.00     0.002 C 
ENDROOT
BRANCH   1   2
ATOM      2  C   UNL A   1      31.276  29.005  25.039  1.00  0.00     0.002 C 
BRANCH   2   3
ATOM      3  C   UNL A   1      32.074  29.211  23.745  1.00  0.00     0.021 C 
BRANCH   3   4
ATOM      4  C   UNL A   1      31.608  28.393  22.541  1.00  0.00     0.116 C 
BRANCH   4   5
ATOM      5  N   UNL A   1      32.639  27.508  22.039  1.00  0.00    -0.356 N 
ATOM      6  C   UNL A   1      32.697  26.157  21.961  1.00  0.00     0.223 C 
ATOM      7  O   UNL A   1      33.563  25.684  21.215  1.00  0.00    -0.275 OA
ATOM      8  H   UNL A   1      33.436  27.969  21.693  1.00  0.00     0.163 HD
BRANCH   6   9
ATOM      9  C   UNL A   1      31.726  25.219  22.701  1.00  0.00     0.091 C 
ATOM     10  C   UNL A   1      32.332  24.429  23.902  1.00  0.00     0.091 C 
ATOM     11  C   UNL A   1      31.251  24.176  25.007  1.00  0.00     0.014 C 
ATOM     12  C   UNL A   1      30.234  25.277  25.246  1.00  0.00     0.001 C 
ATOM     13  C   UNL A   1      30.501  26.127  22.956  1.00  0.00     0.014 C 
ATOM     14  C   UNL A   1      29.508  25.584  23.956  1.00  0.00     0.001 C 
BRANCH  10  15
ATOM     15  C   UNL A   1      33.032  23.008  23.711  1.00  0.00     0.226 C 
ATOM     16  N   UNL A   1      33.718  22.315  24.725  1.00  0.00    -0.338 N 
ATOM     17  O   UNL A   1      32.804  22.395  22.653  1.00  0.00    -0.275 OA
BRANCH  16  18
ATOM     18  C   UNL A   1      34.600  22.997  25.682  1.00  0.00     0.079 C 
ATOM     19  C   UNL A   1      35.276  24.271  25.189  1.00  0.00     0.031 C 
ATOM     20  C   UNL A   1      34.030  23.140  27.092  1.00  0.00     0.031 C 
ENDBRANCH  16  18
BRANCH  16  21
ATOM     21  C   UNL A   1      33.809  20.833  24.543  1.00  0.00     0.079 C 
ATOM     22  C   UNL A   1      35.184  20.254  24.890  1.00  0.00     0.031 C 
ATOM     23  C   UNL A   1      32.694  20.027  25.208  1.00  0.00     0.031 C 
ENDBRANCH  16  21
ENDBRANCH  10  15
ENDBRANCH   6   9
ENDBRANCH   4   5
ENDBRANCH   3   4
ENDBRANCH   2   3
ENDBRANCH   1   2
BRANCH   1  24
ATOM     24  C   UNL A   1      33.279  27.545  25.795  1.00  0.00     0.021 C 
BRANCH  24  25
ATOM     25  C   UNL A   1      34.284  28.194  26.734  1.00  0.00     0.116 C 
BRANCH  25  26
ATOM     26  N   UNL A   1      33.874  29.524  27.146  1.00  0.00    -0.352 N 
ATOM     27  C   UNL A   1      34.559  30.423  27.932  1.00  0.00     0.251 C 
ATOM     28  H   UNL A   1      32.993  29.823  26.822  1.00  0.00     0.163 HD
ATOM     29  O   UNL A   1      34.010  31.437  28.342  1.00  0.00    -0.269 OA
BRANCH  27  30
ATOM     30  C   UNL A   1      35.965  30.131  28.296  1.00  0.00     0.039 A 
ATOM     31  C   UNL A   1      36.258  29.692  29.588  1.00  0.00     0.014 A 
ATOM     32  C   UNL A   1      36.980  30.262  27.345  1.00  0.00     0.014 A 
ATOM     33  C   UNL A   1      37.568  29.327  29.912  1.00  0.00     0.010 A 
ATOM     34  C   UNL A   1      38.268  29.830  27.648  1.00  0.00     0.010 A 
ATOM     35  C   UNL A   1      38.576  29.366  28.936  1.00  0.00    -0.014 A 
BRANCH  35  36
ATOM     36  C   UNL A   1      39.975  28.964  29.235  1.00  0.00     0.031 A 
ATOM     37  C   UNL A   1      40.920  29.969  29.836  1.00  0.00     0.074 A 
ATOM     38  C   UNL A   1      40.416  27.737  28.894  1.00  0.00     0.049 A 
ATOM     39  N   UNL A   1      42.208  29.872  30.042  1.00  0.00    -0.248 NA
ATOM     40  C   UNL A   1      40.344  31.265  30.230  1.00  0.00     0.031 C 
ATOM     41  C   UNL A   1      39.606  26.679  28.286  1.00  0.00     0.029 A 
ATOM     42  N   UNL A   1      41.666  27.178  28.996  1.00  0.00    -0.354 N 
ATOM     43  C   UNL A   1      42.599  31.100  30.560  1.00  0.00     0.074 A 
ATOM     44  C   UNL A   1      41.423  31.940  30.596  1.00  0.00     0.031 C 
ATOM     45  C   UNL A   1      40.376  25.596  28.086  1.00  0.00     0.029 A 
ATOM     46  C   UNL A   1      41.740  25.895  28.508  1.00  0.00     0.049 A 
ATOM     47  H   UNL A   1      42.438  27.652  29.383  1.00  0.00     0.167 HD
ATOM     48  C   UNL A   1      43.825  31.490  30.986  1.00  0.00     0.031 A 
ATOM     49  C   UNL A   1      42.793  25.059  28.399  1.00  0.00     0.031 A 
ATOM     50  C   UNL A   1      44.988  30.646  30.969  1.00  0.00     0.049 A 
ATOM     51  C   UNL A   1      44.147  25.517  28.870  1.00  0.00     0.074 A 
ATOM     52  C   UNL A   1      46.266  30.933  31.415  1.00  0.00     0.029 A 
ATOM     53  N   UNL A   1      45.012  29.345  30.491  1.00  0.00    -0.354 N 
ATOM     54  N   UNL A   1      44.491  26.672  29.387  1.00  0.00    -0.248 NA
ATOM     55  C   UNL A   1      45.252  24.555  28.752  1.00  0.00     0.031 C 
ATOM     56  C   UNL A   1      47.074  29.818  31.170  1.00  0.00     0.029 A 
ATOM     57  C   UNL A   1      46.285  28.818  30.623  1.00  0.00     0.049 A 
ATOM     58  H   UNL A   1      44.239  28.866  30.114  1.00  0.00     0.167 HD
ATOM     59  C   UNL A   1      45.844  26.562  29.692  1.00  0.00     0.074 A 
ATOM     60  C   UNL A   1      46.254  25.228  29.303  1.00  0.00     0.031 C 
ATOM     61  C   UNL A   1      46.670  27.481  30.247  1.00  0.00     0.031 A 
BRANCH  48  62
ATOM     62  C   UNL A   1      43.964  32.897  31.503  1.00  0.00    -0.014 A 
ATOM     63  C   UNL A   1      44.284  33.960  30.637  1.00  0.00     0.010 A 
ATOM     64  C   UNL A   1      43.746  33.168  32.866  1.00  0.00     0.010 A 
ATOM     65  C   UNL A   1      44.429  35.257  31.133  1.00  0.00     0.020 A 
ATOM     66  C   UNL A   1      43.863  34.470  33.361  1.00  0.00     0.020 A 
ATOM     67  C   UNL A   1      44.222  35.503  32.492  1.00  0.00     0.054 A 
BRANCH  67  68
ATOM     68  S   UNL A   1      44.403  37.200  33.107  1.00  0.00     0.124 S 
ATOM     69  O   UNL A   1      45.660  37.118  33.848  1.00  0.00    -0.237 OA
ATOM     70  O   UNL A   1      44.452  37.984  31.875  1.00  0.00    -0.237 OA
ATOM     71  O   UNL A   1      43.210  37.403  33.924  1.00  0.00    -0.744 OA
ENDBRANCH  67  68
ENDBRANCH  48  62
BRANCH  49  72
ATOM     72  C   UNL A   1      42.606  23.695  27.832  1.00  0.00    -0.014 A 
ATOM     73  C   UNL A   1      42.762  23.473  26.451  1.00  0.00     0.010 A 
ATOM     74  C   UNL A   1      42.274  22.612  28.665  1.00  0.00     0.010 A 
ATOM     75  C   UNL A   1      42.570  22.197  25.912  1.00  0.00     0.020 A 
ATOM     76  C   UNL A   1      42.107  21.330  28.133  1.00  0.00     0.020 A 
ATOM     77  C   UNL A   1      42.243  21.133  26.757  1.00  0.00     0.054 A 
BRANCH  77  78
ATOM     78  S   UNL A   1      42.039  19.478  26.043  1.00  0.00     0.124 S 
ATOM     79  O   UNL A   1      42.890  19.552  24.860  1.00  0.00    -0.237 OA
ATOM     80  O   UNL A   1      42.520  18.609  27.116  1.00  0.00    -0.237 OA
ATOM     81  O   UNL A   1      40.604  19.394  25.780  1.00  0.00    -0.744 OA
ENDBRANCH  77  78
ENDBRANCH  49  72
BRANCH  61  82
ATOM     82  C   UNL A   1      48.089  27.066  30.529  1.00  0.00    -0.014 A 
ATOM     83  C   UNL A   1      49.105  27.235  29.574  1.00  0.00     0.010 A 
ATOM     84  C   UNL A   1      48.419  26.571  31.806  1.00  0.00     0.010 A 
ATOM     85  C   UNL A   1      50.426  26.900  29.886  1.00  0.00     0.020 A 
ATOM     86  C   UNL A   1      49.741  26.260  32.128  1.00  0.00     0.020 A 
ATOM     87  C   UNL A   1      50.736  26.416  31.162  1.00  0.00     0.054 A 
BRANCH  87  88
ATOM     88  S   UNL A   1      52.467  26.052  31.562  1.00  0.00     0.124 S 
ATOM     89  O   UNL A   1      52.388  24.669  32.022  1.00  0.00    -0.237 OA
ATOM     90  O   UNL A   1      53.142  26.250  30.281  1.00  0.00    -0.237 OA
ATOM     91  O   UNL A   1      52.799  27.034  32.591  1.00  0.00    -0.744 OA
ENDBRANCH  87  88
ENDBRANCH  61  82
ENDBRANCH  35  36
ENDBRANCH  27  30
ENDBRANCH  25  26
ENDBRANCH  24  25
ENDBRANCH   1  24
TORSDOF 19
ENDMDL
MODEL 3
REMARK VINA RESULT:     -10.4      1.326      2.148
REMARK SMILES CC(C)N(C(=O)[C@@H]1CCCC[C@H]1C(=O)NCCCCCCNC(=O)c1ccc(-c2c3nc(c(-c4ccc(S(=O)(=O)[O-])cc4)c4ccc([nH]4)c(-c4ccc(S(=O)(=O)[O-])cc4)c4nc(c(-c5ccc(S(=O)(=O)[O-])cc5)c5ccc2[nH]5)C=C4)C=C3)cc1)C(C)C
REMARK SMILES IDX 19 1 18 2 17 3 16 4 15 5 13 6 14 7 12 9 7 10 8 11 9 12 11 13
REMARK SMILES IDX 10 14 5 15 4 16 6 17 2 18 1 19 3 20 85 21 86 22 87 23 20 24
REMARK SMILES IDX 21 25 22 26 23 27 24 29 25 30 26 31 84 32 27 33 83 34 28 35
REMARK SMILES IDX 29 36 30 37 77 38 31 39 82 40 76 41 78 42 32 43 81 44 75 45
REMARK SMILES IDX 74 46 33 48 63 49 44 50 62 51 45 52 48 53 61 54 79 55 46 56
REMARK SMILES IDX 47 57 60 59 80 60 49 61 34 62 35 63 43 64 36 65 42 66 37 67
REMARK SMILES IDX 38 68 39 69 40 70 41 71 64 72 65 73 73 74 66 75 72 76 67 77
REMARK SMILES IDX 68 78 69 79 70 80 71 81 50 82 51 83 59 84 52 85 58 86 53 87
REMARK SMILES IDX 54 88 55 89 56 90 57 91
REMARK H PARENT 15 8 22 28 78 47 48 58
REMARK Flexibility Score: inf
ROOT
ATOM      1  C   UNL A   1      33.346  26.192  25.436  1.00  0.00     0.002 C 
ENDROOT
BRANCH   1   2
ATOM      2  C   UNL A   1      32.577  26.526  24.153  1.00  0.00     0.002 C 
BRANCH   2   3
ATOM      3  C   UNL A   1      32.266  25.348  23.222  1.00  0.00     0.021 C 
BRANCH   3   4
ATOM      4  C   UNL A   1      33.007  24.047  23.528  1.00  0.00     0.116 C 
BRANCH   4   5
ATOM      5  N   UNL A   1      34.234  23.915  22.770  1.00  0.00    -0.356 N 
ATOM      6  C   UNL A   1      35.406  23.304  23.065  1.00  0.00     0.223 C 
ATOM      7  O   UNL A   1      36.171  23.090  22.117  1.00  0.00    -0.275 OA
ATOM      8  H   UNL A   1      34.211  24.342  21.884  1.00  0.00     0.163 HD
BRANCH   6   9
ATOM      9  C   UNL A   1      35.789  22.838  24.481  1.00  0.00     0.091 C 
ATOM     10  C   UNL A   1      36.098  21.315  24.632  1.00  0.00     0.091 C 
ATOM     11  C   UNL A   1      37.170  21.070  25.747  1.00  0.00     0.014 C 
ATOM     12  C   UNL A   1      38.281  22.095  25.877  1.00  0.00     0.001 C 
ATOM     13  C   UNL A   1      36.877  23.856  24.895  1.00  0.00     0.014 C 
ATOM     14  C   UNL A   1      37.682  23.464  26.110  1.00  0.00     0.001 C 
BRANCH  10  15
ATOM     15  C   UNL A   1      34.953  20.251  24.952  1.00  0.00     0.226 C 
ATOM     16  N   UNL A   1      33.630  20.584  25.295  1.00  0.00    -0.338 N 
ATOM     17  O   UNL A   1      35.197  19.057  24.707  1.00  0.00    -0.275 OA
BRANCH  16  18
ATOM     18  C   UNL A   1      33.311  21.700  26.196  1.00  0.00     0.079 C 
ATOM     19  C   UNL A   1      31.853  22.141  26.236  1.00  0.00     0.031 C 
ATOM     20  C   UNL A   1      33.935  21.600  27.587  1.00  0.00     0.031 C 
ENDBRANCH  16  18
BRANCH  16  21
ATOM     21  C   UNL A   1      32.608  19.528  25.015  1.00  0.00     0.079 C 
ATOM     22  C   UNL A   1      32.458  19.194  23.528  1.00  0.00     0.031 C 
ATOM     23  C   UNL A   1      32.746  18.254  25.849  1.00  0.00     0.031 C 
ENDBRANCH  16  21
ENDBRANCH  10  15
ENDBRANCH   6   9
ENDBRANCH   4   5
ENDBRANCH   3   4
ENDBRANCH   2   3
ENDBRANCH   1   2
BRANCH   1  24
ATOM     24  C   UNL A   1      33.326  27.267  26.522  1.00  0.00     0.021 C 
BRANCH  24  25
ATOM     25  C   UNL A   1      34.378  28.354  26.368  1.00  0.00     0.116 C 
BRANCH  25  26
ATOM     26  N   UNL A   1      33.928  29.633  26.890  1.00  0.00    -0.352 N 
ATOM     27  C   UNL A   1      34.556  30.451  27.802  1.00  0.00     0.251 C 
ATOM     28  H   UNL A   1      33.063  29.957  26.548  1.00  0.00     0.163 HD
ATOM     29  O   UNL A   1      33.972  31.413  28.281  1.00  0.00    -0.269 OA
BRANCH  27  30
ATOM     30  C   UNL A   1      35.943  30.132  28.214  1.00  0.00     0.039 A 
ATOM     31  C   UNL A   1      36.170  29.587  29.479  1.00  0.00     0.014 A 
ATOM     32  C   UNL A   1      37.006  30.345  27.333  1.00  0.00     0.014 A 
ATOM     33  C   UNL A   1      37.464  29.199  29.840  1.00  0.00     0.010 A 
ATOM     34  C   UNL A   1      38.278  29.891  27.666  1.00  0.00     0.010 A 
ATOM     35  C   UNL A   1      38.522  29.322  28.926  1.00  0.00    -0.014 A 
BRANCH  35  36
ATOM     36  C   UNL A   1      39.905  28.899  29.264  1.00  0.00     0.031 A 
ATOM     37  C   UNL A   1      40.842  29.885  29.908  1.00  0.00     0.074 A 
ATOM     38  C   UNL A   1      40.343  27.671  28.921  1.00  0.00     0.049 A 
ATOM     39  N   UNL A   1      42.122  29.770  30.153  1.00  0.00    -0.248 NA
ATOM     40  C   UNL A   1      40.269  31.183  30.300  1.00  0.00     0.031 C 
ATOM     41  C   UNL A   1      39.541  26.631  28.274  1.00  0.00     0.029 A 
ATOM     42  N   UNL A   1      41.583  27.096  29.056  1.00  0.00    -0.354 N 
ATOM     43  C   UNL A   1      42.511  30.987  30.700  1.00  0.00     0.074 A 
ATOM     44  C   UNL A   1      41.343  31.840  30.709  1.00  0.00     0.031 C 
ATOM     45  C   UNL A   1      40.303  25.541  28.085  1.00  0.00     0.029 A 
ATOM     46  C   UNL A   1      41.657  25.818  28.554  1.00  0.00     0.049 A 
ATOM     47  H   UNL A   1      42.347  27.556  29.474  1.00  0.00     0.167 HD
ATOM     48  C   UNL A   1      43.726  31.356  31.170  1.00  0.00     0.031 A 
ATOM     49  C   UNL A   1      42.703  24.972  28.467  1.00  0.00     0.031 A 
ATOM     50  C   UNL A   1      44.880  30.498  31.179  1.00  0.00     0.049 A 
ATOM     51  C   UNL A   1      44.047  25.407  28.987  1.00  0.00     0.074 A 
ATOM     52  C   UNL A   1      46.146  30.764  31.669  1.00  0.00     0.029 A 
ATOM     53  N   UNL A   1      44.904  29.203  30.685  1.00  0.00    -0.354 N 
ATOM     54  N   UNL A   1      44.388  26.551  29.531  1.00  0.00    -0.248 NA
ATOM     55  C   UNL A   1      45.144  24.434  28.892  1.00  0.00     0.031 C 
ATOM     56  C   UNL A   1      46.948  29.643  31.435  1.00  0.00     0.029 A 
ATOM     57  C   UNL A   1      46.165  28.659  30.850  1.00  0.00     0.049 A 
ATOM     58  H   UNL A   1      44.138  28.739  30.277  1.00  0.00     0.167 HD
ATOM     59  C   UNL A   1      45.728  26.421  29.876  1.00  0.00     0.074 A 
ATOM     60  C   UNL A   1      46.135  25.087  29.483  1.00  0.00     0.031 C 
ATOM     61  C   UNL A   1      46.547  27.323  30.470  1.00  0.00     0.031 A 
BRANCH  48  62
ATOM     62  C   UNL A   1      43.865  32.755  31.709  1.00  0.00    -0.014 A 
ATOM     63  C   UNL A   1      44.171  33.833  30.858  1.00  0.00     0.010 A 
ATOM     64  C   UNL A   1      43.662  33.001  33.079  1.00  0.00     0.010 A 
ATOM     65  C   UNL A   1      44.316  35.123  31.375  1.00  0.00     0.020 A 
ATOM     66  C   UNL A   1      43.778  34.295  33.595  1.00  0.00     0.020 A 
ATOM     67  C   UNL A   1      44.123  35.345  32.741  1.00  0.00     0.054 A 
BRANCH  67  68
ATOM     68  S   UNL A   1      44.304  37.032  33.382  1.00  0.00     0.124 S 
ATOM     69  O   UNL A   1      42.915  37.405  33.639  1.00  0.00    -0.237 OA
ATOM     70  O   UNL A   1      45.131  36.837  34.570  1.00  0.00    -0.237 OA
ATOM     71  O   UNL A   1      44.950  37.752  32.288  1.00  0.00    -0.744 OA
ENDBRANCH  67  68
ENDBRANCH  48  62
BRANCH  49  72
ATOM     72  C   UNL A   1      42.519  23.617  27.877  1.00  0.00    -0.014 A 
ATOM     73  C   UNL A   1      42.746  23.404  26.505  1.00  0.00     0.010 A 
ATOM     74  C   UNL A   1      42.118  22.534  28.679  1.00  0.00     0.010 A 
ATOM     75  C   UNL A   1      42.556  22.138  25.943  1.00  0.00     0.020 A 
ATOM     76  C   UNL A   1      41.953  21.261  28.126  1.00  0.00     0.020 A 
ATOM     77  C   UNL A   1      42.160  21.074  26.757  1.00  0.00     0.054 A 
BRANCH  77  78
ATOM     78  S   UNL A   1      41.961  19.430  26.016  1.00  0.00     0.124 S 
ATOM     79  O   UNL A   1      42.492  18.560  27.060  1.00  0.00    -0.237 OA
ATOM     80  O   UNL A   1      40.517  19.353  25.801  1.00  0.00    -0.237 OA
ATOM     81  O   UNL A   1      42.762  19.507  24.796  1.00  0.00    -0.744 OA
ENDBRANCH  77  78
ENDBRANCH  49  72
BRANCH  61  82
ATOM     82  C   UNL A   1      47.951  26.887  30.792  1.00  0.00    -0.014 A 
ATOM     83  C   UNL A   1      49.026  27.195  29.942  1.00  0.00     0.010 A 
ATOM     84  C   UNL A   1      48.203  26.226  32.009  1.00  0.00     0.010 A 
ATOM     85  C   UNL A   1      50.330  26.834  30.296  1.00  0.00     0.020 A 
ATOM     86  C   UNL A   1      49.506  25.886  32.377  1.00  0.00     0.020 A 
ATOM     87  C   UNL A   1      50.561  26.184  31.514  1.00  0.00     0.054 A 
BRANCH  87  88
ATOM     88  S   UNL A   1      52.267  25.785  31.981  1.00  0.00     0.124 S 
ATOM     89  O   UNL A   1      52.592  26.870  32.902  1.00  0.00    -0.237 OA
ATOM     90  O   UNL A   1      52.133  24.463  32.591  1.00  0.00    -0.237 OA
ATOM     91  O   UNL A   1      52.989  25.807  30.712  1.00  0.00    -0.744 OA
ENDBRANCH  87  88
ENDBRANCH  61  82
ENDBRANCH  35  36
ENDBRANCH  27  30
ENDBRANCH  25  26
ENDBRANCH  24  25
ENDBRANCH   1  24
TORSDOF 19
ENDMDL
