MODEL 1
REMARK VINA RESULT:      -9.9      0.000      0.000
REMARK SMILES CC[C@](C)(NS(=O)(=O)c1ccc(C(=O)OC)cc1)C(=O)NCCCCCCNC(=O)c1ccc(-c2c3nc(c(-c4ccc(S(=O)(=O)[O-])cc4)c4ccc([nH]4)c(-c4ccc(S(=O)(=O)[O-])cc4)c4nc(c(-c5ccc(S(=O)(=O)[O-])cc5)c5ccc2[nH]5)C=C4)C=C3)cc1
REMARK SMILES IDX 23 1 22 2 21 3 19 4 20 5 3 7 4 8 2 9 1 10 5 11 6 13 7 14
REMARK SMILES IDX 8 15 9 16 10 17 18 18 11 19 17 20 12 21 13 22 14 23 15 24
REMARK SMILES IDX 16 25 24 26 25 27 26 28 27 29 28 30 29 31 30 33 31 34 32 35
REMARK SMILES IDX 90 36 33 37 89 38 34 39 35 40 36 41 83 42 37 43 88 44 82 45
REMARK SMILES IDX 84 46 38 47 87 48 81 49 80 50 39 52 69 53 50 54 68 55 51 56
REMARK SMILES IDX 54 57 67 58 85 59 52 60 53 61 66 63 86 64 55 65 40 66 41 67
REMARK SMILES IDX 49 68 42 69 48 70 43 71 44 72 45 73 46 74 47 75 70 76 71 77
REMARK SMILES IDX 79 78 72 79 78 80 73 81 74 82 75 83 76 84 77 85 56 86 57 87
REMARK SMILES IDX 65 88 58 89 64 90 59 91 60 92 61 93 62 94 63 95
REMARK H PARENT 21 6 5 12 28 32 84 51 54 62
REMARK Flexibility Score: inf
ROOT
ATOM      1  C   UNL A   1      35.450  23.594  24.171  1.00  0.00     0.021 C 
ENDROOT
BRANCH   1   2
ATOM      2  C   UNL A   1      34.847  24.877  24.726  1.00  0.00     0.116 C 
BRANCH   2   3
ATOM      3  N   UNL A   1      33.965  25.552  23.790  1.00  0.00    -0.354 N 
ATOM      4  C   UNL A   1      33.008  26.505  23.911  1.00  0.00     0.241 C 
ATOM      5  O   UNL A   1      32.626  26.983  22.832  1.00  0.00    -0.273 OA
ATOM      6  H   UNL A   1      34.089  25.250  22.861  1.00  0.00     0.163 HD
BRANCH   4   7
ATOM      7  C   UNL A   1      32.362  26.969  25.244  1.00  0.00     0.108 C 
ATOM      8  C   UNL A   1      31.108  27.818  24.842  1.00  0.00     0.040 C 
BRANCH   7   9
ATOM      9  C   UNL A   1      33.255  27.904  26.091  1.00  0.00     0.030 C 
ATOM     10  C   UNL A   1      32.618  28.337  27.419  1.00  0.00     0.006 C 
ENDBRANCH   7   9
BRANCH   7  11
ATOM     11  N   UNL A   1      31.730  25.902  26.063  1.00  0.00    -0.196 NA
ATOM     12  H   UNL A   1      31.162  26.415  26.736  1.00  0.00     0.142 HD
BRANCH  11  13
ATOM     13  S   UNL A   1      30.772  24.621  25.626  1.00  0.00     0.241 S 
ATOM     14  O   UNL A   1      29.874  24.369  26.734  1.00  0.00    -0.207 OA
ATOM     15  O   UNL A   1      30.260  24.972  24.324  1.00  0.00    -0.207 OA
BRANCH  13  16
ATOM     16  C   UNL A   1      31.797  23.188  25.378  1.00  0.00     0.082 A 
ATOM     17  C   UNL A   1      31.698  22.519  24.153  1.00  0.00     0.022 A 
ATOM     18  C   UNL A   1      32.550  22.633  26.412  1.00  0.00     0.022 A 
ATOM     19  C   UNL A   1      32.189  21.216  24.030  1.00  0.00     0.017 A 
ATOM     20  C   UNL A   1      33.004  21.310  26.303  1.00  0.00     0.017 A 
ATOM     21  C   UNL A   1      32.769  20.576  25.133  1.00  0.00     0.060 A 
BRANCH  21  22
ATOM     22  C   UNL A   1      32.983  19.103  25.046  1.00  0.00     0.337 C 
ATOM     23  O   UNL A   1      32.068  18.306  24.905  1.00  0.00    -0.246 OA
BRANCH  22  24
ATOM     24  O   UNL A   1      34.288  18.782  25.232  1.00  0.00    -0.465 OA
ATOM     25  C   UNL A   1      34.804  17.885  24.244  1.00  0.00     0.282 C 
ENDBRANCH  22  24
ENDBRANCH  21  22
ENDBRANCH  13  16
ENDBRANCH  11  13
ENDBRANCH   7  11
ENDBRANCH   4   7
ENDBRANCH   2   3
ENDBRANCH   1   2
BRANCH   1  26
ATOM     26  C   UNL A   1      36.683  23.066  24.908  1.00  0.00     0.002 C 
BRANCH  26  27
ATOM     27  C   UNL A   1      37.333  21.847  24.262  1.00  0.00     0.002 C 
BRANCH  27  28
ATOM     28  C   UNL A   1      37.820  20.777  25.243  1.00  0.00     0.021 C 
BRANCH  28  29
ATOM     29  C   UNL A   1      39.189  21.043  25.866  1.00  0.00     0.116 C 
BRANCH  29  30
ATOM     30  N   UNL A   1      39.985  19.830  25.980  1.00  0.00    -0.352 N 
ATOM     31  C   UNL A   1      41.349  19.724  26.115  1.00  0.00     0.251 C 
ATOM     32  H   UNL A   1      39.486  18.982  25.958  1.00  0.00     0.163 HD
ATOM     33  O   UNL A   1      41.919  18.648  25.983  1.00  0.00    -0.269 OA
BRANCH  31  34
ATOM     34  C   UNL A   1      42.121  20.949  26.400  1.00  0.00     0.039 A 
ATOM     35  C   UNL A   1      42.566  21.739  25.339  1.00  0.00     0.014 A 
ATOM     36  C   UNL A   1      42.332  21.345  27.723  1.00  0.00     0.014 A 
ATOM     37  C   UNL A   1      43.171  22.968  25.609  1.00  0.00     0.010 A 
ATOM     38  C   UNL A   1      42.867  22.602  27.986  1.00  0.00     0.010 A 
ATOM     39  C   UNL A   1      43.294  23.425  26.933  1.00  0.00    -0.014 A 
BRANCH  39  40
ATOM     40  C   UNL A   1      43.880  24.756  27.237  1.00  0.00     0.031 A 
ATOM     41  C   UNL A   1      42.985  25.881  27.687  1.00  0.00     0.074 A 
ATOM     42  C   UNL A   1      45.198  24.970  27.056  1.00  0.00     0.049 A 
ATOM     43  N   UNL A   1      43.292  27.127  27.939  1.00  0.00    -0.248 NA
ATOM     44  C   UNL A   1      41.555  25.571  27.852  1.00  0.00     0.031 C 
ATOM     45  C   UNL A   1      46.165  23.976  26.581  1.00  0.00     0.029 A 
ATOM     46  N   UNL A   1      45.957  26.099  27.245  1.00  0.00    -0.354 N 
ATOM     47  C   UNL A   1      42.096  27.749  28.279  1.00  0.00     0.074 A 
ATOM     48  C   UNL A   1      41.050  26.760  28.146  1.00  0.00     0.031 C 
ATOM     49  C   UNL A   1      47.387  24.531  26.539  1.00  0.00     0.029 A 
ATOM     50  C   UNL A   1      47.289  25.929  26.946  1.00  0.00     0.049 A 
ATOM     51  H   UNL A   1      45.582  26.952  27.564  1.00  0.00     0.167 HD
ATOM     52  C   UNL A   1      41.890  29.021  28.692  1.00  0.00     0.031 A 
ATOM     53  C   UNL A   1      48.315  26.802  26.990  1.00  0.00     0.031 A 
ATOM     54  C   UNL A   1      42.932  29.999  28.842  1.00  0.00     0.049 A 
ATOM     55  C   UNL A   1      48.056  28.214  27.447  1.00  0.00     0.074 A 
ATOM     56  C   UNL A   1      42.830  31.303  29.295  1.00  0.00     0.029 A 
ATOM     57  N   UNL A   1      44.270  29.780  28.551  1.00  0.00    -0.354 N 
ATOM     58  N   UNL A   1      46.925  28.765  27.820  1.00  0.00    -0.248 NA
ATOM     59  C   UNL A   1      49.214  29.118  27.502  1.00  0.00     0.031 C 
ATOM     60  C   UNL A   1      44.099  31.886  29.236  1.00  0.00     0.029 A 
ATOM     61  C   UNL A   1      45.001  30.928  28.802  1.00  0.00     0.049 A 
ATOM     62  H   UNL A   1      44.644  28.933  28.216  1.00  0.00     0.167 HD
ATOM     63  C   UNL A   1      47.243  30.070  28.183  1.00  0.00     0.074 A 
ATOM     64  C   UNL A   1      48.671  30.220  28.001  1.00  0.00     0.031 C 
ATOM     65  C   UNL A   1      46.425  31.056  28.627  1.00  0.00     0.031 A 
BRANCH  52  66
ATOM     66  C   UNL A   1      40.479  29.425  29.029  1.00  0.00    -0.014 A 
ATOM     67  C   UNL A   1      40.087  29.627  30.365  1.00  0.00     0.010 A 
ATOM     68  C   UNL A   1      39.551  29.664  28.000  1.00  0.00     0.010 A 
ATOM     69  C   UNL A   1      38.785  30.032  30.667  1.00  0.00     0.020 A 
ATOM     70  C   UNL A   1      38.255  30.097  28.297  1.00  0.00     0.020 A 
ATOM     71  C   UNL A   1      37.877  30.268  29.631  1.00  0.00     0.054 A 
BRANCH  71  72
ATOM     72  S   UNL A   1      36.210  30.842  30.053  1.00  0.00     0.124 S 
ATOM     73  O   UNL A   1      36.422  32.275  30.237  1.00  0.00    -0.237 OA
ATOM     74  O   UNL A   1      35.435  30.469  28.871  1.00  0.00    -0.237 OA
ATOM     75  O   UNL A   1      35.883  30.099  31.267  1.00  0.00    -0.744 OA
ENDBRANCH  71  72
ENDBRANCH  52  66
BRANCH  53  76
ATOM     76  C   UNL A   1      49.686  26.374  26.595  1.00  0.00    -0.014 A 
ATOM     77  C   UNL A   1      50.128  26.520  25.267  1.00  0.00     0.010 A 
ATOM     78  C   UNL A   1      50.551  25.794  27.541  1.00  0.00     0.010 A 
ATOM     79  C   UNL A   1      51.392  26.060  24.885  1.00  0.00     0.020 A 
ATOM     80  C   UNL A   1      51.827  25.361  27.170  1.00  0.00     0.020 A 
ATOM     81  C   UNL A   1      52.232  25.479  25.839  1.00  0.00     0.054 A 
BRANCH  81  82
ATOM     82  S   UNL A   1      53.876  24.903  25.328  1.00  0.00     0.124 S 
ATOM     83  O   UNL A   1      53.642  23.482  25.097  1.00  0.00    -0.237 OA
ATOM     84  O   UNL A   1      54.134  25.705  24.134  1.00  0.00    -0.237 OA
ATOM     85  O   UNL A   1      54.720  25.222  26.477  1.00  0.00    -0.744 OA
ENDBRANCH  81  82
ENDBRANCH  53  76
BRANCH  65  86
ATOM     86  C   UNL A   1      47.058  32.372  28.993  1.00  0.00    -0.014 A 
ATOM     87  C   UNL A   1      47.636  32.576  30.259  1.00  0.00     0.010 A 
ATOM     88  C   UNL A   1      47.129  33.396  28.032  1.00  0.00     0.010 A 
ATOM     89  C   UNL A   1      48.245  33.795  30.566  1.00  0.00     0.020 A 
ATOM     90  C   UNL A   1      47.762  34.606  28.327  1.00  0.00     0.020 A 
ATOM     91  C   UNL A   1      48.305  34.802  29.598  1.00  0.00     0.054 A 
BRANCH  91  92
ATOM     92  S   UNL A   1      49.142  36.359  30.007  1.00  0.00     0.124 S 
ATOM     93  O   UNL A   1      49.720  36.739  28.722  1.00  0.00    -0.237 OA
ATOM     94  O   UNL A   1      48.042  37.199  30.475  1.00  0.00    -0.237 OA
ATOM     95  O   UNL A   1      50.106  35.975  31.035  1.00  0.00    -0.744 OA
ENDBRANCH  91  92
ENDBRANCH  65  86
ENDBRANCH  39  40
ENDBRANCH  31  34
ENDBRANCH  29  30
ENDBRANCH  28  29
ENDBRANCH  27  28
ENDBRANCH  26  27
ENDBRANCH   1  26
TORSDOF 22
ENDMDL
MODEL 2
REMARK VINA RESULT:      -9.8      0.646      8.038
REMARK SMILES CC[C@](C)(NS(=O)(=O)c1ccc(C(=O)OC)cc1)C(=O)NCCCCCCNC(=O)c1ccc(-c2c3nc(c(-c4ccc(S(=O)(=O)[O-])cc4)c4ccc([nH]4)c(-c4ccc(S(=O)(=O)[O-])cc4)c4nc(c(-c5ccc(S(=O)(=O)[O-])cc5)c5ccc2[nH]5)C=C4)C=C3)cc1
REMARK SMILES IDX 23 1 22 2 21 3 19 4 20 5 3 7 4 8 2 9 1 10 5 11 6 13 7 14
REMARK SMILES IDX 8 15 9 16 10 17 18 18 11 19 17 20 12 21 13 22 14 23 15 24
REMARK SMILES IDX 16 25 24 26 25 27 26 28 27 29 28 30 29 31 30 33 31 34 32 35
REMARK SMILES IDX 90 36 33 37 89 38 34 39 35 40 36 41 83 42 37 43 88 44 82 45
REMARK SMILES IDX 84 46 38 47 87 48 81 49 80 50 39 52 69 53 50 54 68 55 51 56
REMARK SMILES IDX 54 57 67 58 85 59 52 60 53 61 66 63 86 64 55 65 40 66 41 67
REMARK SMILES IDX 49 68 42 69 48 70 43 71 44 72 45 73 46 74 47 75 70 76 71 77
REMARK SMILES IDX 79 78 72 79 78 80 73 81 74 82 75 83 76 84 77 85 56 86 57 87
REMARK SMILES IDX 65 88 58 89 64 90 59 91 60 92 61 93 62 94 63 95
REMARK H PARENT 21 6 5 12 28 32 84 51 54 62
REMARK Flexibility Score: inf
ROOT
ATOM      1  C   UNL A   1      35.484  23.432  25.244  1.00  0.00     0.021 C 
ENDROOT
BRANCH   1   2
ATOM      2  C   UNL A   1      35.203  24.926  25.316  1.00  0.00     0.116 C 
BRANCH   2   3
ATOM      3  N   UNL A   1      34.227  25.376  24.339  1.00  0.00    -0.354 N 
ATOM      4  C   UNL A   1      33.138  26.184  24.392  1.00  0.00     0.241 C 
ATOM      5  O   UNL A   1      32.686  26.501  23.282  1.00  0.00    -0.273 OA
ATOM      6  H   UNL A   1      34.392  25.016  23.438  1.00  0.00     0.163 HD
BRANCH   4   7
ATOM      7  C   UNL A   1      32.434  26.663  25.690  1.00  0.00     0.108 C 
ATOM      8  C   UNL A   1      31.191  27.494  25.224  1.00  0.00     0.040 C 
BRANCH   7   9
ATOM      9  C   UNL A   1      33.284  27.619  26.559  1.00  0.00     0.030 C 
ATOM     10  C   UNL A   1      33.372  29.048  26.006  1.00  0.00     0.006 C 
ENDBRANCH   7   9
BRANCH   7  11
ATOM     11  N   UNL A   1      31.778  25.603  26.500  1.00  0.00    -0.196 NA
ATOM     12  H   UNL A   1      31.204  26.123  27.163  1.00  0.00     0.142 HD
BRANCH  11  13
ATOM     13  S   UNL A   1      30.814  24.332  26.048  1.00  0.00     0.241 S 
ATOM     14  O   UNL A   1      29.935  24.050  27.165  1.00  0.00    -0.207 OA
ATOM     15  O   UNL A   1      30.280  24.713  24.764  1.00  0.00    -0.207 OA
BRANCH  13  16
ATOM     16  C   UNL A   1      31.837  22.906  25.747  1.00  0.00     0.082 A 
ATOM     17  C   UNL A   1      31.736  22.283  24.499  1.00  0.00     0.022 A 
ATOM     18  C   UNL A   1      32.589  22.312  26.760  1.00  0.00     0.022 A 
ATOM     19  C   UNL A   1      32.225  20.985  24.327  1.00  0.00     0.017 A 
ATOM     20  C   UNL A   1      33.041  20.994  26.602  1.00  0.00     0.017 A 
ATOM     21  C   UNL A   1      32.805  20.304  25.406  1.00  0.00     0.060 A 
BRANCH  21  22
ATOM     22  C   UNL A   1      33.016  18.835  25.266  1.00  0.00     0.337 C 
ATOM     23  O   UNL A   1      32.500  18.016  26.011  1.00  0.00    -0.246 OA
BRANCH  22  24
ATOM     24  O   UNL A   1      33.905  18.556  24.280  1.00  0.00    -0.465 OA
ATOM     25  C   UNL A   1      33.420  17.614  23.319  1.00  0.00     0.282 C 
ENDBRANCH  22  24
ENDBRANCH  21  22
ENDBRANCH  13  16
ENDBRANCH  11  13
ENDBRANCH   7  11
ENDBRANCH   4   7
ENDBRANCH   2   3
ENDBRANCH   1   2
BRANCH   1  26
ATOM     26  C   UNL A   1      36.927  23.014  25.534  1.00  0.00     0.002 C 
BRANCH  26  27
ATOM     27  C   UNL A   1      37.469  21.927  24.611  1.00  0.00     0.002 C 
BRANCH  27  28
ATOM     28  C   UNL A   1      38.118  20.736  25.323  1.00  0.00     0.021 C 
BRANCH  28  29
ATOM     29  C   UNL A   1      39.428  21.048  26.043  1.00  0.00     0.116 C 
BRANCH  29  30
ATOM     30  N   UNL A   1      40.330  19.906  26.062  1.00  0.00    -0.352 N 
ATOM     31  C   UNL A   1      41.704  19.913  26.098  1.00  0.00     0.251 C 
ATOM     32  H   UNL A   1      39.903  19.018  26.046  1.00  0.00     0.163 HD
ATOM     33  O   UNL A   1      42.351  18.894  25.891  1.00  0.00    -0.269 OA
BRANCH  31  34
ATOM     34  C   UNL A   1      42.389  21.192  26.368  1.00  0.00     0.039 A 
ATOM     35  C   UNL A   1      42.673  22.053  25.307  1.00  0.00     0.014 A 
ATOM     36  C   UNL A   1      42.677  21.561  27.685  1.00  0.00     0.014 A 
ATOM     37  C   UNL A   1      43.191  23.321  25.576  1.00  0.00     0.010 A 
ATOM     38  C   UNL A   1      43.122  22.851  27.954  1.00  0.00     0.010 A 
ATOM     39  C   UNL A   1      43.386  23.744  26.904  1.00  0.00    -0.014 A 
BRANCH  39  40
ATOM     40  C   UNL A   1      43.879  25.111  27.213  1.00  0.00     0.031 A 
ATOM     41  C   UNL A   1      45.337  25.439  27.022  1.00  0.00     0.074 A 
ATOM     42  C   UNL A   1      43.036  26.035  27.714  1.00  0.00     0.049 A 
ATOM     43  N   UNL A   1      45.973  26.549  27.293  1.00  0.00    -0.248 NA
ATOM     44  C   UNL A   1      46.196  24.373  26.480  1.00  0.00     0.031 C 
ATOM     45  C   UNL A   1      41.611  25.828  27.987  1.00  0.00     0.029 A 
ATOM     46  N   UNL A   1      43.255  27.337  28.090  1.00  0.00    -0.354 N 
ATOM     47  C   UNL A   1      47.303  26.312  26.966  1.00  0.00     0.074 A 
ATOM     48  C   UNL A   1      47.394  24.936  26.531  1.00  0.00     0.031 C 
ATOM     49  C   UNL A   1      41.081  26.967  28.463  1.00  0.00     0.029 A 
ATOM     50  C   UNL A   1      42.132  27.974  28.565  1.00  0.00     0.049 A 
ATOM     51  H   UNL A   1      44.135  27.775  28.025  1.00  0.00     0.167 HD
ATOM     52  C   UNL A   1      48.350  27.169  26.997  1.00  0.00     0.031 A 
ATOM     53  C   UNL A   1      41.969  29.226  29.036  1.00  0.00     0.031 A 
ATOM     54  C   UNL A   1      48.255  28.542  27.412  1.00  0.00     0.049 A 
ATOM     55  C   UNL A   1      43.152  30.158  29.067  1.00  0.00     0.074 A 
ATOM     56  C   UNL A   1      49.251  29.503  27.438  1.00  0.00     0.029 A 
ATOM     57  N   UNL A   1      47.096  29.154  27.864  1.00  0.00    -0.354 N 
ATOM     58  N   UNL A   1      44.390  29.929  28.698  1.00  0.00    -0.248 NA
ATOM     59  C   UNL A   1      42.914  31.520  29.564  1.00  0.00     0.031 C 
ATOM     60  C   UNL A   1      48.703  30.684  27.948  1.00  0.00     0.029 A 
ATOM     61  C   UNL A   1      47.354  30.475  28.185  1.00  0.00     0.049 A 
ATOM     62  H   UNL A   1      46.219  28.713  27.945  1.00  0.00     0.167 HD
ATOM     63  C   UNL A   1      45.069  31.129  28.889  1.00  0.00     0.074 A 
ATOM     64  C   UNL A   1      44.102  32.082  29.390  1.00  0.00     0.031 C 
ATOM     65  C   UNL A   1      46.376  31.414  28.671  1.00  0.00     0.031 A 
BRANCH  52  66
ATOM     66  C   UNL A   1      49.691  26.648  26.554  1.00  0.00    -0.014 A 
ATOM     67  C   UNL A   1      50.543  25.991  27.459  1.00  0.00     0.010 A 
ATOM     68  C   UNL A   1      50.079  26.763  25.207  1.00  0.00     0.010 A 
ATOM     69  C   UNL A   1      51.773  25.483  27.032  1.00  0.00     0.020 A 
ATOM     70  C   UNL A   1      51.296  26.231  24.770  1.00  0.00     0.020 A 
ATOM     71  C   UNL A   1      52.141  25.604  25.690  1.00  0.00     0.054 A 
BRANCH  71  72
ATOM     72  S   UNL A   1      53.720  24.890  25.155  1.00  0.00     0.124 S 
ATOM     73  O   UNL A   1      53.393  23.469  25.063  1.00  0.00    -0.237 OA
ATOM     74  O   UNL A   1      53.959  25.562  23.880  1.00  0.00    -0.237 OA
ATOM     75  O   UNL A   1      54.644  25.247  26.228  1.00  0.00    -0.744 OA
ENDBRANCH  71  72
ENDBRANCH  52  66
BRANCH  53  76
ATOM     76  C   UNL A   1      40.634  29.682  29.517  1.00  0.00    -0.014 A 
ATOM     77  C   UNL A   1      40.364  29.784  30.894  1.00  0.00     0.010 A 
ATOM     78  C   UNL A   1      39.616  29.994  28.598  1.00  0.00     0.010 A 
ATOM     79  C   UNL A   1      39.092  30.152  31.342  1.00  0.00     0.020 A 
ATOM     80  C   UNL A   1      38.352  30.393  29.042  1.00  0.00     0.020 A 
ATOM     81  C   UNL A   1      38.092  30.450  30.412  1.00  0.00     0.054 A 
BRANCH  81  82
ATOM     82  S   UNL A   1      36.451  30.942  31.014  1.00  0.00     0.124 S 
ATOM     83  O   UNL A   1      36.787  31.917  32.046  1.00  0.00    -0.237 OA
ATOM     84  O   UNL A   1      35.822  31.482  29.812  1.00  0.00    -0.237 OA
ATOM     85  O   UNL A   1      35.877  29.689  31.499  1.00  0.00    -0.744 OA
ENDBRANCH  81  82
ENDBRANCH  53  76
BRANCH  65  86
ATOM     86  C   UNL A   1      46.831  32.826  28.926  1.00  0.00    -0.014 A 
ATOM     87  C   UNL A   1      46.693  33.826  27.946  1.00  0.00     0.010 A 
ATOM     88  C   UNL A   1      47.347  33.169  30.188  1.00  0.00     0.010 A 
ATOM     89  C   UNL A   1      47.093  35.137  28.215  1.00  0.00     0.020 A 
ATOM     90  C   UNL A   1      47.722  34.485  30.471  1.00  0.00     0.020 A 
ATOM     91  C   UNL A   1      47.605  35.458  29.476  1.00  0.00     0.054 A 
BRANCH  91  92
ATOM     92  S   UNL A   1      48.075  37.176  29.816  1.00  0.00     0.124 S 
ATOM     93  O   UNL A   1      46.799  37.872  29.684  1.00  0.00    -0.237 OA
ATOM     94  O   UNL A   1      48.611  37.099  31.173  1.00  0.00    -0.237 OA
ATOM     95  O   UNL A   1      49.061  37.478  28.780  1.00  0.00    -0.744 OA
ENDBRANCH  91  92
ENDBRANCH  65  86
ENDBRANCH  39  40
ENDBRANCH  31  34
ENDBRANCH  29  30
ENDBRANCH  28  29
ENDBRANCH  27  28
ENDBRANCH  26  27
ENDBRANCH   1  26
TORSDOF 22
ENDMDL
MODEL 3
REMARK VINA RESULT:      -9.3      5.926     11.071
REMARK SMILES CC[C@](C)(NS(=O)(=O)c1ccc(C(=O)OC)cc1)C(=O)NCCCCCCNC(=O)c1ccc(-c2c3nc(c(-c4ccc(S(=O)(=O)[O-])cc4)c4ccc([nH]4)c(-c4ccc(S(=O)(=O)[O-])cc4)c4nc(c(-c5ccc(S(=O)(=O)[O-])cc5)c5ccc2[nH]5)C=C4)C=C3)cc1
REMARK SMILES IDX 23 1 22 2 21 3 19 4 20 5 3 7 4 8 2 9 1 10 5 11 6 13 7 14
REMARK SMILES IDX 8 15 9 16 10 17 18 18 11 19 17 20 12 21 13 22 14 23 15 24
REMARK SMILES IDX 16 25 24 26 25 27 26 28 27 29 28 30 29 31 30 33 31 34 32 35
REMARK SMILES IDX 90 36 33 37 89 38 34 39 35 40 36 41 83 42 37 43 88 44 82 45
REMARK SMILES IDX 84 46 38 47 87 48 81 49 80 50 39 52 69 53 50 54 68 55 51 56
REMARK SMILES IDX 54 57 67 58 85 59 52 60 53 61 66 63 86 64 55 65 40 66 41 67
REMARK SMILES IDX 49 68 42 69 48 70 43 71 44 72 45 73 46 74 47 75 70 76 71 77
REMARK SMILES IDX 79 78 72 79 78 80 73 81 74 82 75 83 76 84 77 85 56 86 57 87
REMARK SMILES IDX 65 88 58 89 64 90 59 91 60 92 61 93 62 94 63 95
REMARK H PARENT 21 6 5 12 28 32 84 51 54 62
REMARK Flexibility Score: inf
ROOT
ATOM      1  C   UNL A   1      37.687  23.159  25.040  1.00  0.00     0.021 C 
ENDROOT
BRANCH   1   2
ATOM      2  C   UNL A   1      36.216  23.205  24.649  1.00  0.00     0.116 C 
BRANCH   2   3
ATOM      3  N   UNL A   1      35.316  23.049  25.778  1.00  0.00    -0.354 N 
ATOM      4  C   UNL A   1      34.160  22.368  25.979  1.00  0.00     0.241 C 
ATOM      5  O   UNL A   1      33.803  22.309  27.166  1.00  0.00    -0.273 OA
ATOM      6  H   UNL A   1      35.609  23.548  26.575  1.00  0.00     0.163 HD
BRANCH   4   7
ATOM      7  C   UNL A   1      33.279  21.739  24.866  1.00  0.00     0.108 C 
ATOM      8  C   UNL A   1      31.822  21.697  25.441  1.00  0.00     0.040 C 
BRANCH   7   9
ATOM      9  C   UNL A   1      33.642  20.277  24.519  1.00  0.00     0.030 C 
ATOM     10  C   UNL A   1      32.527  19.516  23.788  1.00  0.00     0.006 C 
ENDBRANCH   7   9
BRANCH   7  11
ATOM     11  N   UNL A   1      33.079  22.571  23.651  1.00  0.00    -0.196 NA
ATOM     12  H   UNL A   1      32.664  21.926  22.979  1.00  0.00     0.142 HD
BRANCH  11  13
ATOM     13  S   UNL A   1      32.234  23.980  23.427  1.00  0.00     0.241 S 
ATOM     14  O   UNL A   1      32.747  24.592  22.217  1.00  0.00    -0.207 OA
ATOM     15  O   UNL A   1      30.848  23.598  23.532  1.00  0.00    -0.207 OA
BRANCH  13  16
ATOM     16  C   UNL A   1      32.546  25.069  24.800  1.00  0.00     0.082 A 
ATOM     17  C   UNL A   1      31.539  25.215  25.759  1.00  0.00     0.022 A 
ATOM     18  C   UNL A   1      33.673  25.888  24.848  1.00  0.00     0.022 A 
ATOM     19  C   UNL A   1      31.570  26.297  26.643  1.00  0.00     0.017 A 
ATOM     20  C   UNL A   1      33.684  26.999  25.705  1.00  0.00     0.017 A 
ATOM     21  C   UNL A   1      32.602  27.241  26.562  1.00  0.00     0.060 A 
BRANCH  21  22
ATOM     22  C   UNL A   1      32.425  28.526  27.296  1.00  0.00     0.337 C 
ATOM     23  O   UNL A   1      31.358  28.874  27.779  1.00  0.00    -0.246 OA
BRANCH  22  24
ATOM     24  O   UNL A   1      33.560  29.269  27.272  1.00  0.00    -0.465 OA
ATOM     25  C   UNL A   1      33.333  30.656  27.007  1.00  0.00     0.282 C 
ENDBRANCH  22  24
ENDBRANCH  21  22
ENDBRANCH  13  16
ENDBRANCH  11  13
ENDBRANCH   7  11
ENDBRANCH   4   7
ENDBRANCH   2   3
ENDBRANCH   1   2
BRANCH   1  26
ATOM     26  C   UNL A   1      38.099  24.090  26.182  1.00  0.00     0.002 C 
BRANCH  26  27
ATOM     27  C   UNL A   1      39.027  23.455  27.213  1.00  0.00     0.002 C 
BRANCH  27  28
ATOM     28  C   UNL A   1      40.309  22.843  26.641  1.00  0.00     0.021 C 
BRANCH  28  29
ATOM     29  C   UNL A   1      41.588  23.624  26.937  1.00  0.00     0.116 C 
BRANCH  29  30
ATOM     30  N   UNL A   1      41.946  24.523  25.850  1.00  0.00    -0.352 N 
ATOM     31  C   UNL A   1      41.909  25.897  25.843  1.00  0.00     0.251 C 
ATOM     32  H   UNL A   1      42.252  24.095  25.018  1.00  0.00     0.163 HD
ATOM     33  O   UNL A   1      42.026  26.531  24.801  1.00  0.00    -0.269 OA
BRANCH  31  34
ATOM     34  C   UNL A   1      41.698  26.598  27.124  1.00  0.00     0.039 A 
ATOM     35  C   UNL A   1      42.778  27.223  27.748  1.00  0.00     0.014 A 
ATOM     36  C   UNL A   1      40.411  26.692  27.660  1.00  0.00     0.014 A 
ATOM     37  C   UNL A   1      42.553  28.004  28.884  1.00  0.00     0.010 A 
ATOM     38  C   UNL A   1      40.179  27.530  28.746  1.00  0.00     0.010 A 
ATOM     39  C   UNL A   1      41.247  28.193  29.370  1.00  0.00    -0.014 A 
BRANCH  39  40
ATOM     40  C   UNL A   1      40.981  29.068  30.541  1.00  0.00     0.031 A 
ATOM     41  C   UNL A   1      41.796  28.904  31.797  1.00  0.00     0.074 A 
ATOM     42  C   UNL A   1      39.977  29.967  30.496  1.00  0.00     0.049 A 
ATOM     43  N   UNL A   1      41.677  29.524  32.942  1.00  0.00    -0.248 NA
ATOM     44  C   UNL A   1      42.868  27.895  31.770  1.00  0.00     0.031 C 
ATOM     45  C   UNL A   1      39.086  30.192  29.355  1.00  0.00     0.029 A 
ATOM     46  N   UNL A   1      39.531  30.859  31.440  1.00  0.00    -0.354 N 
ATOM     47  C   UNL A   1      42.647  28.973  33.772  1.00  0.00     0.074 A 
ATOM     48  C   UNL A   1      43.307  27.931  33.019  1.00  0.00     0.031 C 
ATOM     49  C   UNL A   1      38.219  31.172  29.657  1.00  0.00     0.029 A 
ATOM     50  C   UNL A   1      38.464  31.621  31.024  1.00  0.00     0.049 A 
ATOM     51  H   UNL A   1      39.937  30.945  32.333  1.00  0.00     0.167 HD
ATOM     52  C   UNL A   1      42.978  29.322  35.037  1.00  0.00     0.031 A 
ATOM     53  C   UNL A   1      37.760  32.570  31.671  1.00  0.00     0.031 A 
ATOM     54  C   UNL A   1      42.334  30.371  35.779  1.00  0.00     0.049 A 
ATOM     55  C   UNL A   1      38.145  32.934  33.082  1.00  0.00     0.074 A 
ATOM     56  C   UNL A   1      42.626  30.829  37.052  1.00  0.00     0.029 A 
ATOM     57  N   UNL A   1      41.274  31.133  35.312  1.00  0.00    -0.354 N 
ATOM     58  N   UNL A   1      39.104  32.439  33.827  1.00  0.00    -0.248 NA
ATOM     59  C   UNL A   1      37.362  33.993  33.732  1.00  0.00     0.031 C 
ATOM     60  C   UNL A   1      41.713  31.838  37.372  1.00  0.00     0.029 A 
ATOM     61  C   UNL A   1      40.890  32.049  36.277  1.00  0.00     0.049 A 
ATOM     62  H   UNL A   1      40.855  31.037  34.426  1.00  0.00     0.167 HD
ATOM     63  C   UNL A   1      39.058  33.151  35.022  1.00  0.00     0.074 A 
ATOM     64  C   UNL A   1      37.990  34.118  34.893  1.00  0.00     0.031 C 
ATOM     65  C   UNL A   1      39.832  33.013  36.127  1.00  0.00     0.031 A 
BRANCH  52  66
ATOM     66  C   UNL A   1      44.104  28.570  35.696  1.00  0.00    -0.014 A 
ATOM     67  C   UNL A   1      45.430  29.026  35.596  1.00  0.00     0.010 A 
ATOM     68  C   UNL A   1      43.828  27.430  36.473  1.00  0.00     0.010 A 
ATOM     69  C   UNL A   1      46.465  28.340  36.237  1.00  0.00     0.020 A 
ATOM     70  C   UNL A   1      44.857  26.758  37.139  1.00  0.00     0.020 A 
ATOM     71  C   UNL A   1      46.172  27.212  37.007  1.00  0.00     0.054 A 
BRANCH  71  72
ATOM     72  S   UNL A   1      47.529  26.372  37.867  1.00  0.00     0.124 S 
ATOM     73  O   UNL A   1      47.346  24.987  37.441  1.00  0.00    -0.237 OA
ATOM     74  O   UNL A   1      48.711  27.043  37.330  1.00  0.00    -0.237 OA
ATOM     75  O   UNL A   1      47.258  26.630  39.279  1.00  0.00    -0.744 OA
ENDBRANCH  71  72
ENDBRANCH  52  66
BRANCH  53  76
ATOM     76  C   UNL A   1      36.617  33.250  30.999  1.00  0.00    -0.014 A 
ATOM     77  C   UNL A   1      36.769  33.812  29.718  1.00  0.00     0.010 A 
ATOM     78  C   UNL A   1      35.374  33.362  31.649  1.00  0.00     0.010 A 
ATOM     79  C   UNL A   1      35.714  34.504  29.117  1.00  0.00     0.020 A 
ATOM     80  C   UNL A   1      34.307  34.027  31.038  1.00  0.00     0.020 A 
ATOM     81  C   UNL A   1      34.490  34.611  29.783  1.00  0.00     0.054 A 
BRANCH  81  82
ATOM     82  S   UNL A   1      33.126  35.499  28.978  1.00  0.00     0.124 S 
ATOM     83  O   UNL A   1      33.831  36.573  28.286  1.00  0.00    -0.237 OA
ATOM     84  O   UNL A   1      32.541  34.470  28.123  1.00  0.00    -0.237 OA
ATOM     85  O   UNL A   1      32.287  35.919  30.098  1.00  0.00    -0.744 OA
ENDBRANCH  81  82
ENDBRANCH  53  76
BRANCH  65  86
ATOM     86  C   UNL A   1      39.584  33.961  37.270  1.00  0.00    -0.014 A 
ATOM     87  C   UNL A   1      38.971  33.528  38.459  1.00  0.00     0.010 A 
ATOM     88  C   UNL A   1      40.030  35.292  37.172  1.00  0.00     0.010 A 
ATOM     89  C   UNL A   1      38.779  34.419  39.518  1.00  0.00     0.020 A 
ATOM     90  C   UNL A   1      39.866  36.178  38.241  1.00  0.00     0.020 A 
ATOM     91  C   UNL A   1      39.228  35.737  39.402  1.00  0.00     0.054 A 
BRANCH  91  92
ATOM     92  S   UNL A   1      39.008  36.862  40.809  1.00  0.00     0.124 S 
ATOM     93  O   UNL A   1      38.094  36.108  41.660  1.00  0.00    -0.237 OA
ATOM     94  O   UNL A   1      40.370  37.005  41.320  1.00  0.00    -0.237 OA
ATOM     95  O   UNL A   1      38.447  38.068  40.205  1.00  0.00    -0.744 OA
ENDBRANCH  91  92
ENDBRANCH  65  86
ENDBRANCH  39  40
ENDBRANCH  31  34
ENDBRANCH  29  30
ENDBRANCH  28  29
ENDBRANCH  27  28
ENDBRANCH  26  27
ENDBRANCH   1  26
TORSDOF 22
ENDMDL
