MODEL 1
REMARK VINA RESULT:     -12.5      0.000      0.000
REMARK SMILES CC[C@H](Oc1ccc(C)cc1)C(=O)Nc1ccc(C(=O)NCCCCCCNC(=O)c2ccc(-c3c4nc(c(-c5ccc(S(=O)(=O)[O-])cc5)c5ccc([nH]5)c(-c5ccc(S(=O)(=O)[O-])cc5)c5nc(c(-c6ccc(S(=O)(=O)[O-])cc6)c6ccc3[nH]6)C=C5)C=C4)cc2)cc1
REMARK SMILES IDX 24 1 23 2 22 3 21 4 19 5 20 6 18 8 15 9 16 10 92 11 17 12
REMARK SMILES IDX 91 13 14 14 12 15 13 16 3 18 2 19 1 20 4 21 5 22 6 23 11 24
REMARK SMILES IDX 7 25 10 26 8 27 9 28 25 29 26 30 27 31 28 32 29 33 30 35
REMARK SMILES IDX 31 36 32 37 90 38 33 39 89 40 34 41 35 42 36 43 83 44 37 45
REMARK SMILES IDX 88 46 82 47 84 48 38 49 87 50 81 51 80 52 39 54 69 55 50 56
REMARK SMILES IDX 68 57 51 58 54 59 67 60 85 61 52 62 53 63 66 65 86 66 55 67
REMARK SMILES IDX 40 68 41 69 49 70 42 71 48 72 43 73 44 74 45 75 46 76 47 77
REMARK SMILES IDX 70 78 71 79 79 80 72 81 78 82 73 83 74 84 75 85 76 86 77 87
REMARK SMILES IDX 56 88 57 89 65 90 58 91 64 92 59 93 60 94 61 95 62 96 63 97
REMARK H PARENT 21 7 14 17 28 34 84 53 54 64
REMARK Flexibility Score: inf
ROOT
ATOM      1  C   UNL A   1      35.147  22.858  25.882  1.00  0.00     0.002 C 
ENDROOT
BRANCH   1   2
ATOM      2  C   UNL A   1      35.189  21.862  27.050  1.00  0.00     0.021 C 
BRANCH   2   3
ATOM      3  C   UNL A   1      33.815  21.387  27.531  1.00  0.00     0.116 C 
BRANCH   3   4
ATOM      4  N   UNL A   1      33.270  20.371  26.643  1.00  0.00    -0.352 N 
ATOM      5  C   UNL A   1      32.471  20.443  25.530  1.00  0.00     0.251 C 
ATOM      6  O   UNL A   1      32.249  19.408  24.901  1.00  0.00    -0.269 OA
ATOM      7  H   UNL A   1      33.527  19.451  26.888  1.00  0.00     0.163 HD
BRANCH   5   8
ATOM      8  C   UNL A   1      31.931  21.727  25.007  1.00  0.00     0.039 A 
ATOM      9  C   UNL A   1      30.614  24.038  24.135  1.00  0.00     0.041 A 
ATOM     10  C   UNL A   1      31.337  23.262  23.231  1.00  0.00     0.027 A 
ATOM     11  C   UNL A   1      30.675  23.755  25.497  1.00  0.00     0.027 A 
ATOM     12  C   UNL A   1      32.024  22.127  23.672  1.00  0.00     0.016 A 
ATOM     13  C   UNL A   1      31.303  22.583  25.926  1.00  0.00     0.016 A 
BRANCH   9  14
ATOM     14  N   UNL A   1      29.836  25.117  23.713  1.00  0.00    -0.323 N 
ATOM     15  C   UNL A   1      30.209  26.431  23.573  1.00  0.00     0.265 C 
ATOM     16  O   UNL A   1      29.337  27.235  23.216  1.00  0.00    -0.270 OA
ATOM     17  H   UNL A   1      28.899  24.910  23.488  1.00  0.00     0.170 HD
BRANCH  15  18
ATOM     18  C   UNL A   1      31.696  26.880  23.658  1.00  0.00     0.262 C 
BRANCH  18  19
ATOM     19  C   UNL A   1      32.525  26.176  22.547  1.00  0.00     0.052 C 
ATOM     20  C   UNL A   1      31.949  26.149  21.137  1.00  0.00     0.008 C 
ENDBRANCH  18  19
BRANCH  18  21
ATOM     21  O   UNL A   1      32.201  26.757  24.979  1.00  0.00    -0.481 OA
BRANCH  21  22
ATOM     22  C   UNL A   1      32.710  27.857  25.611  1.00  0.00     0.120 A 
ATOM     23  C   UNL A   1      33.814  27.885  26.462  1.00  0.00     0.047 A 
ATOM     24  C   UNL A   1      31.991  29.034  25.395  1.00  0.00     0.047 A 
ATOM     25  C   UNL A   1      34.151  29.060  27.144  1.00  0.00     0.007 A 
ATOM     26  C   UNL A   1      32.331  30.211  26.067  1.00  0.00     0.007 A 
ATOM     27  C   UNL A   1      33.398  30.225  26.968  1.00  0.00    -0.051 A 
ATOM     28  C   UNL A   1      33.726  31.478  27.725  1.00  0.00     0.044 C 
ENDBRANCH  21  22
ENDBRANCH  18  21
ENDBRANCH  15  18
ENDBRANCH   9  14
ENDBRANCH   5   8
ENDBRANCH   3   4
ENDBRANCH   2   3
ENDBRANCH   1   2
BRANCH   1  29
ATOM     29  C   UNL A   1      36.050  22.539  24.680  1.00  0.00     0.002 C 
BRANCH  29  30
ATOM     30  C   UNL A   1      37.540  22.367  24.983  1.00  0.00     0.021 C 
BRANCH  30  31
ATOM     31  C   UNL A   1      38.131  23.513  25.802  1.00  0.00     0.116 C 
BRANCH  31  32
ATOM     32  N   UNL A   1      39.385  23.156  26.462  1.00  0.00    -0.352 N 
ATOM     33  C   UNL A   1      40.236  23.991  27.166  1.00  0.00     0.251 C 
ATOM     34  H   UNL A   1      39.656  22.212  26.398  1.00  0.00     0.163 HD
ATOM     35  O   UNL A   1      41.304  23.609  27.616  1.00  0.00    -0.269 OA
BRANCH  33  36
ATOM     36  C   UNL A   1      39.766  25.368  27.402  1.00  0.00     0.039 A 
ATOM     37  C   UNL A   1      40.316  26.390  26.620  1.00  0.00     0.014 A 
ATOM     38  C   UNL A   1      39.046  25.646  28.560  1.00  0.00     0.014 A 
ATOM     39  C   UNL A   1      40.304  27.695  27.106  1.00  0.00     0.010 A 
ATOM     40  C   UNL A   1      39.115  26.924  29.080  1.00  0.00     0.010 A 
ATOM     41  C   UNL A   1      39.794  27.937  28.382  1.00  0.00    -0.014 A 
BRANCH  41  42
ATOM     42  C   UNL A   1      40.028  29.176  29.122  1.00  0.00     0.031 A 
ATOM     43  C   UNL A   1      39.005  30.250  29.129  1.00  0.00     0.074 A 
ATOM     44  C   UNL A   1      41.140  29.317  29.879  1.00  0.00     0.049 A 
ATOM     45  N   UNL A   1      39.241  31.485  29.431  1.00  0.00    -0.248 NA
ATOM     46  C   UNL A   1      37.626  30.017  28.718  1.00  0.00     0.031 C 
ATOM     47  C   UNL A   1      41.353  30.309  30.930  1.00  0.00     0.029 A 
ATOM     48  N   UNL A   1      42.399  28.734  29.710  1.00  0.00    -0.354 N 
ATOM     49  C   UNL A   1      38.026  32.123  29.553  1.00  0.00     0.074 A 
ATOM     50  C   UNL A   1      37.066  31.197  29.001  1.00  0.00     0.031 C 
ATOM     51  C   UNL A   1      42.673  30.488  31.091  1.00  0.00     0.029 A 
ATOM     52  C   UNL A   1      43.340  29.719  30.055  1.00  0.00     0.049 A 
ATOM     53  H   UNL A   1      42.588  27.816  29.410  1.00  0.00     0.167 HD
ATOM     54  C   UNL A   1      37.944  33.300  30.237  1.00  0.00     0.031 A 
ATOM     55  C   UNL A   1      44.308  30.197  29.221  1.00  0.00     0.031 A 
ATOM     56  C   UNL A   1      39.265  33.811  30.603  1.00  0.00     0.049 A 
ATOM     57  C   UNL A   1      44.256  31.698  29.044  1.00  0.00     0.074 A 
ATOM     58  C   UNL A   1      39.987  33.813  31.786  1.00  0.00     0.029 A 
ATOM     59  N   UNL A   1      40.149  34.197  29.602  1.00  0.00    -0.354 N 
ATOM     60  N   UNL A   1      43.240  32.435  29.397  1.00  0.00    -0.248 NA
ATOM     61  C   UNL A   1      45.312  32.480  28.404  1.00  0.00     0.031 C 
ATOM     62  C   UNL A   1      41.335  34.129  31.475  1.00  0.00     0.029 A 
ATOM     63  C   UNL A   1      41.424  34.346  30.111  1.00  0.00     0.049 A 
ATOM     64  H   UNL A   1      39.899  34.344  28.660  1.00  0.00     0.167 HD
ATOM     65  C   UNL A   1      43.464  33.735  29.030  1.00  0.00     0.074 A 
ATOM     66  C   UNL A   1      44.785  33.717  28.431  1.00  0.00     0.031 C 
ATOM     67  C   UNL A   1      42.530  34.710  29.236  1.00  0.00     0.031 A 
BRANCH  54  68
ATOM     68  C   UNL A   1      36.654  33.844  30.828  1.00  0.00    -0.014 A 
ATOM     69  C   UNL A   1      35.481  33.867  30.040  1.00  0.00     0.010 A 
ATOM     70  C   UNL A   1      36.538  34.419  32.106  1.00  0.00     0.010 A 
ATOM     71  C   UNL A   1      34.308  34.518  30.461  1.00  0.00     0.020 A 
ATOM     72  C   UNL A   1      35.386  35.098  32.530  1.00  0.00     0.020 A 
ATOM     73  C   UNL A   1      34.279  35.159  31.694  1.00  0.00     0.054 A 
BRANCH  73  74
ATOM     74  S   UNL A   1      32.798  36.076  32.191  1.00  0.00     0.124 S 
ATOM     75  O   UNL A   1      33.273  36.842  33.340  1.00  0.00    -0.237 OA
ATOM     76  O   UNL A   1      32.492  36.853  30.994  1.00  0.00    -0.237 OA
ATOM     77  O   UNL A   1      31.831  35.026  32.512  1.00  0.00    -0.744 OA
ENDBRANCH  73  74
ENDBRANCH  54  68
BRANCH  55  78
ATOM     78  C   UNL A   1      44.768  29.236  28.185  1.00  0.00    -0.014 A 
ATOM     79  C   UNL A   1      45.647  28.215  28.599  1.00  0.00     0.010 A 
ATOM     80  C   UNL A   1      44.036  29.071  26.996  1.00  0.00     0.010 A 
ATOM     81  C   UNL A   1      45.658  26.983  27.944  1.00  0.00     0.020 A 
ATOM     82  C   UNL A   1      44.048  27.836  26.335  1.00  0.00     0.020 A 
ATOM     83  C   UNL A   1      44.806  26.782  26.857  1.00  0.00     0.054 A 
BRANCH  83  84
ATOM     84  S   UNL A   1      44.541  25.075  26.291  1.00  0.00     0.124 S 
ATOM     85  O   UNL A   1      43.308  25.188  25.521  1.00  0.00    -0.237 OA
ATOM     86  O   UNL A   1      45.754  24.833  25.511  1.00  0.00    -0.237 OA
ATOM     87  O   UNL A   1      44.441  24.320  27.536  1.00  0.00    -0.744 OA
ENDBRANCH  83  84
ENDBRANCH  55  78
BRANCH  67  88
ATOM     88  C   UNL A   1      42.593  36.120  28.700  1.00  0.00    -0.014 A 
ATOM     89  C   UNL A   1      43.415  37.128  29.229  1.00  0.00     0.010 A 
ATOM     90  C   UNL A   1      41.879  36.431  27.517  1.00  0.00     0.010 A 
ATOM     91  C   UNL A   1      43.471  38.403  28.647  1.00  0.00     0.020 A 
ATOM     92  C   UNL A   1      41.961  37.685  26.904  1.00  0.00     0.020 A 
ATOM     93  C   UNL A   1      42.739  38.676  27.490  1.00  0.00     0.054 A 
BRANCH  93  94
ATOM     94  S   UNL A   1      42.861  40.304  26.708  1.00  0.00     0.124 S 
ATOM     95  O   UNL A   1      42.966  41.189  27.865  1.00  0.00    -0.237 OA
ATOM     96  O   UNL A   1      44.071  40.191  25.895  1.00  0.00    -0.237 OA
ATOM     97  O   UNL A   1      41.619  40.409  25.946  1.00  0.00    -0.744 OA
ENDBRANCH  93  94
ENDBRANCH  67  88
ENDBRANCH  41  42
ENDBRANCH  33  36
ENDBRANCH  31  32
ENDBRANCH  30  31
ENDBRANCH  29  30
ENDBRANCH   1  29
TORSDOF 21
ENDMDL
MODEL 2
REMARK VINA RESULT:     -11.0      1.391      2.215
REMARK SMILES CC[C@H](Oc1ccc(C)cc1)C(=O)Nc1ccc(C(=O)NCCCCCCNC(=O)c2ccc(-c3c4nc(c(-c5ccc(S(=O)(=O)[O-])cc5)c5ccc([nH]5)c(-c5ccc(S(=O)(=O)[O-])cc5)c5nc(c(-c6ccc(S(=O)(=O)[O-])cc6)c6ccc3[nH]6)C=C5)C=C4)cc2)cc1
REMARK SMILES IDX 24 1 23 2 22 3 21 4 19 5 20 6 18 8 15 9 16 10 92 11 17 12
REMARK SMILES IDX 91 13 14 14 12 15 13 16 3 18 2 19 1 20 4 21 5 22 6 23 11 24
REMARK SMILES IDX 7 25 10 26 8 27 9 28 25 29 26 30 27 31 28 32 29 33 30 35
REMARK SMILES IDX 31 36 32 37 90 38 33 39 89 40 34 41 35 42 36 43 83 44 37 45
REMARK SMILES IDX 88 46 82 47 84 48 38 49 87 50 81 51 80 52 39 54 69 55 50 56
REMARK SMILES IDX 68 57 51 58 54 59 67 60 85 61 52 62 53 63 66 65 86 66 55 67
REMARK SMILES IDX 40 68 41 69 49 70 42 71 48 72 43 73 44 74 45 75 46 76 47 77
REMARK SMILES IDX 70 78 71 79 79 80 72 81 78 82 73 83 74 84 75 85 76 86 77 87
REMARK SMILES IDX 56 88 57 89 65 90 58 91 64 92 59 93 60 94 61 95 62 96 63 97
REMARK H PARENT 21 7 14 17 28 34 84 53 54 64
REMARK Flexibility Score: inf
ROOT
ATOM      1  C   UNL A   1      35.141  23.642  26.856  1.00  0.00     0.002 C 
ENDROOT
BRANCH   1   2
ATOM      2  C   UNL A   1      34.452  22.627  27.782  1.00  0.00     0.021 C 
BRANCH   2   3
ATOM      3  C   UNL A   1      32.995  22.324  27.421  1.00  0.00     0.116 C 
BRANCH   3   4
ATOM      4  N   UNL A   1      32.879  21.049  26.730  1.00  0.00    -0.352 N 
ATOM      5  C   UNL A   1      32.859  20.713  25.400  1.00  0.00     0.251 C 
ATOM      6  O   UNL A   1      32.859  19.519  25.098  1.00  0.00    -0.269 OA
ATOM      7  H   UNL A   1      32.801  20.276  27.336  1.00  0.00     0.163 HD
BRANCH   5   8
ATOM      8  C   UNL A   1      32.922  21.724  24.311  1.00  0.00     0.039 A 
ATOM      9  C   UNL A   1      32.880  23.400  22.068  1.00  0.00     0.041 A 
ATOM     10  C   UNL A   1      34.090  23.084  22.684  1.00  0.00     0.027 A 
ATOM     11  C   UNL A   1      31.680  23.013  22.659  1.00  0.00     0.027 A 
ATOM     12  C   UNL A   1      34.108  22.276  23.825  1.00  0.00     0.016 A 
ATOM     13  C   UNL A   1      31.703  22.149  23.757  1.00  0.00     0.016 A 
BRANCH   9  14
ATOM     14  N   UNL A   1      32.833  24.118  20.873  1.00  0.00    -0.323 N 
ATOM     15  C   UNL A   1      32.632  25.465  20.698  1.00  0.00     0.265 C 
ATOM     16  O   UNL A   1      32.591  25.888  19.535  1.00  0.00    -0.270 OA
ATOM     17  H   UNL A   1      32.959  23.592  20.050  1.00  0.00     0.170 HD
BRANCH  15  18
ATOM     18  C   UNL A   1      32.653  26.464  21.890  1.00  0.00     0.262 C 
BRANCH  18  19
ATOM     19  C   UNL A   1      34.115  26.683  22.371  1.00  0.00     0.052 C 
ATOM     20  C   UNL A   1      34.562  28.108  22.669  1.00  0.00     0.008 C 
ENDBRANCH  18  19
BRANCH  18  21
ATOM     21  O   UNL A   1      31.721  26.093  22.894  1.00  0.00    -0.481 OA
BRANCH  21  22
ATOM     22  C   UNL A   1      30.507  26.721  22.952  1.00  0.00     0.120 A 
ATOM     23  C   UNL A   1      30.216  28.002  22.483  1.00  0.00     0.047 A 
ATOM     24  C   UNL A   1      29.508  25.992  23.598  1.00  0.00     0.047 A 
ATOM     25  C   UNL A   1      28.959  28.571  22.722  1.00  0.00     0.007 A 
ATOM     26  C   UNL A   1      28.250  26.555  23.828  1.00  0.00     0.007 A 
ATOM     27  C   UNL A   1      27.976  27.861  23.415  1.00  0.00    -0.051 A 
ATOM     28  C   UNL A   1      26.641  28.478  23.711  1.00  0.00     0.044 C 
ENDBRANCH  21  22
ENDBRANCH  18  21
ENDBRANCH  15  18
ENDBRANCH   9  14
ENDBRANCH   5   8
ENDBRANCH   3   4
ENDBRANCH   2   3
ENDBRANCH   1   2
BRANCH   1  29
ATOM     29  C   UNL A   1      35.963  23.060  25.696  1.00  0.00     0.002 C 
BRANCH  29  30
ATOM     30  C   UNL A   1      37.339  22.497  26.059  1.00  0.00     0.021 C 
BRANCH  30  31
ATOM     31  C   UNL A   1      38.471  23.511  25.903  1.00  0.00     0.116 C 
BRANCH  31  32
ATOM     32  N   UNL A   1      39.666  23.154  26.664  1.00  0.00    -0.352 N 
ATOM     33  C   UNL A   1      40.448  23.987  27.447  1.00  0.00     0.251 C 
ATOM     34  H   UNL A   1      39.947  22.213  26.615  1.00  0.00     0.163 HD
ATOM     35  O   UNL A   1      41.476  23.607  27.984  1.00  0.00    -0.269 OA
BRANCH  33  36
ATOM     36  C   UNL A   1      39.950  25.359  27.655  1.00  0.00     0.039 A 
ATOM     37  C   UNL A   1      40.482  26.377  26.854  1.00  0.00     0.014 A 
ATOM     38  C   UNL A   1      39.222  25.646  28.806  1.00  0.00     0.014 A 
ATOM     39  C   UNL A   1      40.443  27.690  27.314  1.00  0.00     0.010 A 
ATOM     40  C   UNL A   1      39.265  26.935  29.300  1.00  0.00     0.010 A 
ATOM     41  C   UNL A   1      39.925  27.946  28.584  1.00  0.00    -0.014 A 
BRANCH  41  42
ATOM     42  C   UNL A   1      40.133  29.204  29.299  1.00  0.00     0.031 A 
ATOM     43  C   UNL A   1      39.098  30.267  29.266  1.00  0.00     0.074 A 
ATOM     44  C   UNL A   1      41.231  29.375  30.071  1.00  0.00     0.049 A 
ATOM     45  N   UNL A   1      39.315  31.511  29.544  1.00  0.00    -0.248 NA
ATOM     46  C   UNL A   1      37.729  30.009  28.838  1.00  0.00     0.031 C 
ATOM     47  C   UNL A   1      41.415  30.393  31.103  1.00  0.00     0.029 A 
ATOM     48  N   UNL A   1      42.499  28.804  29.936  1.00  0.00    -0.354 N 
ATOM     49  C   UNL A   1      38.090  32.137  29.632  1.00  0.00     0.074 A 
ATOM     50  C   UNL A   1      37.150  31.188  29.085  1.00  0.00     0.031 C 
ATOM     51  C   UNL A   1      42.730  30.591  31.281  1.00  0.00     0.029 A 
ATOM     52  C   UNL A   1      43.422  29.807  30.274  1.00  0.00     0.049 A 
ATOM     53  H   UNL A   1      42.703  27.881  29.659  1.00  0.00     0.167 HD
ATOM     54  C   UNL A   1      37.984  33.328  30.288  1.00  0.00     0.031 A 
ATOM     55  C   UNL A   1      44.399  30.278  29.445  1.00  0.00     0.031 A 
ATOM     56  C   UNL A   1      39.293  33.863  30.664  1.00  0.00     0.049 A 
ATOM     57  C   UNL A   1      44.333  31.773  29.233  1.00  0.00     0.074 A 
ATOM     58  C   UNL A   1      39.995  33.899  31.858  1.00  0.00     0.029 A 
ATOM     59  N   UNL A   1      40.189  34.236  29.668  1.00  0.00    -0.354 N 
ATOM     60  N   UNL A   1      43.303  32.506  29.553  1.00  0.00    -0.248 NA
ATOM     61  C   UNL A   1      45.391  32.554  28.594  1.00  0.00     0.031 C 
ATOM     62  C   UNL A   1      41.344  34.224  31.562  1.00  0.00     0.029 A 
ATOM     63  C   UNL A   1      41.453  34.411  30.195  1.00  0.00     0.049 A 
ATOM     64  H   UNL A   1      39.953  34.359  28.720  1.00  0.00     0.167 HD
ATOM     65  C   UNL A   1      43.518  33.801  29.161  1.00  0.00     0.074 A 
ATOM     66  C   UNL A   1      44.849  33.785  28.584  1.00  0.00     0.031 C 
ATOM     67  C   UNL A   1      42.570  34.769  29.330  1.00  0.00     0.031 A 
BRANCH  54  68
ATOM     68  C   UNL A   1      36.678  33.870  30.845  1.00  0.00    -0.014 A 
ATOM     69  C   UNL A   1      35.533  33.917  30.019  1.00  0.00     0.010 A 
ATOM     70  C   UNL A   1      36.523  34.420  32.131  1.00  0.00     0.010 A 
ATOM     71  C   UNL A   1      34.351  34.568  30.413  1.00  0.00     0.020 A 
ATOM     72  C   UNL A   1      35.361  35.099  32.529  1.00  0.00     0.020 A 
ATOM     73  C   UNL A   1      34.284  35.184  31.657  1.00  0.00     0.054 A 
BRANCH  73  74
ATOM     74  S   UNL A   1      32.793  36.103  32.121  1.00  0.00     0.124 S 
ATOM     75  O   UNL A   1      31.859  35.033  32.464  1.00  0.00    -0.237 OA
ATOM     76  O   UNL A   1      33.260  36.917  33.238  1.00  0.00    -0.237 OA
ATOM     77  O   UNL A   1      32.454  36.848  30.909  1.00  0.00    -0.744 OA
ENDBRANCH  73  74
ENDBRANCH  54  68
BRANCH  55  78
ATOM     78  C   UNL A   1      44.886  29.300  28.438  1.00  0.00    -0.014 A 
ATOM     79  C   UNL A   1      45.957  28.464  28.818  1.00  0.00     0.010 A 
ATOM     80  C   UNL A   1      44.062  28.914  27.367  1.00  0.00     0.010 A 
ATOM     81  C   UNL A   1      46.090  27.190  28.265  1.00  0.00     0.020 A 
ATOM     82  C   UNL A   1      44.195  27.635  26.808  1.00  0.00     0.020 A 
ATOM     83  C   UNL A   1      45.164  26.761  27.313  1.00  0.00     0.054 A 
BRANCH  83  84
ATOM     84  S   UNL A   1      45.112  24.987  26.920  1.00  0.00     0.124 S 
ATOM     85  O   UNL A   1      44.371  24.438  28.050  1.00  0.00    -0.237 OA
ATOM     86  O   UNL A   1      44.404  24.990  25.641  1.00  0.00    -0.237 OA
ATOM     87  O   UNL A   1      46.522  24.617  26.850  1.00  0.00    -0.744 OA
ENDBRANCH  83  84
ENDBRANCH  55  78
BRANCH  67  88
ATOM     88  C   UNL A   1      42.626  36.167  28.764  1.00  0.00    -0.014 A 
ATOM     89  C   UNL A   1      43.416  37.200  29.292  1.00  0.00     0.010 A 
ATOM     90  C   UNL A   1      41.941  36.439  27.554  1.00  0.00     0.010 A 
ATOM     91  C   UNL A   1      43.469  38.463  28.683  1.00  0.00     0.020 A 
ATOM     92  C   UNL A   1      42.021  37.681  26.915  1.00  0.00     0.020 A 
ATOM     93  C   UNL A   1      42.765  38.698  27.500  1.00  0.00     0.054 A 
BRANCH  93  94
ATOM     94  S   UNL A   1      42.884  40.310  26.684  1.00  0.00     0.124 S 
ATOM     95  O   UNL A   1      44.090  40.151  25.876  1.00  0.00    -0.237 OA
ATOM     96  O   UNL A   1      41.633  40.393  25.933  1.00  0.00    -0.237 OA
ATOM     97  O   UNL A   1      42.993  41.247  27.799  1.00  0.00    -0.744 OA
ENDBRANCH  93  94
ENDBRANCH  67  88
ENDBRANCH  41  42
ENDBRANCH  33  36
ENDBRANCH  31  32
ENDBRANCH  30  31
ENDBRANCH  29  30
ENDBRANCH   1  29
TORSDOF 21
ENDMDL
MODEL 3
REMARK VINA RESULT:     -10.9      1.678      2.419
REMARK SMILES CC[C@H](Oc1ccc(C)cc1)C(=O)Nc1ccc(C(=O)NCCCCCCNC(=O)c2ccc(-c3c4nc(c(-c5ccc(S(=O)(=O)[O-])cc5)c5ccc([nH]5)c(-c5ccc(S(=O)(=O)[O-])cc5)c5nc(c(-c6ccc(S(=O)(=O)[O-])cc6)c6ccc3[nH]6)C=C5)C=C4)cc2)cc1
REMARK SMILES IDX 24 1 23 2 22 3 21 4 19 5 20 6 18 8 15 9 16 10 92 11 17 12
REMARK SMILES IDX 91 13 14 14 12 15 13 16 3 18 2 19 1 20 4 21 5 22 6 23 11 24
REMARK SMILES IDX 7 25 10 26 8 27 9 28 25 29 26 30 27 31 28 32 29 33 30 35
REMARK SMILES IDX 31 36 32 37 90 38 33 39 89 40 34 41 35 42 36 43 83 44 37 45
REMARK SMILES IDX 88 46 82 47 84 48 38 49 87 50 81 51 80 52 39 54 69 55 50 56
REMARK SMILES IDX 68 57 51 58 54 59 67 60 85 61 52 62 53 63 66 65 86 66 55 67
REMARK SMILES IDX 40 68 41 69 49 70 42 71 48 72 43 73 44 74 45 75 46 76 47 77
REMARK SMILES IDX 70 78 71 79 79 80 72 81 78 82 73 83 74 84 75 85 76 86 77 87
REMARK SMILES IDX 56 88 57 89 65 90 58 91 64 92 59 93 60 94 61 95 62 96 63 97
REMARK H PARENT 21 7 14 17 28 34 84 53 54 64
REMARK Flexibility Score: inf
ROOT
ATOM      1  C   UNL A   1      38.749  21.908  26.067  1.00  0.00     0.002 C 
ENDROOT
BRANCH   1   2
ATOM      2  C   UNL A   1      37.797  20.888  25.423  1.00  0.00     0.021 C 
BRANCH   2   3
ATOM      3  C   UNL A   1      36.390  21.422  25.140  1.00  0.00     0.116 C 
BRANCH   3   4
ATOM      4  N   UNL A   1      35.588  21.458  26.354  1.00  0.00    -0.352 N 
ATOM      5  C   UNL A   1      34.471  22.172  26.707  1.00  0.00     0.251 C 
ATOM      6  O   UNL A   1      33.930  21.917  27.784  1.00  0.00    -0.269 OA
ATOM      7  H   UNL A   1      35.910  20.851  27.060  1.00  0.00     0.163 HD
BRANCH   5   8
ATOM      8  C   UNL A   1      33.840  23.178  25.811  1.00  0.00     0.039 A 
ATOM      9  C   UNL A   1      32.749  24.872  23.868  1.00  0.00     0.041 A 
ATOM     10  C   UNL A   1      33.684  25.362  24.778  1.00  0.00     0.027 A 
ATOM     11  C   UNL A   1      32.239  23.585  24.021  1.00  0.00     0.027 A 
ATOM     12  C   UNL A   1      34.202  24.525  25.771  1.00  0.00     0.016 A 
ATOM     13  C   UNL A   1      32.809  22.731  24.968  1.00  0.00     0.016 A 
BRANCH   9  14
ATOM     14  N   UNL A   1      32.288  25.649  22.804  1.00  0.00    -0.323 N 
ATOM     15  C   UNL A   1      31.202  26.489  22.773  1.00  0.00     0.265 C 
ATOM     16  O   UNL A   1      30.952  27.058  21.702  1.00  0.00    -0.270 OA
ATOM     17  H   UNL A   1      32.806  25.586  21.969  1.00  0.00     0.170 HD
BRANCH  15  18
ATOM     18  C   UNL A   1      30.425  26.881  24.063  1.00  0.00     0.262 C 
BRANCH  18  19
ATOM     19  C   UNL A   1      28.942  26.431  23.944  1.00  0.00     0.052 C 
ATOM     20  C   UNL A   1      27.917  27.465  23.495  1.00  0.00     0.008 C 
ENDBRANCH  18  19
BRANCH  18  21
ATOM     21  O   UNL A   1      30.633  28.245  24.398  1.00  0.00    -0.481 OA
BRANCH  21  22
ATOM     22  C   UNL A   1      31.750  28.603  25.101  1.00  0.00     0.120 A 
ATOM     23  C   UNL A   1      32.964  29.029  24.562  1.00  0.00     0.047 A 
ATOM     24  C   UNL A   1      31.634  28.463  26.485  1.00  0.00     0.047 A 
ATOM     25  C   UNL A   1      34.069  29.243  25.395  1.00  0.00     0.007 A 
ATOM     26  C   UNL A   1      32.733  28.685  27.319  1.00  0.00     0.007 A 
ATOM     27  C   UNL A   1      33.968  29.051  26.776  1.00  0.00    -0.051 A 
ATOM     28  C   UNL A   1      35.156  29.238  27.671  1.00  0.00     0.044 C 
ENDBRANCH  21  22
ENDBRANCH  18  21
ENDBRANCH  15  18
ENDBRANCH   9  14
ENDBRANCH   5   8
ENDBRANCH   3   4
ENDBRANCH   2   3
ENDBRANCH   1   2
BRANCH   1  29
ATOM     29  C   UNL A   1      40.240  21.541  26.072  1.00  0.00     0.002 C 
BRANCH  29  30
ATOM     30  C   UNL A   1      40.868  21.286  27.444  1.00  0.00     0.021 C 
BRANCH  30  31
ATOM     31  C   UNL A   1      42.112  22.132  27.711  1.00  0.00     0.116 C 
BRANCH  31  32
ATOM     32  N   UNL A   1      42.764  22.590  26.486  1.00  0.00    -0.352 N 
ATOM     33  C   UNL A   1      42.650  23.831  25.882  1.00  0.00     0.251 C 
ATOM     34  H   UNL A   1      43.353  21.941  26.039  1.00  0.00     0.163 HD
ATOM     35  O   UNL A   1      43.179  24.091  24.813  1.00  0.00    -0.269 OA
BRANCH  33  36
ATOM     36  C   UNL A   1      41.898  24.860  26.623  1.00  0.00     0.039 A 
ATOM     37  C   UNL A   1      41.510  26.013  25.930  1.00  0.00     0.014 A 
ATOM     38  C   UNL A   1      41.866  24.802  28.013  1.00  0.00     0.014 A 
ATOM     39  C   UNL A   1      41.265  27.182  26.645  1.00  0.00     0.010 A 
ATOM     40  C   UNL A   1      41.711  25.985  28.711  1.00  0.00     0.010 A 
ATOM     41  C   UNL A   1      41.468  27.186  28.025  1.00  0.00    -0.014 A 
BRANCH  41  42
ATOM     42  C   UNL A   1      41.570  28.408  28.821  1.00  0.00     0.031 A 
ATOM     43  C   UNL A   1      40.415  29.332  28.928  1.00  0.00     0.074 A 
ATOM     44  C   UNL A   1      42.688  28.662  29.539  1.00  0.00     0.049 A 
ATOM     45  N   UNL A   1      40.498  30.572  29.287  1.00  0.00    -0.248 NA
ATOM     46  C   UNL A   1      39.061  28.935  28.561  1.00  0.00     0.031 C 
ATOM     47  C   UNL A   1      42.817  29.622  30.633  1.00  0.00     0.029 A 
ATOM     48  N   UNL A   1      44.004  28.264  29.288  1.00  0.00    -0.354 N 
ATOM     49  C   UNL A   1      39.215  31.032  29.492  1.00  0.00     0.074 A 
ATOM     50  C   UNL A   1      38.362  30.012  28.930  1.00  0.00     0.031 C 
ATOM     51  C   UNL A   1      44.107  29.970  30.750  1.00  0.00     0.029 A 
ATOM     52  C   UNL A   1      44.820  29.350  29.647  1.00  0.00     0.049 A 
ATOM     53  H   UNL A   1      44.300  27.395  28.931  1.00  0.00     0.167 HD
ATOM     54  C   UNL A   1      39.010  32.154  30.242  1.00  0.00     0.031 A 
ATOM     55  C   UNL A   1      45.676  29.994  28.802  1.00  0.00     0.031 A 
ATOM     56  C   UNL A   1      40.267  32.821  30.581  1.00  0.00     0.049 A 
ATOM     57  C   UNL A   1      45.416  31.481  28.708  1.00  0.00     0.074 A 
ATOM     58  C   UNL A   1      41.037  32.863  31.732  1.00  0.00     0.029 A 
ATOM     59  N   UNL A   1      41.043  33.370  29.567  1.00  0.00    -0.354 N 
ATOM     60  N   UNL A   1      44.329  32.055  29.142  1.00  0.00    -0.248 NA
ATOM     61  C   UNL A   1      46.327  32.429  28.070  1.00  0.00     0.031 C 
ATOM     62  C   UNL A   1      42.315  33.374  31.384  1.00  0.00     0.029 A 
ATOM     63  C   UNL A   1      42.310  33.665  30.031  1.00  0.00     0.049 A 
ATOM     64  H   UNL A   1      40.732  33.527  28.646  1.00  0.00     0.167 HD
ATOM     65  C   UNL A   1      44.360  33.390  28.837  1.00  0.00     0.074 A 
ATOM     66  C   UNL A   1      45.641  33.580  28.185  1.00  0.00     0.031 C 
ATOM     67  C   UNL A   1      43.315  34.219  29.133  1.00  0.00     0.031 A 
BRANCH  54  68
ATOM     68  C   UNL A   1      37.688  32.489  30.912  1.00  0.00    -0.014 A 
ATOM     69  C   UNL A   1      36.613  32.972  30.133  1.00  0.00     0.010 A 
ATOM     70  C   UNL A   1      37.457  32.432  32.299  1.00  0.00     0.010 A 
ATOM     71  C   UNL A   1      35.431  33.466  30.712  1.00  0.00     0.020 A 
ATOM     72  C   UNL A   1      36.297  32.949  32.895  1.00  0.00     0.020 A 
ATOM     73  C   UNL A   1      35.294  33.482  32.095  1.00  0.00     0.054 A 
BRANCH  73  74
ATOM     74  S   UNL A   1      33.811  34.208  32.839  1.00  0.00     0.124 S 
ATOM     75  O   UNL A   1      33.071  33.028  33.281  1.00  0.00    -0.237 OA
ATOM     76  O   UNL A   1      34.365  35.041  33.901  1.00  0.00    -0.237 OA
ATOM     77  O   UNL A   1      33.192  34.941  31.734  1.00  0.00    -0.744 OA
ENDBRANCH  73  74
ENDBRANCH  54  68
BRANCH  55  78
ATOM     78  C   UNL A   1      46.209  29.155  27.698  1.00  0.00    -0.014 A 
ATOM     79  C   UNL A   1      47.474  28.562  27.893  1.00  0.00     0.010 A 
ATOM     80  C   UNL A   1      45.341  28.617  26.732  1.00  0.00     0.010 A 
ATOM     81  C   UNL A   1      47.791  27.353  27.273  1.00  0.00     0.020 A 
ATOM     82  C   UNL A   1      45.658  27.404  26.106  1.00  0.00     0.020 A 
ATOM     83  C   UNL A   1      46.850  26.749  26.438  1.00  0.00     0.054 A 
BRANCH  83  84
ATOM     84  S   UNL A   1      47.114  25.010  25.980  1.00  0.00     0.124 S 
ATOM     85  O   UNL A   1      48.380  24.702  26.637  1.00  0.00    -0.237 OA
ATOM     86  O   UNL A   1      45.931  24.371  26.555  1.00  0.00    -0.237 OA
ATOM     87  O   UNL A   1      47.153  25.049  24.522  1.00  0.00    -0.744 OA
ENDBRANCH  83  84
ENDBRANCH  55  78
BRANCH  67  88
ATOM     88  C   UNL A   1      43.164  35.648  28.672  1.00  0.00    -0.014 A 
ATOM     89  C   UNL A   1      42.406  36.040  27.557  1.00  0.00     0.010 A 
ATOM     90  C   UNL A   1      43.711  36.682  29.470  1.00  0.00     0.010 A 
ATOM     91  C   UNL A   1      42.257  37.393  27.216  1.00  0.00     0.020 A 
ATOM     92  C   UNL A   1      43.532  38.035  29.164  1.00  0.00     0.020 A 
ATOM     93  C   UNL A   1      42.826  38.382  28.018  1.00  0.00     0.054 A 
BRANCH  93  94
ATOM     94  S   UNL A   1      42.580  40.129  27.609  1.00  0.00     0.124 S 
ATOM     95  O   UNL A   1      43.824  40.729  28.086  1.00  0.00    -0.237 OA
ATOM     96  O   UNL A   1      42.412  40.108  26.157  1.00  0.00    -0.237 OA
ATOM     97  O   UNL A   1      41.380  40.488  28.360  1.00  0.00    -0.744 OA
ENDBRANCH  93  94
ENDBRANCH  67  88
ENDBRANCH  41  42
ENDBRANCH  33  36
ENDBRANCH  31  32
ENDBRANCH  30  31
ENDBRANCH  29  30
ENDBRANCH   1  29
TORSDOF 21
ENDMDL
