MODEL 1
REMARK VINA RESULT:     -13.1      0.000      0.000
REMARK SMILES Cc1ccccc1/C=C1\SC(=O)N(CC(=O)Nc2ccccc2C(=O)NCCCCCCNC(=O)c2ccc(-c3c4nc(c(-c5ccc(S(=O)(=O)[O-])cc5)c5ccc([nH]5)c(-c5ccc(S(=O)(=O)[O-])cc5)c5nc(c(-c6ccc(S(=O)(=O)[O-])cc6)c6ccc3[nH]6)C=C5)C=C4)cc2)C1=O
REMARK SMILES IDX 29 1 28 2 27 3 26 4 24 5 25 6 23 8 18 9 19 10 20 11 22 12
REMARK SMILES IDX 21 13 17 14 15 15 16 16 14 18 13 19 8 20 9 21 10 22 96 23
REMARK SMILES IDX 11 24 97 25 12 26 7 27 1 28 2 29 3 30 4 31 6 32 5 33 30 34
REMARK SMILES IDX 31 35 32 36 33 37 34 38 35 40 36 41 37 42 95 43 38 44 94 45
REMARK SMILES IDX 39 46 40 47 41 48 88 49 42 50 93 51 87 52 89 53 43 54 92 55
REMARK SMILES IDX 86 56 85 57 44 59 74 60 55 61 73 62 56 63 59 64 72 65 90 66
REMARK SMILES IDX 57 67 58 68 71 70 91 71 60 72 45 73 46 74 54 75 47 76 53 77
REMARK SMILES IDX 48 78 49 79 50 80 51 81 52 82 75 83 76 84 84 85 77 86 83 87
REMARK SMILES IDX 78 88 79 89 80 90 81 91 82 92 61 93 62 94 70 95 63 96 69 97
REMARK SMILES IDX 64 98 65 99 66 100 67 101 68 102
REMARK H PARENT 26 7 17 17 33 39 89 58 59 69
REMARK Flexibility Score: inf
ROOT
ATOM      1  C   UNL A   1      32.322  26.320  26.220  1.00  0.00     0.002 C 
ENDROOT
BRANCH   1   2
ATOM      2  C   UNL A   1      33.669  26.294  25.482  1.00  0.00     0.021 C 
BRANCH   2   3
ATOM      3  C   UNL A   1      33.901  27.152  24.255  1.00  0.00     0.116 C 
BRANCH   3   4
ATOM      4  N   UNL A   1      33.644  26.505  22.969  1.00  0.00    -0.352 N 
ATOM      5  C   UNL A   1      32.499  26.360  22.217  1.00  0.00     0.253 C 
ATOM      6  O   UNL A   1      32.596  25.953  21.061  1.00  0.00    -0.269 OA
ATOM      7  H   UNL A   1      34.440  26.094  22.564  1.00  0.00     0.163 HD
BRANCH   5   8
ATOM      8  C   UNL A   1      31.159  26.679  22.756  1.00  0.00     0.063 A 
ATOM      9  C   UNL A   1      30.206  25.709  23.127  1.00  0.00     0.054 A 
ATOM     10  C   UNL A   1      28.924  26.154  23.517  1.00  0.00     0.027 A 
ATOM     11  C   UNL A   1      28.590  27.510  23.561  1.00  0.00     0.002 A 
ATOM     12  C   UNL A   1      30.750  28.027  22.671  1.00  0.00     0.016 A 
ATOM     13  C   UNL A   1      29.501  28.450  23.116  1.00  0.00     0.001 A 
BRANCH   9  14
ATOM     14  N   UNL A   1      30.280  24.307  22.981  1.00  0.00    -0.324 N 
ATOM     15  C   UNL A   1      30.858  23.261  23.631  1.00  0.00     0.244 C 
ATOM     16  O   UNL A   1      30.862  22.180  23.026  1.00  0.00    -0.273 OA
ATOM     17  H   UNL A   1      29.774  24.003  22.192  1.00  0.00     0.170 HD
BRANCH  15  18
ATOM     18  C   UNL A   1      31.246  23.305  25.102  1.00  0.00     0.230 C 
BRANCH  18  19
ATOM     19  N   UNL A   1      32.546  22.838  25.523  1.00  0.00    -0.259 N 
ATOM     20  C   UNL A   1      35.959  22.267  24.918  1.00  0.00     0.029 C 
ATOM     21  C   UNL A   1      34.748  22.061  25.460  1.00  0.00     0.083 C 
ATOM     22  S   UNL A   1      34.293  21.820  27.083  1.00  0.00    -0.022 SA
ATOM     23  C   UNL A   1      33.499  22.317  24.671  1.00  0.00     0.268 C 
ATOM     24  C   UNL A   1      32.746  22.584  26.844  1.00  0.00     0.294 C 
ATOM     25  O   UNL A   1      33.382  22.064  23.484  1.00  0.00    -0.268 OA
ATOM     26  O   UNL A   1      31.943  22.778  27.764  1.00  0.00    -0.261 OA
BRANCH  20  27
ATOM     27  C   UNL A   1      37.299  22.483  25.526  1.00  0.00    -0.021 A 
ATOM     28  C   UNL A   1      38.356  20.153  25.162  1.00  0.00     0.045 C 
ATOM     29  C   UNL A   1      38.391  21.593  25.598  1.00  0.00    -0.044 A 
ATOM     30  C   UNL A   1      39.576  22.017  26.247  1.00  0.00     0.004 A 
ATOM     31  C   UNL A   1      39.689  23.279  26.832  1.00  0.00     0.000 A 
ATOM     32  C   UNL A   1      37.456  23.769  26.101  1.00  0.00     0.008 A 
ATOM     33  C   UNL A   1      38.622  24.157  26.765  1.00  0.00     0.001 A 
ENDBRANCH  20  27
ENDBRANCH  18  19
ENDBRANCH  15  18
ENDBRANCH   9  14
ENDBRANCH   5   8
ENDBRANCH   3   4
ENDBRANCH   2   3
ENDBRANCH   1   2
BRANCH   1  34
ATOM     34  C   UNL A   1      31.674  27.645  26.790  1.00  0.00     0.002 C 
BRANCH  34  35
ATOM     35  C   UNL A   1      31.349  29.075  25.969  1.00  0.00     0.021 C 
BRANCH  35  36
ATOM     36  C   UNL A   1      32.484  30.254  26.100  1.00  0.00     0.116 C 
BRANCH  36  37
ATOM     37  N   UNL A   1      34.114  30.412  26.593  1.00  0.00    -0.352 N 
ATOM     38  C   UNL A   1      35.196  30.893  27.606  1.00  0.00     0.251 C 
ATOM     39  H   UNL A   1      34.629  29.981  25.874  1.00  0.00     0.163 HD
ATOM     40  O   UNL A   1      36.094  30.019  27.690  1.00  0.00    -0.269 OA
BRANCH  38  41
ATOM     41  C   UNL A   1      35.525  32.165  28.725  1.00  0.00     0.039 A 
ATOM     42  C   UNL A   1      36.704  32.982  28.648  1.00  0.00     0.014 A 
ATOM     43  C   UNL A   1      34.928  32.394  29.952  1.00  0.00     0.014 A 
ATOM     44  C   UNL A   1      37.535  33.190  29.841  1.00  0.00     0.010 A 
ATOM     45  C   UNL A   1      35.757  32.445  31.110  1.00  0.00     0.010 A 
ATOM     46  C   UNL A   1      37.139  32.594  31.046  1.00  0.00    -0.014 A 
BRANCH  46  47
ATOM     47  C   UNL A   1      38.002  32.055  32.183  1.00  0.00     0.031 A 
ATOM     48  C   UNL A   1      38.279  32.995  33.252  1.00  0.00     0.074 A 
ATOM     49  C   UNL A   1      38.450  30.790  32.472  1.00  0.00     0.049 A 
ATOM     50  N   UNL A   1      39.430  33.497  33.540  1.00  0.00    -0.248 NA
ATOM     51  C   UNL A   1      37.173  33.502  34.053  1.00  0.00     0.031 C 
ATOM     52  C   UNL A   1      39.309  30.217  33.534  1.00  0.00     0.029 A 
ATOM     53  N   UNL A   1      38.259  29.647  31.734  1.00  0.00    -0.354 N 
ATOM     54  C   UNL A   1      39.235  34.086  34.770  1.00  0.00     0.074 A 
ATOM     55  C   UNL A   1      37.818  34.351  34.847  1.00  0.00     0.031 C 
ATOM     56  C   UNL A   1      39.881  29.069  33.083  1.00  0.00     0.029 A 
ATOM     57  C   UNL A   1      39.402  28.848  31.735  1.00  0.00     0.049 A 
ATOM     58  H   UNL A   1      37.424  29.422  31.264  1.00  0.00     0.167 HD
ATOM     59  C   UNL A   1      40.143  33.926  35.778  1.00  0.00     0.031 A 
ATOM     60  C   UNL A   1      40.103  28.756  30.561  1.00  0.00     0.031 A 
ATOM     61  C   UNL A   1      41.179  32.942  35.407  1.00  0.00     0.049 A 
ATOM     62  C   UNL A   1      41.359  29.625  30.672  1.00  0.00     0.074 A 
ATOM     63  C   UNL A   1      41.477  31.666  35.867  1.00  0.00     0.029 A 
ATOM     64  N   UNL A   1      41.850  33.064  34.193  1.00  0.00    -0.354 N 
ATOM     65  N   UNL A   1      41.578  30.436  31.675  1.00  0.00    -0.248 NA
ATOM     66  C   UNL A   1      42.485  29.626  29.745  1.00  0.00     0.031 C 
ATOM     67  C   UNL A   1      42.278  31.011  34.883  1.00  0.00     0.029 A 
ATOM     68  C   UNL A   1      42.491  31.890  33.836  1.00  0.00     0.049 A 
ATOM     69  H   UNL A   1      41.866  33.888  33.653  1.00  0.00     0.167 HD
ATOM     70  C   UNL A   1      42.818  31.004  31.606  1.00  0.00     0.074 A 
ATOM     71  C   UNL A   1      43.343  30.468  30.357  1.00  0.00     0.031 C 
ATOM     72  C   UNL A   1      43.284  31.835  32.596  1.00  0.00     0.031 A 
BRANCH  59  73
ATOM     73  C   UNL A   1      39.885  34.401  37.202  1.00  0.00    -0.014 A 
ATOM     74  C   UNL A   1      38.974  33.717  38.027  1.00  0.00     0.010 A 
ATOM     75  C   UNL A   1      40.557  35.486  37.810  1.00  0.00     0.010 A 
ATOM     76  C   UNL A   1      38.710  34.125  39.348  1.00  0.00     0.020 A 
ATOM     77  C   UNL A   1      40.269  35.940  39.105  1.00  0.00     0.020 A 
ATOM     78  C   UNL A   1      39.352  35.245  39.875  1.00  0.00     0.054 A 
BRANCH  78  79
ATOM     79  S   UNL A   1      39.036  35.737  41.590  1.00  0.00     0.124 S 
ATOM     80  O   UNL A   1      37.614  35.444  41.747  1.00  0.00    -0.237 OA
ATOM     81  O   UNL A   1      39.946  34.871  42.335  1.00  0.00    -0.237 OA
ATOM     82  O   UNL A   1      39.379  37.158  41.615  1.00  0.00    -0.744 OA
ENDBRANCH  78  79
ENDBRANCH  59  73
BRANCH  60  83
ATOM     83  C   UNL A   1      39.145  28.581  29.346  1.00  0.00    -0.014 A 
ATOM     84  C   UNL A   1      39.302  29.577  28.339  1.00  0.00     0.010 A 
ATOM     85  C   UNL A   1      39.088  27.298  28.842  1.00  0.00     0.010 A 
ATOM     86  C   UNL A   1      40.100  29.333  27.178  1.00  0.00     0.020 A 
ATOM     87  C   UNL A   1      39.834  27.085  27.655  1.00  0.00     0.020 A 
ATOM     88  C   UNL A   1      40.512  28.033  26.905  1.00  0.00     0.054 A 
BRANCH  88  89
ATOM     89  S   UNL A   1      42.225  27.444  25.807  1.00  0.00     0.124 S 
ATOM     90  O   UNL A   1      42.420  28.283  24.657  1.00  0.00    -0.237 OA
ATOM     91  O   UNL A   1      43.291  27.635  26.769  1.00  0.00    -0.237 OA
ATOM     92  O   UNL A   1      41.986  26.118  25.282  1.00  0.00    -0.744 OA
ENDBRANCH  88  89
ENDBRANCH  60  83
BRANCH  72  93
ATOM     93  C   UNL A   1      44.555  32.672  32.576  1.00  0.00    -0.014 A 
ATOM     94  C   UNL A   1      45.263  33.041  31.429  1.00  0.00     0.010 A 
ATOM     95  C   UNL A   1      45.065  33.176  33.805  1.00  0.00     0.010 A 
ATOM     96  C   UNL A   1      46.401  33.857  31.497  1.00  0.00     0.020 A 
ATOM     97  C   UNL A   1      46.168  34.027  33.886  1.00  0.00     0.020 A 
ATOM     98  C   UNL A   1      46.839  34.355  32.723  1.00  0.00     0.054 A 
BRANCH  98  99
ATOM     99  S   UNL A   1      48.282  35.437  32.759  1.00  0.00     0.124 S 
ATOM    100  O   UNL A   1      48.719  35.406  31.366  1.00  0.00    -0.237 OA
ATOM    101  O   UNL A   1      47.709  36.705  33.207  1.00  0.00    -0.237 OA
ATOM    102  O   UNL A   1      49.183  34.794  33.710  1.00  0.00    -0.744 OA
ENDBRANCH  98  99
ENDBRANCH  72  93
ENDBRANCH  46  47
ENDBRANCH  38  41
ENDBRANCH  36  37
ENDBRANCH  35  36
ENDBRANCH  34  35
ENDBRANCH   1  34
TORSDOF 20
ENDMDL
MODEL 2
REMARK VINA RESULT:     -12.9      5.347      9.637
REMARK SMILES Cc1ccccc1/C=C1\SC(=O)N(CC(=O)Nc2ccccc2C(=O)NCCCCCCNC(=O)c2ccc(-c3c4nc(c(-c5ccc(S(=O)(=O)[O-])cc5)c5ccc([nH]5)c(-c5ccc(S(=O)(=O)[O-])cc5)c5nc(c(-c6ccc(S(=O)(=O)[O-])cc6)c6ccc3[nH]6)C=C5)C=C4)cc2)C1=O
REMARK SMILES IDX 29 1 28 2 27 3 26 4 24 5 25 6 23 8 18 9 19 10 20 11 22 12
REMARK SMILES IDX 21 13 17 14 15 15 16 16 14 18 13 19 8 20 9 21 10 22 96 23
REMARK SMILES IDX 11 24 97 25 12 26 7 27 1 28 2 29 3 30 4 31 6 32 5 33 30 34
REMARK SMILES IDX 31 35 32 36 33 37 34 38 35 40 36 41 37 42 95 43 38 44 94 45
REMARK SMILES IDX 39 46 40 47 41 48 88 49 42 50 93 51 87 52 89 53 43 54 92 55
REMARK SMILES IDX 86 56 85 57 44 59 74 60 55 61 73 62 56 63 59 64 72 65 90 66
REMARK SMILES IDX 57 67 58 68 71 70 91 71 60 72 45 73 46 74 54 75 47 76 53 77
REMARK SMILES IDX 48 78 49 79 50 80 51 81 52 82 75 83 76 84 84 85 77 86 83 87
REMARK SMILES IDX 78 88 79 89 80 90 81 91 82 92 61 93 62 94 70 95 63 96 69 97
REMARK SMILES IDX 64 98 65 99 66 100 67 101 68 102
REMARK H PARENT 26 7 17 17 33 39 89 58 59 69
REMARK Flexibility Score: inf
ROOT
ATOM      1  C   UNL A   1      32.512  27.094  25.737  1.00  0.00     0.002 C 
ENDROOT
BRANCH   1   2
ATOM      2  C   UNL A   1      33.385  27.268  24.485  1.00  0.00     0.021 C 
BRANCH   2   3
ATOM      3  C   UNL A   1      32.783  27.725  23.173  1.00  0.00     0.116 C 
BRANCH   3   4
ATOM      4  N   UNL A   1      33.137  26.929  21.999  1.00  0.00    -0.352 N 
ATOM      5  C   UNL A   1      33.015  25.586  21.718  1.00  0.00     0.253 C 
ATOM      6  O   UNL A   1      33.196  25.202  20.565  1.00  0.00    -0.269 OA
ATOM      7  H   UNL A   1      33.540  27.453  21.270  1.00  0.00     0.163 HD
BRANCH   5   8
ATOM      8  C   UNL A   1      32.673  24.594  22.760  1.00  0.00     0.063 A 
ATOM      9  C   UNL A   1      33.542  23.573  23.194  1.00  0.00     0.054 A 
ATOM     10  C   UNL A   1      33.043  22.623  24.113  1.00  0.00     0.027 A 
ATOM     11  C   UNL A   1      31.738  22.682  24.607  1.00  0.00     0.002 A 
ATOM     12  C   UNL A   1      31.321  24.544  23.163  1.00  0.00     0.016 A 
ATOM     13  C   UNL A   1      30.866  23.635  24.113  1.00  0.00     0.001 A 
BRANCH   9  14
ATOM     14  N   UNL A   1      34.816  23.234  22.690  1.00  0.00    -0.324 N 
ATOM     15  C   UNL A   1      36.031  22.884  23.191  1.00  0.00     0.244 C 
ATOM     16  O   UNL A   1      36.974  22.889  22.387  1.00  0.00    -0.273 OA
ATOM     17  H   UNL A   1      34.828  23.257  21.705  1.00  0.00     0.170 HD
BRANCH  15  18
ATOM     18  C   UNL A   1      36.220  22.270  24.571  1.00  0.00     0.230 C 
BRANCH  18  19
ATOM     19  N   UNL A   1      37.437  22.504  25.309  1.00  0.00    -0.259 N 
ATOM     20  C   UNL A   1      40.810  21.796  25.992  1.00  0.00     0.029 C 
ATOM     21  C   UNL A   1      39.553  22.190  26.250  1.00  0.00     0.083 C 
ATOM     22  S   UNL A   1      38.974  23.582  27.042  1.00  0.00    -0.022 SA
ATOM     23  C   UNL A   1      38.388  21.536  25.569  1.00  0.00     0.268 C 
ATOM     24  C   UNL A   1      37.528  23.627  26.072  1.00  0.00     0.294 C 
ATOM     25  O   UNL A   1      38.323  20.343  25.332  1.00  0.00    -0.268 OA
ATOM     26  O   UNL A   1      36.690  24.532  26.155  1.00  0.00    -0.261 OA
BRANCH  20  27
ATOM     27  C   UNL A   1      42.123  22.468  26.182  1.00  0.00    -0.021 A 
ATOM     28  C   UNL A   1      42.135  22.748  28.751  1.00  0.00     0.045 C 
ATOM     29  C   UNL A   1      42.757  22.847  27.384  1.00  0.00    -0.044 A 
ATOM     30  C   UNL A   1      44.014  23.495  27.318  1.00  0.00     0.004 A 
ATOM     31  C   UNL A   1      44.634  23.787  26.102  1.00  0.00     0.000 A 
ATOM     32  C   UNL A   1      42.794  22.747  24.965  1.00  0.00     0.008 A 
ATOM     33  C   UNL A   1      44.019  23.417  24.920  1.00  0.00     0.001 A 
ENDBRANCH  20  27
ENDBRANCH  18  19
ENDBRANCH  15  18
ENDBRANCH   9  14
ENDBRANCH   5   8
ENDBRANCH   3   4
ENDBRANCH   2   3
ENDBRANCH   1   2
BRANCH   1  34
ATOM     34  C   UNL A   1      32.760  27.890  27.081  1.00  0.00     0.002 C 
BRANCH  34  35
ATOM     35  C   UNL A   1      33.292  29.474  27.263  1.00  0.00     0.021 C 
BRANCH  35  36
ATOM     36  C   UNL A   1      34.913  29.705  27.153  1.00  0.00     0.116 C 
BRANCH  36  37
ATOM     37  N   UNL A   1      36.306  29.484  28.122  1.00  0.00    -0.352 N 
ATOM     38  C   UNL A   1      37.834  29.227  28.281  1.00  0.00     0.251 C 
ATOM     39  H   UNL A   1      35.974  29.553  29.045  1.00  0.00     0.163 HD
ATOM     40  O   UNL A   1      38.270  29.928  29.227  1.00  0.00    -0.269 OA
BRANCH  38  41
ATOM     41  C   UNL A   1      39.147  28.390  27.535  1.00  0.00     0.039 A 
ATOM     42  C   UNL A   1      39.581  27.089  27.961  1.00  0.00     0.014 A 
ATOM     43  C   UNL A   1      40.112  28.904  26.687  1.00  0.00     0.014 A 
ATOM     44  C   UNL A   1      41.004  26.840  28.230  1.00  0.00     0.010 A 
ATOM     45  C   UNL A   1      41.481  28.769  27.058  1.00  0.00     0.010 A 
ATOM     46  C   UNL A   1      41.915  27.887  28.042  1.00  0.00    -0.014 A 
BRANCH  46  47
ATOM     47  C   UNL A   1      43.204  28.190  28.801  1.00  0.00     0.031 A 
ATOM     48  C   UNL A   1      44.377  27.472  28.343  1.00  0.00     0.074 A 
ATOM     49  C   UNL A   1      43.507  29.135  29.749  1.00  0.00     0.049 A 
ATOM     50  N   UNL A   1      45.018  26.569  29.001  1.00  0.00    -0.248 NA
ATOM     51  C   UNL A   1      44.870  27.711  26.993  1.00  0.00     0.031 C 
ATOM     52  C   UNL A   1      44.720  29.455  30.536  1.00  0.00     0.029 A 
ATOM     53  N   UNL A   1      42.658  30.057  30.312  1.00  0.00    -0.354 N 
ATOM     54  C   UNL A   1      46.185  26.405  28.287  1.00  0.00     0.074 A 
ATOM     55  C   UNL A   1      45.879  26.845  26.946  1.00  0.00     0.031 C 
ATOM     56  C   UNL A   1      44.361  30.088  31.684  1.00  0.00     0.029 A 
ATOM     57  C   UNL A   1      42.920  30.220  31.672  1.00  0.00     0.049 A 
ATOM     58  H   UNL A   1      41.955  30.539  29.819  1.00  0.00     0.167 HD
ATOM     59  C   UNL A   1      47.393  26.334  28.921  1.00  0.00     0.031 A 
ATOM     60  C   UNL A   1      41.988  29.734  32.552  1.00  0.00     0.031 A 
ATOM     61  C   UNL A   1      47.254  26.629  30.361  1.00  0.00     0.049 A 
ATOM     62  C   UNL A   1      42.518  28.429  33.151  1.00  0.00     0.074 A 
ATOM     63  C   UNL A   1      47.677  27.689  31.153  1.00  0.00     0.029 A 
ATOM     64  N   UNL A   1      46.292  25.963  31.117  1.00  0.00    -0.354 N 
ATOM     65  N   UNL A   1      43.602  27.835  32.723  1.00  0.00    -0.248 NA
ATOM     66  C   UNL A   1      41.950  27.717  34.292  1.00  0.00     0.031 C 
ATOM     67  C   UNL A   1      46.912  27.681  32.359  1.00  0.00     0.029 A 
ATOM     68  C   UNL A   1      46.040  26.607  32.317  1.00  0.00     0.049 A 
ATOM     69  H   UNL A   1      45.845  25.133  30.832  1.00  0.00     0.167 HD
ATOM     70  C   UNL A   1      43.931  26.760  33.498  1.00  0.00     0.074 A 
ATOM     71  C   UNL A   1      42.844  26.722  34.466  1.00  0.00     0.031 C 
ATOM     72  C   UNL A   1      45.075  26.033  33.268  1.00  0.00     0.031 A 
BRANCH  59  73
ATOM     73  C   UNL A   1      48.718  26.338  28.171  1.00  0.00    -0.014 A 
ATOM     74  C   UNL A   1      49.321  25.128  27.783  1.00  0.00     0.010 A 
ATOM     75  C   UNL A   1      49.395  27.511  27.765  1.00  0.00     0.010 A 
ATOM     76  C   UNL A   1      50.544  25.092  27.088  1.00  0.00     0.020 A 
ATOM     77  C   UNL A   1      50.640  27.495  27.120  1.00  0.00     0.020 A 
ATOM     78  C   UNL A   1      51.204  26.279  26.771  1.00  0.00     0.054 A 
BRANCH  78  79
ATOM     79  S   UNL A   1      52.757  26.222  25.841  1.00  0.00     0.124 S 
ATOM     80  O   UNL A   1      52.846  24.816  25.457  1.00  0.00    -0.237 OA
ATOM     81  O   UNL A   1      52.502  27.160  24.750  1.00  0.00    -0.237 OA
ATOM     82  O   UNL A   1      53.761  26.663  26.809  1.00  0.00    -0.744 OA
ENDBRANCH  78  79
ENDBRANCH  59  73
BRANCH  60  83
ATOM     83  C   UNL A   1      40.542  30.075  32.085  1.00  0.00    -0.014 A 
ATOM     84  C   UNL A   1      39.558  29.147  32.532  1.00  0.00     0.010 A 
ATOM     85  C   UNL A   1      40.176  31.392  32.271  1.00  0.00     0.010 A 
ATOM     86  C   UNL A   1      38.769  29.412  33.695  1.00  0.00     0.020 A 
ATOM     87  C   UNL A   1      39.342  31.633  33.392  1.00  0.00     0.020 A 
ATOM     88  C   UNL A   1      38.780  30.691  34.240  1.00  0.00     0.054 A 
BRANCH  88  89
ATOM     89  S   UNL A   1      38.397  31.221  36.255  1.00  0.00     0.124 S 
ATOM     90  O   UNL A   1      37.832  30.119  36.985  1.00  0.00    -0.237 OA
ATOM     91  O   UNL A   1      39.721  31.539  36.750  1.00  0.00    -0.237 OA
ATOM     92  O   UNL A   1      37.382  32.250  36.262  1.00  0.00    -0.744 OA
ENDBRANCH  88  89
ENDBRANCH  60  83
BRANCH  72  93
ATOM     93  C   UNL A   1      45.481  24.721  33.925  1.00  0.00    -0.014 A 
ATOM     94  C   UNL A   1      46.615  24.531  34.721  1.00  0.00     0.010 A 
ATOM     95  C   UNL A   1      44.634  23.588  33.777  1.00  0.00     0.010 A 
ATOM     96  C   UNL A   1      46.888  23.299  35.330  1.00  0.00     0.020 A 
ATOM     97  C   UNL A   1      44.867  22.368  34.414  1.00  0.00     0.020 A 
ATOM     98  C   UNL A   1      46.007  22.229  35.183  1.00  0.00     0.054 A 
BRANCH  98  99
ATOM     99  S   UNL A   1      46.376  20.673  36.019  1.00  0.00     0.124 S 
ATOM    100  O   UNL A   1      45.978  19.689  35.016  1.00  0.00    -0.237 OA
ATOM    101  O   UNL A   1      47.814  20.781  36.255  1.00  0.00    -0.237 OA
ATOM    102  O   UNL A   1      45.546  20.712  37.220  1.00  0.00    -0.744 OA
ENDBRANCH  98  99
ENDBRANCH  72  93
ENDBRANCH  46  47
ENDBRANCH  38  41
ENDBRANCH  36  37
ENDBRANCH  35  36
ENDBRANCH  34  35
ENDBRANCH   1  34
TORSDOF 20
ENDMDL
MODEL 3
REMARK VINA RESULT:     -12.9      3.476      6.927
REMARK SMILES Cc1ccccc1/C=C1\SC(=O)N(CC(=O)Nc2ccccc2C(=O)NCCCCCCNC(=O)c2ccc(-c3c4nc(c(-c5ccc(S(=O)(=O)[O-])cc5)c5ccc([nH]5)c(-c5ccc(S(=O)(=O)[O-])cc5)c5nc(c(-c6ccc(S(=O)(=O)[O-])cc6)c6ccc3[nH]6)C=C5)C=C4)cc2)C1=O
REMARK SMILES IDX 29 1 28 2 27 3 26 4 24 5 25 6 23 8 18 9 19 10 20 11 22 12
REMARK SMILES IDX 21 13 17 14 15 15 16 16 14 18 13 19 8 20 9 21 10 22 96 23
REMARK SMILES IDX 11 24 97 25 12 26 7 27 1 28 2 29 3 30 4 31 6 32 5 33 30 34
REMARK SMILES IDX 31 35 32 36 33 37 34 38 35 40 36 41 37 42 95 43 38 44 94 45
REMARK SMILES IDX 39 46 40 47 41 48 88 49 42 50 93 51 87 52 89 53 43 54 92 55
REMARK SMILES IDX 86 56 85 57 44 59 74 60 55 61 73 62 56 63 59 64 72 65 90 66
REMARK SMILES IDX 57 67 58 68 71 70 91 71 60 72 45 73 46 74 54 75 47 76 53 77
REMARK SMILES IDX 48 78 49 79 50 80 51 81 52 82 75 83 76 84 84 85 77 86 83 87
REMARK SMILES IDX 78 88 79 89 80 90 81 91 82 92 61 93 62 94 70 95 63 96 69 97
REMARK SMILES IDX 64 98 65 99 66 100 67 101 68 102
REMARK H PARENT 26 7 17 17 33 39 89 58 59 69
REMARK Flexibility Score: inf
ROOT
ATOM      1  C   UNL A   1      31.872  29.247  25.840  1.00  0.00     0.002 C 
ENDROOT
BRANCH   1   2
ATOM      2  C   UNL A   1      32.186  29.314  24.338  1.00  0.00     0.021 C 
BRANCH   2   3
ATOM      3  C   UNL A   1      31.082  29.215  23.306  1.00  0.00     0.116 C 
BRANCH   3   4
ATOM      4  N   UNL A   1      31.260  28.189  22.280  1.00  0.00    -0.352 N 
ATOM      5  C   UNL A   1      31.047  26.829  22.283  1.00  0.00     0.253 C 
ATOM      6  O   UNL A   1      31.074  26.221  21.214  1.00  0.00    -0.269 OA
ATOM      7  H   UNL A   1      31.596  28.537  21.423  1.00  0.00     0.163 HD
BRANCH   5   8
ATOM      8  C   UNL A   1      30.787  26.076  23.529  1.00  0.00     0.063 A 
ATOM      9  C   UNL A   1      31.358  24.823  23.829  1.00  0.00     0.054 A 
ATOM     10  C   UNL A   1      30.932  24.164  25.003  1.00  0.00     0.027 A 
ATOM     11  C   UNL A   1      29.989  24.724  25.869  1.00  0.00     0.002 A 
ATOM     12  C   UNL A   1      29.736  26.550  24.343  1.00  0.00     0.016 A 
ATOM     13  C   UNL A   1      29.373  25.913  25.526  1.00  0.00     0.001 A 
BRANCH   9  14
ATOM     14  N   UNL A   1      32.174  24.014  23.011  1.00  0.00    -0.324 N 
ATOM     15  C   UNL A   1      33.460  24.013  22.566  1.00  0.00     0.244 C 
ATOM     16  O   UNL A   1      33.720  23.216  21.654  1.00  0.00    -0.273 OA
ATOM     17  H   UNL A   1      31.676  23.236  22.666  1.00  0.00     0.170 HD
BRANCH  15  18
ATOM     18  C   UNL A   1      34.591  24.733  23.285  1.00  0.00     0.230 C 
BRANCH  18  19
ATOM     19  N   UNL A   1      35.410  24.025  24.239  1.00  0.00    -0.259 N 
ATOM     20  C   UNL A   1      38.406  22.424  25.141  1.00  0.00     0.029 C 
ATOM     21  C   UNL A   1      37.087  22.676  25.151  1.00  0.00     0.083 C 
ATOM     22  S   UNL A   1      36.019  22.912  26.457  1.00  0.00    -0.022 SA
ATOM     23  C   UNL A   1      36.374  23.096  23.900  1.00  0.00     0.268 C 
ATOM     24  C   UNL A   1      35.019  24.006  25.542  1.00  0.00     0.294 C 
ATOM     25  O   UNL A   1      36.621  22.645  22.795  1.00  0.00    -0.268 OA
ATOM     26  O   UNL A   1      34.050  24.599  26.031  1.00  0.00    -0.261 OA
BRANCH  20  27
ATOM     27  C   UNL A   1      39.420  22.384  26.227  1.00  0.00    -0.021 A 
ATOM     28  C   UNL A   1      40.090  19.890  26.146  1.00  0.00     0.045 C 
ATOM     29  C   UNL A   1      40.216  21.301  26.654  1.00  0.00    -0.044 A 
ATOM     30  C   UNL A   1      41.114  21.497  27.732  1.00  0.00     0.004 A 
ATOM     31  C   UNL A   1      41.220  22.720  28.394  1.00  0.00     0.000 A 
ATOM     32  C   UNL A   1      39.575  23.623  26.898  1.00  0.00     0.008 A 
ATOM     33  C   UNL A   1      40.443  23.787  27.981  1.00  0.00     0.001 A 
ENDBRANCH  20  27
ENDBRANCH  18  19
ENDBRANCH  15  18
ENDBRANCH   9  14
ENDBRANCH   5   8
ENDBRANCH   3   4
ENDBRANCH   2   3
ENDBRANCH   1   2
BRANCH   1  34
ATOM     34  C   UNL A   1      32.118  30.456  26.829  1.00  0.00     0.002 C 
BRANCH  34  35
ATOM     35  C   UNL A   1      33.573  30.969  27.495  1.00  0.00     0.021 C 
BRANCH  35  36
ATOM     36  C   UNL A   1      34.847  29.952  27.310  1.00  0.00     0.116 C 
BRANCH  36  37
ATOM     37  N   UNL A   1      36.553  30.000  27.437  1.00  0.00    -0.352 N 
ATOM     38  C   UNL A   1      37.911  29.368  27.865  1.00  0.00     0.251 C 
ATOM     39  H   UNL A   1      36.802  30.864  27.037  1.00  0.00     0.163 HD
ATOM     40  O   UNL A   1      38.772  29.614  26.984  1.00  0.00    -0.269 OA
BRANCH  38  41
ATOM     41  C   UNL A   1      38.606  28.360  29.081  1.00  0.00     0.039 A 
ATOM     42  C   UNL A   1      38.024  28.201  30.384  1.00  0.00     0.014 A 
ATOM     43  C   UNL A   1      39.883  27.827  29.117  1.00  0.00     0.014 A 
ATOM     44  C   UNL A   1      38.854  28.363  31.586  1.00  0.00     0.010 A 
ATOM     45  C   UNL A   1      40.711  28.128  30.236  1.00  0.00     0.010 A 
ATOM     46  C   UNL A   1      40.216  28.652  31.426  1.00  0.00    -0.014 A 
BRANCH  46  47
ATOM     47  C   UNL A   1      41.133  29.490  32.313  1.00  0.00     0.031 A 
ATOM     48  C   UNL A   1      41.660  28.809  33.479  1.00  0.00     0.074 A 
ATOM     49  C   UNL A   1      41.685  30.735  32.141  1.00  0.00     0.049 A 
ATOM     50  N   UNL A   1      41.376  29.076  34.706  1.00  0.00    -0.248 NA
ATOM     51  C   UNL A   1      42.542  27.664  33.290  1.00  0.00     0.031 C 
ATOM     52  C   UNL A   1      42.550  31.604  32.973  1.00  0.00     0.029 A 
ATOM     53  N   UNL A   1      41.492  31.597  31.089  1.00  0.00    -0.354 N 
ATOM     54  C   UNL A   1      42.317  28.373  35.425  1.00  0.00     0.074 A 
ATOM     55  C   UNL A   1      42.743  27.303  34.554  1.00  0.00     0.031 C 
ATOM     56  C   UNL A   1      42.369  32.902  32.610  1.00  0.00     0.029 A 
ATOM     57  C   UNL A   1      41.409  32.918  31.528  1.00  0.00     0.049 A 
ATOM     58  H   UNL A   1      41.421  31.318  30.147  1.00  0.00     0.167 HD
ATOM     59  C   UNL A   1      42.975  28.949  36.475  1.00  0.00     0.031 A 
ATOM     60  C   UNL A   1      40.182  33.527  31.454  1.00  0.00     0.031 A 
ATOM     61  C   UNL A   1      42.661  30.389  36.570  1.00  0.00     0.049 A 
ATOM     62  C   UNL A   1      39.580  33.582  32.861  1.00  0.00     0.074 A 
ATOM     63  C   UNL A   1      43.416  31.536  36.362  1.00  0.00     0.029 A 
ATOM     64  N   UNL A   1      41.334  30.813  36.564  1.00  0.00    -0.354 N 
ATOM     65  N   UNL A   1      40.113  32.975  33.889  1.00  0.00    -0.248 NA
ATOM     66  C   UNL A   1      38.405  34.349  33.259  1.00  0.00     0.031 C 
ATOM     67  C   UNL A   1      42.521  32.632  36.168  1.00  0.00     0.029 A 
ATOM     68  C   UNL A   1      41.224  32.164  36.282  1.00  0.00     0.049 A 
ATOM     69  H   UNL A   1      40.566  30.222  36.740  1.00  0.00     0.167 HD
ATOM     70  C   UNL A   1      39.461  33.278  35.050  1.00  0.00     0.074 A 
ATOM     71  C   UNL A   1      38.380  34.138  34.592  1.00  0.00     0.031 C 
ATOM     72  C   UNL A   1      39.899  32.804  36.264  1.00  0.00     0.031 A 
BRANCH  59  73
ATOM     73  C   UNL A   1      44.147  28.281  37.179  1.00  0.00    -0.014 A 
ATOM     74  C   UNL A   1      45.327  29.001  37.440  1.00  0.00     0.010 A 
ATOM     75  C   UNL A   1      44.128  26.953  37.665  1.00  0.00     0.010 A 
ATOM     76  C   UNL A   1      46.430  28.418  38.090  1.00  0.00     0.020 A 
ATOM     77  C   UNL A   1      45.236  26.338  38.265  1.00  0.00     0.020 A 
ATOM     78  C   UNL A   1      46.382  27.082  38.488  1.00  0.00     0.054 A 
BRANCH  78  79
ATOM     79  S   UNL A   1      47.793  26.353  39.359  1.00  0.00     0.124 S 
ATOM     80  O   UNL A   1      48.870  26.478  38.380  1.00  0.00    -0.237 OA
ATOM     81  O   UNL A   1      47.908  27.209  40.537  1.00  0.00    -0.237 OA
ATOM     82  O   UNL A   1      47.365  24.982  39.634  1.00  0.00    -0.744 OA
ENDBRANCH  78  79
ENDBRANCH  59  73
BRANCH  60  83
ATOM     83  C   UNL A   1      39.475  33.205  30.104  1.00  0.00    -0.014 A 
ATOM     84  C   UNL A   1      38.711  32.003  30.125  1.00  0.00     0.010 A 
ATOM     85  C   UNL A   1      38.803  34.271  29.542  1.00  0.00     0.010 A 
ATOM     86  C   UNL A   1      37.299  32.031  30.348  1.00  0.00     0.020 A 
ATOM     87  C   UNL A   1      37.396  34.254  29.717  1.00  0.00     0.020 A 
ATOM     88  C   UNL A   1      36.631  33.249  30.286  1.00  0.00     0.054 A 
BRANCH  88  89
ATOM     89  S   UNL A   1      34.823  33.761  31.264  1.00  0.00     0.124 S 
ATOM     90  O   UNL A   1      33.859  34.285  30.336  1.00  0.00    -0.237 OA
ATOM     91  O   UNL A   1      34.385  32.486  31.794  1.00  0.00    -0.237 OA
ATOM     92  O   UNL A   1      35.101  34.842  32.183  1.00  0.00    -0.744 OA
ENDBRANCH  88  89
ENDBRANCH  60  83
BRANCH  72  93
ATOM     93  C   UNL A   1      39.187  32.908  37.606  1.00  0.00    -0.014 A 
ATOM     94  C   UNL A   1      39.727  33.467  38.767  1.00  0.00     0.010 A 
ATOM     95  C   UNL A   1      37.843  32.452  37.707  1.00  0.00     0.010 A 
ATOM     96  C   UNL A   1      38.982  33.568  39.951  1.00  0.00     0.020 A 
ATOM     97  C   UNL A   1      37.073  32.588  38.863  1.00  0.00     0.020 A 
ATOM     98  C   UNL A   1      37.656  33.139  39.988  1.00  0.00     0.054 A 
BRANCH  98  99
ATOM     99  S   UNL A   1      36.722  33.327  41.519  1.00  0.00     0.124 S 
ATOM    100  O   UNL A   1      37.389  32.372  42.400  1.00  0.00    -0.237 OA
ATOM    101  O   UNL A   1      36.938  34.735  41.844  1.00  0.00    -0.237 OA
ATOM    102  O   UNL A   1      35.354  32.980  41.144  1.00  0.00    -0.744 OA
ENDBRANCH  98  99
ENDBRANCH  72  93
ENDBRANCH  46  47
ENDBRANCH  38  41
ENDBRANCH  36  37
ENDBRANCH  35  36
ENDBRANCH  34  35
ENDBRANCH   1  34
TORSDOF 20
ENDMDL
