MODEL 1
REMARK VINA RESULT:     -11.4      0.000      0.000
REMARK SMILES Cc1cc(Cl)c2c(c1)C=C(C(=O)NCCCCCCNC(=O)c1ccc(-c3c4nc(c(-c5ccc(S(=O)(=O)[O-])cc5)c5ccc([nH]5)c(-c5ccc(S(=O)(=O)[O-])cc5)c5nc(c(-c6ccc(S(=O)(=O)[O-])cc6)c6ccc3[nH]6)C=C5)C=C4)cc1)[C@@H](C(F)(F)F)O2
REMARK SMILES IDX 17 1 16 2 15 3 14 4 13 5 11 6 12 7 10 9 1 10 2 11 3 12 8 13
REMARK SMILES IDX 4 14 7 15 5 16 6 17 9 18 88 19 83 20 84 21 85 22 86 23 87 24
REMARK SMILES IDX 18 25 19 26 20 27 21 28 22 30 23 31 24 32 82 33 25 34 81 35
REMARK SMILES IDX 26 36 27 37 28 38 75 39 29 40 80 41 74 42 76 43 30 44 79 45
REMARK SMILES IDX 73 46 72 47 31 49 61 50 42 51 60 52 43 53 46 54 59 55 77 56
REMARK SMILES IDX 44 57 45 58 58 60 78 61 47 62 32 63 33 64 41 65 34 66 40 67
REMARK SMILES IDX 35 68 36 69 37 70 38 71 39 72 62 73 63 74 71 75 64 76 70 77
REMARK SMILES IDX 65 78 66 79 67 80 68 81 69 82 48 83 49 84 57 85 50 86 56 87
REMARK SMILES IDX 51 88 52 89 53 90 54 91 55 92
REMARK H PARENT 13 8 20 29 76 48 46 59
REMARK Flexibility Score: inf
ROOT
ATOM      1  C   UNL A   1      33.321  29.121  24.508  1.00  0.00     0.002 C 
ENDROOT
BRANCH   1   2
ATOM      2  C   UNL A   1      32.837  28.834  23.080  1.00  0.00     0.002 C 
BRANCH   2   3
ATOM      3  C   UNL A   1      31.318  28.737  22.918  1.00  0.00     0.021 C 
BRANCH   3   4
ATOM      4  C   UNL A   1      30.828  27.334  22.578  1.00  0.00     0.116 C 
BRANCH   4   5
ATOM      5  N   UNL A   1      31.694  26.683  21.610  1.00  0.00    -0.352 N 
ATOM      6  C   UNL A   1      32.589  25.668  21.609  1.00  0.00     0.251 C 
ATOM      7  O   UNL A   1      33.104  25.422  20.511  1.00  0.00    -0.270 OA
ATOM      8  H   UNL A   1      31.606  27.088  20.717  1.00  0.00     0.163 HD
BRANCH   6   9
ATOM      9  C   UNL A   1      32.980  24.859  22.802  1.00  0.00     0.067 C 
ATOM     10  C   UNL A   1      37.507  21.102  24.716  1.00  0.00     0.044 C 
ATOM     11  C   UNL A   1      36.257  21.921  24.839  1.00  0.00    -0.049 A 
ATOM     12  C   UNL A   1      35.522  21.927  26.030  1.00  0.00     0.028 A 
ATOM     13  C   UNL A   1      35.810  22.688  23.754  1.00  0.00     0.015 A 
ATOM     14  C   UNL A   1      34.358  22.688  26.132  1.00  0.00     0.084 A 
ATOM     15  C   UNL A   1      34.640  23.449  23.853  1.00  0.00     0.019 A 
ATOM     16  Cl  UNL A   1      33.492  22.671  27.627  1.00  0.00    -0.080 Cl
ATOM     17  C   UNL A   1      33.911  23.441  25.044  1.00  0.00     0.146 A 
ATOM     18  C   UNL A   1      34.194  24.282  22.741  1.00  0.00     0.025 C 
ATOM     19  O   UNL A   1      32.781  24.192  25.200  1.00  0.00    -0.474 OA
ATOM     20  C   UNL A   1      32.100  24.630  23.997  1.00  0.00     0.314 C 
BRANCH  20  21
ATOM     21  C   UNL A   1      30.932  23.672  23.696  1.00  0.00     0.429 C 
ATOM     22  F   UNL A   1      29.874  24.351  23.191  1.00  0.00    -0.167 F 
ATOM     23  F   UNL A   1      31.256  22.731  22.778  1.00  0.00    -0.167 F 
ATOM     24  F   UNL A   1      30.509  23.014  24.799  1.00  0.00    -0.167 F 
ENDBRANCH  20  21
ENDBRANCH   6   9
ENDBRANCH   4   5
ENDBRANCH   3   4
ENDBRANCH   2   3
ENDBRANCH   1   2
BRANCH   1  25
ATOM     25  C   UNL A   1      33.650  27.882  25.349  1.00  0.00     0.021 C 
BRANCH  25  26
ATOM     26  C   UNL A   1      33.856  28.162  26.834  1.00  0.00     0.116 C 
BRANCH  26  27
ATOM     27  N   UNL A   1      33.635  29.563  27.150  1.00  0.00    -0.352 N 
ATOM     28  C   UNL A   1      34.420  30.421  27.872  1.00  0.00     0.251 C 
ATOM     29  H   UNL A   1      32.803  29.950  26.793  1.00  0.00     0.163 HD
ATOM     30  O   UNL A   1      33.961  31.502  28.246  1.00  0.00    -0.269 OA
BRANCH  28  31
ATOM     31  C   UNL A   1      35.808  30.049  28.204  1.00  0.00     0.039 A 
ATOM     32  C   UNL A   1      36.783  30.102  27.205  1.00  0.00     0.014 A 
ATOM     33  C   UNL A   1      36.141  29.616  29.492  1.00  0.00     0.014 A 
ATOM     34  C   UNL A   1      38.100  29.757  27.507  1.00  0.00     0.010 A 
ATOM     35  C   UNL A   1      37.466  29.336  29.808  1.00  0.00     0.010 A 
ATOM     36  C   UNL A   1      38.455  29.387  28.814  1.00  0.00    -0.014 A 
BRANCH  36  37
ATOM     37  C   UNL A   1      39.850  29.013  29.153  1.00  0.00     0.031 A 
ATOM     38  C   UNL A   1      40.744  30.010  29.840  1.00  0.00     0.074 A 
ATOM     39  C   UNL A   1      40.319  27.799  28.812  1.00  0.00     0.049 A 
ATOM     40  N   UNL A   1      42.003  29.896  30.172  1.00  0.00    -0.248 NA
ATOM     41  C   UNL A   1      40.148  31.314  30.185  1.00  0.00     0.031 C 
ATOM     42  C   UNL A   1      39.551  26.754  28.130  1.00  0.00     0.029 A 
ATOM     43  N   UNL A   1      41.557  27.236  28.994  1.00  0.00    -0.354 N 
ATOM     44  C   UNL A   1      42.353  31.108  30.754  1.00  0.00     0.074 A 
ATOM     45  C   UNL A   1      41.189  31.964  30.684  1.00  0.00     0.031 C 
ATOM     46  C   UNL A   1      40.327  25.669  27.977  1.00  0.00     0.029 A 
ATOM     47  C   UNL A   1      41.656  25.951  28.510  1.00  0.00     0.049 A 
ATOM     48  H   UNL A   1      42.304  27.706  29.428  1.00  0.00     0.167 HD
ATOM     49  C   UNL A   1      43.529  31.469  31.317  1.00  0.00     0.031 A 
ATOM     50  C   UNL A   1      42.700  25.101  28.495  1.00  0.00     0.031 A 
ATOM     51  C   UNL A   1      44.682  30.610  31.392  1.00  0.00     0.049 A 
ATOM     52  C   UNL A   1      44.010  25.540  29.092  1.00  0.00     0.074 A 
ATOM     53  C   UNL A   1      45.910  30.870  31.973  1.00  0.00     0.029 A 
ATOM     54  N   UNL A   1      44.747  29.326  30.873  1.00  0.00    -0.354 N 
ATOM     55  N   UNL A   1      44.310  26.679  29.672  1.00  0.00    -0.248 NA
ATOM     56  C   UNL A   1      45.118  24.578  29.039  1.00  0.00     0.031 C 
ATOM     57  C   UNL A   1      46.736  29.763  31.759  1.00  0.00     0.029 A 
ATOM     58  C   UNL A   1      46.003  28.790  31.097  1.00  0.00     0.049 A 
ATOM     59  H   UNL A   1      44.010  28.865  30.412  1.00  0.00     0.167 HD
ATOM     60  C   UNL A   1      45.637  26.562  30.070  1.00  0.00     0.074 A 
ATOM     61  C   UNL A   1      46.073  25.235  29.684  1.00  0.00     0.031 C 
ATOM     62  C   UNL A   1      46.424  27.471  30.697  1.00  0.00     0.031 A 
BRANCH  49  63
ATOM     63  C   UNL A   1      43.631  32.853  31.901  1.00  0.00    -0.014 A 
ATOM     64  C   UNL A   1      43.353  33.086  33.261  1.00  0.00     0.010 A 
ATOM     65  C   UNL A   1      44.065  33.923  31.099  1.00  0.00     0.010 A 
ATOM     66  C   UNL A   1      43.482  34.369  33.800  1.00  0.00     0.020 A 
ATOM     67  C   UNL A   1      44.221  35.203  31.641  1.00  0.00     0.020 A 
ATOM     68  C   UNL A   1      43.918  35.419  32.986  1.00  0.00     0.054 A 
BRANCH  68  69
ATOM     69  S   UNL A   1      44.115  37.063  33.726  1.00  0.00     0.124 S 
ATOM     70  O   UNL A   1      44.777  37.801  32.653  1.00  0.00    -0.237 OA
ATOM     71  O   UNL A   1      42.735  37.455  34.000  1.00  0.00    -0.237 OA
ATOM     72  O   UNL A   1      44.937  36.817  34.909  1.00  0.00    -0.744 OA
ENDBRANCH  68  69
ENDBRANCH  49  63
BRANCH  50  73
ATOM     73  C   UNL A   1      42.543  23.743  27.905  1.00  0.00    -0.014 A 
ATOM     74  C   UNL A   1      42.096  22.672  28.695  1.00  0.00     0.010 A 
ATOM     75  C   UNL A   1      42.823  23.519  26.544  1.00  0.00     0.010 A 
ATOM     76  C   UNL A   1      41.940  21.398  28.141  1.00  0.00     0.020 A 
ATOM     77  C   UNL A   1      42.642  22.253  25.979  1.00  0.00     0.020 A 
ATOM     78  C   UNL A   1      42.209  21.198  26.783  1.00  0.00     0.054 A 
BRANCH  78  79
ATOM     79  S   UNL A   1      41.945  19.548  26.076  1.00  0.00     0.124 S 
ATOM     80  O   UNL A   1      42.379  18.677  27.164  1.00  0.00    -0.237 OA
ATOM     81  O   UNL A   1      40.511  19.551  25.802  1.00  0.00    -0.237 OA
ATOM     82  O   UNL A   1      42.799  19.543  24.891  1.00  0.00    -0.744 OA
ENDBRANCH  78  79
ENDBRANCH  50  73
BRANCH  62  83
ATOM     83  C   UNL A   1      47.836  27.060  31.018  1.00  0.00    -0.014 A 
ATOM     84  C   UNL A   1      48.151  26.438  32.238  1.00  0.00     0.010 A 
ATOM     85  C   UNL A   1      48.850  27.245  30.060  1.00  0.00     0.010 A 
ATOM     86  C   UNL A   1      49.461  26.035  32.507  1.00  0.00     0.020 A 
ATOM     87  C   UNL A   1      50.156  26.816  30.313  1.00  0.00     0.020 A 
ATOM     88  C   UNL A   1      50.455  26.226  31.543  1.00  0.00     0.054 A 
BRANCH  88  89
ATOM     89  S   UNL A   1      52.138  25.657  31.904  1.00  0.00     0.124 S 
ATOM     90  O   UNL A   1      52.456  26.400  33.121  1.00  0.00    -0.237 OA
ATOM     91  O   UNL A   1      51.958  24.218  32.075  1.00  0.00    -0.237 OA
ATOM     92  O   UNL A   1      52.899  26.047  30.719  1.00  0.00    -0.744 OA
ENDBRANCH  88  89
ENDBRANCH  62  83
ENDBRANCH  36  37
ENDBRANCH  28  31
ENDBRANCH  26  27
ENDBRANCH  25  26
ENDBRANCH   1  25
TORSDOF 17
ENDMDL
MODEL 2
REMARK VINA RESULT:     -11.2      1.525      2.060
REMARK SMILES Cc1cc(Cl)c2c(c1)C=C(C(=O)NCCCCCCNC(=O)c1ccc(-c3c4nc(c(-c5ccc(S(=O)(=O)[O-])cc5)c5ccc([nH]5)c(-c5ccc(S(=O)(=O)[O-])cc5)c5nc(c(-c6ccc(S(=O)(=O)[O-])cc6)c6ccc3[nH]6)C=C5)C=C4)cc1)[C@@H](C(F)(F)F)O2
REMARK SMILES IDX 17 1 16 2 15 3 14 4 13 5 11 6 12 7 10 9 1 10 2 11 3 12 8 13
REMARK SMILES IDX 4 14 7 15 5 16 6 17 9 18 88 19 83 20 84 21 85 22 86 23 87 24
REMARK SMILES IDX 18 25 19 26 20 27 21 28 22 30 23 31 24 32 82 33 25 34 81 35
REMARK SMILES IDX 26 36 27 37 28 38 75 39 29 40 80 41 74 42 76 43 30 44 79 45
REMARK SMILES IDX 73 46 72 47 31 49 61 50 42 51 60 52 43 53 46 54 59 55 77 56
REMARK SMILES IDX 44 57 45 58 58 60 78 61 47 62 32 63 33 64 41 65 34 66 40 67
REMARK SMILES IDX 35 68 36 69 37 70 38 71 39 72 62 73 63 74 71 75 64 76 70 77
REMARK SMILES IDX 65 78 66 79 67 80 68 81 69 82 48 83 49 84 57 85 50 86 56 87
REMARK SMILES IDX 51 88 52 89 53 90 54 91 55 92
REMARK H PARENT 13 8 20 29 76 48 46 59
REMARK Flexibility Score: inf
ROOT
ATOM      1  C   UNL A   1      31.427  28.174  25.940  1.00  0.00     0.002 C 
ENDROOT
BRANCH   1   2
ATOM      2  C   UNL A   1      31.131  27.487  24.600  1.00  0.00     0.002 C 
BRANCH   2   3
ATOM      3  C   UNL A   1      30.833  25.989  24.691  1.00  0.00     0.021 C 
BRANCH   3   4
ATOM      4  C   UNL A   1      30.460  25.357  23.354  1.00  0.00     0.116 C 
BRANCH   4   5
ATOM      5  N   UNL A   1      31.497  25.561  22.357  1.00  0.00    -0.352 N 
ATOM      6  C   UNL A   1      32.695  25.013  22.051  1.00  0.00     0.251 C 
ATOM      7  O   UNL A   1      33.258  25.500  21.062  1.00  0.00    -0.270 OA
ATOM      8  H   UNL A   1      31.265  26.291  21.740  1.00  0.00     0.163 HD
BRANCH   6   9
ATOM      9  C   UNL A   1      33.357  23.903  22.801  1.00  0.00     0.067 C 
ATOM     10  C   UNL A   1      32.249  18.112  24.672  1.00  0.00     0.044 C 
ATOM     11  C   UNL A   1      33.063  19.352  24.448  1.00  0.00    -0.049 A 
ATOM     12  C   UNL A   1      34.382  19.434  24.910  1.00  0.00     0.028 A 
ATOM     13  C   UNL A   1      32.504  20.446  23.774  1.00  0.00     0.015 A 
ATOM     14  C   UNL A   1      35.127  20.593  24.701  1.00  0.00     0.084 A 
ATOM     15  C   UNL A   1      33.248  21.613  23.567  1.00  0.00     0.019 A 
ATOM     16  Cl  UNL A   1      36.754  20.641  25.281  1.00  0.00    -0.080 Cl
ATOM     17  C   UNL A   1      34.561  21.686  24.040  1.00  0.00     0.146 A 
ATOM     18  C   UNL A   1      32.686  22.738  22.829  1.00  0.00     0.025 C 
ATOM     19  O   UNL A   1      35.338  22.789  23.833  1.00  0.00    -0.474 OA
ATOM     20  C   UNL A   1      34.661  24.035  23.534  1.00  0.00     0.314 C 
BRANCH  20  21
ATOM     21  C   UNL A   1      34.533  24.868  24.824  1.00  0.00     0.429 C 
ATOM     22  F   UNL A   1      33.488  24.436  25.570  1.00  0.00    -0.167 F 
ATOM     23  F   UNL A   1      35.630  24.776  25.613  1.00  0.00    -0.167 F 
ATOM     24  F   UNL A   1      34.342  26.182  24.571  1.00  0.00    -0.167 F 
ENDBRANCH  20  21
ENDBRANCH   6   9
ENDBRANCH   4   5
ENDBRANCH   3   4
ENDBRANCH   2   3
ENDBRANCH   1   2
BRANCH   1  25
ATOM     25  C   UNL A   1      32.464  27.470  26.822  1.00  0.00     0.021 C 
BRANCH  25  26
ATOM     26  C   UNL A   1      33.791  28.210  26.952  1.00  0.00     0.116 C 
BRANCH  26  27
ATOM     27  N   UNL A   1      33.591  29.628  27.200  1.00  0.00    -0.352 N 
ATOM     28  C   UNL A   1      34.391  30.509  27.874  1.00  0.00     0.251 C 
ATOM     29  H   UNL A   1      32.761  30.008  26.830  1.00  0.00     0.163 HD
ATOM     30  O   UNL A   1      33.949  31.614  28.198  1.00  0.00    -0.269 OA
BRANCH  28  31
ATOM     31  C   UNL A   1      35.778  30.136  28.215  1.00  0.00     0.039 A 
ATOM     32  C   UNL A   1      36.058  29.672  29.502  1.00  0.00     0.014 A 
ATOM     33  C   UNL A   1      36.805  30.275  27.276  1.00  0.00     0.014 A 
ATOM     34  C   UNL A   1      37.364  29.313  29.836  1.00  0.00     0.010 A 
ATOM     35  C   UNL A   1      38.092  29.854  27.589  1.00  0.00     0.010 A 
ATOM     36  C   UNL A   1      38.387  29.385  28.878  1.00  0.00    -0.014 A 
BRANCH  36  37
ATOM     37  C   UNL A   1      39.782  29.010  29.216  1.00  0.00     0.031 A 
ATOM     38  C   UNL A   1      40.674  30.003  29.912  1.00  0.00     0.074 A 
ATOM     39  C   UNL A   1      40.253  27.799  28.865  1.00  0.00     0.049 A 
ATOM     40  N   UNL A   1      41.933  29.887  30.244  1.00  0.00    -0.248 NA
ATOM     41  C   UNL A   1      40.076  31.303  30.266  1.00  0.00     0.031 C 
ATOM     42  C   UNL A   1      39.488  26.759  28.174  1.00  0.00     0.029 A 
ATOM     43  N   UNL A   1      41.492  27.236  29.044  1.00  0.00    -0.354 N 
ATOM     44  C   UNL A   1      42.280  31.095  30.836  1.00  0.00     0.074 A 
ATOM     45  C   UNL A   1      41.116  31.951  30.771  1.00  0.00     0.031 C 
ATOM     46  C   UNL A   1      40.265  25.675  28.014  1.00  0.00     0.029 A 
ATOM     47  C   UNL A   1      41.593  25.955  28.551  1.00  0.00     0.049 A 
ATOM     48  H   UNL A   1      42.238  27.704  29.483  1.00  0.00     0.167 HD
ATOM     49  C   UNL A   1      43.456  31.453  31.404  1.00  0.00     0.031 A 
ATOM     50  C   UNL A   1      42.639  25.107  28.529  1.00  0.00     0.031 A 
ATOM     51  C   UNL A   1      44.609  30.595  31.473  1.00  0.00     0.049 A 
ATOM     52  C   UNL A   1      43.947  25.543  29.132  1.00  0.00     0.074 A 
ATOM     53  C   UNL A   1      45.837  30.853  32.058  1.00  0.00     0.029 A 
ATOM     54  N   UNL A   1      44.677  29.316  30.944  1.00  0.00    -0.354 N 
ATOM     55  N   UNL A   1      44.244  26.677  29.721  1.00  0.00    -0.248 NA
ATOM     56  C   UNL A   1      45.057  24.583  29.073  1.00  0.00     0.031 C 
ATOM     57  C   UNL A   1      46.665  29.748  31.835  1.00  0.00     0.029 A 
ATOM     58  C   UNL A   1      45.934  28.780  31.166  1.00  0.00     0.049 A 
ATOM     59  H   UNL A   1      43.941  28.858  30.478  1.00  0.00     0.167 HD
ATOM     60  C   UNL A   1      45.571  26.559  30.120  1.00  0.00     0.074 A 
ATOM     61  C   UNL A   1      46.010  25.236  29.724  1.00  0.00     0.031 C 
ATOM     62  C   UNL A   1      46.356  27.464  30.755  1.00  0.00     0.031 A 
BRANCH  49  63
ATOM     63  C   UNL A   1      43.555  32.833  31.999  1.00  0.00    -0.014 A 
ATOM     64  C   UNL A   1      43.828  33.951  31.191  1.00  0.00     0.010 A 
ATOM     65  C   UNL A   1      43.315  33.023  33.372  1.00  0.00     0.010 A 
ATOM     66  C   UNL A   1      43.886  35.231  31.748  1.00  0.00     0.020 A 
ATOM     67  C   UNL A   1      43.346  34.306  33.929  1.00  0.00     0.020 A 
ATOM     68  C   UNL A   1      43.641  35.400  33.115  1.00  0.00     0.054 A 
BRANCH  68  69
ATOM     69  S   UNL A   1      43.683  37.079  33.800  1.00  0.00     0.124 S 
ATOM     70  O   UNL A   1      44.619  36.929  34.912  1.00  0.00    -0.237 OA
ATOM     71  O   UNL A   1      44.169  37.870  32.673  1.00  0.00    -0.237 OA
ATOM     72  O   UNL A   1      42.297  37.332  34.185  1.00  0.00    -0.744 OA
ENDBRANCH  68  69
ENDBRANCH  49  63
BRANCH  50  73
ATOM     73  C   UNL A   1      42.484  23.754  27.929  1.00  0.00    -0.014 A 
ATOM     74  C   UNL A   1      42.048  22.673  28.713  1.00  0.00     0.010 A 
ATOM     75  C   UNL A   1      42.755  23.543  26.563  1.00  0.00     0.010 A 
ATOM     76  C   UNL A   1      41.894  21.403  28.148  1.00  0.00     0.020 A 
ATOM     77  C   UNL A   1      42.576  22.281  25.989  1.00  0.00     0.020 A 
ATOM     78  C   UNL A   1      42.155  21.216  26.787  1.00  0.00     0.054 A 
BRANCH  78  79
ATOM     79  S   UNL A   1      41.894  19.572  26.067  1.00  0.00     0.124 S 
ATOM     80  O   UNL A   1      42.756  19.614  24.890  1.00  0.00    -0.237 OA
ATOM     81  O   UNL A   1      42.332  18.686  27.142  1.00  0.00    -0.237 OA
ATOM     82  O   UNL A   1      40.459  19.544  25.791  1.00  0.00    -0.744 OA
ENDBRANCH  78  79
ENDBRANCH  50  73
BRANCH  62  83
ATOM     83  C   UNL A   1      47.768  27.053  31.075  1.00  0.00    -0.014 A 
ATOM     84  C   UNL A   1      48.817  27.295  30.171  1.00  0.00     0.010 A 
ATOM     85  C   UNL A   1      48.059  26.471  32.323  1.00  0.00     0.010 A 
ATOM     86  C   UNL A   1      50.127  26.935  30.497  1.00  0.00     0.020 A 
ATOM     87  C   UNL A   1      49.371  26.137  32.665  1.00  0.00     0.020 A 
ATOM     88  C   UNL A   1      50.396  26.358  31.743  1.00  0.00     0.054 A 
BRANCH  88  89
ATOM     89  S   UNL A   1      52.111  25.938  32.154  1.00  0.00     0.124 S 
ATOM     90  O   UNL A   1      52.235  26.459  33.513  1.00  0.00    -0.237 OA
ATOM     91  O   UNL A   1      52.119  24.482  32.035  1.00  0.00    -0.237 OA
ATOM     92  O   UNL A   1      52.894  26.643  31.142  1.00  0.00    -0.744 OA
ENDBRANCH  88  89
ENDBRANCH  62  83
ENDBRANCH  36  37
ENDBRANCH  28  31
ENDBRANCH  26  27
ENDBRANCH  25  26
ENDBRANCH   1  25
TORSDOF 17
ENDMDL
MODEL 3
REMARK VINA RESULT:     -11.2      2.766      9.174
REMARK SMILES Cc1cc(Cl)c2c(c1)C=C(C(=O)NCCCCCCNC(=O)c1ccc(-c3c4nc(c(-c5ccc(S(=O)(=O)[O-])cc5)c5ccc([nH]5)c(-c5ccc(S(=O)(=O)[O-])cc5)c5nc(c(-c6ccc(S(=O)(=O)[O-])cc6)c6ccc3[nH]6)C=C5)C=C4)cc1)[C@@H](C(F)(F)F)O2
REMARK SMILES IDX 17 1 16 2 15 3 14 4 13 5 11 6 12 7 10 9 1 10 2 11 3 12 8 13
REMARK SMILES IDX 4 14 7 15 5 16 6 17 9 18 88 19 83 20 84 21 85 22 86 23 87 24
REMARK SMILES IDX 18 25 19 26 20 27 21 28 22 30 23 31 24 32 82 33 25 34 81 35
REMARK SMILES IDX 26 36 27 37 28 38 75 39 29 40 80 41 74 42 76 43 30 44 79 45
REMARK SMILES IDX 73 46 72 47 31 49 61 50 42 51 60 52 43 53 46 54 59 55 77 56
REMARK SMILES IDX 44 57 45 58 58 60 78 61 47 62 32 63 33 64 41 65 34 66 40 67
REMARK SMILES IDX 35 68 36 69 37 70 38 71 39 72 62 73 63 74 71 75 64 76 70 77
REMARK SMILES IDX 65 78 66 79 67 80 68 81 69 82 48 83 49 84 57 85 50 86 56 87
REMARK SMILES IDX 51 88 52 89 53 90 54 91 55 92
REMARK H PARENT 13 8 20 29 76 48 46 59
REMARK Flexibility Score: inf
ROOT
ATOM      1  C   UNL A   1      35.736  22.149  24.107  1.00  0.00     0.002 C 
ENDROOT
BRANCH   1   2
ATOM      2  C   UNL A   1      35.050  21.121  25.017  1.00  0.00     0.002 C 
BRANCH   2   3
ATOM      3  C   UNL A   1      33.599  21.444  25.382  1.00  0.00     0.021 C 
BRANCH   3   4
ATOM      4  C   UNL A   1      33.429  21.969  26.804  1.00  0.00     0.116 C 
BRANCH   4   5
ATOM      5  N   UNL A   1      32.066  22.405  27.055  1.00  0.00    -0.352 N 
ATOM      6  C   UNL A   1      31.298  23.476  26.750  1.00  0.00     0.251 C 
ATOM      7  O   UNL A   1      30.134  23.424  27.165  1.00  0.00    -0.270 OA
ATOM      8  H   UNL A   1      31.569  21.745  27.590  1.00  0.00     0.163 HD
BRANCH   6   9
ATOM      9  C   UNL A   1      31.750  24.672  25.975  1.00  0.00     0.067 C 
ATOM     10  C   UNL A   1      31.852  30.843  26.393  1.00  0.00     0.044 C 
ATOM     11  C   UNL A   1      32.161  29.500  25.800  1.00  0.00    -0.049 A 
ATOM     12  C   UNL A   1      32.857  29.397  24.590  1.00  0.00     0.028 A 
ATOM     13  C   UNL A   1      31.748  28.331  26.455  1.00  0.00     0.015 A 
ATOM     14  C   UNL A   1      33.135  28.144  24.046  1.00  0.00     0.084 A 
ATOM     15  C   UNL A   1      32.022  27.073  25.908  1.00  0.00     0.019 A 
ATOM     16  Cl  UNL A   1      34.007  28.069  22.556  1.00  0.00    -0.080 Cl
ATOM     17  C   UNL A   1      32.710  26.983  24.696  1.00  0.00     0.146 A 
ATOM     18  C   UNL A   1      31.632  25.854  26.607  1.00  0.00     0.025 C 
ATOM     19  O   UNL A   1      33.030  25.778  24.139  1.00  0.00    -0.474 OA
ATOM     20  C   UNL A   1      32.264  24.623  24.565  1.00  0.00     0.314 C 
BRANCH  20  21
ATOM     21  C   UNL A   1      31.151  24.344  23.538  1.00  0.00     0.429 C 
ATOM     22  F   UNL A   1      31.116  23.028  23.215  1.00  0.00    -0.167 F 
ATOM     23  F   UNL A   1      29.919  24.653  24.011  1.00  0.00    -0.167 F 
ATOM     24  F   UNL A   1      31.318  25.043  22.394  1.00  0.00    -0.167 F 
ENDBRANCH  20  21
ENDBRANCH   6   9
ENDBRANCH   4   5
ENDBRANCH   3   4
ENDBRANCH   2   3
ENDBRANCH   1   2
BRANCH   1  25
ATOM     25  C   UNL A   1      35.782  23.580  24.653  1.00  0.00     0.021 C 
BRANCH  25  26
ATOM     26  C   UNL A   1      36.574  23.738  25.948  1.00  0.00     0.116 C 
BRANCH  26  27
ATOM     27  N   UNL A   1      37.658  22.773  26.032  1.00  0.00    -0.352 N 
ATOM     28  C   UNL A   1      38.972  22.975  26.354  1.00  0.00     0.251 C 
ATOM     29  H   UNL A   1      37.410  21.842  25.830  1.00  0.00     0.163 HD
ATOM     30  O   UNL A   1      39.799  22.086  26.138  1.00  0.00    -0.269 OA
BRANCH  28  31
ATOM     31  C   UNL A   1      39.397  24.254  26.954  1.00  0.00     0.039 A 
ATOM     32  C   UNL A   1      39.089  24.511  28.292  1.00  0.00     0.014 A 
ATOM     33  C   UNL A   1      40.070  25.212  26.189  1.00  0.00     0.014 A 
ATOM     34  C   UNL A   1      39.489  25.716  28.873  1.00  0.00     0.010 A 
ATOM     35  C   UNL A   1      40.525  26.382  26.786  1.00  0.00     0.010 A 
ATOM     36  C   UNL A   1      40.224  26.652  28.129  1.00  0.00    -0.014 A 
BRANCH  36  37
ATOM     37  C   UNL A   1      40.654  27.939  28.729  1.00  0.00     0.031 A 
ATOM     38  C   UNL A   1      42.061  28.089  29.242  1.00  0.00     0.074 A 
ATOM     39  C   UNL A   1      39.774  28.951  28.843  1.00  0.00     0.049 A 
ATOM     40  N   UNL A   1      42.613  29.110  29.845  1.00  0.00    -0.248 NA
ATOM     41  C   UNL A   1      42.961  26.935  29.070  1.00  0.00     0.031 C 
ATOM     42  C   UNL A   1      38.380  28.918  28.395  1.00  0.00     0.029 A 
ATOM     43  N   UNL A   1      39.923  30.209  29.371  1.00  0.00    -0.354 N 
ATOM     44  C   UNL A   1      43.916  28.721  30.131  1.00  0.00     0.074 A 
ATOM     45  C   UNL A   1      44.059  27.353  29.684  1.00  0.00     0.031 C 
ATOM     46  C   UNL A   1      37.812  30.109  28.642  1.00  0.00     0.029 A 
ATOM     47  C   UNL A   1      38.783  30.976  29.301  1.00  0.00     0.049 A 
ATOM     48  H   UNL A   1      40.766  30.532  29.764  1.00  0.00     0.167 HD
ATOM     49  C   UNL A   1      44.911  29.445  30.694  1.00  0.00     0.031 A 
ATOM     50  C   UNL A   1      38.548  32.233  29.724  1.00  0.00     0.031 A 
ATOM     51  C   UNL A   1      44.766  30.809  31.129  1.00  0.00     0.049 A 
ATOM     52  C   UNL A   1      39.660  33.003  30.383  1.00  0.00     0.074 A 
ATOM     53  C   UNL A   1      45.725  31.640  31.681  1.00  0.00     0.029 A 
ATOM     54  N   UNL A   1      43.591  31.541  31.060  1.00  0.00    -0.354 N 
ATOM     55  N   UNL A   1      40.898  32.630  30.611  1.00  0.00    -0.248 NA
ATOM     56  C   UNL A   1      39.346  34.365  30.835  1.00  0.00     0.031 C 
ATOM     57  C   UNL A   1      45.115  32.859  31.994  1.00  0.00     0.029 A 
ATOM     58  C   UNL A   1      43.793  32.807  31.582  1.00  0.00     0.049 A 
ATOM     59  H   UNL A   1      42.740  31.209  30.694  1.00  0.00     0.167 HD
ATOM     60  C   UNL A   1      41.515  33.719  31.216  1.00  0.00     0.074 A 
ATOM     61  C   UNL A   1      40.521  34.770  31.298  1.00  0.00     0.031 C 
ATOM     62  C   UNL A   1      42.789  33.838  31.665  1.00  0.00     0.031 A 
BRANCH  49  63
ATOM     63  C   UNL A   1      46.249  28.777  30.870  1.00  0.00    -0.014 A 
ATOM     64  C   UNL A   1      47.236  28.861  29.872  1.00  0.00     0.010 A 
ATOM     65  C   UNL A   1      46.546  28.107  32.071  1.00  0.00     0.010 A 
ATOM     66  C   UNL A   1      48.486  28.266  30.059  1.00  0.00     0.020 A 
ATOM     67  C   UNL A   1      47.805  27.532  32.274  1.00  0.00     0.020 A 
ATOM     68  C   UNL A   1      48.763  27.607  31.261  1.00  0.00     0.054 A 
BRANCH  68  69
ATOM     69  S   UNL A   1      50.409  26.880  31.490  1.00  0.00     0.124 S 
ATOM     70  O   UNL A   1      50.819  27.455  32.769  1.00  0.00    -0.237 OA
ATOM     71  O   UNL A   1      50.124  25.447  31.509  1.00  0.00    -0.237 OA
ATOM     72  O   UNL A   1      51.161  27.348  30.329  1.00  0.00    -0.744 OA
ENDBRANCH  68  69
ENDBRANCH  49  63
BRANCH  50  73
ATOM     73  C   UNL A   1      37.205  32.844  29.523  1.00  0.00    -0.014 A 
ATOM     74  C   UNL A   1      36.242  32.797  30.545  1.00  0.00     0.010 A 
ATOM     75  C   UNL A   1      36.890  33.494  28.315  1.00  0.00     0.010 A 
ATOM     76  C   UNL A   1      34.983  33.377  30.361  1.00  0.00     0.020 A 
ATOM     77  C   UNL A   1      35.643  34.099  28.137  1.00  0.00     0.020 A 
ATOM     78  C   UNL A   1      34.693  34.030  29.158  1.00  0.00     0.054 A 
BRANCH  78  79
ATOM     79  S   UNL A   1      33.074  34.824  28.966  1.00  0.00     0.124 S 
ATOM     80  O   UNL A   1      32.415  33.943  28.007  1.00  0.00    -0.237 OA
ATOM     81  O   UNL A   1      32.544  34.788  30.327  1.00  0.00    -0.237 OA
ATOM     82  O   UNL A   1      33.403  36.157  28.468  1.00  0.00    -0.744 OA
ENDBRANCH  78  79
ENDBRANCH  50  73
BRANCH  62  83
ATOM     83  C   UNL A   1      43.188  35.155  32.275  1.00  0.00    -0.014 A 
ATOM     84  C   UNL A   1      43.782  36.164  31.497  1.00  0.00     0.010 A 
ATOM     85  C   UNL A   1      42.910  35.407  33.631  1.00  0.00     0.010 A 
ATOM     86  C   UNL A   1      44.118  37.392  32.073  1.00  0.00     0.020 A 
ATOM     87  C   UNL A   1      43.218  36.645  34.203  1.00  0.00     0.020 A 
ATOM     88  C   UNL A   1      43.833  37.625  33.421  1.00  0.00     0.054 A 
BRANCH  88  89
ATOM     89  S   UNL A   1      44.244  39.242  34.130  1.00  0.00     0.124 S 
ATOM     90  O   UNL A   1      44.608  38.890  35.500  1.00  0.00    -0.237 OA
ATOM     91  O   UNL A   1      45.346  39.691  33.282  1.00  0.00    -0.237 OA
ATOM     92  O   UNL A   1      43.007  40.008  33.991  1.00  0.00    -0.744 OA
ENDBRANCH  88  89
ENDBRANCH  62  83
ENDBRANCH  36  37
ENDBRANCH  28  31
ENDBRANCH  26  27
ENDBRANCH  25  26
ENDBRANCH   1  25
TORSDOF 17
ENDMDL
