MODEL 1
REMARK VINA RESULT:     -10.0      0.000      0.000
REMARK SMILES COCCCC(=O)N[C@H]1CC[C@@H](C(=O)NCCCCCCNC(=O)c2ccc(-c3c4nc(c(-c5ccc(S(=O)(=O)[O-])cc5)c5ccc([nH]5)c(-c5ccc(S(=O)(=O)[O-])cc5)c5nc(c(-c6ccc(S(=O)(=O)[O-])cc6)c6ccc3[nH]6)C=C5)C=C4)cc2)CC1
REMARK SMILES IDX 17 1 16 2 15 3 13 4 14 5 12 7 9 8 10 9 86 10 11 11 85 12
REMARK SMILES IDX 8 13 6 14 7 15 5 17 4 18 3 19 2 20 1 21 18 22 19 23 20 24
REMARK SMILES IDX 21 25 22 26 23 27 24 29 25 30 26 31 84 32 27 33 83 34 28 35
REMARK SMILES IDX 29 36 30 37 77 38 31 39 82 40 76 41 78 42 32 43 81 44 75 45
REMARK SMILES IDX 74 46 33 48 63 49 44 50 62 51 45 52 48 53 61 54 79 55 46 56
REMARK SMILES IDX 47 57 60 59 80 60 49 61 34 62 35 63 43 64 36 65 42 66 37 67
REMARK SMILES IDX 38 68 39 69 40 70 41 71 64 72 65 73 73 74 66 75 72 76 67 77
REMARK SMILES IDX 68 78 69 79 70 80 71 81 50 82 51 83 59 84 52 85 58 86 53 87
REMARK SMILES IDX 54 88 55 89 56 90 57 91
REMARK H PARENT 15 6 8 16 22 28 78 47 48 58
REMARK Flexibility Score: inf
ROOT
ATOM      1  C   UNL A   1      32.379  28.617  23.295  1.00  0.00     0.021 C 
ENDROOT
BRANCH   1   2
ATOM      2  C   UNL A   1      33.427  27.648  22.739  1.00  0.00     0.116 C 
BRANCH   2   3
ATOM      3  N   UNL A   1      33.880  26.673  23.710  1.00  0.00    -0.356 N 
ATOM      4  C   UNL A   1      33.753  25.330  23.826  1.00  0.00     0.223 C 
ATOM      5  O   UNL A   1      34.467  24.804  24.691  1.00  0.00    -0.275 OA
ATOM      6  H   UNL A   1      34.395  27.075  24.447  1.00  0.00     0.163 HD
BRANCH   4   7
ATOM      7  C   UNL A   1      32.786  24.442  23.030  1.00  0.00     0.078 C 
ATOM      8  C   UNL A   1      32.167  21.628  23.834  1.00  0.00     0.082 C 
ATOM      9  C   UNL A   1      31.321  22.785  24.387  1.00  0.00     0.026 C 
ATOM     10  C   UNL A   1      33.505  22.000  23.198  1.00  0.00     0.026 C 
ATOM     11  C   UNL A   1      31.433  24.114  23.657  1.00  0.00     0.015 C 
ATOM     12  C   UNL A   1      33.440  23.250  22.340  1.00  0.00     0.015 C 
BRANCH   8  13
ATOM     13  N   UNL A   1      32.335  20.650  24.900  1.00  0.00    -0.353 N 
ATOM     14  C   UNL A   1      32.615  19.327  24.899  1.00  0.00     0.220 C 
ATOM     15  O   UNL A   1      32.597  18.759  25.995  1.00  0.00    -0.275 OA
ATOM     16  H   UNL A   1      32.224  21.028  25.803  1.00  0.00     0.163 HD
BRANCH  14  17
ATOM     17  C   UNL A   1      33.049  18.593  23.651  1.00  0.00     0.102 C 
BRANCH  17  18
ATOM     18  C   UNL A   1      33.049  17.066  23.646  1.00  0.00     0.038 C 
BRANCH  18  19
ATOM     19  C   UNL A   1      33.199  16.253  24.935  1.00  0.00     0.160 C 
BRANCH  19  20
ATOM     20  O   UNL A   1      34.278  15.342  25.143  1.00  0.00    -0.385 OA
ATOM     21  C   UNL A   1      35.575  15.839  25.394  1.00  0.00     0.194 C 
ENDBRANCH  19  20
ENDBRANCH  18  19
ENDBRANCH  17  18
ENDBRANCH  14  17
ENDBRANCH   8  13
ENDBRANCH   4   7
ENDBRANCH   2   3
ENDBRANCH   1   2
BRANCH   1  22
ATOM     22  C   UNL A   1      31.463  28.009  24.356  1.00  0.00     0.002 C 
BRANCH  22  23
ATOM     23  C   UNL A   1      31.514  28.688  25.730  1.00  0.00     0.002 C 
BRANCH  23  24
ATOM     24  C   UNL A   1      32.246  27.922  26.841  1.00  0.00     0.021 C 
BRANCH  24  25
ATOM     25  C   UNL A   1      33.636  28.446  27.196  1.00  0.00     0.116 C 
BRANCH  25  26
ATOM     26  N   UNL A   1      33.620  29.866  27.519  1.00  0.00    -0.352 N 
ATOM     27  C   UNL A   1      34.544  30.638  28.179  1.00  0.00     0.251 C 
ATOM     28  H   UNL A   1      32.819  30.350  27.215  1.00  0.00     0.163 HD
ATOM     29  O   UNL A   1      34.232  31.761  28.564  1.00  0.00    -0.269 OA
BRANCH  27  30
ATOM     30  C   UNL A   1      35.904  30.121  28.431  1.00  0.00     0.039 A 
ATOM     31  C   UNL A   1      36.837  30.132  27.390  1.00  0.00     0.014 A 
ATOM     32  C   UNL A   1      36.251  29.599  29.680  1.00  0.00     0.014 A 
ATOM     33  C   UNL A   1      38.141  29.689  27.623  1.00  0.00     0.010 A 
ATOM     34  C   UNL A   1      37.566  29.212  29.927  1.00  0.00     0.010 A 
ATOM     35  C   UNL A   1      38.525  29.264  28.905  1.00  0.00    -0.014 A 
BRANCH  35  36
ATOM     36  C   UNL A   1      39.936  28.922  29.215  1.00  0.00     0.031 A 
ATOM     37  C   UNL A   1      40.858  29.950  29.810  1.00  0.00     0.074 A 
ATOM     38  C   UNL A   1      40.407  27.706  28.873  1.00  0.00     0.049 A 
ATOM     39  N   UNL A   1      42.138  29.856  30.066  1.00  0.00    -0.248 NA
ATOM     40  C   UNL A   1      40.271  31.258  30.143  1.00  0.00     0.031 C 
ATOM     41  C   UNL A   1      39.615  26.637  28.258  1.00  0.00     0.029 A 
ATOM     42  N   UNL A   1      41.664  27.169  28.980  1.00  0.00    -0.354 N 
ATOM     43  C   UNL A   1      42.514  31.096  30.570  1.00  0.00     0.074 A 
ATOM     44  C   UNL A   1      41.335  31.934  30.554  1.00  0.00     0.031 C 
ATOM     45  C   UNL A   1      40.401  25.566  28.064  1.00  0.00     0.029 A 
ATOM     46  C   UNL A   1      41.758  25.886  28.490  1.00  0.00     0.049 A 
ATOM     47  H   UNL A   1      42.426  27.654  29.369  1.00  0.00     0.167 HD
ATOM     48  C   UNL A   1      43.731  31.495  31.013  1.00  0.00     0.031 A 
ATOM     49  C   UNL A   1      42.821  25.066  28.379  1.00  0.00     0.031 A 
ATOM     50  C   UNL A   1      44.899  30.653  31.028  1.00  0.00     0.049 A 
ATOM     51  C   UNL A   1      44.168  25.547  28.841  1.00  0.00     0.074 A 
ATOM     52  C   UNL A   1      46.159  30.940  31.525  1.00  0.00     0.029 A 
ATOM     53  N   UNL A   1      44.957  29.367  30.511  1.00  0.00    -0.354 N 
ATOM     54  N   UNL A   1      44.488  26.695  29.388  1.00  0.00    -0.248 NA
ATOM     55  C   UNL A   1      45.298  24.623  28.668  1.00  0.00     0.031 C 
ATOM     56  C   UNL A   1      46.994  29.852  31.252  1.00  0.00     0.029 A 
ATOM     57  C   UNL A   1      46.241  28.863  30.638  1.00  0.00     0.049 A 
ATOM     58  H   UNL A   1      44.197  28.884  30.113  1.00  0.00     0.167 HD
ATOM     59  C   UNL A   1      45.853  26.625  29.642  1.00  0.00     0.074 A 
ATOM     60  C   UNL A   1      46.293  25.316  29.204  1.00  0.00     0.031 C 
ATOM     61  C   UNL A   1      46.667  27.561  30.188  1.00  0.00     0.031 A 
BRANCH  48  62
ATOM     62  C   UNL A   1      43.868  32.914  31.501  1.00  0.00    -0.014 A 
ATOM     63  C   UNL A   1      43.588  33.258  32.835  1.00  0.00     0.010 A 
ATOM     64  C   UNL A   1      44.331  33.910  30.621  1.00  0.00     0.010 A 
ATOM     65  C   UNL A   1      43.727  34.578  33.269  1.00  0.00     0.020 A 
ATOM     66  C   UNL A   1      44.497  35.227  31.058  1.00  0.00     0.020 A 
ATOM     67  C   UNL A   1      44.177  35.556  32.378  1.00  0.00     0.054 A 
BRANCH  67  68
ATOM     68  S   UNL A   1      44.365  37.259  32.974  1.00  0.00     0.124 S 
ATOM     69  O   UNL A   1      43.673  37.206  34.259  1.00  0.00    -0.237 OA
ATOM     70  O   UNL A   1      45.816  37.415  33.047  1.00  0.00    -0.237 OA
ATOM     71  O   UNL A   1      43.707  38.062  31.946  1.00  0.00    -0.744 OA
ENDBRANCH  67  68
ENDBRANCH  48  62
BRANCH  49  72
ATOM     72  C   UNL A   1      42.649  23.703  27.806  1.00  0.00    -0.014 A 
ATOM     73  C   UNL A   1      42.407  22.606  28.650  1.00  0.00     0.010 A 
ATOM     74  C   UNL A   1      42.702  23.498  26.415  1.00  0.00     0.010 A 
ATOM     75  C   UNL A   1      42.232  21.326  28.115  1.00  0.00     0.020 A 
ATOM     76  C   UNL A   1      42.502  22.224  25.875  1.00  0.00     0.020 A 
ATOM     77  C   UNL A   1      42.278  21.144  26.730  1.00  0.00     0.054 A 
BRANCH  77  78
ATOM     78  S   UNL A   1      41.990  19.484  26.057  1.00  0.00     0.124 S 
ATOM     79  O   UNL A   1      42.909  19.452  24.924  1.00  0.00    -0.237 OA
ATOM     80  O   UNL A   1      42.341  18.621  27.182  1.00  0.00    -0.237 OA
ATOM     81  O   UNL A   1      40.570  19.496  25.711  1.00  0.00    -0.744 OA
ENDBRANCH  77  78
ENDBRANCH  49  72
BRANCH  61  82
ATOM     82  C   UNL A   1      48.119  27.204  30.356  1.00  0.00    -0.014 A 
ATOM     83  C   UNL A   1      49.050  27.466  29.335  1.00  0.00     0.010 A 
ATOM     84  C   UNL A   1      48.569  26.665  31.574  1.00  0.00     0.010 A 
ATOM     85  C   UNL A   1      50.404  27.176  29.523  1.00  0.00     0.020 A 
ATOM     86  C   UNL A   1      49.925  26.399  31.776  1.00  0.00     0.020 A 
ATOM     87  C   UNL A   1      50.834  26.648  30.745  1.00  0.00     0.054 A 
BRANCH  87  88
ATOM     88  S   UNL A   1      52.605  26.342  30.987  1.00  0.00     0.124 S 
ATOM     89  O   UNL A   1      53.083  26.217  29.612  1.00  0.00    -0.237 OA
ATOM     90  O   UNL A   1      53.044  27.540  31.698  1.00  0.00    -0.237 OA
ATOM     91  O   UNL A   1      52.640  25.110  31.773  1.00  0.00    -0.744 OA
ENDBRANCH  87  88
ENDBRANCH  61  82
ENDBRANCH  35  36
ENDBRANCH  27  30
ENDBRANCH  25  26
ENDBRANCH  24  25
ENDBRANCH  23  24
ENDBRANCH  22  23
ENDBRANCH   1  22
TORSDOF 21
ENDMDL
MODEL 2
REMARK VINA RESULT:      -9.6      2.352      3.184
REMARK SMILES COCCCC(=O)N[C@H]1CC[C@@H](C(=O)NCCCCCCNC(=O)c2ccc(-c3c4nc(c(-c5ccc(S(=O)(=O)[O-])cc5)c5ccc([nH]5)c(-c5ccc(S(=O)(=O)[O-])cc5)c5nc(c(-c6ccc(S(=O)(=O)[O-])cc6)c6ccc3[nH]6)C=C5)C=C4)cc2)CC1
REMARK SMILES IDX 17 1 16 2 15 3 13 4 14 5 12 7 9 8 10 9 86 10 11 11 85 12
REMARK SMILES IDX 8 13 6 14 7 15 5 17 4 18 3 19 2 20 1 21 18 22 19 23 20 24
REMARK SMILES IDX 21 25 22 26 23 27 24 29 25 30 26 31 84 32 27 33 83 34 28 35
REMARK SMILES IDX 29 36 30 37 77 38 31 39 82 40 76 41 78 42 32 43 81 44 75 45
REMARK SMILES IDX 74 46 33 48 63 49 44 50 62 51 45 52 48 53 61 54 79 55 46 56
REMARK SMILES IDX 47 57 60 59 80 60 49 61 34 62 35 63 43 64 36 65 42 66 37 67
REMARK SMILES IDX 38 68 39 69 40 70 41 71 64 72 65 73 73 74 66 75 72 76 67 77
REMARK SMILES IDX 68 78 69 79 70 80 71 81 50 82 51 83 59 84 52 85 58 86 53 87
REMARK SMILES IDX 54 88 55 89 56 90 57 91
REMARK H PARENT 15 6 8 16 22 28 78 47 48 58
REMARK Flexibility Score: inf
ROOT
ATOM      1  C   UNL A   1      32.865  28.547  23.154  1.00  0.00     0.021 C 
ENDROOT
BRANCH   1   2
ATOM      2  C   UNL A   1      33.580  27.274  22.690  1.00  0.00     0.116 C 
BRANCH   2   3
ATOM      3  N   UNL A   1      34.080  26.464  23.782  1.00  0.00    -0.356 N 
ATOM      4  C   UNL A   1      33.693  25.293  24.340  1.00  0.00     0.223 C 
ATOM      5  O   UNL A   1      34.503  24.792  25.133  1.00  0.00    -0.275 OA
ATOM      6  H   UNL A   1      34.876  26.851  24.212  1.00  0.00     0.163 HD
BRANCH   4   7
ATOM      7  C   UNL A   1      32.350  24.585  24.114  1.00  0.00     0.078 C 
ATOM      8  C   UNL A   1      32.112  21.606  23.992  1.00  0.00     0.082 C 
ATOM      9  C   UNL A   1      31.987  22.328  25.342  1.00  0.00     0.026 C 
ATOM     10  C   UNL A   1      32.717  22.405  22.840  1.00  0.00     0.026 C 
ATOM     11  C   UNL A   1      31.733  23.826  25.286  1.00  0.00     0.015 C 
ATOM     12  C   UNL A   1      32.238  23.844  22.786  1.00  0.00     0.015 C 
BRANCH   8  13
ATOM     13  N   UNL A   1      32.837  20.362  24.218  1.00  0.00    -0.353 N 
ATOM     14  C   UNL A   1      34.072  20.091  24.697  1.00  0.00     0.220 C 
ATOM     15  O   UNL A   1      34.425  18.908  24.673  1.00  0.00    -0.275 OA
ATOM     16  H   UNL A   1      32.324  19.558  23.973  1.00  0.00     0.163 HD
BRANCH  14  17
ATOM     17  C   UNL A   1      34.938  21.146  25.344  1.00  0.00     0.102 C 
BRANCH  17  18
ATOM     18  C   UNL A   1      36.143  21.693  24.580  1.00  0.00     0.038 C 
BRANCH  18  19
ATOM     19  C   UNL A   1      37.362  22.275  25.304  1.00  0.00     0.160 C 
BRANCH  19  20
ATOM     20  O   UNL A   1      38.566  21.532  25.492  1.00  0.00    -0.385 OA
ATOM     21  C   UNL A   1      39.589  22.054  26.313  1.00  0.00     0.194 C 
ENDBRANCH  19  20
ENDBRANCH  18  19
ENDBRANCH  17  18
ENDBRANCH  14  17
ENDBRANCH   8  13
ENDBRANCH   4   7
ENDBRANCH   2   3
ENDBRANCH   1   2
BRANCH   1  22
ATOM     22  C   UNL A   1      31.565  28.293  23.915  1.00  0.00     0.002 C 
BRANCH  22  23
ATOM     23  C   UNL A   1      31.535  28.825  25.354  1.00  0.00     0.002 C 
BRANCH  23  24
ATOM     24  C   UNL A   1      32.264  27.979  26.407  1.00  0.00     0.021 C 
BRANCH  24  25
ATOM     25  C   UNL A   1      33.630  28.506  26.846  1.00  0.00     0.116 C 
BRANCH  25  26
ATOM     26  N   UNL A   1      33.659  29.960  26.913  1.00  0.00    -0.352 N 
ATOM     27  C   UNL A   1      34.503  30.801  27.594  1.00  0.00     0.251 C 
ATOM     28  H   UNL A   1      32.961  30.413  26.385  1.00  0.00     0.163 HD
ATOM     29  O   UNL A   1      34.210  31.987  27.716  1.00  0.00    -0.269 OA
BRANCH  27  30
ATOM     30  C   UNL A   1      35.756  30.285  28.182  1.00  0.00     0.039 A 
ATOM     31  C   UNL A   1      36.930  30.333  27.424  1.00  0.00     0.014 A 
ATOM     32  C   UNL A   1      35.768  29.729  29.463  1.00  0.00     0.014 A 
ATOM     33  C   UNL A   1      38.132  29.890  27.981  1.00  0.00     0.010 A 
ATOM     34  C   UNL A   1      36.977  29.342  30.038  1.00  0.00     0.010 A 
ATOM     35  C   UNL A   1      38.170  29.429  29.308  1.00  0.00    -0.014 A 
BRANCH  35  36
ATOM     36  C   UNL A   1      39.454  29.086  29.969  1.00  0.00     0.031 A 
ATOM     37  C   UNL A   1      39.964  29.909  31.119  1.00  0.00     0.074 A 
ATOM     38  C   UNL A   1      40.202  28.083  29.469  1.00  0.00     0.049 A 
ATOM     39  N   UNL A   1      41.100  29.811  31.761  1.00  0.00    -0.248 NA
ATOM     40  C   UNL A   1      39.094  30.996  31.599  1.00  0.00     0.031 C 
ATOM     41  C   UNL A   1      39.828  27.235  28.334  1.00  0.00     0.029 A 
ATOM     42  N   UNL A   1      41.437  27.615  29.840  1.00  0.00    -0.354 N 
ATOM     43  C   UNL A   1      41.091  30.831  32.705  1.00  0.00     0.074 A 
ATOM     44  C   UNL A   1      39.852  31.557  32.530  1.00  0.00     0.031 C 
ATOM     45  C   UNL A   1      40.801  26.337  28.117  1.00  0.00     0.029 A 
ATOM     46  C   UNL A   1      41.889  26.575  29.059  1.00  0.00     0.049 A 
ATOM     47  H   UNL A   1      41.951  27.986  30.592  1.00  0.00     0.167 HD
ATOM     48  C   UNL A   1      42.029  31.130  33.637  1.00  0.00     0.031 A 
ATOM     49  C   UNL A   1      43.056  25.902  29.085  1.00  0.00     0.031 A 
ATOM     50  C   UNL A   1      43.259  30.400  33.805  1.00  0.00     0.049 A 
ATOM     51  C   UNL A   1      44.095  26.280  30.102  1.00  0.00     0.074 A 
ATOM     52  C   UNL A   1      44.239  30.579  34.766  1.00  0.00     0.029 A 
ATOM     53  N   UNL A   1      43.686  29.365  32.985  1.00  0.00    -0.354 N 
ATOM     54  N   UNL A   1      44.037  27.197  31.037  1.00  0.00    -0.248 NA
ATOM     55  C   UNL A   1      45.361  25.533  30.066  1.00  0.00     0.031 C 
ATOM     56  C   UNL A   1      45.286  29.693  34.490  1.00  0.00     0.029 A 
ATOM     57  C   UNL A   1      44.934  28.923  33.393  1.00  0.00     0.049 A 
ATOM     58  H   UNL A   1      43.177  28.999  32.227  1.00  0.00     0.167 HD
ATOM     59  C   UNL A   1      45.249  27.126  31.714  1.00  0.00     0.074 A 
ATOM     60  C   UNL A   1      46.014  26.065  31.090  1.00  0.00     0.031 C 
ATOM     61  C   UNL A   1      45.688  27.872  32.756  1.00  0.00     0.031 A 
BRANCH  48  62
ATOM     62  C   UNL A   1      41.772  32.311  34.535  1.00  0.00    -0.014 A 
ATOM     63  C   UNL A   1      40.930  32.206  35.657  1.00  0.00     0.010 A 
ATOM     64  C   UNL A   1      42.422  33.533  34.280  1.00  0.00     0.010 A 
ATOM     65  C   UNL A   1      40.709  33.312  36.481  1.00  0.00     0.020 A 
ATOM     66  C   UNL A   1      42.224  34.634  35.119  1.00  0.00     0.020 A 
ATOM     67  C   UNL A   1      41.354  34.520  36.206  1.00  0.00     0.054 A 
BRANCH  67  68
ATOM     68  S   UNL A   1      41.061  35.934  37.305  1.00  0.00     0.124 S 
ATOM     69  O   UNL A   1      42.292  36.703  37.140  1.00  0.00    -0.237 OA
ATOM     70  O   UNL A   1      39.861  36.540  36.734  1.00  0.00    -0.237 OA
ATOM     71  O   UNL A   1      40.881  35.321  38.619  1.00  0.00    -0.744 OA
ENDBRANCH  67  68
ENDBRANCH  48  62
BRANCH  49  72
ATOM     72  C   UNL A   1      43.297  24.800  28.114  1.00  0.00    -0.014 A 
ATOM     73  C   UNL A   1      43.947  25.060  26.895  1.00  0.00     0.010 A 
ATOM     74  C   UNL A   1      42.902  23.483  28.412  1.00  0.00     0.010 A 
ATOM     75  C   UNL A   1      44.187  24.025  25.986  1.00  0.00     0.020 A 
ATOM     76  C   UNL A   1      43.164  22.441  27.518  1.00  0.00     0.020 A 
ATOM     77  C   UNL A   1      43.797  22.721  26.305  1.00  0.00     0.054 A 
BRANCH  77  78
ATOM     78  S   UNL A   1      44.172  21.385  25.136  1.00  0.00     0.124 S 
ATOM     79  O   UNL A   1      45.502  20.968  25.569  1.00  0.00    -0.237 OA
ATOM     80  O   UNL A   1      43.096  20.431  25.390  1.00  0.00    -0.237 OA
ATOM     81  O   UNL A   1      44.115  22.044  23.833  1.00  0.00    -0.744 OA
ENDBRANCH  77  78
ENDBRANCH  49  72
BRANCH  61  82
ATOM     82  C   UNL A   1      47.057  27.564  33.301  1.00  0.00    -0.014 A 
ATOM     83  C   UNL A   1      47.236  26.581  34.290  1.00  0.00     0.010 A 
ATOM     84  C   UNL A   1      48.183  28.218  32.769  1.00  0.00     0.010 A 
ATOM     85  C   UNL A   1      48.518  26.269  34.751  1.00  0.00     0.020 A 
ATOM     86  C   UNL A   1      49.468  27.890  33.209  1.00  0.00     0.020 A 
ATOM     87  C   UNL A   1      49.627  26.924  34.204  1.00  0.00     0.054 A 
BRANCH  87  88
ATOM     88  S   UNL A   1      51.283  26.454  34.774  1.00  0.00     0.124 S 
ATOM     89  O   UNL A   1      51.376  25.066  34.329  1.00  0.00    -0.237 OA
ATOM     90  O   UNL A   1      52.145  27.399  34.068  1.00  0.00    -0.237 OA
ATOM     91  O   UNL A   1      51.218  26.641  36.221  1.00  0.00    -0.744 OA
ENDBRANCH  87  88
ENDBRANCH  61  82
ENDBRANCH  35  36
ENDBRANCH  27  30
ENDBRANCH  25  26
ENDBRANCH  24  25
ENDBRANCH  23  24
ENDBRANCH  22  23
ENDBRANCH   1  22
TORSDOF 21
ENDMDL
MODEL 3
REMARK VINA RESULT:      -9.4      3.949      9.934
REMARK SMILES COCCCC(=O)N[C@H]1CC[C@@H](C(=O)NCCCCCCNC(=O)c2ccc(-c3c4nc(c(-c5ccc(S(=O)(=O)[O-])cc5)c5ccc([nH]5)c(-c5ccc(S(=O)(=O)[O-])cc5)c5nc(c(-c6ccc(S(=O)(=O)[O-])cc6)c6ccc3[nH]6)C=C5)C=C4)cc2)CC1
REMARK SMILES IDX 17 1 16 2 15 3 13 4 14 5 12 7 9 8 10 9 86 10 11 11 85 12
REMARK SMILES IDX 8 13 6 14 7 15 5 17 4 18 3 19 2 20 1 21 18 22 19 23 20 24
REMARK SMILES IDX 21 25 22 26 23 27 24 29 25 30 26 31 84 32 27 33 83 34 28 35
REMARK SMILES IDX 29 36 30 37 77 38 31 39 82 40 76 41 78 42 32 43 81 44 75 45
REMARK SMILES IDX 74 46 33 48 63 49 44 50 62 51 45 52 48 53 61 54 79 55 46 56
REMARK SMILES IDX 47 57 60 59 80 60 49 61 34 62 35 63 43 64 36 65 42 66 37 67
REMARK SMILES IDX 38 68 39 69 40 70 41 71 64 72 65 73 73 74 66 75 72 76 67 77
REMARK SMILES IDX 68 78 69 79 70 80 71 81 50 82 51 83 59 84 52 85 58 86 53 87
REMARK SMILES IDX 54 88 55 89 56 90 57 91
REMARK H PARENT 15 6 8 16 22 28 78 47 48 58
REMARK Flexibility Score: inf
ROOT
ATOM      1  C   UNL A   1      33.658  30.995  27.635  1.00  0.00     0.021 C 
ENDROOT
BRANCH   1   2
ATOM      2  C   UNL A   1      34.706  29.926  27.308  1.00  0.00     0.116 C 
BRANCH   2   3
ATOM      3  N   UNL A   1      34.156  28.590  27.217  1.00  0.00    -0.356 N 
ATOM      4  C   UNL A   1      33.761  27.801  26.189  1.00  0.00     0.223 C 
ATOM      5  O   UNL A   1      33.539  26.619  26.485  1.00  0.00    -0.275 OA
ATOM      6  H   UNL A   1      34.045  28.160  28.096  1.00  0.00     0.163 HD
BRANCH   4   7
ATOM      7  C   UNL A   1      33.526  28.255  24.741  1.00  0.00     0.078 C 
ATOM      8  C   UNL A   1      30.909  27.862  23.347  1.00  0.00     0.082 C 
ATOM      9  C   UNL A   1      31.160  29.144  24.155  1.00  0.00     0.026 C 
ATOM     10  C   UNL A   1      31.862  26.694  23.599  1.00  0.00     0.026 C 
ATOM     11  C   UNL A   1      32.608  29.450  24.504  1.00  0.00     0.015 C 
ATOM     12  C   UNL A   1      33.311  27.119  23.748  1.00  0.00     0.015 C 
BRANCH   8  13
ATOM     13  N   UNL A   1      29.520  27.472  23.549  1.00  0.00    -0.353 N 
ATOM     14  C   UNL A   1      28.344  28.054  23.222  1.00  0.00     0.220 C 
ATOM     15  O   UNL A   1      27.322  27.496  23.629  1.00  0.00    -0.275 OA
ATOM     16  H   UNL A   1      29.418  26.612  24.017  1.00  0.00     0.163 HD
BRANCH  14  17
ATOM     17  C   UNL A   1      28.263  29.253  22.306  1.00  0.00     0.102 C 
BRANCH  17  18
ATOM     18  C   UNL A   1      28.703  30.620  22.825  1.00  0.00     0.038 C 
BRANCH  18  19
ATOM     19  C   UNL A   1      28.422  31.909  22.047  1.00  0.00     0.160 C 
BRANCH  19  20
ATOM     20  O   UNL A   1      28.107  33.141  22.695  1.00  0.00    -0.385 OA
ATOM     21  C   UNL A   1      29.136  33.900  23.293  1.00  0.00     0.194 C 
ENDBRANCH  19  20
ENDBRANCH  18  19
ENDBRANCH  17  18
ENDBRANCH  14  17
ENDBRANCH   8  13
ENDBRANCH   4   7
ENDBRANCH   2   3
ENDBRANCH   1   2
BRANCH   1  22
ATOM     22  C   UNL A   1      34.155  32.094  28.571  1.00  0.00     0.002 C 
BRANCH  22  23
ATOM     23  C   UNL A   1      35.292  32.962  28.015  1.00  0.00     0.002 C 
BRANCH  23  24
ATOM     24  C   UNL A   1      36.671  32.771  28.660  1.00  0.00     0.021 C 
BRANCH  24  25
ATOM     25  C   UNL A   1      36.697  32.820  30.187  1.00  0.00     0.116 C 
BRANCH  25  26
ATOM     26  N   UNL A   1      36.292  31.554  30.781  1.00  0.00    -0.352 N 
ATOM     27  C   UNL A   1      36.845  30.302  30.669  1.00  0.00     0.251 C 
ATOM     28  H   UNL A   1      35.494  31.603  31.355  1.00  0.00     0.163 HD
ATOM     29  O   UNL A   1      36.212  29.322  31.051  1.00  0.00    -0.269 OA
BRANCH  27  30
ATOM     30  C   UNL A   1      38.193  30.132  30.088  1.00  0.00     0.039 A 
ATOM     31  C   UNL A   1      39.311  30.310  30.908  1.00  0.00     0.014 A 
ATOM     32  C   UNL A   1      38.355  29.828  28.735  1.00  0.00     0.014 A 
ATOM     33  C   UNL A   1      40.591  30.109  30.387  1.00  0.00     0.010 A 
ATOM     34  C   UNL A   1      39.628  29.571  28.231  1.00  0.00     0.010 A 
ATOM     35  C   UNL A   1      40.756  29.698  29.053  1.00  0.00    -0.014 A 
BRANCH  35  36
ATOM     36  C   UNL A   1      42.093  29.342  28.515  1.00  0.00     0.031 A 
ATOM     37  C   UNL A   1      42.389  27.934  28.078  1.00  0.00     0.074 A 
ATOM     38  C   UNL A   1      43.066  30.274  28.506  1.00  0.00     0.049 A 
ATOM     39  N   UNL A   1      43.520  27.423  27.664  1.00  0.00    -0.248 NA
ATOM     40  C   UNL A   1      41.277  26.972  28.130  1.00  0.00     0.031 C 
ATOM     41  C   UNL A   1      42.907  31.665  28.937  1.00  0.00     0.029 A 
ATOM     42  N   UNL A   1      44.384  30.190  28.134  1.00  0.00    -0.354 N 
ATOM     43  C   UNL A   1      43.262  26.077  27.426  1.00  0.00     0.074 A 
ATOM     44  C   UNL A   1      41.877  25.846  27.772  1.00  0.00     0.031 C 
ATOM     45  C   UNL A   1      44.074  32.309  28.784  1.00  0.00     0.029 A 
ATOM     46  C   UNL A   1      45.076  31.369  28.294  1.00  0.00     0.049 A 
ATOM     47  H   UNL A   1      44.794  29.367  27.786  1.00  0.00     0.167 HD
ATOM     48  C   UNL A   1      44.104  25.125  26.954  1.00  0.00     0.031 A 
ATOM     49  C   UNL A   1      46.376  31.656  28.088  1.00  0.00     0.031 A 
ATOM     50  C   UNL A   1      45.481  25.367  26.609  1.00  0.00     0.049 A 
ATOM     51  C   UNL A   1      47.297  30.572  27.604  1.00  0.00     0.074 A 
ATOM     52  C   UNL A   1      46.395  24.486  26.055  1.00  0.00     0.029 A 
ATOM     53  N   UNL A   1      46.148  26.568  26.800  1.00  0.00    -0.354 N 
ATOM     54  N   UNL A   1      47.018  29.326  27.309  1.00  0.00    -0.248 NA
ATOM     55  C   UNL A   1      48.711  30.934  27.425  1.00  0.00     0.031 C 
ATOM     56  C   UNL A   1      47.630  25.137  25.968  1.00  0.00     0.029 A 
ATOM     57  C   UNL A   1      47.472  26.440  26.413  1.00  0.00     0.049 A 
ATOM     58  H   UNL A   1      45.741  27.390  27.157  1.00  0.00     0.167 HD
ATOM     59  C   UNL A   1      48.216  28.757  26.893  1.00  0.00     0.074 A 
ATOM     60  C   UNL A   1      49.219  29.801  26.958  1.00  0.00     0.031 C 
ATOM     61  C   UNL A   1      48.462  27.486  26.494  1.00  0.00     0.031 A 
BRANCH  48  62
ATOM     62  C   UNL A   1      43.565  23.727  26.802  1.00  0.00    -0.014 A 
ATOM     63  C   UNL A   1      43.427  22.873  27.910  1.00  0.00     0.010 A 
ATOM     64  C   UNL A   1      43.144  23.278  25.536  1.00  0.00     0.010 A 
ATOM     65  C   UNL A   1      42.919  21.582  27.749  1.00  0.00     0.020 A 
ATOM     66  C   UNL A   1      42.609  21.997  25.375  1.00  0.00     0.020 A 
ATOM     67  C   UNL A   1      42.516  21.150  26.482  1.00  0.00     0.054 A 
BRANCH  67  68
ATOM     68  S   UNL A   1      41.843  19.474  26.306  1.00  0.00     0.124 S 
ATOM     69  O   UNL A   1      42.564  18.981  25.135  1.00  0.00    -0.237 OA
ATOM     70  O   UNL A   1      42.205  18.848  27.576  1.00  0.00    -0.237 OA
ATOM     71  O   UNL A   1      40.412  19.693  26.110  1.00  0.00    -0.744 OA
ENDBRANCH  67  68
ENDBRANCH  48  62
BRANCH  49  72
ATOM     72  C   UNL A   1      46.879  33.034  28.340  1.00  0.00    -0.014 A 
ATOM     73  C   UNL A   1      47.393  33.381  29.602  1.00  0.00     0.010 A 
ATOM     74  C   UNL A   1      46.871  33.999  27.316  1.00  0.00     0.010 A 
ATOM     75  C   UNL A   1      47.879  34.670  29.839  1.00  0.00     0.020 A 
ATOM     76  C   UNL A   1      47.379  35.282  27.541  1.00  0.00     0.020 A 
ATOM     77  C   UNL A   1      47.872  35.611  28.806  1.00  0.00     0.054 A 
BRANCH  77  78
ATOM     78  S   UNL A   1      48.561  37.260  29.120  1.00  0.00     0.124 S 
ATOM     79  O   UNL A   1      49.573  37.370  28.074  1.00  0.00    -0.237 OA
ATOM     80  O   UNL A   1      47.395  38.125  28.966  1.00  0.00    -0.237 OA
ATOM     81  O   UNL A   1      49.078  37.161  30.483  1.00  0.00    -0.744 OA
ENDBRANCH  77  78
ENDBRANCH  49  72
BRANCH  61  82
ATOM     82  C   UNL A   1      49.870  27.148  26.083  1.00  0.00    -0.014 A 
ATOM     83  C   UNL A   1      50.773  26.581  27.000  1.00  0.00     0.010 A 
ATOM     84  C   UNL A   1      50.272  27.337  24.749  1.00  0.00     0.010 A 
ATOM     85  C   UNL A   1      52.062  26.226  26.592  1.00  0.00     0.020 A 
ATOM     86  C   UNL A   1      51.550  26.958  24.332  1.00  0.00     0.020 A 
ATOM     87  C   UNL A   1      52.441  26.413  25.259  1.00  0.00     0.054 A 
BRANCH  87  88
ATOM     88  S   UNL A   1      54.097  25.883  24.741  1.00  0.00     0.124 S 
ATOM     89  O   UNL A   1      54.085  26.196  23.315  1.00  0.00    -0.237 OA
ATOM     90  O   UNL A   1      54.971  26.718  25.560  1.00  0.00    -0.237 OA
ATOM     91  O   UNL A   1      54.122  24.459  25.067  1.00  0.00    -0.744 OA
ENDBRANCH  87  88
ENDBRANCH  61  82
ENDBRANCH  35  36
ENDBRANCH  27  30
ENDBRANCH  25  26
ENDBRANCH  24  25
ENDBRANCH  23  24
ENDBRANCH  22  23
ENDBRANCH   1  22
TORSDOF 21
ENDMDL
