MODEL 1
REMARK VINA RESULT:     -10.2      0.000      0.000
REMARK SMILES CC[C@@H]1CC(=O)N(Cc2ccc(C(=O)NCCCCCCNC(=O)c3ccc(-c4c5nc(c(-c6ccc(S(=O)(=O)[O-])cc6)c6ccc([nH]6)c(-c6ccc(S(=O)(=O)[O-])cc6)c6nc(c(-c7ccc(S(=O)(=O)[O-])cc7)c7ccc4[nH]7)C=C6)C=C5)cc3)cn2)C1
REMARK SMILES IDX 18 1 17 2 16 3 15 4 13 5 14 6 12 8 9 9 10 10 86 11 11 12
REMARK SMILES IDX 85 13 8 14 7 15 3 16 4 17 87 18 5 19 6 20 2 21 1 22 19 23
REMARK SMILES IDX 20 24 21 25 22 26 23 27 24 29 25 30 26 31 84 32 27 33 83 34
REMARK SMILES IDX 28 35 29 36 30 37 77 38 31 39 82 40 76 41 78 42 32 43 81 44
REMARK SMILES IDX 75 45 74 46 33 48 63 49 44 50 62 51 45 52 48 53 61 54 79 55
REMARK SMILES IDX 46 56 47 57 60 59 80 60 49 61 34 62 35 63 43 64 36 65 42 66
REMARK SMILES IDX 37 67 38 68 39 69 40 70 41 71 64 72 65 73 73 74 66 75 72 76
REMARK SMILES IDX 67 77 68 78 69 79 70 80 71 81 50 82 51 83 59 84 52 85 58 86
REMARK SMILES IDX 53 87 54 88 55 89 56 90 57 91
REMARK H PARENT 15 7 22 28 78 47 48 58
REMARK Flexibility Score: inf
ROOT
ATOM      1  C   UNL A   1      35.768  21.479  24.392  1.00  0.00     0.002 C 
ENDROOT
BRANCH   1   2
ATOM      2  C   UNL A   1      35.233  20.233  25.111  1.00  0.00     0.021 C 
BRANCH   2   3
ATOM      3  C   UNL A   1      33.729  20.292  25.382  1.00  0.00     0.116 C 
BRANCH   3   4
ATOM      4  N   UNL A   1      33.482  20.840  26.702  1.00  0.00    -0.352 N 
ATOM      5  C   UNL A   1      33.263  22.117  27.145  1.00  0.00     0.252 C 
ATOM      6  O   UNL A   1      33.064  22.279  28.351  1.00  0.00    -0.269 OA
ATOM      7  H   UNL A   1      33.470  20.163  27.417  1.00  0.00     0.163 HD
BRANCH   5   8
ATOM      8  C   UNL A   1      33.201  23.293  26.247  1.00  0.00     0.058 A 
ATOM      9  C   UNL A   1      32.848  25.341  24.405  1.00  0.00     0.060 A 
ATOM     10  C   UNL A   1      34.008  25.300  25.179  1.00  0.00     0.026 A 
ATOM     11  N   UNL A   1      31.855  24.435  24.571  1.00  0.00    -0.259 NA
ATOM     12  C   UNL A   1      34.175  24.279  26.116  1.00  0.00     0.017 A 
ATOM     13  C   UNL A   1      32.050  23.446  25.483  1.00  0.00     0.125 A 
BRANCH   9  14
ATOM     14  C   UNL A   1      32.655  26.414  23.353  1.00  0.00     0.175 C 
BRANCH  14  15
ATOM     15  N   UNL A   1      32.221  27.701  23.883  1.00  0.00    -0.336 N 
ATOM     16  C   UNL A   1      32.230  29.624  25.220  1.00  0.00     0.017 C 
ATOM     17  C   UNL A   1      30.905  29.550  24.454  1.00  0.00     0.105 C 
ATOM     18  C   UNL A   1      33.127  28.680  24.425  1.00  0.00     0.124 C 
ATOM     19  C   UNL A   1      30.909  28.150  23.874  1.00  0.00     0.223 C 
ATOM     20  O   UNL A   1      29.930  27.555  23.466  1.00  0.00    -0.275 OA
BRANCH  16  21
ATOM     21  C   UNL A   1      32.158  29.250  26.717  1.00  0.00     0.002 C 
ATOM     22  C   UNL A   1      33.425  28.706  27.363  1.00  0.00     0.004 C 
ENDBRANCH  16  21
ENDBRANCH  14  15
ENDBRANCH   9  14
ENDBRANCH   5   8
ENDBRANCH   3   4
ENDBRANCH   2   3
ENDBRANCH   1   2
BRANCH   1  23
ATOM     23  C   UNL A   1      37.275  21.717  24.556  1.00  0.00     0.002 C 
BRANCH  23  24
ATOM     24  C   UNL A   1      38.077  20.483  24.978  1.00  0.00     0.021 C 
BRANCH  24  25
ATOM     25  C   UNL A   1      39.092  20.751  26.084  1.00  0.00     0.116 C 
BRANCH  25  26
ATOM     26  N   UNL A   1      40.176  19.781  26.057  1.00  0.00    -0.352 N 
ATOM     27  C   UNL A   1      41.531  19.997  26.052  1.00  0.00     0.251 C 
ATOM     28  H   UNL A   1      39.897  18.837  26.042  1.00  0.00     0.163 HD
ATOM     29  O   UNL A   1      42.297  19.082  25.764  1.00  0.00    -0.269 OA
BRANCH  27  30
ATOM     30  C   UNL A   1      42.058  21.337  26.384  1.00  0.00     0.039 A 
ATOM     31  C   UNL A   1      42.328  21.652  27.717  1.00  0.00     0.014 A 
ATOM     32  C   UNL A   1      42.274  22.283  25.378  1.00  0.00     0.014 A 
ATOM     33  C   UNL A   1      42.868  22.899  28.033  1.00  0.00     0.010 A 
ATOM     34  C   UNL A   1      42.884  23.495  25.686  1.00  0.00     0.010 A 
ATOM     35  C   UNL A   1      43.181  23.818  27.019  1.00  0.00    -0.014 A 
BRANCH  35  36
ATOM     36  C   UNL A   1      43.811  25.127  27.330  1.00  0.00     0.031 A 
ATOM     37  C   UNL A   1      42.972  26.259  27.863  1.00  0.00     0.074 A 
ATOM     38  C   UNL A   1      45.125  25.308  27.093  1.00  0.00     0.049 A 
ATOM     39  N   UNL A   1      43.326  27.490  28.130  1.00  0.00    -0.248 NA
ATOM     40  C   UNL A   1      41.547  25.979  28.108  1.00  0.00     0.031 C 
ATOM     41  C   UNL A   1      46.038  24.296  26.554  1.00  0.00     0.029 A 
ATOM     42  N   UNL A   1      45.925  26.410  27.272  1.00  0.00    -0.354 N 
ATOM     43  C   UNL A   1      42.173  28.126  28.576  1.00  0.00     0.074 A 
ATOM     44  C   UNL A   1      41.096  27.168  28.480  1.00  0.00     0.031 C 
ATOM     45  C   UNL A   1      47.275  24.815  26.476  1.00  0.00     0.029 A 
ATOM     46  C   UNL A   1      47.236  26.206  26.912  1.00  0.00     0.049 A 
ATOM     47  H   UNL A   1      45.589  27.265  27.626  1.00  0.00     0.167 HD
ATOM     48  C   UNL A   1      42.030  29.385  29.052  1.00  0.00     0.031 A 
ATOM     49  C   UNL A   1      48.287  27.050  26.919  1.00  0.00     0.031 A 
ATOM     50  C   UNL A   1      43.104  30.337  29.151  1.00  0.00     0.049 A 
ATOM     51  C   UNL A   1      48.085  28.464  27.400  1.00  0.00     0.074 A 
ATOM     52  C   UNL A   1      43.063  31.633  29.635  1.00  0.00     0.029 A 
ATOM     53  N   UNL A   1      44.414  30.096  28.767  1.00  0.00    -0.354 N 
ATOM     54  N   UNL A   1      46.994  29.031  27.857  1.00  0.00    -0.248 NA
ATOM     55  C   UNL A   1      49.258  29.348  27.375  1.00  0.00     0.031 C 
ATOM     56  C   UNL A   1      44.338  32.192  29.498  1.00  0.00     0.029 A 
ATOM     57  C   UNL A   1      45.187  31.222  28.989  1.00  0.00     0.049 A 
ATOM     58  H   UNL A   1      44.746  29.248  28.391  1.00  0.00     0.167 HD
ATOM     59  C   UNL A   1      47.362  30.324  28.213  1.00  0.00     0.074 A 
ATOM     60  C   UNL A   1      48.777  30.449  27.934  1.00  0.00     0.031 C 
ATOM     61  C   UNL A   1      46.598  31.322  28.724  1.00  0.00     0.031 A 
BRANCH  48  62
ATOM     62  C   UNL A   1      40.663  29.805  29.527  1.00  0.00    -0.014 A 
ATOM     63  C   UNL A   1      39.645  30.105  28.604  1.00  0.00     0.010 A 
ATOM     64  C   UNL A   1      40.369  29.830  30.902  1.00  0.00     0.010 A 
ATOM     65  C   UNL A   1      38.364  30.440  29.047  1.00  0.00     0.020 A 
ATOM     66  C   UNL A   1      39.080  30.137  31.349  1.00  0.00     0.020 A 
ATOM     67  C   UNL A   1      38.088  30.449  30.417  1.00  0.00     0.054 A 
BRANCH  67  68
ATOM     68  S   UNL A   1      36.399  30.833  30.957  1.00  0.00     0.124 S 
ATOM     69  O   UNL A   1      36.124  29.741  31.886  1.00  0.00    -0.237 OA
ATOM     70  O   UNL A   1      36.553  32.152  31.566  1.00  0.00    -0.237 OA
ATOM     71  O   UNL A   1      35.624  30.807  29.718  1.00  0.00    -0.744 OA
ENDBRANCH  67  68
ENDBRANCH  48  62
BRANCH  49  72
ATOM     72  C   UNL A   1      49.627  26.599  26.450  1.00  0.00    -0.014 A 
ATOM     73  C   UNL A   1      50.068  26.890  25.146  1.00  0.00     0.010 A 
ATOM     74  C   UNL A   1      50.452  25.827  27.290  1.00  0.00     0.010 A 
ATOM     75  C   UNL A   1      51.278  26.373  24.673  1.00  0.00     0.020 A 
ATOM     76  C   UNL A   1      51.679  25.340  26.834  1.00  0.00     0.020 A 
ATOM     77  C   UNL A   1      52.072  25.595  25.519  1.00  0.00     0.054 A 
BRANCH  77  78
ATOM     78  S   UNL A   1      53.632  24.920  24.883  1.00  0.00     0.124 S 
ATOM     79  O   UNL A   1      53.597  25.346  23.488  1.00  0.00    -0.237 OA
ATOM     80  O   UNL A   1      54.627  25.580  25.724  1.00  0.00    -0.237 OA
ATOM     81  O   UNL A   1      53.496  23.482  25.104  1.00  0.00    -0.744 OA
ENDBRANCH  77  78
ENDBRANCH  49  72
BRANCH  61  82
ATOM     82  C   UNL A   1      47.286  32.617  29.069  1.00  0.00    -0.014 A 
ATOM     83  C   UNL A   1      47.370  33.673  28.144  1.00  0.00     0.010 A 
ATOM     84  C   UNL A   1      47.810  32.796  30.363  1.00  0.00     0.010 A 
ATOM     85  C   UNL A   1      47.997  34.871  28.496  1.00  0.00     0.020 A 
ATOM     86  C   UNL A   1      48.407  34.004  30.729  1.00  0.00     0.020 A 
ATOM     87  C   UNL A   1      48.509  35.029  29.786  1.00  0.00     0.054 A 
BRANCH  87  88
ATOM     88  S   UNL A   1      49.275  36.612  30.231  1.00  0.00     0.124 S 
ATOM     89  O   UNL A   1      48.368  37.108  31.263  1.00  0.00    -0.237 OA
ATOM     90  O   UNL A   1      50.598  36.206  30.699  1.00  0.00    -0.237 OA
ATOM     91  O   UNL A   1      49.267  37.366  28.979  1.00  0.00    -0.744 OA
ENDBRANCH  87  88
ENDBRANCH  61  82
ENDBRANCH  35  36
ENDBRANCH  27  30
ENDBRANCH  25  26
ENDBRANCH  24  25
ENDBRANCH  23  24
ENDBRANCH   1  23
TORSDOF 19
ENDMDL
MODEL 2
REMARK VINA RESULT:     -10.1      5.726      8.516
REMARK SMILES CC[C@@H]1CC(=O)N(Cc2ccc(C(=O)NCCCCCCNC(=O)c3ccc(-c4c5nc(c(-c6ccc(S(=O)(=O)[O-])cc6)c6ccc([nH]6)c(-c6ccc(S(=O)(=O)[O-])cc6)c6nc(c(-c7ccc(S(=O)(=O)[O-])cc7)c7ccc4[nH]7)C=C6)C=C5)cc3)cn2)C1
REMARK SMILES IDX 18 1 17 2 16 3 15 4 13 5 14 6 12 8 9 9 10 10 86 11 11 12
REMARK SMILES IDX 85 13 8 14 7 15 3 16 4 17 87 18 5 19 6 20 2 21 1 22 19 23
REMARK SMILES IDX 20 24 21 25 22 26 23 27 24 29 25 30 26 31 84 32 27 33 83 34
REMARK SMILES IDX 28 35 29 36 30 37 77 38 31 39 82 40 76 41 78 42 32 43 81 44
REMARK SMILES IDX 75 45 74 46 33 48 63 49 44 50 62 51 45 52 48 53 61 54 79 55
REMARK SMILES IDX 46 56 47 57 60 59 80 60 49 61 34 62 35 63 43 64 36 65 42 66
REMARK SMILES IDX 37 67 38 68 39 69 40 70 41 71 64 72 65 73 73 74 66 75 72 76
REMARK SMILES IDX 67 77 68 78 69 79 70 80 71 81 50 82 51 83 59 84 52 85 58 86
REMARK SMILES IDX 53 87 54 88 55 89 56 90 57 91
REMARK H PARENT 15 7 22 28 78 47 48 58
REMARK Flexibility Score: inf
ROOT
ATOM      1  C   UNL A   1      40.133  22.108  27.130  1.00  0.00     0.002 C 
ENDROOT
BRANCH   1   2
ATOM      2  C   UNL A   1      39.381  23.400  26.785  1.00  0.00     0.021 C 
BRANCH   2   3
ATOM      3  C   UNL A   1      38.067  23.154  26.042  1.00  0.00     0.116 C 
BRANCH   3   4
ATOM      4  N   UNL A   1      38.023  21.793  25.546  1.00  0.00    -0.352 N 
ATOM      5  C   UNL A   1      37.002  21.016  25.067  1.00  0.00     0.252 C 
ATOM      6  O   UNL A   1      37.277  19.874  24.695  1.00  0.00    -0.269 OA
ATOM      7  H   UNL A   1      38.897  21.339  25.555  1.00  0.00     0.163 HD
BRANCH   5   8
ATOM      8  C   UNL A   1      35.609  21.497  24.926  1.00  0.00     0.058 A 
ATOM      9  C   UNL A   1      32.916  22.176  24.882  1.00  0.00     0.060 A 
ATOM     10  C   UNL A   1      33.753  22.602  23.850  1.00  0.00     0.026 A 
ATOM     11  N   UNL A   1      33.397  21.485  25.943  1.00  0.00    -0.259 NA
ATOM     12  C   UNL A   1      35.110  22.273  23.884  1.00  0.00     0.017 A 
ATOM     13  C   UNL A   1      34.720  21.170  25.944  1.00  0.00     0.125 A 
BRANCH   9  14
ATOM     14  C   UNL A   1      31.432  22.483  24.855  1.00  0.00     0.175 C 
BRANCH  14  15
ATOM     15  N   UNL A   1      31.113  23.901  24.964  1.00  0.00    -0.336 N 
ATOM     16  C   UNL A   1      30.957  26.155  24.347  1.00  0.00     0.017 C 
ATOM     17  C   UNL A   1      30.610  26.014  25.833  1.00  0.00     0.105 C 
ATOM     18  C   UNL A   1      30.791  24.729  23.831  1.00  0.00     0.124 C 
ATOM     19  C   UNL A   1      31.027  24.595  26.161  1.00  0.00     0.223 C 
ATOM     20  O   UNL A   1      31.225  24.161  27.280  1.00  0.00    -0.275 OA
BRANCH  16  21
ATOM     21  C   UNL A   1      32.354  26.736  24.039  1.00  0.00     0.002 C 
ATOM     22  C   UNL A   1      33.134  26.110  22.892  1.00  0.00     0.004 C 
ENDBRANCH  16  21
ENDBRANCH  14  15
ENDBRANCH   9  14
ENDBRANCH   5   8
ENDBRANCH   3   4
ENDBRANCH   2   3
ENDBRANCH   1   2
BRANCH   1  23
ATOM     23  C   UNL A   1      41.540  22.003  26.529  1.00  0.00     0.002 C 
BRANCH  23  24
ATOM     24  C   UNL A   1      42.680  22.057  27.550  1.00  0.00     0.021 C 
BRANCH  24  25
ATOM     25  C   UNL A   1      43.464  23.365  27.538  1.00  0.00     0.116 C 
BRANCH  25  26
ATOM     26  N   UNL A   1      43.151  24.161  26.361  1.00  0.00    -0.352 N 
ATOM     27  C   UNL A   1      42.478  25.354  26.277  1.00  0.00     0.251 C 
ATOM     28  H   UNL A   1      43.468  23.792  25.506  1.00  0.00     0.163 HD
ATOM     29  O   UNL A   1      42.075  25.756  25.190  1.00  0.00    -0.269 OA
BRANCH  27  30
ATOM     30  C   UNL A   1      42.236  26.143  27.502  1.00  0.00     0.039 A 
ATOM     31  C   UNL A   1      43.231  27.007  27.965  1.00  0.00     0.014 A 
ATOM     32  C   UNL A   1      41.029  26.021  28.197  1.00  0.00     0.014 A 
ATOM     33  C   UNL A   1      42.992  27.789  29.096  1.00  0.00     0.010 A 
ATOM     34  C   UNL A   1      40.764  26.857  29.278  1.00  0.00     0.010 A 
ATOM     35  C   UNL A   1      41.746  27.745  29.742  1.00  0.00    -0.014 A 
BRANCH  35  36
ATOM     36  C   UNL A   1      41.452  28.613  30.911  1.00  0.00     0.031 A 
ATOM     37  C   UNL A   1      40.334  29.619  30.839  1.00  0.00     0.074 A 
ATOM     38  C   UNL A   1      42.218  28.526  32.017  1.00  0.00     0.049 A 
ATOM     39  N   UNL A   1      39.970  30.508  31.727  1.00  0.00    -0.248 NA
ATOM     40  C   UNL A   1      39.535  29.645  29.602  1.00  0.00     0.031 C 
ATOM     41  C   UNL A   1      43.347  27.608  32.198  1.00  0.00     0.029 A 
ATOM     42  N   UNL A   1      42.166  29.219  33.200  1.00  0.00    -0.354 N 
ATOM     43  C   UNL A   1      38.901  31.193  31.160  1.00  0.00     0.074 A 
ATOM     44  C   UNL A   1      38.718  30.664  29.827  1.00  0.00     0.031 C 
ATOM     45  C   UNL A   1      43.858  27.776  33.429  1.00  0.00     0.029 A 
ATOM     46  C   UNL A   1      43.129  28.842  34.106  1.00  0.00     0.049 A 
ATOM     47  H   UNL A   1      41.500  29.922  33.382  1.00  0.00     0.167 HD
ATOM     48  C   UNL A   1      38.121  32.154  31.710  1.00  0.00     0.031 A 
ATOM     49  C   UNL A   1      43.403  29.312  35.340  1.00  0.00     0.031 A 
ATOM     50  C   UNL A   1      38.301  32.676  33.037  1.00  0.00     0.049 A 
ATOM     51  C   UNL A   1      42.554  30.422  35.903  1.00  0.00     0.074 A 
ATOM     52  C   UNL A   1      37.553  33.639  33.692  1.00  0.00     0.029 A 
ATOM     53  N   UNL A   1      39.293  32.274  33.919  1.00  0.00    -0.354 N 
ATOM     54  N   UNL A   1      41.521  31.025  35.364  1.00  0.00    -0.248 NA
ATOM     55  C   UNL A   1      42.902  30.907  37.246  1.00  0.00     0.031 C 
ATOM     56  C   UNL A   1      38.123  33.856  34.950  1.00  0.00     0.029 A 
ATOM     57  C   UNL A   1      39.186  32.980  35.105  1.00  0.00     0.049 A 
ATOM     58  H   UNL A   1      39.974  31.588  33.729  1.00  0.00     0.167 HD
ATOM     59  C   UNL A   1      41.072  31.930  36.320  1.00  0.00     0.074 A 
ATOM     60  C   UNL A   1      41.934  31.783  37.474  1.00  0.00     0.031 C 
ATOM     61  C   UNL A   1      40.040  32.807  36.250  1.00  0.00     0.031 A 
BRANCH  48  62
ATOM     62  C   UNL A   1      36.982  32.692  30.883  1.00  0.00    -0.014 A 
ATOM     63  C   UNL A   1      35.677  32.193  31.052  1.00  0.00     0.010 A 
ATOM     64  C   UNL A   1      37.198  33.753  29.986  1.00  0.00     0.010 A 
ATOM     65  C   UNL A   1      34.614  32.732  30.324  1.00  0.00     0.020 A 
ATOM     66  C   UNL A   1      36.131  34.314  29.277  1.00  0.00     0.020 A 
ATOM     67  C   UNL A   1      34.847  33.792  29.445  1.00  0.00     0.054 A 
BRANCH  67  68
ATOM     68  S   UNL A   1      33.435  34.507  28.558  1.00  0.00     0.124 S 
ATOM     69  O   UNL A   1      34.072  35.568  27.782  1.00  0.00    -0.237 OA
ATOM     70  O   UNL A   1      32.941  33.372  27.782  1.00  0.00    -0.237 OA
ATOM     71  O   UNL A   1      32.548  34.963  29.626  1.00  0.00    -0.744 OA
ENDBRANCH  67  68
ENDBRANCH  48  62
BRANCH  49  72
ATOM     72  C   UNL A   1      44.532  28.750  36.133  1.00  0.00    -0.014 A 
ATOM     73  C   UNL A   1      45.831  29.275  36.005  1.00  0.00     0.010 A 
ATOM     74  C   UNL A   1      44.325  27.649  36.985  1.00  0.00     0.010 A 
ATOM     75  C   UNL A   1      46.908  28.677  36.667  1.00  0.00     0.020 A 
ATOM     76  C   UNL A   1      45.392  27.072  37.678  1.00  0.00     0.020 A 
ATOM     77  C   UNL A   1      46.681  27.574  37.493  1.00  0.00     0.054 A 
BRANCH  77  78
ATOM     78  S   UNL A   1      48.093  26.803  38.333  1.00  0.00     0.124 S 
ATOM     79  O   UNL A   1      47.619  26.728  39.711  1.00  0.00    -0.237 OA
ATOM     80  O   UNL A   1      48.217  25.527  37.634  1.00  0.00    -0.237 OA
ATOM     81  O   UNL A   1      49.185  27.745  38.096  1.00  0.00    -0.744 OA
ENDBRANCH  77  78
ENDBRANCH  49  72
BRANCH  61  82
ATOM     82  C   UNL A   1      39.748  33.635  37.474  1.00  0.00    -0.014 A 
ATOM     83  C   UNL A   1      39.071  33.094  38.582  1.00  0.00     0.010 A 
ATOM     84  C   UNL A   1      40.210  34.963  37.535  1.00  0.00     0.010 A 
ATOM     85  C   UNL A   1      38.830  33.878  39.713  1.00  0.00     0.020 A 
ATOM     86  C   UNL A   1      40.000  35.739  38.677  1.00  0.00     0.020 A 
ATOM     87  C   UNL A   1      39.297  35.194  39.754  1.00  0.00     0.054 A 
BRANCH  87  88
ATOM     88  S   UNL A   1      39.012  36.173  41.254  1.00  0.00     0.124 S 
ATOM     89  O   UNL A   1      40.233  35.924  42.015  1.00  0.00    -0.237 OA
ATOM     90  O   UNL A   1      38.866  37.528  40.727  1.00  0.00    -0.237 OA
ATOM     91  O   UNL A   1      37.795  35.595  41.820  1.00  0.00    -0.744 OA
ENDBRANCH  87  88
ENDBRANCH  61  82
ENDBRANCH  35  36
ENDBRANCH  27  30
ENDBRANCH  25  26
ENDBRANCH  24  25
ENDBRANCH  23  24
ENDBRANCH   1  23
TORSDOF 19
ENDMDL
MODEL 3
REMARK VINA RESULT:      -9.9      2.204      8.899
REMARK SMILES CC[C@@H]1CC(=O)N(Cc2ccc(C(=O)NCCCCCCNC(=O)c3ccc(-c4c5nc(c(-c6ccc(S(=O)(=O)[O-])cc6)c6ccc([nH]6)c(-c6ccc(S(=O)(=O)[O-])cc6)c6nc(c(-c7ccc(S(=O)(=O)[O-])cc7)c7ccc4[nH]7)C=C6)C=C5)cc3)cn2)C1
REMARK SMILES IDX 18 1 17 2 16 3 15 4 13 5 14 6 12 8 9 9 10 10 86 11 11 12
REMARK SMILES IDX 85 13 8 14 7 15 3 16 4 17 87 18 5 19 6 20 2 21 1 22 19 23
REMARK SMILES IDX 20 24 21 25 22 26 23 27 24 29 25 30 26 31 84 32 27 33 83 34
REMARK SMILES IDX 28 35 29 36 30 37 77 38 31 39 82 40 76 41 78 42 32 43 81 44
REMARK SMILES IDX 75 45 74 46 33 48 63 49 44 50 62 51 45 52 48 53 61 54 79 55
REMARK SMILES IDX 46 56 47 57 60 59 80 60 49 61 34 62 35 63 43 64 36 65 42 66
REMARK SMILES IDX 37 67 38 68 39 69 40 70 41 71 64 72 65 73 73 74 66 75 72 76
REMARK SMILES IDX 67 77 68 78 69 79 70 80 71 81 50 82 51 83 59 84 52 85 58 86
REMARK SMILES IDX 53 87 54 88 55 89 56 90 57 91
REMARK H PARENT 15 7 22 28 78 47 48 58
REMARK Flexibility Score: inf
ROOT
ATOM      1  C   UNL A   1      34.725  30.271  27.767  1.00  0.00     0.002 C 
ENDROOT
BRANCH   1   2
ATOM      2  C   UNL A   1      33.567  29.741  26.910  1.00  0.00     0.021 C 
BRANCH   2   3
ATOM      3  C   UNL A   1      33.998  29.329  25.501  1.00  0.00     0.116 C 
BRANCH   3   4
ATOM      4  N   UNL A   1      32.831  29.069  24.680  1.00  0.00    -0.352 N 
ATOM      5  C   UNL A   1      32.396  27.950  24.022  1.00  0.00     0.252 C 
ATOM      6  O   UNL A   1      31.334  28.026  23.402  1.00  0.00    -0.269 OA
ATOM      7  H   UNL A   1      32.237  29.847  24.577  1.00  0.00     0.163 HD
BRANCH   5   8
ATOM      8  C   UNL A   1      33.106  26.651  24.063  1.00  0.00     0.058 A 
ATOM      9  C   UNL A   1      34.347  24.177  23.832  1.00  0.00     0.060 A 
ATOM     10  C   UNL A   1      34.108  24.715  25.098  1.00  0.00     0.026 A 
ATOM     11  N   UNL A   1      34.040  24.861  22.704  1.00  0.00    -0.259 NA
ATOM     12  C   UNL A   1      33.499  25.966  25.210  1.00  0.00     0.017 A 
ATOM     13  C   UNL A   1      33.439  26.071  22.844  1.00  0.00     0.125 A 
BRANCH   9  14
ATOM     14  C   UNL A   1      34.970  22.804  23.679  1.00  0.00     0.175 C 
BRANCH  14  15
ATOM     15  N   UNL A   1      34.122  21.708  24.129  1.00  0.00    -0.336 N 
ATOM     16  C   UNL A   1      33.538  19.668  25.120  1.00  0.00     0.017 C 
ATOM     17  C   UNL A   1      32.333  20.216  24.348  1.00  0.00     0.105 C 
ATOM     18  C   UNL A   1      34.416  20.904  25.287  1.00  0.00     0.124 C 
ATOM     19  C   UNL A   1      32.919  21.353  23.537  1.00  0.00     0.223 C 
ATOM     20  O   UNL A   1      32.402  21.859  22.560  1.00  0.00    -0.275 OA
BRANCH  16  21
ATOM     21  C   UNL A   1      34.287  18.497  24.445  1.00  0.00     0.002 C 
ATOM     22  C   UNL A   1      33.494  17.227  24.169  1.00  0.00     0.004 C 
ENDBRANCH  16  21
ENDBRANCH  14  15
ENDBRANCH   9  14
ENDBRANCH   5   8
ENDBRANCH   3   4
ENDBRANCH   2   3
ENDBRANCH   1   2
BRANCH   1  23
ATOM     23  C   UNL A   1      34.572  31.727  28.223  1.00  0.00     0.002 C 
BRANCH  23  24
ATOM     24  C   UNL A   1      35.838  32.577  28.087  1.00  0.00     0.021 C 
BRANCH  24  25
ATOM     25  C   UNL A   1      36.487  32.941  29.419  1.00  0.00     0.116 C 
BRANCH  25  26
ATOM     26  N   UNL A   1      36.122  31.997  30.463  1.00  0.00    -0.352 N 
ATOM     27  C   UNL A   1      36.718  30.809  30.803  1.00  0.00     0.251 C 
ATOM     28  H   UNL A   1      35.338  32.247  31.003  1.00  0.00     0.163 HD
ATOM     29  O   UNL A   1      36.132  30.013  31.531  1.00  0.00    -0.269 OA
BRANCH  27  30
ATOM     30  C   UNL A   1      38.063  30.492  30.281  1.00  0.00     0.039 A 
ATOM     31  C   UNL A   1      39.185  30.809  31.048  1.00  0.00     0.014 A 
ATOM     32  C   UNL A   1      38.213  29.889  29.028  1.00  0.00     0.014 A 
ATOM     33  C   UNL A   1      40.457  30.472  30.581  1.00  0.00     0.010 A 
ATOM     34  C   UNL A   1      39.474  29.485  28.600  1.00  0.00     0.010 A 
ATOM     35  C   UNL A   1      40.610  29.779  29.369  1.00  0.00    -0.014 A 
BRANCH  35  36
ATOM     36  C   UNL A   1      41.950  29.359  28.885  1.00  0.00     0.031 A 
ATOM     37  C   UNL A   1      43.060  30.369  28.771  1.00  0.00     0.074 A 
ATOM     38  C   UNL A   1      42.152  28.081  28.507  1.00  0.00     0.049 A 
ATOM     39  N   UNL A   1      44.274  30.209  28.308  1.00  0.00    -0.248 NA
ATOM     40  C   UNL A   1      42.765  31.742  29.216  1.00  0.00     0.031 C 
ATOM     41  C   UNL A   1      41.148  27.014  28.546  1.00  0.00     0.029 A 
ATOM     42  N   UNL A   1      43.272  27.459  28.013  1.00  0.00    -0.354 N 
ATOM     43  C   UNL A   1      44.884  31.455  28.410  1.00  0.00     0.074 A 
ATOM     44  C   UNL A   1      43.889  32.374  28.914  1.00  0.00     0.031 C 
ATOM     45  C   UNL A   1      41.706  25.867  28.123  1.00  0.00     0.029 A 
ATOM     46  C   UNL A   1      43.089  26.124  27.739  1.00  0.00     0.049 A 
ATOM     47  H   UNL A   1      44.126  27.927  27.868  1.00  0.00     0.167 HD
ATOM     48  C   UNL A   1      46.165  31.795  28.137  1.00  0.00     0.031 A 
ATOM     49  C   UNL A   1      43.937  25.211  27.224  1.00  0.00     0.031 A 
ATOM     50  C   UNL A   1      47.155  30.878  27.640  1.00  0.00     0.049 A 
ATOM     51  C   UNL A   1      45.341  25.634  26.876  1.00  0.00     0.074 A 
ATOM     52  C   UNL A   1      48.486  31.124  27.348  1.00  0.00     0.029 A 
ATOM     53  N   UNL A   1      46.928  29.538  27.368  1.00  0.00    -0.354 N 
ATOM     54  N   UNL A   1      45.908  26.808  27.021  1.00  0.00    -0.248 NA
ATOM     55  C   UNL A   1      46.221  24.605  26.306  1.00  0.00     0.031 C 
ATOM     56  C   UNL A   1      49.050  29.944  26.852  1.00  0.00     0.029 A 
ATOM     57  C   UNL A   1      48.088  28.947  26.898  1.00  0.00     0.049 A 
ATOM     58  H   UNL A   1      46.067  29.075  27.490  1.00  0.00     0.167 HD
ATOM     59  C   UNL A   1      47.223  26.645  26.598  1.00  0.00     0.074 A 
ATOM     60  C   UNL A   1      47.370  25.258  26.209  1.00  0.00     0.031 C 
ATOM     61  C   UNL A   1      48.221  27.562  26.534  1.00  0.00     0.031 A 
BRANCH  48  62
ATOM     62  C   UNL A   1      46.583  33.220  28.393  1.00  0.00    -0.014 A 
ATOM     63  C   UNL A   1      47.133  33.594  29.633  1.00  0.00     0.010 A 
ATOM     64  C   UNL A   1      46.495  34.178  27.366  1.00  0.00     0.010 A 
ATOM     65  C   UNL A   1      47.569  34.903  29.847  1.00  0.00     0.020 A 
ATOM     66  C   UNL A   1      46.958  35.482  27.568  1.00  0.00     0.020 A 
ATOM     67  C   UNL A   1      47.484  35.838  28.812  1.00  0.00     0.054 A 
BRANCH  67  68
ATOM     68  S   UNL A   1      48.112  37.514  29.106  1.00  0.00     0.124 S 
ATOM     69  O   UNL A   1      48.683  37.391  30.445  1.00  0.00    -0.237 OA
ATOM     70  O   UNL A   1      49.079  37.684  28.025  1.00  0.00    -0.237 OA
ATOM     71  O   UNL A   1      46.920  38.354  29.012  1.00  0.00    -0.744 OA
ENDBRANCH  67  68
ENDBRANCH  48  62
BRANCH  49  72
ATOM     72  C   UNL A   1      43.493  23.808  26.993  1.00  0.00    -0.014 A 
ATOM     73  C   UNL A   1      43.155  23.365  25.701  1.00  0.00     0.010 A 
ATOM     74  C   UNL A   1      43.355  22.918  28.074  1.00  0.00     0.010 A 
ATOM     75  C   UNL A   1      42.636  22.082  25.503  1.00  0.00     0.020 A 
ATOM     76  C   UNL A   1      42.873  21.622  27.875  1.00  0.00     0.020 A 
ATOM     77  C   UNL A   1      42.492  21.222  26.594  1.00  0.00     0.054 A 
BRANCH  77  78
ATOM     78  S   UNL A   1      41.803  19.565  26.319  1.00  0.00     0.124 S 
ATOM     79  O   UNL A   1      42.467  19.165  25.083  1.00  0.00    -0.237 OA
ATOM     80  O   UNL A   1      42.215  18.849  27.523  1.00  0.00    -0.237 OA
ATOM     81  O   UNL A   1      40.366  19.809  26.208  1.00  0.00    -0.744 OA
ENDBRANCH  77  78
ENDBRANCH  49  72
BRANCH  61  82
ATOM     82  C   UNL A   1      49.576  27.082  26.081  1.00  0.00    -0.014 A 
ATOM     83  C   UNL A   1      50.436  26.387  26.950  1.00  0.00     0.010 A 
ATOM     84  C   UNL A   1      49.968  27.286  24.745  1.00  0.00     0.010 A 
ATOM     85  C   UNL A   1      51.679  25.936  26.499  1.00  0.00     0.020 A 
ATOM     86  C   UNL A   1      51.197  26.808  24.282  1.00  0.00     0.020 A 
ATOM     87  C   UNL A   1      52.050  26.148  25.168  1.00  0.00     0.054 A 
BRANCH  87  88
ATOM     88  S   UNL A   1      53.649  25.510  24.599  1.00  0.00     0.124 S 
ATOM     89  O   UNL A   1      54.590  26.398  25.276  1.00  0.00    -0.237 OA
ATOM     90  O   UNL A   1      53.632  24.129  25.079  1.00  0.00    -0.237 OA
ATOM     91  O   UNL A   1      53.586  25.659  23.146  1.00  0.00    -0.744 OA
ENDBRANCH  87  88
ENDBRANCH  61  82
ENDBRANCH  35  36
ENDBRANCH  27  30
ENDBRANCH  25  26
ENDBRANCH  24  25
ENDBRANCH  23  24
ENDBRANCH   1  23
TORSDOF 19
ENDMDL
