MODEL 1
REMARK VINA RESULT:     -12.2      0.000      0.000
REMARK SMILES C[C@H]1CCC[C@@H]1n1c(SCC(=O)NCCCCCCNC(=O)c2ccc(-c3c4nc(c(-c5ccc(S(=O)(=O)[O-])cc5)c5ccc([nH]5)c(-c5ccc(S(=O)(=O)[O-])cc5)c5nc(c(-c6ccc(S(=O)(=O)[O-])cc6)c6ccc3[nH]6)C=C5)C=C4)cc2)nc2cnccc21
REMARK SMILES IDX 16 1 15 2 14 3 13 4 11 5 12 6 10 8 9 9 8 10 7 11 89 12 83 13
REMARK SMILES IDX 84 14 88 15 85 16 87 17 86 18 6 19 1 20 2 21 3 22 4 23 5 24
REMARK SMILES IDX 17 25 18 26 19 27 20 28 21 29 22 31 23 32 24 33 82 34 25 35
REMARK SMILES IDX 81 36 26 37 27 38 28 39 75 40 29 41 80 42 74 43 76 44 30 45
REMARK SMILES IDX 79 46 73 47 72 48 31 50 61 51 42 52 60 53 43 54 46 55 59 56
REMARK SMILES IDX 77 57 44 58 45 59 58 61 78 62 47 63 32 64 33 65 41 66 34 67
REMARK SMILES IDX 40 68 35 69 36 70 37 71 38 72 39 73 62 74 63 75 71 76 64 77
REMARK SMILES IDX 70 78 65 79 66 80 67 81 68 82 69 83 48 84 49 85 57 86 50 87
REMARK SMILES IDX 56 88 51 89 52 90 53 91 54 92 55 93
REMARK H PARENT 13 7 20 30 76 49 46 60
REMARK Flexibility Score: inf
ROOT
ATOM      1  C   UNL A   1      32.126  28.905  27.233  1.00  0.00     0.002 C 
ENDROOT
BRANCH   1   2
ATOM      2  C   UNL A   1      31.434  28.387  25.964  1.00  0.00     0.021 C 
BRANCH   2   3
ATOM      3  C   UNL A   1      31.830  26.980  25.539  1.00  0.00     0.116 C 
BRANCH   3   4
ATOM      4  N   UNL A   1      31.356  25.994  26.477  1.00  0.00    -0.355 N 
ATOM      5  C   UNL A   1      31.102  24.684  26.273  1.00  0.00     0.230 C 
ATOM      6  O   UNL A   1      31.077  23.970  27.283  1.00  0.00    -0.274 OA
ATOM      7  H   UNL A   1      31.196  26.321  27.391  1.00  0.00     0.163 HD
BRANCH   5   8
ATOM      8  C   UNL A   1      30.994  24.068  24.902  1.00  0.00     0.178 C 
BRANCH   8   9
ATOM      9  S   UNL A   1      32.344  23.291  24.036  1.00  0.00    -0.078 SA
BRANCH   9  10
ATOM     10  C   UNL A   1      32.666  21.595  24.185  1.00  0.00     0.169 A 
ATOM     11  N   UNL A   1      33.768  20.903  24.707  1.00  0.00    -0.315 N 
ATOM     12  C   UNL A   1      33.622  19.571  24.297  1.00  0.00     0.072 A 
ATOM     13  N   UNL A   1      31.993  20.822  23.352  1.00  0.00    -0.221 NA
ATOM     14  C   UNL A   1      32.608  19.606  23.344  1.00  0.00     0.108 A 
ATOM     15  C   UNL A   1      34.271  18.357  24.564  1.00  0.00     0.049 A 
ATOM     16  C   UNL A   1      32.361  18.481  22.544  1.00  0.00     0.141 A 
ATOM     17  C   UNL A   1      33.955  17.288  23.734  1.00  0.00     0.113 A 
ATOM     18  N   UNL A   1      33.060  17.331  22.728  1.00  0.00    -0.262 NA
BRANCH  11  19
ATOM     19  C   UNL A   1      34.990  21.491  25.266  1.00  0.00     0.093 C 
ATOM     20  C   UNL A   1      34.488  22.594  27.567  1.00  0.00     0.010 C 
ATOM     21  C   UNL A   1      34.905  22.788  26.111  1.00  0.00     0.009 C 
ATOM     22  C   UNL A   1      36.319  23.373  26.044  1.00  0.00     0.005 C 
ATOM     23  C   UNL A   1      36.737  23.145  24.614  1.00  0.00     0.002 C 
ATOM     24  C   UNL A   1      35.966  21.912  24.175  1.00  0.00     0.026 C 
ENDBRANCH  11  19
ENDBRANCH   9  10
ENDBRANCH   8   9
ENDBRANCH   5   8
ENDBRANCH   3   4
ENDBRANCH   2   3
ENDBRANCH   1   2
BRANCH   1  25
ATOM     25  C   UNL A   1      32.823  30.265  27.115  1.00  0.00     0.002 C 
BRANCH  25  26
ATOM     26  C   UNL A   1      34.294  30.297  27.546  1.00  0.00     0.021 C 
BRANCH  26  27
ATOM     27  C   UNL A   1      34.814  31.682  27.931  1.00  0.00     0.116 C 
BRANCH  27  28
ATOM     28  N   UNL A   1      34.572  32.022  29.316  1.00  0.00    -0.352 N 
ATOM     29  C   UNL A   1      35.295  31.910  30.468  1.00  0.00     0.251 C 
ATOM     30  H   UNL A   1      33.686  32.427  29.460  1.00  0.00     0.163 HD
ATOM     31  O   UNL A   1      34.800  32.440  31.468  1.00  0.00    -0.269 OA
BRANCH  29  32
ATOM     32  C   UNL A   1      36.572  31.157  30.609  1.00  0.00     0.039 A 
ATOM     33  C   UNL A   1      37.854  31.699  30.520  1.00  0.00     0.014 A 
ATOM     34  C   UNL A   1      36.442  29.763  30.760  1.00  0.00     0.014 A 
ATOM     35  C   UNL A   1      38.967  30.867  30.460  1.00  0.00     0.010 A 
ATOM     36  C   UNL A   1      37.552  28.928  30.721  1.00  0.00     0.010 A 
ATOM     37  C   UNL A   1      38.808  29.482  30.504  1.00  0.00    -0.014 A 
BRANCH  37  38
ATOM     38  C   UNL A   1      39.999  28.661  30.321  1.00  0.00     0.031 A 
ATOM     39  C   UNL A   1      40.838  28.441  31.533  1.00  0.00     0.074 A 
ATOM     40  C   UNL A   1      40.316  28.082  29.147  1.00  0.00     0.049 A 
ATOM     41  N   UNL A   1      42.064  28.801  31.734  1.00  0.00    -0.248 NA
ATOM     42  C   UNL A   1      40.196  27.817  32.698  1.00  0.00     0.031 C 
ATOM     43  C   UNL A   1      39.505  27.965  27.931  1.00  0.00     0.029 A 
ATOM     44  N   UNL A   1      41.433  27.372  28.839  1.00  0.00    -0.354 N 
ATOM     45  C   UNL A   1      42.409  28.329  32.999  1.00  0.00     0.074 A 
ATOM     46  C   UNL A   1      41.191  27.823  33.586  1.00  0.00     0.031 C 
ATOM     47  C   UNL A   1      40.053  27.032  27.119  1.00  0.00     0.029 A 
ATOM     48  C   UNL A   1      41.326  26.617  27.682  1.00  0.00     0.049 A 
ATOM     49  H   UNL A   1      42.248  27.394  29.390  1.00  0.00     0.167 HD
ATOM     50  C   UNL A   1      43.698  28.256  33.437  1.00  0.00     0.031 A 
ATOM     51  C   UNL A   1      42.194  25.666  27.260  1.00  0.00     0.031 A 
ATOM     52  C   UNL A   1      44.588  29.052  32.638  1.00  0.00     0.049 A 
ATOM     53  C   UNL A   1      43.499  25.952  27.908  1.00  0.00     0.074 A 
ATOM     54  C   UNL A   1      44.721  30.404  32.397  1.00  0.00     0.029 A 
ATOM     55  N   UNL A   1      45.309  28.422  31.652  1.00  0.00    -0.354 N 
ATOM     56  N   UNL A   1      44.207  27.019  27.662  1.00  0.00    -0.248 NA
ATOM     57  C   UNL A   1      43.814  25.266  29.153  1.00  0.00     0.031 C 
ATOM     58  C   UNL A   1      45.080  30.496  31.022  1.00  0.00     0.029 A 
ATOM     59  C   UNL A   1      45.197  29.196  30.523  1.00  0.00     0.049 A 
ATOM     60  H   UNL A   1      45.809  27.579  31.738  1.00  0.00     0.167 HD
ATOM     61  C   UNL A   1      44.753  27.376  28.885  1.00  0.00     0.074 A 
ATOM     62  C   UNL A   1      44.553  26.209  29.743  1.00  0.00     0.031 C 
ATOM     63  C   UNL A   1      45.077  28.672  29.175  1.00  0.00     0.031 A 
BRANCH  50  64
ATOM     64  C   UNL A   1      44.198  27.254  34.444  1.00  0.00    -0.014 A 
ATOM     65  C   UNL A   1      43.743  25.921  34.478  1.00  0.00     0.010 A 
ATOM     66  C   UNL A   1      45.324  27.564  35.235  1.00  0.00     0.010 A 
ATOM     67  C   UNL A   1      44.356  24.947  35.266  1.00  0.00     0.020 A 
ATOM     68  C   UNL A   1      45.977  26.583  35.999  1.00  0.00     0.020 A 
ATOM     69  C   UNL A   1      45.483  25.280  36.011  1.00  0.00     0.054 A 
BRANCH  69  70
ATOM     70  S   UNL A   1      46.329  23.957  36.912  1.00  0.00     0.124 S 
ATOM     71  O   UNL A   1      45.271  23.469  37.792  1.00  0.00    -0.237 OA
ATOM     72  O   UNL A   1      46.724  23.051  35.837  1.00  0.00    -0.237 OA
ATOM     73  O   UNL A   1      47.429  24.646  37.580  1.00  0.00    -0.744 OA
ENDBRANCH  69  70
ENDBRANCH  50  64
BRANCH  51  74
ATOM     74  C   UNL A   1      41.822  24.308  26.784  1.00  0.00    -0.014 A 
ATOM     75  C   UNL A   1      40.967  23.501  27.565  1.00  0.00     0.010 A 
ATOM     76  C   UNL A   1      42.535  23.692  25.739  1.00  0.00     0.010 A 
ATOM     77  C   UNL A   1      40.888  22.120  27.365  1.00  0.00     0.020 A 
ATOM     78  C   UNL A   1      42.460  22.304  25.533  1.00  0.00     0.020 A 
ATOM     79  C   UNL A   1      41.664  21.524  26.374  1.00  0.00     0.054 A 
BRANCH  79  80
ATOM     80  S   UNL A   1      41.685  19.711  26.272  1.00  0.00     0.124 S 
ATOM     81  O   UNL A   1      42.063  19.337  27.636  1.00  0.00    -0.237 OA
ATOM     82  O   UNL A   1      40.300  19.402  25.905  1.00  0.00    -0.237 OA
ATOM     83  O   UNL A   1      42.674  19.428  25.248  1.00  0.00    -0.744 OA
ENDBRANCH  79  80
ENDBRANCH  51  74
BRANCH  63  84
ATOM     84  C   UNL A   1      45.022  29.712  28.073  1.00  0.00    -0.014 A 
ATOM     85  C   UNL A   1      46.234  30.290  27.653  1.00  0.00     0.010 A 
ATOM     86  C   UNL A   1      43.816  30.296  27.634  1.00  0.00     0.010 A 
ATOM     87  C   UNL A   1      46.247  31.448  26.871  1.00  0.00     0.020 A 
ATOM     88  C   UNL A   1      43.822  31.446  26.827  1.00  0.00     0.020 A 
ATOM     89  C   UNL A   1      45.040  32.032  26.479  1.00  0.00     0.054 A 
BRANCH  89  90
ATOM     90  S   UNL A   1      45.102  33.594  25.558  1.00  0.00     0.124 S 
ATOM     91  O   UNL A   1      44.506  33.224  24.277  1.00  0.00    -0.237 OA
ATOM     92  O   UNL A   1      44.295  34.490  26.384  1.00  0.00    -0.237 OA
ATOM     93  O   UNL A   1      46.526  33.920  25.506  1.00  0.00    -0.744 OA
ENDBRANCH  89  90
ENDBRANCH  63  84
ENDBRANCH  37  38
ENDBRANCH  29  32
ENDBRANCH  27  28
ENDBRANCH  26  27
ENDBRANCH  25  26
ENDBRANCH   1  25
TORSDOF 19
ENDMDL
MODEL 2
REMARK VINA RESULT:     -12.1      2.924      9.169
REMARK SMILES C[C@H]1CCC[C@@H]1n1c(SCC(=O)NCCCCCCNC(=O)c2ccc(-c3c4nc(c(-c5ccc(S(=O)(=O)[O-])cc5)c5ccc([nH]5)c(-c5ccc(S(=O)(=O)[O-])cc5)c5nc(c(-c6ccc(S(=O)(=O)[O-])cc6)c6ccc3[nH]6)C=C5)C=C4)cc2)nc2cnccc21
REMARK SMILES IDX 16 1 15 2 14 3 13 4 11 5 12 6 10 8 9 9 8 10 7 11 89 12 83 13
REMARK SMILES IDX 84 14 88 15 85 16 87 17 86 18 6 19 1 20 2 21 3 22 4 23 5 24
REMARK SMILES IDX 17 25 18 26 19 27 20 28 21 29 22 31 23 32 24 33 82 34 25 35
REMARK SMILES IDX 81 36 26 37 27 38 28 39 75 40 29 41 80 42 74 43 76 44 30 45
REMARK SMILES IDX 79 46 73 47 72 48 31 50 61 51 42 52 60 53 43 54 46 55 59 56
REMARK SMILES IDX 77 57 44 58 45 59 58 61 78 62 47 63 32 64 33 65 41 66 34 67
REMARK SMILES IDX 40 68 35 69 36 70 37 71 38 72 39 73 62 74 63 75 71 76 64 77
REMARK SMILES IDX 70 78 65 79 66 80 67 81 68 82 69 83 48 84 49 85 57 86 50 87
REMARK SMILES IDX 56 88 51 89 52 90 53 91 54 92 55 93
REMARK H PARENT 13 7 20 30 76 49 46 60
REMARK Flexibility Score: inf
ROOT
ATOM      1  C   UNL A   1      38.231  23.559  26.110  1.00  0.00     0.002 C 
ENDROOT
BRANCH   1   2
ATOM      2  C   UNL A   1      37.200  22.601  25.495  1.00  0.00     0.021 C 
BRANCH   2   3
ATOM      3  C   UNL A   1      36.679  23.003  24.123  1.00  0.00     0.116 C 
BRANCH   3   4
ATOM      4  N   UNL A   1      35.662  24.019  24.223  1.00  0.00    -0.355 N 
ATOM      5  C   UNL A   1      34.399  24.006  23.745  1.00  0.00     0.230 C 
ATOM      6  O   UNL A   1      33.609  24.799  24.270  1.00  0.00    -0.274 OA
ATOM      7  H   UNL A   1      35.924  24.835  24.708  1.00  0.00     0.163 HD
BRANCH   5   8
ATOM      8  C   UNL A   1      33.911  22.999  22.736  1.00  0.00     0.178 C 
BRANCH   8   9
ATOM      9  S   UNL A   1      32.385  22.089  22.876  1.00  0.00    -0.078 SA
BRANCH   9  10
ATOM     10  C   UNL A   1      32.331  20.501  23.568  1.00  0.00     0.169 A 
ATOM     11  N   UNL A   1      32.358  20.069  24.901  1.00  0.00    -0.315 N 
ATOM     12  C   UNL A   1      32.594  18.688  24.860  1.00  0.00     0.072 A 
ATOM     13  N   UNL A   1      32.716  19.526  22.763  1.00  0.00    -0.221 NA
ATOM     14  C   UNL A   1      32.959  18.434  23.541  1.00  0.00     0.108 A 
ATOM     15  C   UNL A   1      32.610  17.640  25.791  1.00  0.00     0.049 A 
ATOM     16  C   UNL A   1      33.500  17.188  23.193  1.00  0.00     0.141 A 
ATOM     17  C   UNL A   1      33.148  16.434  25.358  1.00  0.00     0.113 A 
ATOM     18  N   UNL A   1      33.616  16.199  24.117  1.00  0.00    -0.262 NA
BRANCH  11  19
ATOM     19  C   UNL A   1      32.465  20.914  26.096  1.00  0.00     0.093 C 
ATOM     20  C   UNL A   1      30.403  22.488  26.273  1.00  0.00     0.010 C 
ATOM     21  C   UNL A   1      31.910  22.362  26.069  1.00  0.00     0.009 C 
ATOM     22  C   UNL A   1      32.655  23.070  27.205  1.00  0.00     0.005 C 
ATOM     23  C   UNL A   1      34.064  22.544  27.097  1.00  0.00     0.002 C 
ATOM     24  C   UNL A   1      33.916  21.161  26.488  1.00  0.00     0.026 C 
ENDBRANCH  11  19
ENDBRANCH   9  10
ENDBRANCH   8   9
ENDBRANCH   5   8
ENDBRANCH   3   4
ENDBRANCH   2   3
ENDBRANCH   1   2
BRANCH   1  25
ATOM     25  C   UNL A   1      39.416  22.905  26.828  1.00  0.00     0.002 C 
BRANCH  25  26
ATOM     26  C   UNL A   1      40.098  21.757  26.074  1.00  0.00     0.021 C 
BRANCH  26  27
ATOM     27  C   UNL A   1      41.597  21.623  26.342  1.00  0.00     0.116 C 
BRANCH  27  28
ATOM     28  N   UNL A   1      42.416  22.387  25.428  1.00  0.00    -0.352 N 
ATOM     29  C   UNL A   1      42.779  23.700  25.339  1.00  0.00     0.251 C 
ATOM     30  H   UNL A   1      42.799  21.837  24.708  1.00  0.00     0.163 HD
ATOM     31  O   UNL A   1      43.617  23.970  24.473  1.00  0.00    -0.269 OA
BRANCH  29  32
ATOM     32  C   UNL A   1      42.198  24.807  26.150  1.00  0.00     0.039 A 
ATOM     33  C   UNL A   1      41.366  25.819  25.673  1.00  0.00     0.014 A 
ATOM     34  C   UNL A   1      42.612  24.855  27.496  1.00  0.00     0.014 A 
ATOM     35  C   UNL A   1      41.056  26.912  26.476  1.00  0.00     0.010 A 
ATOM     36  C   UNL A   1      42.288  25.935  28.308  1.00  0.00     0.010 A 
ATOM     37  C   UNL A   1      41.564  26.993  27.773  1.00  0.00    -0.014 A 
BRANCH  37  38
ATOM     38  C   UNL A   1      41.299  28.214  28.525  1.00  0.00     0.031 A 
ATOM     39  C   UNL A   1      42.363  29.256  28.482  1.00  0.00     0.074 A 
ATOM     40  C   UNL A   1      40.145  28.430  29.184  1.00  0.00     0.049 A 
ATOM     41  N   UNL A   1      43.061  29.728  29.464  1.00  0.00    -0.248 NA
ATOM     42  C   UNL A   1      42.755  29.773  27.164  1.00  0.00     0.031 C 
ATOM     43  C   UNL A   1      38.900  27.658  29.136  1.00  0.00     0.029 A 
ATOM     44  N   UNL A   1      39.821  29.483  29.982  1.00  0.00    -0.354 N 
ATOM     45  C   UNL A   1      43.890  30.707  28.921  1.00  0.00     0.074 A 
ATOM     46  C   UNL A   1      43.732  30.619  27.489  1.00  0.00     0.031 C 
ATOM     47  C   UNL A   1      37.898  28.395  29.670  1.00  0.00     0.029 A 
ATOM     48  C   UNL A   1      38.465  29.605  30.240  1.00  0.00     0.049 A 
ATOM     49  H   UNL A   1      40.493  30.104  30.344  1.00  0.00     0.167 HD
ATOM     50  C   UNL A   1      44.552  31.623  29.683  1.00  0.00     0.031 A 
ATOM     51  C   UNL A   1      37.850  30.666  30.817  1.00  0.00     0.031 A 
ATOM     52  C   UNL A   1      44.612  31.237  31.065  1.00  0.00     0.049 A 
ATOM     53  C   UNL A   1      38.881  31.388  31.604  1.00  0.00     0.074 A 
ATOM     54  C   UNL A   1      45.207  30.199  31.753  1.00  0.00     0.029 A 
ATOM     55  N   UNL A   1      43.690  31.780  31.929  1.00  0.00    -0.354 N 
ATOM     56  N   UNL A   1      39.473  30.883  32.650  1.00  0.00    -0.248 NA
ATOM     57  C   UNL A   1      39.567  32.507  30.976  1.00  0.00     0.031 C 
ATOM     58  C   UNL A   1      44.278  29.861  32.778  1.00  0.00     0.029 A 
ATOM     59  C   UNL A   1      43.200  30.746  32.686  1.00  0.00     0.049 A 
ATOM     60  H   UNL A   1      43.431  32.727  31.991  1.00  0.00     0.167 HD
ATOM     61  C   UNL A   1      40.784  31.330  32.567  1.00  0.00     0.074 A 
ATOM     62  C   UNL A   1      40.758  32.398  31.571  1.00  0.00     0.031 C 
ATOM     63  C   UNL A   1      41.818  30.620  33.111  1.00  0.00     0.031 A 
BRANCH  50  64
ATOM     64  C   UNL A   1      44.928  33.004  29.215  1.00  0.00    -0.014 A 
ATOM     65  C   UNL A   1      46.250  33.357  28.876  1.00  0.00     0.010 A 
ATOM     66  C   UNL A   1      43.916  33.924  28.871  1.00  0.00     0.010 A 
ATOM     67  C   UNL A   1      46.558  34.563  28.247  1.00  0.00     0.020 A 
ATOM     68  C   UNL A   1      44.209  35.121  28.198  1.00  0.00     0.020 A 
ATOM     69  C   UNL A   1      45.532  35.433  27.894  1.00  0.00     0.054 A 
BRANCH  69  70
ATOM     70  S   UNL A   1      45.962  36.921  26.958  1.00  0.00     0.124 S 
ATOM     71  O   UNL A   1      46.866  37.605  27.879  1.00  0.00    -0.237 OA
ATOM     72  O   UNL A   1      46.583  36.367  25.759  1.00  0.00    -0.237 OA
ATOM     73  O   UNL A   1      44.674  37.576  26.745  1.00  0.00    -0.744 OA
ENDBRANCH  69  70
ENDBRANCH  50  64
BRANCH  51  74
ATOM     74  C   UNL A   1      36.622  31.331  30.310  1.00  0.00    -0.014 A 
ATOM     75  C   UNL A   1      36.573  31.792  28.977  1.00  0.00     0.010 A 
ATOM     76  C   UNL A   1      35.631  31.787  31.200  1.00  0.00     0.010 A 
ATOM     77  C   UNL A   1      35.624  32.733  28.567  1.00  0.00     0.020 A 
ATOM     78  C   UNL A   1      34.676  32.733  30.794  1.00  0.00     0.020 A 
ATOM     79  C   UNL A   1      34.704  33.227  29.488  1.00  0.00     0.054 A 
BRANCH  79  80
ATOM     80  S   UNL A   1      33.616  34.587  28.973  1.00  0.00     0.124 S 
ATOM     81  O   UNL A   1      32.988  34.965  30.240  1.00  0.00    -0.237 OA
ATOM     82  O   UNL A   1      34.568  35.563  28.437  1.00  0.00    -0.237 OA
ATOM     83  O   UNL A   1      32.734  33.979  27.993  1.00  0.00    -0.744 OA
ENDBRANCH  79  80
ENDBRANCH  51  74
BRANCH  63  84
ATOM     84  C   UNL A   1      41.512  29.423  33.991  1.00  0.00    -0.014 A 
ATOM     85  C   UNL A   1      41.657  29.575  35.382  1.00  0.00     0.010 A 
ATOM     86  C   UNL A   1      41.336  28.122  33.476  1.00  0.00     0.010 A 
ATOM     87  C   UNL A   1      41.686  28.463  36.229  1.00  0.00     0.020 A 
ATOM     88  C   UNL A   1      41.339  27.002  34.324  1.00  0.00     0.020 A 
ATOM     89  C   UNL A   1      41.548  27.181  35.692  1.00  0.00     0.054 A 
BRANCH  89  90
ATOM     90  S   UNL A   1      41.702  25.762  36.813  1.00  0.00     0.124 S 
ATOM     91  O   UNL A   1      43.012  25.987  37.421  1.00  0.00    -0.237 OA
ATOM     92  O   UNL A   1      40.563  25.932  37.711  1.00  0.00    -0.237 OA
ATOM     93  O   UNL A   1      41.623  24.601  35.929  1.00  0.00    -0.744 OA
ENDBRANCH  89  90
ENDBRANCH  63  84
ENDBRANCH  37  38
ENDBRANCH  29  32
ENDBRANCH  27  28
ENDBRANCH  26  27
ENDBRANCH  25  26
ENDBRANCH   1  25
TORSDOF 19
ENDMDL
MODEL 3
REMARK VINA RESULT:     -12.1      3.103      9.824
REMARK SMILES C[C@H]1CCC[C@@H]1n1c(SCC(=O)NCCCCCCNC(=O)c2ccc(-c3c4nc(c(-c5ccc(S(=O)(=O)[O-])cc5)c5ccc([nH]5)c(-c5ccc(S(=O)(=O)[O-])cc5)c5nc(c(-c6ccc(S(=O)(=O)[O-])cc6)c6ccc3[nH]6)C=C5)C=C4)cc2)nc2cnccc21
REMARK SMILES IDX 16 1 15 2 14 3 13 4 11 5 12 6 10 8 9 9 8 10 7 11 89 12 83 13
REMARK SMILES IDX 84 14 88 15 85 16 87 17 86 18 6 19 1 20 2 21 3 22 4 23 5 24
REMARK SMILES IDX 17 25 18 26 19 27 20 28 21 29 22 31 23 32 24 33 82 34 25 35
REMARK SMILES IDX 81 36 26 37 27 38 28 39 75 40 29 41 80 42 74 43 76 44 30 45
REMARK SMILES IDX 79 46 73 47 72 48 31 50 61 51 42 52 60 53 43 54 46 55 59 56
REMARK SMILES IDX 77 57 44 58 45 59 58 61 78 62 47 63 32 64 33 65 41 66 34 67
REMARK SMILES IDX 40 68 35 69 36 70 37 71 38 72 39 73 62 74 63 75 71 76 64 77
REMARK SMILES IDX 70 78 65 79 66 80 67 81 68 82 69 83 48 84 49 85 57 86 50 87
REMARK SMILES IDX 56 88 51 89 52 90 53 91 54 92 55 93
REMARK H PARENT 13 7 20 30 76 49 46 60
REMARK Flexibility Score: inf
ROOT
ATOM      1  C   UNL A   1      38.508  23.841  26.705  1.00  0.00     0.002 C 
ENDROOT
BRANCH   1   2
ATOM      2  C   UNL A   1      37.835  23.389  25.400  1.00  0.00     0.021 C 
BRANCH   2   3
ATOM      3  C   UNL A   1      36.354  23.719  25.287  1.00  0.00     0.116 C 
BRANCH   3   4
ATOM      4  N   UNL A   1      35.648  23.399  26.501  1.00  0.00    -0.355 N 
ATOM      5  C   UNL A   1      34.403  22.900  26.652  1.00  0.00     0.230 C 
ATOM      6  O   UNL A   1      34.160  22.357  27.736  1.00  0.00    -0.274 OA
ATOM      7  H   UNL A   1      36.143  23.567  27.336  1.00  0.00     0.163 HD
BRANCH   5   8
ATOM      8  C   UNL A   1      33.390  22.860  25.536  1.00  0.00     0.178 C 
BRANCH   8   9
ATOM      9  S   UNL A   1      32.812  24.292  24.646  1.00  0.00    -0.078 SA
BRANCH   9  10
ATOM     10  C   UNL A   1      32.612  25.828  25.423  1.00  0.00     0.169 A 
ATOM     11  N   UNL A   1      31.732  26.889  25.167  1.00  0.00    -0.315 N 
ATOM     12  C   UNL A   1      32.215  27.982  25.900  1.00  0.00     0.072 A 
ATOM     13  N   UNL A   1      33.667  26.259  26.091  1.00  0.00    -0.221 NA
ATOM     14  C   UNL A   1      33.482  27.590  26.321  1.00  0.00     0.108 A 
ATOM     15  C   UNL A   1      31.763  29.275  26.196  1.00  0.00     0.049 A 
ATOM     16  C   UNL A   1      34.356  28.532  26.881  1.00  0.00     0.141 A 
ATOM     17  C   UNL A   1      32.689  30.141  26.766  1.00  0.00     0.113 A 
ATOM     18  N   UNL A   1      33.959  29.817  27.076  1.00  0.00    -0.262 NA
BRANCH  11  19
ATOM     19  C   UNL A   1      30.726  26.957  24.102  1.00  0.00     0.093 C 
ATOM     20  C   UNL A   1      31.101  29.076  22.642  1.00  0.00     0.010 C 
ATOM     21  C   UNL A   1      30.199  28.335  23.625  1.00  0.00     0.009 C 
ATOM     22  C   UNL A   1      28.854  28.014  22.965  1.00  0.00     0.005 C 
ATOM     23  C   UNL A   1      28.244  26.977  23.872  1.00  0.00     0.002 C 
ATOM     24  C   UNL A   1      29.428  26.267  24.503  1.00  0.00     0.026 C 
ENDBRANCH  11  19
ENDBRANCH   9  10
ENDBRANCH   8   9
ENDBRANCH   5   8
ENDBRANCH   3   4
ENDBRANCH   2   3
ENDBRANCH   1   2
BRANCH   1  25
ATOM     25  C   UNL A   1      39.658  22.964  27.211  1.00  0.00     0.002 C 
BRANCH  25  26
ATOM     26  C   UNL A   1      40.213  21.950  26.203  1.00  0.00     0.021 C 
BRANCH  26  27
ATOM     27  C   UNL A   1      41.698  21.630  26.377  1.00  0.00     0.116 C 
BRANCH  27  28
ATOM     28  N   UNL A   1      42.555  22.366  25.474  1.00  0.00    -0.352 N 
ATOM     29  C   UNL A   1      42.937  23.673  25.372  1.00  0.00     0.251 C 
ATOM     30  H   UNL A   1      42.954  21.797  24.778  1.00  0.00     0.163 HD
ATOM     31  O   UNL A   1      43.805  23.916  24.528  1.00  0.00    -0.269 OA
BRANCH  29  32
ATOM     32  C   UNL A   1      42.345  24.802  26.142  1.00  0.00     0.039 A 
ATOM     33  C   UNL A   1      41.458  25.755  25.644  1.00  0.00     0.014 A 
ATOM     34  C   UNL A   1      42.807  24.942  27.466  1.00  0.00     0.014 A 
ATOM     35  C   UNL A   1      41.136  26.879  26.396  1.00  0.00     0.010 A 
ATOM     36  C   UNL A   1      42.473  26.054  28.230  1.00  0.00     0.010 A 
ATOM     37  C   UNL A   1      41.689  27.053  27.665  1.00  0.00    -0.014 A 
BRANCH  37  38
ATOM     38  C   UNL A   1      41.406  28.304  28.358  1.00  0.00     0.031 A 
ATOM     39  C   UNL A   1      42.444  29.367  28.247  1.00  0.00     0.074 A 
ATOM     40  C   UNL A   1      40.256  28.527  29.023  1.00  0.00     0.049 A 
ATOM     41  N   UNL A   1      43.145  29.904  29.193  1.00  0.00    -0.248 NA
ATOM     42  C   UNL A   1      42.806  29.825  26.899  1.00  0.00     0.031 C 
ATOM     43  C   UNL A   1      39.029  27.726  29.033  1.00  0.00     0.029 A 
ATOM     44  N   UNL A   1      39.919  29.612  29.771  1.00  0.00    -0.354 N 
ATOM     45  C   UNL A   1      43.943  30.873  28.588  1.00  0.00     0.074 A 
ATOM     46  C   UNL A   1      43.767  30.708  27.165  1.00  0.00     0.031 C 
ATOM     47  C   UNL A   1      38.018  28.466  29.544  1.00  0.00     0.029 A 
ATOM     48  C   UNL A   1      38.564  29.716  30.043  1.00  0.00     0.049 A 
ATOM     49  H   UNL A   1      40.581  30.266  30.091  1.00  0.00     0.167 HD
ATOM     50  C   UNL A   1      44.593  31.842  29.293  1.00  0.00     0.031 A 
ATOM     51  C   UNL A   1      37.932  30.791  30.574  1.00  0.00     0.031 A 
ATOM     52  C   UNL A   1      44.682  31.528  30.692  1.00  0.00     0.049 A 
ATOM     53  C   UNL A   1      38.956  31.576  31.308  1.00  0.00     0.074 A 
ATOM     54  C   UNL A   1      45.311  30.541  31.423  1.00  0.00     0.029 A 
ATOM     55  N   UNL A   1      43.759  32.093  31.540  1.00  0.00    -0.354 N 
ATOM     56  N   UNL A   1      39.575  31.139  32.369  1.00  0.00    -0.248 NA
ATOM     57  C   UNL A   1      39.607  32.676  30.613  1.00  0.00     0.031 C 
ATOM     58  C   UNL A   1      44.403  30.234  32.477  1.00  0.00     0.029 A 
ATOM     59  C   UNL A   1      43.304  31.088  32.357  1.00  0.00     0.049 A 
ATOM     60  H   UNL A   1      43.479  33.037  31.558  1.00  0.00     0.167 HD
ATOM     61  C   UNL A   1      40.874  31.610  32.245  1.00  0.00     0.074 A 
ATOM     62  C   UNL A   1      40.808  32.625  31.195  1.00  0.00     0.031 C 
ATOM     63  C   UNL A   1      41.932  30.953  32.808  1.00  0.00     0.031 A 
BRANCH  50  64
ATOM     64  C   UNL A   1      44.931  33.205  28.750  1.00  0.00    -0.014 A 
ATOM     65  C   UNL A   1      44.009  34.271  28.749  1.00  0.00     0.010 A 
ATOM     66  C   UNL A   1      46.271  33.522  28.445  1.00  0.00     0.010 A 
ATOM     67  C   UNL A   1      44.387  35.579  28.445  1.00  0.00     0.020 A 
ATOM     68  C   UNL A   1      46.672  34.841  28.179  1.00  0.00     0.020 A 
ATOM     69  C   UNL A   1      45.723  35.861  28.178  1.00  0.00     0.054 A 
BRANCH  69  70
ATOM     70  S   UNL A   1      46.193  37.590  27.922  1.00  0.00     0.124 S 
ATOM     71  O   UNL A   1      45.629  38.234  29.105  1.00  0.00    -0.237 OA
ATOM     72  O   UNL A   1      47.651  37.514  27.878  1.00  0.00    -0.237 OA
ATOM     73  O   UNL A   1      45.552  37.936  26.656  1.00  0.00    -0.744 OA
ENDBRANCH  69  70
ENDBRANCH  50  64
BRANCH  51  74
ATOM     74  C   UNL A   1      36.682  31.401  30.053  1.00  0.00    -0.014 A 
ATOM     75  C   UNL A   1      36.638  31.887  28.728  1.00  0.00     0.010 A 
ATOM     76  C   UNL A   1      35.650  31.786  30.929  1.00  0.00     0.010 A 
ATOM     77  C   UNL A   1      35.650  32.785  28.315  1.00  0.00     0.020 A 
ATOM     78  C   UNL A   1      34.654  32.689  30.519  1.00  0.00     0.020 A 
ATOM     79  C   UNL A   1      34.685  33.211  29.225  1.00  0.00     0.054 A 
BRANCH  79  80
ATOM     80  S   UNL A   1      33.538  34.522  28.712  1.00  0.00     0.124 S 
ATOM     81  O   UNL A   1      32.683  33.817  27.755  1.00  0.00    -0.237 OA
ATOM     82  O   UNL A   1      32.890  34.882  29.975  1.00  0.00    -0.237 OA
ATOM     83  O   UNL A   1      34.403  35.543  28.146  1.00  0.00    -0.744 OA
ENDBRANCH  79  80
ENDBRANCH  51  74
BRANCH  63  84
ATOM     84  C   UNL A   1      41.666  29.795  33.752  1.00  0.00    -0.014 A 
ATOM     85  C   UNL A   1      41.750  30.042  35.134  1.00  0.00     0.010 A 
ATOM     86  C   UNL A   1      41.587  28.458  33.316  1.00  0.00     0.010 A 
ATOM     87  C   UNL A   1      41.815  28.989  36.051  1.00  0.00     0.020 A 
ATOM     88  C   UNL A   1      41.626  27.394  34.233  1.00  0.00     0.020 A 
ATOM     89  C   UNL A   1      41.774  27.670  35.594  1.00  0.00     0.054 A 
BRANCH  89  90
ATOM     90  S   UNL A   1      41.972  26.335  36.807  1.00  0.00     0.124 S 
ATOM     91  O   UNL A   1      40.641  26.262  37.408  1.00  0.00    -0.237 OA
ATOM     92  O   UNL A   1      42.341  25.192  35.975  1.00  0.00    -0.237 OA
ATOM     93  O   UNL A   1      43.025  26.817  37.697  1.00  0.00    -0.744 OA
ENDBRANCH  89  90
ENDBRANCH  63  84
ENDBRANCH  37  38
ENDBRANCH  29  32
ENDBRANCH  27  28
ENDBRANCH  26  27
ENDBRANCH  25  26
ENDBRANCH   1  25
TORSDOF 19
ENDMDL
