MODEL 1
REMARK VINA RESULT:      -9.9      0.000      0.000
REMARK SMILES CC(C)(C)[NH2+]CCC(=O)N1CCO[C@@H](CC(=O)NCCCCCCNC(=O)c2ccc(-c3c4nc(c(-c5ccc(S(=O)(=O)[O-])cc5)c5ccc([nH]5)c(-c5ccc(S(=O)(=O)[O-])cc5)c5nc(c(-c6ccc(S(=O)(=O)[O-])cc6)c6ccc3[nH]6)C=C5)C=C4)cc2)C1
REMARK SMILES IDX 20 1 19 2 18 3 16 4 17 5 15 7 14 8 10 9 11 10 88 11 12 12
REMARK SMILES IDX 13 13 8 14 9 15 7 16 6 17 5 18 2 21 1 22 3 23 4 24 21 25
REMARK SMILES IDX 22 26 23 27 24 28 25 29 26 30 27 32 28 33 29 34 87 35 30 36
REMARK SMILES IDX 86 37 31 38 32 39 33 40 80 41 34 42 85 43 79 44 81 45 35 46
REMARK SMILES IDX 84 47 78 48 77 49 36 51 66 52 47 53 65 54 48 55 51 56 64 57
REMARK SMILES IDX 82 58 49 59 50 60 63 62 83 63 52 64 37 65 38 66 46 67 39 68
REMARK SMILES IDX 45 69 40 70 41 71 42 72 43 73 44 74 67 75 68 76 76 77 69 78
REMARK SMILES IDX 75 79 70 80 71 81 72 82 73 83 74 84 53 85 54 86 62 87 55 88
REMARK SMILES IDX 61 89 56 90 57 91 58 92 59 93 60 94
REMARK H PARENT 18 6 5 19 5 20 25 31 81 50 51 61
REMARK Flexibility Score: inf
ROOT
ATOM      1  C   UNL A   1      33.365  21.163  26.197  1.00  0.00     0.021 C 
ENDROOT
BRANCH   1   2
ATOM      2  C   UNL A   1      32.208  21.715  25.356  1.00  0.00     0.116 C 
BRANCH   2   3
ATOM      3  N   UNL A   1      31.038  21.913  26.200  1.00  0.00    -0.356 N 
ATOM      4  C   UNL A   1      30.603  23.029  26.856  1.00  0.00     0.222 C 
ATOM      5  O   UNL A   1      29.719  22.907  27.704  1.00  0.00    -0.275 OA
ATOM      6  H   UNL A   1      30.471  21.116  26.317  1.00  0.00     0.163 HD
BRANCH   4   7
ATOM      7  C   UNL A   1      31.186  24.383  26.527  1.00  0.00     0.133 C 
BRANCH   7   8
ATOM      8  C   UNL A   1      30.450  25.171  25.438  1.00  0.00     0.147 C 
ATOM      9  N   UNL A   1      30.623  27.291  24.076  1.00  0.00    -0.338 N 
ATOM     10  C   UNL A   1      30.945  26.466  22.915  1.00  0.00     0.148 C 
ATOM     11  C   UNL A   1      30.952  26.622  25.325  1.00  0.00     0.152 C 
ATOM     12  C   UNL A   1      30.236  25.123  23.048  1.00  0.00     0.182 C 
ATOM     13  O   UNL A   1      30.691  24.431  24.217  1.00  0.00    -0.374 OA
BRANCH   9  14
ATOM     14  C   UNL A   1      30.988  28.635  24.012  1.00  0.00     0.228 C 
ATOM     15  O   UNL A   1      31.233  29.303  25.013  1.00  0.00    -0.275 OA
BRANCH  14  16
ATOM     16  C   UNL A   1      30.977  29.220  22.615  1.00  0.00     0.161 C 
BRANCH  16  17
ATOM     17  C   UNL A   1      29.656  29.915  22.274  1.00  0.00     0.270 C 
BRANCH  17  18
ATOM     18  N   UNL A   1      29.729  31.335  21.922  1.00  0.00    -0.342 N 
ATOM     19  H   UNL A   1      30.555  31.713  22.387  1.00  0.00     0.346 HD
ATOM     20  H   UNL A   1      29.733  31.326  20.902  1.00  0.00     0.346 HD
BRANCH  18  21
ATOM     21  C   UNL A   1      28.609  32.225  22.252  1.00  0.00     0.088 C 
ATOM     22  C   UNL A   1      27.829  32.655  21.003  1.00  0.00     0.078 C 
ATOM     23  C   UNL A   1      29.044  33.459  23.053  1.00  0.00     0.078 C 
ATOM     24  C   UNL A   1      27.667  31.383  23.140  1.00  0.00     0.078 C 
ENDBRANCH  18  21
ENDBRANCH  17  18
ENDBRANCH  16  17
ENDBRANCH  14  16
ENDBRANCH   9  14
ENDBRANCH   7   8
ENDBRANCH   4   7
ENDBRANCH   2   3
ENDBRANCH   1   2
BRANCH   1  25
ATOM     25  C   UNL A   1      34.248  22.241  26.821  1.00  0.00     0.002 C 
BRANCH  25  26
ATOM     26  C   UNL A   1      34.734  23.303  25.830  1.00  0.00     0.002 C 
BRANCH  26  27
ATOM     27  C   UNL A   1      36.035  24.016  26.217  1.00  0.00     0.021 C 
BRANCH  27  28
ATOM     28  C   UNL A   1      37.244  23.665  25.352  1.00  0.00     0.116 C 
BRANCH  28  29
ATOM     29  N   UNL A   1      37.984  22.535  25.901  1.00  0.00    -0.352 N 
ATOM     30  C   UNL A   1      39.242  22.503  26.440  1.00  0.00     0.251 C 
ATOM     31  H   UNL A   1      37.512  21.672  25.879  1.00  0.00     0.163 HD
ATOM     32  O   UNL A   1      39.814  21.421  26.604  1.00  0.00    -0.269 OA
BRANCH  30  33
ATOM     33  C   UNL A   1      39.917  23.760  26.820  1.00  0.00     0.039 A 
ATOM     34  C   UNL A   1      40.115  24.749  25.854  1.00  0.00     0.014 A 
ATOM     35  C   UNL A   1      40.369  23.953  28.129  1.00  0.00     0.014 A 
ATOM     36  C   UNL A   1      40.716  25.958  26.215  1.00  0.00     0.010 A 
ATOM     37  C   UNL A   1      40.908  25.182  28.501  1.00  0.00     0.010 A 
ATOM     38  C   UNL A   1      41.090  26.195  27.548  1.00  0.00    -0.014 A 
BRANCH  38  39
ATOM     39  C   UNL A   1      41.666  27.497  27.970  1.00  0.00     0.031 A 
ATOM     40  C   UNL A   1      43.153  27.719  27.914  1.00  0.00     0.074 A 
ATOM     41  C   UNL A   1      40.858  28.452  28.470  1.00  0.00     0.049 A 
ATOM     42  N   UNL A   1      43.847  28.756  28.309  1.00  0.00    -0.248 NA
ATOM     43  C   UNL A   1      43.969  26.624  27.362  1.00  0.00     0.031 C 
ATOM     44  C   UNL A   1      39.403  28.345  28.609  1.00  0.00     0.029 A 
ATOM     45  N   UNL A   1      41.146  29.700  28.966  1.00  0.00    -0.354 N 
ATOM     46  C   UNL A   1      45.178  28.433  28.070  1.00  0.00     0.074 A 
ATOM     47  C   UNL A   1      45.198  27.087  27.538  1.00  0.00     0.031 C 
ATOM     48  C   UNL A   1      38.926  29.484  29.134  1.00  0.00     0.029 A 
ATOM     49  C   UNL A   1      40.039  30.386  29.410  1.00  0.00     0.049 A 
ATOM     50  H   UNL A   1      42.057  30.067  29.002  1.00  0.00     0.167 HD
ATOM     51  C   UNL A   1      46.282  29.193  28.261  1.00  0.00     0.031 A 
ATOM     52  C   UNL A   1      39.933  31.600  29.985  1.00  0.00     0.031 A 
ATOM     53  C   UNL A   1      46.258  30.533  28.786  1.00  0.00     0.049 A 
ATOM     54  C   UNL A   1      41.177  32.417  30.207  1.00  0.00     0.074 A 
ATOM     55  C   UNL A   1      47.317  31.405  28.966  1.00  0.00     0.029 A 
ATOM     56  N   UNL A   1      45.117  31.194  29.216  1.00  0.00    -0.354 N 
ATOM     57  N   UNL A   1      42.420  32.119  29.915  1.00  0.00    -0.248 NA
ATOM     58  C   UNL A   1      41.001  33.737  30.828  1.00  0.00     0.031 C 
ATOM     59  C   UNL A   1      46.824  32.573  29.557  1.00  0.00     0.029 A 
ATOM     60  C   UNL A   1      45.449  32.452  29.687  1.00  0.00     0.049 A 
ATOM     61  H   UNL A   1      44.206  30.822  29.191  1.00  0.00     0.167 HD
ATOM     62  C   UNL A   1      43.173  33.226  30.293  1.00  0.00     0.074 A 
ATOM     63  C   UNL A   1      42.243  34.203  30.821  1.00  0.00     0.031 C 
ATOM     64  C   UNL A   1      44.512  33.414  30.210  1.00  0.00     0.031 A 
BRANCH  51  65
ATOM     65  C   UNL A   1      47.616  28.586  27.907  1.00  0.00    -0.014 A 
ATOM     66  C   UNL A   1      48.361  27.865  28.858  1.00  0.00     0.010 A 
ATOM     67  C   UNL A   1      48.113  28.703  26.596  1.00  0.00     0.010 A 
ATOM     68  C   UNL A   1      49.598  27.311  28.517  1.00  0.00     0.020 A 
ATOM     69  C   UNL A   1      49.337  28.125  26.243  1.00  0.00     0.020 A 
ATOM     70  C   UNL A   1      50.080  27.448  27.211  1.00  0.00     0.054 A 
BRANCH  70  71
ATOM     71  S   UNL A   1      51.678  26.701  26.791  1.00  0.00     0.124 S 
ATOM     72  O   UNL A   1      52.617  27.635  27.408  1.00  0.00    -0.237 OA
ATOM     73  O   UNL A   1      51.594  25.387  27.425  1.00  0.00    -0.237 OA
ATOM     74  O   UNL A   1      51.682  26.686  25.331  1.00  0.00    -0.744 OA
ENDBRANCH  70  71
ENDBRANCH  51  65
BRANCH  52  75
ATOM     75  C   UNL A   1      38.596  32.118  30.383  1.00  0.00    -0.014 A 
ATOM     76  C   UNL A   1      38.063  31.819  31.648  1.00  0.00     0.010 A 
ATOM     77  C   UNL A   1      37.854  32.927  29.501  1.00  0.00     0.010 A 
ATOM     78  C   UNL A   1      36.805  32.306  32.021  1.00  0.00     0.020 A 
ATOM     79  C   UNL A   1      36.609  33.438  29.881  1.00  0.00     0.020 A 
ATOM     80  C   UNL A   1      36.088  33.114  31.135  1.00  0.00     0.054 A 
BRANCH  80  81
ATOM     81  S   UNL A   1      34.482  33.776  31.660  1.00  0.00     0.124 S 
ATOM     82  O   UNL A   1      33.816  34.006  30.383  1.00  0.00    -0.237 OA
ATOM     83  O   UNL A   1      33.941  32.688  32.471  1.00  0.00    -0.237 OA
ATOM     84  O   UNL A   1      34.838  34.981  32.408  1.00  0.00    -0.744 OA
ENDBRANCH  80  81
ENDBRANCH  52  75
BRANCH  64  85
ATOM     85  C   UNL A   1      45.057  34.740  30.670  1.00  0.00    -0.014 A 
ATOM     86  C   UNL A   1      45.073  35.858  29.817  1.00  0.00     0.010 A 
ATOM     87  C   UNL A   1      45.498  34.885  31.999  1.00  0.00     0.010 A 
ATOM     88  C   UNL A   1      45.541  37.091  30.277  1.00  0.00     0.020 A 
ATOM     89  C   UNL A   1      45.941  36.123  32.471  1.00  0.00     0.020 A 
ATOM     90  C   UNL A   1      45.971  37.216  31.603  1.00  0.00     0.054 A 
BRANCH  90  91
ATOM     91  S   UNL A   1      46.520  38.841  32.192  1.00  0.00     0.124 S 
ATOM     92  O   UNL A   1      46.840  38.567  33.589  1.00  0.00    -0.237 OA
ATOM     93  O   UNL A   1      47.663  39.126  31.327  1.00  0.00    -0.237 OA
ATOM     94  O   UNL A   1      45.357  39.700  31.977  1.00  0.00    -0.744 OA
ENDBRANCH  90  91
ENDBRANCH  64  85
ENDBRANCH  38  39
ENDBRANCH  30  33
ENDBRANCH  28  29
ENDBRANCH  27  28
ENDBRANCH  26  27
ENDBRANCH  25  26
ENDBRANCH   1  25
TORSDOF 22
ENDMDL
MODEL 2
REMARK VINA RESULT:      -9.1      2.320      3.278
REMARK SMILES CC(C)(C)[NH2+]CCC(=O)N1CCO[C@@H](CC(=O)NCCCCCCNC(=O)c2ccc(-c3c4nc(c(-c5ccc(S(=O)(=O)[O-])cc5)c5ccc([nH]5)c(-c5ccc(S(=O)(=O)[O-])cc5)c5nc(c(-c6ccc(S(=O)(=O)[O-])cc6)c6ccc3[nH]6)C=C5)C=C4)cc2)C1
REMARK SMILES IDX 20 1 19 2 18 3 16 4 17 5 15 7 14 8 10 9 11 10 88 11 12 12
REMARK SMILES IDX 13 13 8 14 9 15 7 16 6 17 5 18 2 21 1 22 3 23 4 24 21 25
REMARK SMILES IDX 22 26 23 27 24 28 25 29 26 30 27 32 28 33 29 34 87 35 30 36
REMARK SMILES IDX 86 37 31 38 32 39 33 40 80 41 34 42 85 43 79 44 81 45 35 46
REMARK SMILES IDX 84 47 78 48 77 49 36 51 66 52 47 53 65 54 48 55 51 56 64 57
REMARK SMILES IDX 82 58 49 59 50 60 63 62 83 63 52 64 37 65 38 66 46 67 39 68
REMARK SMILES IDX 45 69 40 70 41 71 42 72 43 73 44 74 67 75 68 76 76 77 69 78
REMARK SMILES IDX 75 79 70 80 71 81 72 82 73 83 74 84 53 85 54 86 62 87 55 88
REMARK SMILES IDX 61 89 56 90 57 91 58 92 59 93 60 94
REMARK H PARENT 18 6 5 19 5 20 25 31 81 50 51 61
REMARK Flexibility Score: inf
ROOT
ATOM      1  C   UNL A   1      36.189  23.932  26.112  1.00  0.00     0.021 C 
ENDROOT
BRANCH   1   2
ATOM      2  C   UNL A   1      35.007  24.334  25.222  1.00  0.00     0.116 C 
BRANCH   2   3
ATOM      3  N   UNL A   1      34.545  23.177  24.468  1.00  0.00    -0.356 N 
ATOM      4  C   UNL A   1      33.347  22.523  24.503  1.00  0.00     0.222 C 
ATOM      5  O   UNL A   1      33.258  21.425  23.952  1.00  0.00    -0.275 OA
ATOM      6  H   UNL A   1      35.200  22.807  23.832  1.00  0.00     0.163 HD
BRANCH   4   7
ATOM      7  C   UNL A   1      32.155  23.149  25.189  1.00  0.00     0.133 C 
BRANCH   7   8
ATOM      8  C   UNL A   1      31.487  24.301  24.430  1.00  0.00     0.147 C 
ATOM      9  N   UNL A   1      31.428  26.823  24.322  1.00  0.00    -0.338 N 
ATOM     10  C   UNL A   1      32.157  26.742  23.060  1.00  0.00     0.148 C 
ATOM     11  C   UNL A   1      31.649  25.650  25.154  1.00  0.00     0.152 C 
ATOM     12  C   UNL A   1      31.770  25.453  22.344  1.00  0.00     0.182 C 
ATOM     13  O   UNL A   1      32.132  24.314  23.134  1.00  0.00    -0.374 OA
BRANCH   9  14
ATOM     14  C   UNL A   1      31.474  28.042  24.998  1.00  0.00     0.228 C 
ATOM     15  O   UNL A   1      31.465  28.121  26.223  1.00  0.00    -0.275 OA
BRANCH  14  16
ATOM     16  C   UNL A   1      31.454  29.258  24.094  1.00  0.00     0.161 C 
BRANCH  16  17
ATOM     17  C   UNL A   1      30.069  29.532  23.500  1.00  0.00     0.270 C 
BRANCH  17  18
ATOM     18  N   UNL A   1      29.801  30.901  23.056  1.00  0.00    -0.342 N 
ATOM     19  H   UNL A   1      29.908  31.504  23.872  1.00  0.00     0.346 HD
ATOM     20  H   UNL A   1      30.462  31.036  22.290  1.00  0.00     0.346 HD
BRANCH  18  21
ATOM     21  C   UNL A   1      28.504  31.229  22.451  1.00  0.00     0.088 C 
ATOM     22  C   UNL A   1      28.166  30.299  21.279  1.00  0.00     0.078 C 
ATOM     23  C   UNL A   1      28.407  32.695  22.006  1.00  0.00     0.078 C 
ATOM     24  C   UNL A   1      27.463  30.995  23.566  1.00  0.00     0.078 C 
ENDBRANCH  18  21
ENDBRANCH  17  18
ENDBRANCH  16  17
ENDBRANCH  14  16
ENDBRANCH   9  14
ENDBRANCH   7   8
ENDBRANCH   4   7
ENDBRANCH   2   3
ENDBRANCH   1   2
BRANCH   1  25
ATOM     25  C   UNL A   1      37.398  23.412  25.341  1.00  0.00     0.002 C 
BRANCH  25  26
ATOM     26  C   UNL A   1      37.648  21.910  25.506  1.00  0.00     0.002 C 
BRANCH  26  27
ATOM     27  C   UNL A   1      38.996  21.533  26.134  1.00  0.00     0.021 C 
BRANCH  27  28
ATOM     28  C   UNL A   1      39.798  20.490  25.359  1.00  0.00     0.116 C 
BRANCH  28  29
ATOM     29  N   UNL A   1      40.508  19.587  26.256  1.00  0.00    -0.352 N 
ATOM     30  C   UNL A   1      41.692  19.775  26.917  1.00  0.00     0.251 C 
ATOM     31  H   UNL A   1      40.074  18.716  26.407  1.00  0.00     0.163 HD
ATOM     32  O   UNL A   1      42.279  18.810  27.414  1.00  0.00    -0.269 OA
BRANCH  30  33
ATOM     33  C   UNL A   1      42.269  21.129  27.030  1.00  0.00     0.039 A 
ATOM     34  C   UNL A   1      42.678  21.798  25.874  1.00  0.00     0.014 A 
ATOM     35  C   UNL A   1      42.421  21.731  28.282  1.00  0.00     0.014 A 
ATOM     36  C   UNL A   1      43.187  23.096  25.968  1.00  0.00     0.010 A 
ATOM     37  C   UNL A   1      42.867  23.048  28.368  1.00  0.00     0.010 A 
ATOM     38  C   UNL A   1      43.257  23.742  27.213  1.00  0.00    -0.014 A 
BRANCH  38  39
ATOM     39  C   UNL A   1      43.729  25.145  27.331  1.00  0.00     0.031 A 
ATOM     40  C   UNL A   1      45.162  25.488  27.029  1.00  0.00     0.074 A 
ATOM     41  C   UNL A   1      42.885  26.095  27.779  1.00  0.00     0.049 A 
ATOM     42  N   UNL A   1      45.777  26.637  27.147  1.00  0.00    -0.248 NA
ATOM     43  C   UNL A   1      46.023  24.392  26.552  1.00  0.00     0.031 C 
ATOM     44  C   UNL A   1      41.481  25.882  28.139  1.00  0.00     0.029 A 
ATOM     45  N   UNL A   1      43.088  27.432  28.019  1.00  0.00    -0.354 N 
ATOM     46  C   UNL A   1      47.096  26.400  26.777  1.00  0.00     0.074 A 
ATOM     47  C   UNL A   1      47.203  24.989  26.474  1.00  0.00     0.031 C 
ATOM     48  C   UNL A   1      40.946  27.048  28.533  1.00  0.00     0.029 A 
ATOM     49  C   UNL A   1      41.974  28.082  28.497  1.00  0.00     0.049 A 
ATOM     50  H   UNL A   1      43.949  27.882  27.864  1.00  0.00     0.167 HD
ATOM     51  C   UNL A   1      48.121  27.280  26.683  1.00  0.00     0.031 A 
ATOM     52  C   UNL A   1      41.803  29.364  28.876  1.00  0.00     0.031 A 
ATOM     53  C   UNL A   1      48.009  28.683  26.980  1.00  0.00     0.049 A 
ATOM     54  C   UNL A   1      42.963  30.318  28.783  1.00  0.00     0.074 A 
ATOM     55  C   UNL A   1      48.976  29.667  26.863  1.00  0.00     0.029 A 
ATOM     56  N   UNL A   1      46.863  29.303  27.454  1.00  0.00    -0.354 N 
ATOM     57  N   UNL A   1      44.186  30.088  28.370  1.00  0.00    -0.248 NA
ATOM     58  C   UNL A   1      42.716  31.705  29.199  1.00  0.00     0.031 C 
ATOM     59  C   UNL A   1      48.430  30.871  27.320  1.00  0.00     0.029 A 
ATOM     60  C   UNL A   1      47.105  30.650  27.663  1.00  0.00     0.049 A 
ATOM     61  H   UNL A   1      46.004  28.851  27.621  1.00  0.00     0.167 HD
ATOM     62  C   UNL A   1      44.848  31.308  28.452  1.00  0.00     0.074 A 
ATOM     63  C   UNL A   1      43.886  32.274  28.940  1.00  0.00     0.031 C 
ATOM     64  C   UNL A   1      46.137  31.600  28.149  1.00  0.00     0.031 A 
BRANCH  51  65
ATOM     65  C   UNL A   1      49.461  26.745  26.246  1.00  0.00    -0.014 A 
ATOM     66  C   UNL A   1      50.168  25.822  27.040  1.00  0.00     0.010 A 
ATOM     67  C   UNL A   1      50.003  27.137  25.009  1.00  0.00     0.010 A 
ATOM     68  C   UNL A   1      51.410  25.336  26.624  1.00  0.00     0.020 A 
ATOM     69  C   UNL A   1      51.233  26.631  24.576  1.00  0.00     0.020 A 
ATOM     70  C   UNL A   1      51.937  25.747  25.395  1.00  0.00     0.054 A 
BRANCH  70  71
ATOM     71  S   UNL A   1      53.543  25.085  24.872  1.00  0.00     0.124 S 
ATOM     72  O   UNL A   1      53.490  23.722  25.395  1.00  0.00    -0.237 OA
ATOM     73  O   UNL A   1      53.478  25.201  23.417  1.00  0.00    -0.237 OA
ATOM     74  O   UNL A   1      54.510  25.965  25.522  1.00  0.00    -0.744 OA
ENDBRANCH  70  71
ENDBRANCH  51  65
BRANCH  52  75
ATOM     75  C   UNL A   1      40.475  29.820  29.370  1.00  0.00    -0.014 A 
ATOM     76  C   UNL A   1      40.318  30.253  30.698  1.00  0.00     0.010 A 
ATOM     77  C   UNL A   1      39.361  29.838  28.509  1.00  0.00     0.010 A 
ATOM     78  C   UNL A   1      39.070  30.681  31.161  1.00  0.00     0.020 A 
ATOM     79  C   UNL A   1      38.118  30.291  28.961  1.00  0.00     0.020 A 
ATOM     80  C   UNL A   1      37.978  30.699  30.289  1.00  0.00     0.054 A 
BRANCH  80  81
ATOM     81  S   UNL A   1      36.381  31.306  30.898  1.00  0.00     0.124 S 
ATOM     82  O   UNL A   1      35.898  30.168  31.672  1.00  0.00    -0.237 OA
ATOM     83  O   UNL A   1      36.765  32.484  31.673  1.00  0.00    -0.237 OA
ATOM     84  O   UNL A   1      35.635  31.594  29.674  1.00  0.00    -0.744 OA
ENDBRANCH  80  81
ENDBRANCH  52  75
BRANCH  64  85
ATOM     85  C   UNL A   1      46.580  33.030  28.305  1.00  0.00    -0.014 A 
ATOM     86  C   UNL A   1      47.185  33.481  29.491  1.00  0.00     0.010 A 
ATOM     87  C   UNL A   1      46.449  33.919  27.221  1.00  0.00     0.010 A 
ATOM     88  C   UNL A   1      47.630  34.802  29.599  1.00  0.00     0.020 A 
ATOM     89  C   UNL A   1      46.917  35.231  27.315  1.00  0.00     0.020 A 
ATOM     90  C   UNL A   1      47.495  35.668  28.509  1.00  0.00     0.054 A 
BRANCH  90  91
ATOM     91  S   UNL A   1      48.133  37.359  28.655  1.00  0.00     0.124 S 
ATOM     92  O   UNL A   1      49.509  37.130  29.085  1.00  0.00    -0.237 OA
ATOM     93  O   UNL A   1      47.976  37.879  27.298  1.00  0.00    -0.237 OA
ATOM     94  O   UNL A   1      47.262  37.974  29.654  1.00  0.00    -0.744 OA
ENDBRANCH  90  91
ENDBRANCH  64  85
ENDBRANCH  38  39
ENDBRANCH  30  33
ENDBRANCH  28  29
ENDBRANCH  27  28
ENDBRANCH  26  27
ENDBRANCH  25  26
ENDBRANCH   1  25
TORSDOF 22
ENDMDL
MODEL 3
REMARK VINA RESULT:      -8.9      6.159     10.654
REMARK SMILES CC(C)(C)[NH2+]CCC(=O)N1CCO[C@@H](CC(=O)NCCCCCCNC(=O)c2ccc(-c3c4nc(c(-c5ccc(S(=O)(=O)[O-])cc5)c5ccc([nH]5)c(-c5ccc(S(=O)(=O)[O-])cc5)c5nc(c(-c6ccc(S(=O)(=O)[O-])cc6)c6ccc3[nH]6)C=C5)C=C4)cc2)C1
REMARK SMILES IDX 20 1 19 2 18 3 16 4 17 5 15 7 14 8 10 9 11 10 88 11 12 12
REMARK SMILES IDX 13 13 8 14 9 15 7 16 6 17 5 18 2 21 1 22 3 23 4 24 21 25
REMARK SMILES IDX 22 26 23 27 24 28 25 29 26 30 27 32 28 33 29 34 87 35 30 36
REMARK SMILES IDX 86 37 31 38 32 39 33 40 80 41 34 42 85 43 79 44 81 45 35 46
REMARK SMILES IDX 84 47 78 48 77 49 36 51 66 52 47 53 65 54 48 55 51 56 64 57
REMARK SMILES IDX 82 58 49 59 50 60 63 62 83 63 52 64 37 65 38 66 46 67 39 68
REMARK SMILES IDX 45 69 40 70 41 71 42 72 43 73 44 74 67 75 68 76 76 77 69 78
REMARK SMILES IDX 75 79 70 80 71 81 72 82 73 83 74 84 53 85 54 86 62 87 55 88
REMARK SMILES IDX 61 89 56 90 57 91 58 92 59 93 60 94
REMARK H PARENT 18 6 5 19 5 20 25 31 81 50 51 61
REMARK Flexibility Score: inf
ROOT
ATOM      1  C   UNL A   1      36.265  30.198  27.788  1.00  0.00     0.021 C 
ENDROOT
BRANCH   1   2
ATOM      2  C   UNL A   1      35.103  29.253  27.460  1.00  0.00     0.116 C 
BRANCH   2   3
ATOM      3  N   UNL A   1      33.911  30.031  27.151  1.00  0.00    -0.356 N 
ATOM      4  C   UNL A   1      32.612  29.634  27.011  1.00  0.00     0.222 C 
ATOM      5  O   UNL A   1      31.806  30.421  26.515  1.00  0.00    -0.275 OA
ATOM      6  H   UNL A   1      34.066  30.995  27.023  1.00  0.00     0.163 HD
BRANCH   4   7
ATOM      7  C   UNL A   1      32.178  28.264  27.476  1.00  0.00     0.133 C 
BRANCH   7   8
ATOM      8  C   UNL A   1      32.052  27.203  26.376  1.00  0.00     0.147 C 
ATOM      9  N   UNL A   1      31.889  26.970  23.867  1.00  0.00    -0.338 N 
ATOM     10  C   UNL A   1      33.252  26.450  23.871  1.00  0.00     0.148 C 
ATOM     11  C   UNL A   1      31.624  27.808  25.027  1.00  0.00     0.152 C 
ATOM     12  C   UNL A   1      33.497  25.706  25.180  1.00  0.00     0.182 C 
ATOM     13  O   UNL A   1      33.365  26.599  26.294  1.00  0.00    -0.374 OA
BRANCH   9  14
ATOM     14  C   UNL A   1      31.411  27.472  22.657  1.00  0.00     0.228 C 
ATOM     15  O   UNL A   1      31.197  26.757  21.682  1.00  0.00    -0.275 OA
BRANCH  14  16
ATOM     16  C   UNL A   1      31.259  28.979  22.622  1.00  0.00     0.161 C 
BRANCH  16  17
ATOM     17  C   UNL A   1      29.868  29.445  23.062  1.00  0.00     0.270 C 
BRANCH  17  18
ATOM     18  N   UNL A   1      29.698  30.879  23.300  1.00  0.00    -0.342 N 
ATOM     19  H   UNL A   1      29.725  31.018  24.310  1.00  0.00     0.346 HD
ATOM     20  H   UNL A   1      30.448  31.301  22.752  1.00  0.00     0.346 HD
BRANCH  18  21
ATOM     21  C   UNL A   1      28.492  31.560  22.809  1.00  0.00     0.088 C 
ATOM     22  C   UNL A   1      27.313  31.410  23.778  1.00  0.00     0.078 C 
ATOM     23  C   UNL A   1      28.080  31.104  21.403  1.00  0.00     0.078 C 
ATOM     24  C   UNL A   1      28.869  33.055  22.738  1.00  0.00     0.078 C 
ENDBRANCH  18  21
ENDBRANCH  17  18
ENDBRANCH  16  17
ENDBRANCH  14  16
ENDBRANCH   9  14
ENDBRANCH   7   8
ENDBRANCH   4   7
ENDBRANCH   2   3
ENDBRANCH   1   2
BRANCH   1  25
ATOM     25  C   UNL A   1      37.330  29.581  28.691  1.00  0.00     0.002 C 
BRANCH  25  26
ATOM     26  C   UNL A   1      38.762  29.747  28.173  1.00  0.00     0.002 C 
BRANCH  26  27
ATOM     27  C   UNL A   1      39.277  28.607  27.287  1.00  0.00     0.021 C 
BRANCH  27  28
ATOM     28  C   UNL A   1      40.457  28.971  26.388  1.00  0.00     0.116 C 
BRANCH  28  29
ATOM     29  N   UNL A   1      41.495  27.950  26.428  1.00  0.00    -0.352 N 
ATOM     30  C   UNL A   1      42.416  27.687  27.407  1.00  0.00     0.251 C 
ATOM     31  H   UNL A   1      41.542  27.365  25.638  1.00  0.00     0.163 HD
ATOM     32  O   UNL A   1      43.388  26.968  27.160  1.00  0.00    -0.269 OA
BRANCH  30  33
ATOM     33  C   UNL A   1      42.249  28.267  28.754  1.00  0.00     0.039 A 
ATOM     34  C   UNL A   1      42.764  29.538  29.021  1.00  0.00     0.014 A 
ATOM     35  C   UNL A   1      41.599  27.547  29.760  1.00  0.00     0.014 A 
ATOM     36  C   UNL A   1      42.575  30.111  30.281  1.00  0.00     0.010 A 
ATOM     37  C   UNL A   1      41.354  28.145  30.994  1.00  0.00     0.010 A 
ATOM     38  C   UNL A   1      41.842  29.431  31.268  1.00  0.00    -0.014 A 
BRANCH  38  39
ATOM     39  C   UNL A   1      41.568  30.048  32.591  1.00  0.00     0.031 A 
ATOM     40  C   UNL A   1      40.346  30.902  32.788  1.00  0.00     0.074 A 
ATOM     41  C   UNL A   1      42.458  29.897  33.592  1.00  0.00     0.049 A 
ATOM     42  N   UNL A   1      39.978  31.583  33.843  1.00  0.00    -0.248 NA
ATOM     43  C   UNL A   1      39.428  31.024  31.643  1.00  0.00     0.031 C 
ATOM     44  C   UNL A   1      43.698  29.121  33.515  1.00  0.00     0.029 A 
ATOM     45  N   UNL A   1      42.460  30.398  34.870  1.00  0.00    -0.354 N 
ATOM     46  C   UNL A   1      38.799  32.227  33.484  1.00  0.00     0.074 A 
ATOM     47  C   UNL A   1      38.537  31.890  32.102  1.00  0.00     0.031 C 
ATOM     48  C   UNL A   1      44.330  29.182  34.698  1.00  0.00     0.029 A 
ATOM     49  C   UNL A   1      43.566  30.033  35.603  1.00  0.00     0.049 A 
ATOM     50  H   UNL A   1      41.740  30.965  35.228  1.00  0.00     0.167 HD
ATOM     51  C   UNL A   1      37.998  33.013  34.243  1.00  0.00     0.031 A 
ATOM     52  C   UNL A   1      43.930  30.358  36.860  1.00  0.00     0.031 A 
ATOM     53  C   UNL A   1      38.260  33.341  35.619  1.00  0.00     0.049 A 
ATOM     54  C   UNL A   1      43.035  31.251  37.675  1.00  0.00     0.074 A 
ATOM     55  C   UNL A   1      37.482  34.085  36.489  1.00  0.00     0.029 A 
ATOM     56  N   UNL A   1      39.386  32.947  36.327  1.00  0.00    -0.354 N 
ATOM     57  N   UNL A   1      41.891  31.798  37.339  1.00  0.00    -0.248 NA
ATOM     58  C   UNL A   1      43.476  31.563  39.041  1.00  0.00     0.031 C 
ATOM     59  C   UNL A   1      38.165  34.188  37.705  1.00  0.00     0.029 A 
ATOM     60  C   UNL A   1      39.338  33.456  37.613  1.00  0.00     0.049 A 
ATOM     61  H   UNL A   1      40.113  32.389  35.966  1.00  0.00     0.167 HD
ATOM     62  C   UNL A   1      41.463  32.499  38.462  1.00  0.00     0.074 A 
ATOM     63  C   UNL A   1      42.463  32.294  39.489  1.00  0.00     0.031 C 
ATOM     64  C   UNL A   1      40.342  33.243  38.625  1.00  0.00     0.031 A 
BRANCH  51  65
ATOM     65  C   UNL A   1      36.763  33.583  33.593  1.00  0.00    -0.014 A 
ATOM     66  C   UNL A   1      35.494  33.024  33.833  1.00  0.00     0.010 A 
ATOM     67  C   UNL A   1      36.866  34.715  32.764  1.00  0.00     0.010 A 
ATOM     68  C   UNL A   1      34.357  33.561  33.222  1.00  0.00     0.020 A 
ATOM     69  C   UNL A   1      35.727  35.272  32.174  1.00  0.00     0.020 A 
ATOM     70  C   UNL A   1      34.482  34.680  32.393  1.00  0.00     0.054 A 
BRANCH  70  71
ATOM     71  S   UNL A   1      32.987  35.367  31.629  1.00  0.00     0.124 S 
ATOM     72  O   UNL A   1      31.946  34.919  32.550  1.00  0.00    -0.237 OA
ATOM     73  O   UNL A   1      33.255  36.803  31.636  1.00  0.00    -0.237 OA
ATOM     74  O   UNL A   1      32.958  34.749  30.306  1.00  0.00    -0.744 OA
ENDBRANCH  70  71
ENDBRANCH  51  65
BRANCH  52  75
ATOM     75  C   UNL A   1      45.200  29.826  37.425  1.00  0.00    -0.014 A 
ATOM     76  C   UNL A   1      46.381  30.584  37.363  1.00  0.00     0.010 A 
ATOM     77  C   UNL A   1      45.230  28.561  38.043  1.00  0.00     0.010 A 
ATOM     78  C   UNL A   1      47.574  30.082  37.893  1.00  0.00     0.020 A 
ATOM     79  C   UNL A   1      46.414  28.068  38.598  1.00  0.00     0.020 A 
ATOM     80  C   UNL A   1      47.582  28.828  38.510  1.00  0.00     0.054 A 
BRANCH  80  81
ATOM     81  S   UNL A   1      49.130  28.220  39.236  1.00  0.00     0.124 S 
ATOM     82  O   UNL A   1      48.973  28.592  40.638  1.00  0.00    -0.237 OA
ATOM     83  O   UNL A   1      49.073  26.789  38.949  1.00  0.00    -0.237 OA
ATOM     84  O   UNL A   1      50.161  28.953  38.504  1.00  0.00    -0.744 OA
ENDBRANCH  80  81
ENDBRANCH  52  75
BRANCH  64  85
ATOM     85  C   UNL A   1      40.115  33.869  39.975  1.00  0.00    -0.014 A 
ATOM     86  C   UNL A   1      40.493  35.198  40.236  1.00  0.00     0.010 A 
ATOM     87  C   UNL A   1      39.450  33.136  40.977  1.00  0.00     0.010 A 
ATOM     88  C   UNL A   1      40.233  35.775  41.481  1.00  0.00     0.020 A 
ATOM     89  C   UNL A   1      39.163  33.719  42.214  1.00  0.00     0.020 A 
ATOM     90  C   UNL A   1      39.567  35.032  42.462  1.00  0.00     0.054 A 
BRANCH  90  91
ATOM     91  S   UNL A   1      39.190  35.823  44.050  1.00  0.00     0.124 S 
ATOM     92  O   UNL A   1      39.642  37.192  43.823  1.00  0.00    -0.237 OA
ATOM     93  O   UNL A   1      37.743  35.647  44.160  1.00  0.00    -0.237 OA
ATOM     94  O   UNL A   1      39.978  35.059  45.015  1.00  0.00    -0.744 OA
ENDBRANCH  90  91
ENDBRANCH  64  85
ENDBRANCH  38  39
ENDBRANCH  30  33
ENDBRANCH  28  29
ENDBRANCH  27  28
ENDBRANCH  26  27
ENDBRANCH  25  26
ENDBRANCH   1  25
TORSDOF 22
ENDMDL
