MODEL 1
REMARK VINA RESULT:     -11.5      0.000      0.000
REMARK SMILES O=C(NCCCCCCNC(=O)[C@@H]1CC=CC[C@@H]1C(=O)Nc1ccc(O)cc1)c1ccc(-c2c3nc(c(-c4ccc(S(=O)(=O)[O-])cc4)c4ccc([nH]4)c(-c4ccc(S(=O)(=O)[O-])cc4)c4nc(c(-c5ccc(S(=O)(=O)[O-])cc5)c5ccc2[nH]5)C=C4)C=C3)cc1
REMARK SMILES IDX 6 1 5 2 4 3 3 4 1 5 2 6 29 8 30 9 88 10 31 11 87 12 32 13
REMARK SMILES IDX 33 14 34 15 81 16 35 17 86 18 80 19 82 20 36 21 85 22 79 23
REMARK SMILES IDX 78 24 37 26 67 27 48 28 66 29 49 30 52 31 65 32 83 33 50 34
REMARK SMILES IDX 51 35 64 37 84 38 53 39 38 40 39 41 47 42 40 43 46 44 41 45
REMARK SMILES IDX 42 46 43 47 44 48 45 49 68 50 69 51 77 52 70 53 76 54 71 55
REMARK SMILES IDX 72 56 73 57 74 58 75 59 54 60 55 61 63 62 56 63 62 64 57 65
REMARK SMILES IDX 58 66 59 67 60 68 61 69 7 70 8 71 9 72 10 73 11 74 12 76
REMARK SMILES IDX 13 77 14 78 18 79 15 80 17 81 16 82 19 83 20 84 21 85 22 87
REMARK SMILES IDX 23 88 28 89 24 90 27 91 25 92 26 93
REMARK H PARENT 3 7 82 25 52 36 10 75 21 86 26 94
REMARK Flexibility Score: inf
ROOT
ATOM      1  C   UNL A   1      31.539  27.207  26.204  1.00  0.00     0.002 C 
ENDROOT
BRANCH   1   2
ATOM      2  C   UNL A   1      32.942  27.639  25.771  1.00  0.00     0.021 C 
BRANCH   2   3
ATOM      3  C   UNL A   1      33.808  28.207  26.893  1.00  0.00     0.116 C 
BRANCH   3   4
ATOM      4  N   UNL A   1      33.582  29.633  27.066  1.00  0.00    -0.352 N 
ATOM      5  O   UNL A   1      33.906  31.631  28.077  1.00  0.00    -0.269 OA
ATOM      6  C   UNL A   1      34.352  30.526  27.768  1.00  0.00     0.251 C 
ATOM      7  H   UNL A   1      32.781  30.002  26.627  1.00  0.00     0.163 HD
BRANCH   6   8
ATOM      8  C   UNL A   1      35.725  30.140  28.149  1.00  0.00     0.039 A 
ATOM      9  C   UNL A   1      36.761  30.266  27.219  1.00  0.00     0.014 A 
ATOM     10  C   UNL A   1      35.979  29.652  29.432  1.00  0.00     0.014 A 
ATOM     11  C   UNL A   1      38.030  29.798  27.535  1.00  0.00     0.010 A 
ATOM     12  C   UNL A   1      37.276  29.259  29.774  1.00  0.00     0.010 A 
ATOM     13  C   UNL A   1      38.309  29.319  28.824  1.00  0.00    -0.014 A 
BRANCH  13  14
ATOM     14  C   UNL A   1      39.709  28.985  29.189  1.00  0.00     0.031 A 
ATOM     15  C   UNL A   1      40.600  29.979  29.877  1.00  0.00     0.074 A 
ATOM     16  C   UNL A   1      40.172  27.758  28.879  1.00  0.00     0.049 A 
ATOM     17  N   UNL A   1      41.848  29.841  30.249  1.00  0.00    -0.248 NA
ATOM     18  C   UNL A   1      40.025  31.298  30.181  1.00  0.00     0.031 C 
ATOM     19  C   UNL A   1      39.398  26.716  28.196  1.00  0.00     0.029 A 
ATOM     20  N   UNL A   1      41.392  27.174  29.097  1.00  0.00    -0.354 N 
ATOM     21  C   UNL A   1      42.217  31.058  30.809  1.00  0.00     0.074 A 
ATOM     22  C   UNL A   1      41.065  31.930  30.709  1.00  0.00     0.031 C 
ATOM     23  C   UNL A   1      40.150  25.613  28.080  1.00  0.00     0.029 A 
ATOM     24  C   UNL A   1      41.479  25.890  28.613  1.00  0.00     0.049 A 
ATOM     25  H   UNL A   1      42.134  27.630  29.556  1.00  0.00     0.167 HD
ATOM     26  C   UNL A   1      43.406  31.412  31.356  1.00  0.00     0.031 A 
ATOM     27  C   UNL A   1      42.518  25.036  28.568  1.00  0.00     0.031 A 
ATOM     28  C   UNL A   1      44.549  30.537  31.435  1.00  0.00     0.049 A 
ATOM     29  C   UNL A   1      43.833  25.463  29.149  1.00  0.00     0.074 A 
ATOM     30  C   UNL A   1      45.786  30.786  32.004  1.00  0.00     0.029 A 
ATOM     31  N   UNL A   1      44.603  29.250  30.918  1.00  0.00    -0.354 N 
ATOM     32  N   UNL A   1      44.146  26.600  29.722  1.00  0.00    -0.248 NA
ATOM     33  C   UNL A   1      44.932  24.493  29.082  1.00  0.00     0.031 C 
ATOM     34  C   UNL A   1      46.608  29.678  31.773  1.00  0.00     0.029 A 
ATOM     35  C   UNL A   1      45.862  28.707  31.122  1.00  0.00     0.049 A 
ATOM     36  H   UNL A   1      43.856  28.790  30.469  1.00  0.00     0.167 HD
ATOM     37  C   UNL A   1      45.477  26.477  30.101  1.00  0.00     0.074 A 
ATOM     38  C   UNL A   1      45.901  25.147  29.708  1.00  0.00     0.031 C 
ATOM     39  C   UNL A   1      46.274  27.385  30.717  1.00  0.00     0.031 A 
BRANCH  26  40
ATOM     40  C   UNL A   1      43.547  32.822  31.873  1.00  0.00    -0.014 A 
ATOM     41  C   UNL A   1      43.268  33.146  33.213  1.00  0.00     0.010 A 
ATOM     42  C   UNL A   1      44.000  33.837  31.010  1.00  0.00     0.010 A 
ATOM     43  C   UNL A   1      43.389  34.464  33.666  1.00  0.00     0.020 A 
ATOM     44  C   UNL A   1      44.151  35.151  31.464  1.00  0.00     0.020 A 
ATOM     45  C   UNL A   1      43.823  35.460  32.785  1.00  0.00     0.054 A 
BRANCH  45  46
ATOM     46  S   UNL A   1      43.965  37.161  33.398  1.00  0.00     0.124 S 
ATOM     47  O   UNL A   1      42.721  37.316  34.148  1.00  0.00    -0.237 OA
ATOM     48  O   UNL A   1      45.183  37.111  34.204  1.00  0.00    -0.237 OA
ATOM     49  O   UNL A   1      44.061  37.963  32.181  1.00  0.00    -0.744 OA
ENDBRANCH  45  46
ENDBRANCH  26  40
BRANCH  27  50
ATOM     50  C   UNL A   1      42.342  23.708  27.921  1.00  0.00    -0.014 A 
ATOM     51  C   UNL A   1      42.780  23.480  26.607  1.00  0.00     0.010 A 
ATOM     52  C   UNL A   1      41.778  22.641  28.650  1.00  0.00     0.010 A 
ATOM     53  C   UNL A   1      42.652  22.213  26.030  1.00  0.00     0.020 A 
ATOM     54  C   UNL A   1      41.679  21.367  28.089  1.00  0.00     0.020 A 
ATOM     55  C   UNL A   1      42.110  21.162  26.777  1.00  0.00     0.054 A 
BRANCH  55  56
ATOM     56  S   UNL A   1      42.021  19.512  26.031  1.00  0.00     0.124 S 
ATOM     57  O   UNL A   1      42.559  18.669  27.093  1.00  0.00    -0.237 OA
ATOM     58  O   UNL A   1      40.593  19.364  25.764  1.00  0.00    -0.237 OA
ATOM     59  O   UNL A   1      42.860  19.630  24.839  1.00  0.00    -0.744 OA
ENDBRANCH  55  56
ENDBRANCH  27  50
BRANCH  39  60
ATOM     60  C   UNL A   1      47.684  26.960  31.032  1.00  0.00    -0.014 A 
ATOM     61  C   UNL A   1      47.987  26.248  32.206  1.00  0.00     0.010 A 
ATOM     62  C   UNL A   1      48.711  27.233  30.110  1.00  0.00     0.010 A 
ATOM     63  C   UNL A   1      49.300  25.843  32.466  1.00  0.00     0.020 A 
ATOM     64  C   UNL A   1      50.017  26.803  30.352  1.00  0.00     0.020 A 
ATOM     65  C   UNL A   1      50.306  26.121  31.536  1.00  0.00     0.054 A 
BRANCH  65  66
ATOM     66  S   UNL A   1      51.991  25.540  31.873  1.00  0.00     0.124 S 
ATOM     67  O   UNL A   1      52.357  26.331  33.045  1.00  0.00    -0.237 OA
ATOM     68  O   UNL A   1      51.795  24.112  32.113  1.00  0.00    -0.237 OA
ATOM     69  O   UNL A   1      52.722  25.866  30.650  1.00  0.00    -0.744 OA
ENDBRANCH  65  66
ENDBRANCH  39  60
ENDBRANCH  13  14
ENDBRANCH   6   8
ENDBRANCH   3   4
ENDBRANCH   2   3
ENDBRANCH   1   2
BRANCH   1  70
ATOM     70  C   UNL A   1      30.839  26.232  25.258  1.00  0.00     0.002 C 
BRANCH  70  71
ATOM     71  C   UNL A   1      30.152  25.054  25.951  1.00  0.00     0.021 C 
BRANCH  71  72
ATOM     72  C   UNL A   1      30.760  23.680  25.692  1.00  0.00     0.116 C 
BRANCH  72  73
ATOM     73  N   UNL A   1      31.400  23.153  26.887  1.00  0.00    -0.356 N 
ATOM     74  C   UNL A   1      32.653  22.732  27.169  1.00  0.00     0.224 C 
ATOM     75  H   UNL A   1      30.789  23.091  27.656  1.00  0.00     0.163 HD
ATOM     76  O   UNL A   1      32.821  22.254  28.300  1.00  0.00    -0.275 OA
BRANCH  74  77
ATOM     77  C   UNL A   1      33.845  22.796  26.217  1.00  0.00     0.095 C 
ATOM     78  C   UNL A   1      33.995  24.167  25.549  1.00  0.00     0.041 C 
ATOM     79  C   UNL A   1      34.120  21.562  25.333  1.00  0.00     0.095 C 
ATOM     80  C   UNL A   1      35.122  24.230  24.568  1.00  0.00    -0.030 C 
ATOM     81  C   UNL A   1      35.418  21.741  24.500  1.00  0.00     0.041 C 
ATOM     82  C   UNL A   1      35.760  23.148  24.107  1.00  0.00    -0.030 C 
BRANCH  79  83
ATOM     83  C   UNL A   1      33.017  21.159  24.378  1.00  0.00     0.228 C 
ATOM     84  O   UNL A   1      32.260  22.010  23.895  1.00  0.00    -0.274 OA
ATOM     85  N   UNL A   1      32.844  19.879  23.936  1.00  0.00    -0.326 N 
ATOM     86  H   UNL A   1      32.412  19.842  23.053  1.00  0.00     0.169 HD
BRANCH  85  87
ATOM     87  C   UNL A   1      33.138  18.596  24.444  1.00  0.00     0.041 A 
ATOM     88  C   UNL A   1      32.681  18.069  25.651  1.00  0.00     0.030 A 
ATOM     89  C   UNL A   1      33.810  17.731  23.562  1.00  0.00     0.030 A 
ATOM     90  C   UNL A   1      32.834  16.709  25.951  1.00  0.00     0.048 A 
ATOM     91  C   UNL A   1      33.967  16.372  23.857  1.00  0.00     0.048 A 
ATOM     92  C   UNL A   1      33.465  15.869  25.046  1.00  0.00     0.115 A 
BRANCH  92  93
ATOM     93  O   UNL A   1      33.595  14.536  25.288  1.00  0.00    -0.508 OA
ATOM     94  H   UNL A   1      33.887  13.961  24.609  1.00  0.00     0.293 HD
ENDBRANCH  92  93
ENDBRANCH  85  87
ENDBRANCH  79  83
ENDBRANCH  74  77
ENDBRANCH  72  73
ENDBRANCH  71  72
ENDBRANCH  70  71
ENDBRANCH   1  70
TORSDOF 19
ENDMDL
MODEL 2
REMARK VINA RESULT:     -11.1      4.293      9.865
REMARK SMILES O=C(NCCCCCCNC(=O)[C@@H]1CC=CC[C@@H]1C(=O)Nc1ccc(O)cc1)c1ccc(-c2c3nc(c(-c4ccc(S(=O)(=O)[O-])cc4)c4ccc([nH]4)c(-c4ccc(S(=O)(=O)[O-])cc4)c4nc(c(-c5ccc(S(=O)(=O)[O-])cc5)c5ccc2[nH]5)C=C4)C=C3)cc1
REMARK SMILES IDX 6 1 5 2 4 3 3 4 1 5 2 6 29 8 30 9 88 10 31 11 87 12 32 13
REMARK SMILES IDX 33 14 34 15 81 16 35 17 86 18 80 19 82 20 36 21 85 22 79 23
REMARK SMILES IDX 78 24 37 26 67 27 48 28 66 29 49 30 52 31 65 32 83 33 50 34
REMARK SMILES IDX 51 35 64 37 84 38 53 39 38 40 39 41 47 42 40 43 46 44 41 45
REMARK SMILES IDX 42 46 43 47 44 48 45 49 68 50 69 51 77 52 70 53 76 54 71 55
REMARK SMILES IDX 72 56 73 57 74 58 75 59 54 60 55 61 63 62 56 63 62 64 57 65
REMARK SMILES IDX 58 66 59 67 60 68 61 69 7 70 8 71 9 72 10 73 11 74 12 76
REMARK SMILES IDX 13 77 14 78 18 79 15 80 17 81 16 82 19 83 20 84 21 85 22 87
REMARK SMILES IDX 23 88 28 89 24 90 27 91 25 92 26 93
REMARK H PARENT 3 7 82 25 52 36 10 75 21 86 26 94
REMARK Flexibility Score: inf
ROOT
ATOM      1  C   UNL A   1      39.909  21.731  26.410  1.00  0.00     0.002 C 
ENDROOT
BRANCH   1   2
ATOM      2  C   UNL A   1      40.389  22.713  27.482  1.00  0.00     0.021 C 
BRANCH   2   3
ATOM      3  C   UNL A   1      41.835  23.173  27.324  1.00  0.00     0.116 C 
BRANCH   3   4
ATOM      4  N   UNL A   1      42.011  23.962  26.115  1.00  0.00    -0.352 N 
ATOM      5  O   UNL A   1      41.667  25.776  24.807  1.00  0.00    -0.269 OA
ATOM      6  C   UNL A   1      41.751  25.298  25.938  1.00  0.00     0.251 C 
ATOM      7  H   UNL A   1      42.358  23.481  25.329  1.00  0.00     0.163 HD
BRANCH   6   8
ATOM      8  C   UNL A   1      41.571  26.154  27.129  1.00  0.00     0.039 A 
ATOM      9  C   UNL A   1      42.584  27.044  27.499  1.00  0.00     0.014 A 
ATOM     10  C   UNL A   1      40.394  26.067  27.875  1.00  0.00     0.014 A 
ATOM     11  C   UNL A   1      42.468  27.767  28.678  1.00  0.00     0.010 A 
ATOM     12  C   UNL A   1      40.246  26.859  29.018  1.00  0.00     0.010 A 
ATOM     13  C   UNL A   1      41.286  27.706  29.435  1.00  0.00    -0.014 A 
BRANCH  13  14
ATOM     14  C   UNL A   1      41.119  28.615  30.597  1.00  0.00     0.031 A 
ATOM     15  C   UNL A   1      41.996  28.506  31.812  1.00  0.00     0.074 A 
ATOM     16  C   UNL A   1      40.148  29.547  30.540  1.00  0.00     0.049 A 
ATOM     17  N   UNL A   1      41.965  29.217  32.910  1.00  0.00    -0.248 NA
ATOM     18  C   UNL A   1      43.033  27.463  31.799  1.00  0.00     0.031 C 
ATOM     19  C   UNL A   1      39.226  29.733  29.415  1.00  0.00     0.029 A 
ATOM     20  N   UNL A   1      39.773  30.512  31.439  1.00  0.00    -0.354 N 
ATOM     21  C   UNL A   1      42.960  28.698  33.730  1.00  0.00     0.074 A 
ATOM     22  C   UNL A   1      43.562  27.596  33.009  1.00  0.00     0.031 C 
ATOM     23  C   UNL A   1      38.416  30.768  29.676  1.00  0.00     0.029 A 
ATOM     24  C   UNL A   1      38.709  31.272  31.013  1.00  0.00     0.049 A 
ATOM     25  H   UNL A   1      40.222  30.648  32.304  1.00  0.00     0.167 HD
ATOM     26  C   UNL A   1      43.334  29.104  34.968  1.00  0.00     0.031 A 
ATOM     27  C   UNL A   1      38.019  32.245  31.635  1.00  0.00     0.031 A 
ATOM     28  C   UNL A   1      42.714  30.195  35.679  1.00  0.00     0.049 A 
ATOM     29  C   UNL A   1      38.431  32.654  33.018  1.00  0.00     0.074 A 
ATOM     30  C   UNL A   1      43.045  30.710  36.921  1.00  0.00     0.029 A 
ATOM     31  N   UNL A   1      41.628  30.929  35.222  1.00  0.00    -0.354 N 
ATOM     32  N   UNL A   1      39.408  32.185  33.755  1.00  0.00    -0.248 NA
ATOM     33  C   UNL A   1      37.651  33.724  33.651  1.00  0.00     0.031 C 
ATOM     34  C   UNL A   1      42.119  31.709  37.243  1.00  0.00     0.029 A 
ATOM     35  C   UNL A   1      41.254  31.867  36.171  1.00  0.00     0.049 A 
ATOM     36  H   UNL A   1      41.188  30.800  34.351  1.00  0.00     0.167 HD
ATOM     37  C   UNL A   1      39.374  32.916  34.936  1.00  0.00     0.074 A 
ATOM     38  C   UNL A   1      38.290  33.871  34.804  1.00  0.00     0.031 C 
ATOM     39  C   UNL A   1      40.167  32.804  36.031  1.00  0.00     0.031 A 
BRANCH  26  40
ATOM     40  C   UNL A   1      44.438  28.338  35.654  1.00  0.00    -0.014 A 
ATOM     41  C   UNL A   1      45.787  28.714  35.520  1.00  0.00     0.010 A 
ATOM     42  C   UNL A   1      44.117  27.240  36.474  1.00  0.00     0.010 A 
ATOM     43  C   UNL A   1      46.795  27.976  36.150  1.00  0.00     0.020 A 
ATOM     44  C   UNL A   1      45.118  26.519  37.130  1.00  0.00     0.020 A 
ATOM     45  C   UNL A   1      46.454  26.878  36.946  1.00  0.00     0.054 A 
BRANCH  45  46
ATOM     46  S   UNL A   1      47.782  25.938  37.747  1.00  0.00     0.124 S 
ATOM     47  O   UNL A   1      47.936  26.654  39.012  1.00  0.00    -0.237 OA
ATOM     48  O   UNL A   1      47.210  24.598  37.850  1.00  0.00    -0.237 OA
ATOM     49  O   UNL A   1      48.905  26.063  36.822  1.00  0.00    -0.744 OA
ENDBRANCH  45  46
ENDBRANCH  26  40
BRANCH  27  50
ATOM     50  C   UNL A   1      36.855  32.866  30.948  1.00  0.00    -0.014 A 
ATOM     51  C   UNL A   1      35.541  32.485  31.265  1.00  0.00     0.010 A 
ATOM     52  C   UNL A   1      37.062  33.892  30.004  1.00  0.00     0.010 A 
ATOM     53  C   UNL A   1      34.456  33.113  30.647  1.00  0.00     0.020 A 
ATOM     54  C   UNL A   1      35.980  34.544  29.410  1.00  0.00     0.020 A 
ATOM     55  C   UNL A   1      34.682  34.144  29.729  1.00  0.00     0.054 A 
BRANCH  55  56
ATOM     56  S   UNL A   1      33.256  34.990  28.995  1.00  0.00     0.124 S 
ATOM     57  O   UNL A   1      32.796  34.014  28.013  1.00  0.00    -0.237 OA
ATOM     58  O   UNL A   1      32.382  35.192  30.147  1.00  0.00    -0.237 OA
ATOM     59  O   UNL A   1      33.833  36.213  28.439  1.00  0.00    -0.744 OA
ENDBRANCH  55  56
ENDBRANCH  27  50
BRANCH  39  60
ATOM     60  C   UNL A   1      39.911  33.761  37.166  1.00  0.00    -0.014 A 
ATOM     61  C   UNL A   1      40.463  35.053  37.171  1.00  0.00     0.010 A 
ATOM     62  C   UNL A   1      39.060  33.374  38.218  1.00  0.00     0.010 A 
ATOM     63  C   UNL A   1      40.192  35.932  38.224  1.00  0.00     0.020 A 
ATOM     64  C   UNL A   1      38.763  34.260  39.255  1.00  0.00     0.020 A 
ATOM     65  C   UNL A   1      39.342  35.530  39.258  1.00  0.00     0.054 A 
BRANCH  65  66
ATOM     66  S   UNL A   1      38.965  36.707  40.586  1.00  0.00     0.124 S 
ATOM     67  O   UNL A   1      38.004  35.959  41.392  1.00  0.00    -0.237 OA
ATOM     68  O   UNL A   1      40.272  36.923  41.203  1.00  0.00    -0.237 OA
ATOM     69  O   UNL A   1      38.417  37.863  39.880  1.00  0.00    -0.744 OA
ENDBRANCH  65  66
ENDBRANCH  39  60
ENDBRANCH  13  14
ENDBRANCH   6   8
ENDBRANCH   3   4
ENDBRANCH   2   3
ENDBRANCH   1   2
BRANCH   1  70
ATOM     70  C   UNL A   1      38.551  22.059  25.791  1.00  0.00     0.002 C 
BRANCH  70  71
ATOM     71  C   UNL A   1      37.945  20.932  24.952  1.00  0.00     0.021 C 
BRANCH  71  72
ATOM     72  C   UNL A   1      36.497  20.573  25.262  1.00  0.00     0.116 C 
BRANCH  72  73
ATOM     73  N   UNL A   1      35.905  21.525  26.189  1.00  0.00    -0.356 N 
ATOM     74  C   UNL A   1      35.175  22.653  26.034  1.00  0.00     0.224 C 
ATOM     75  H   UNL A   1      36.071  21.300  27.132  1.00  0.00     0.163 HD
ATOM     76  O   UNL A   1      34.909  23.272  27.074  1.00  0.00    -0.275 OA
BRANCH  74  77
ATOM     77  C   UNL A   1      34.673  23.207  24.703  1.00  0.00     0.095 C 
ATOM     78  C   UNL A   1      34.353  24.704  24.769  1.00  0.00     0.041 C 
ATOM     79  C   UNL A   1      33.704  22.329  23.883  1.00  0.00     0.095 C 
ATOM     80  C   UNL A   1      33.803  25.251  23.490  1.00  0.00    -0.030 C 
ATOM     81  C   UNL A   1      33.368  22.982  22.515  1.00  0.00     0.041 C 
ATOM     82  C   UNL A   1      33.372  24.482  22.483  1.00  0.00    -0.030 C 
BRANCH  79  83
ATOM     83  C   UNL A   1      32.395  21.967  24.551  1.00  0.00     0.228 C 
ATOM     84  O   UNL A   1      31.746  22.820  25.167  1.00  0.00    -0.274 OA
ATOM     85  N   UNL A   1      31.822  20.732  24.448  1.00  0.00    -0.326 N 
ATOM     86  H   UNL A   1      30.843  20.763  24.545  1.00  0.00     0.169 HD
BRANCH  85  87
ATOM     87  C   UNL A   1      32.299  19.421  24.234  1.00  0.00     0.041 A 
ATOM     88  C   UNL A   1      32.479  18.807  22.997  1.00  0.00     0.030 A 
ATOM     89  C   UNL A   1      32.792  18.759  25.373  1.00  0.00     0.030 A 
ATOM     90  C   UNL A   1      33.177  17.598  22.883  1.00  0.00     0.048 A 
ATOM     91  C   UNL A   1      33.489  17.552  25.265  1.00  0.00     0.048 A 
ATOM     92  C   UNL A   1      33.688  16.986  24.017  1.00  0.00     0.115 A 
BRANCH  92  93
ATOM     93  O   UNL A   1      34.406  15.832  23.938  1.00  0.00    -0.508 OA
ATOM     94  H   UNL A   1      35.157  15.708  24.484  1.00  0.00     0.293 HD
ENDBRANCH  92  93
ENDBRANCH  85  87
ENDBRANCH  79  83
ENDBRANCH  74  77
ENDBRANCH  72  73
ENDBRANCH  71  72
ENDBRANCH  70  71
ENDBRANCH   1  70
TORSDOF 19
ENDMDL
MODEL 3
REMARK VINA RESULT:     -11.0      1.371      3.193
REMARK SMILES O=C(NCCCCCCNC(=O)[C@@H]1CC=CC[C@@H]1C(=O)Nc1ccc(O)cc1)c1ccc(-c2c3nc(c(-c4ccc(S(=O)(=O)[O-])cc4)c4ccc([nH]4)c(-c4ccc(S(=O)(=O)[O-])cc4)c4nc(c(-c5ccc(S(=O)(=O)[O-])cc5)c5ccc2[nH]5)C=C4)C=C3)cc1
REMARK SMILES IDX 6 1 5 2 4 3 3 4 1 5 2 6 29 8 30 9 88 10 31 11 87 12 32 13
REMARK SMILES IDX 33 14 34 15 81 16 35 17 86 18 80 19 82 20 36 21 85 22 79 23
REMARK SMILES IDX 78 24 37 26 67 27 48 28 66 29 49 30 52 31 65 32 83 33 50 34
REMARK SMILES IDX 51 35 64 37 84 38 53 39 38 40 39 41 47 42 40 43 46 44 41 45
REMARK SMILES IDX 42 46 43 47 44 48 45 49 68 50 69 51 77 52 70 53 76 54 71 55
REMARK SMILES IDX 72 56 73 57 74 58 75 59 54 60 55 61 63 62 56 63 62 64 57 65
REMARK SMILES IDX 58 66 59 67 60 68 61 69 7 70 8 71 9 72 10 73 11 74 12 76
REMARK SMILES IDX 13 77 14 78 18 79 15 80 17 81 16 82 19 83 20 84 21 85 22 87
REMARK SMILES IDX 23 88 28 89 24 90 27 91 25 92 26 93
REMARK H PARENT 3 7 82 25 52 36 10 75 21 86 26 94
REMARK Flexibility Score: inf
ROOT
ATOM      1  C   UNL A   1      32.027  27.797  26.823  1.00  0.00     0.002 C 
ENDROOT
BRANCH   1   2
ATOM      2  C   UNL A   1      33.482  27.405  26.553  1.00  0.00     0.021 C 
BRANCH   2   3
ATOM      3  C   UNL A   1      34.353  28.530  26.002  1.00  0.00     0.116 C 
BRANCH   3   4
ATOM      4  N   UNL A   1      33.983  29.815  26.574  1.00  0.00    -0.352 N 
ATOM      5  O   UNL A   1      34.013  31.405  28.183  1.00  0.00    -0.269 OA
ATOM      6  C   UNL A   1      34.588  30.478  27.612  1.00  0.00     0.251 C 
ATOM      7  H   UNL A   1      33.206  30.263  26.168  1.00  0.00     0.163 HD
BRANCH   6   8
ATOM      8  C   UNL A   1      35.939  30.060  28.035  1.00  0.00     0.039 A 
ATOM      9  C   UNL A   1      37.017  30.218  27.158  1.00  0.00     0.014 A 
ATOM     10  C   UNL A   1      36.132  29.511  29.304  1.00  0.00     0.014 A 
ATOM     11  C   UNL A   1      38.267  29.723  27.507  1.00  0.00     0.010 A 
ATOM     12  C   UNL A   1      37.409  29.090  29.684  1.00  0.00     0.010 A 
ATOM     13  C   UNL A   1      38.484  29.182  28.784  1.00  0.00    -0.014 A 
BRANCH  13  14
ATOM     14  C   UNL A   1      39.864  28.817  29.194  1.00  0.00     0.031 A 
ATOM     15  C   UNL A   1      40.745  29.782  29.934  1.00  0.00     0.074 A 
ATOM     16  C   UNL A   1      40.317  27.588  28.879  1.00  0.00     0.049 A 
ATOM     17  N   UNL A   1      41.976  29.616  30.349  1.00  0.00    -0.248 NA
ATOM     18  C   UNL A   1      40.180  31.105  30.241  1.00  0.00     0.031 C 
ATOM     19  C   UNL A   1      39.552  26.572  28.147  1.00  0.00     0.029 A 
ATOM     20  N   UNL A   1      41.519  26.979  29.131  1.00  0.00    -0.354 N 
ATOM     21  C   UNL A   1      42.343  30.816  30.946  1.00  0.00     0.074 A 
ATOM     22  C   UNL A   1      41.211  31.710  30.819  1.00  0.00     0.031 C 
ATOM     23  C   UNL A   1      40.290  25.459  28.039  1.00  0.00     0.029 A 
ATOM     24  C   UNL A   1      41.602  25.703  28.626  1.00  0.00     0.049 A 
ATOM     25  H   UNL A   1      42.251  27.413  29.625  1.00  0.00     0.167 HD
ATOM     26  C   UNL A   1      43.517  31.140  31.542  1.00  0.00     0.031 A 
ATOM     27  C   UNL A   1      42.627  24.832  28.603  1.00  0.00     0.031 A 
ATOM     28  C   UNL A   1      44.641  30.243  31.647  1.00  0.00     0.049 A 
ATOM     29  C   UNL A   1      43.927  25.225  29.240  1.00  0.00     0.074 A 
ATOM     30  C   UNL A   1      45.860  30.460  32.266  1.00  0.00     0.029 A 
ATOM     31  N   UNL A   1      44.693  28.965  31.108  1.00  0.00    -0.354 N 
ATOM     32  N   UNL A   1      44.237  26.346  29.846  1.00  0.00    -0.248 NA
ATOM     33  C   UNL A   1      45.011  24.238  29.196  1.00  0.00     0.031 C 
ATOM     34  C   UNL A   1      46.671  29.342  32.045  1.00  0.00     0.029 A 
ATOM     35  C   UNL A   1      45.934  28.397  31.349  1.00  0.00     0.049 A 
ATOM     36  H   UNL A   1      43.956  28.527  30.623  1.00  0.00     0.167 HD
ATOM     37  C   UNL A   1      45.550  26.193  30.272  1.00  0.00     0.074 A 
ATOM     38  C   UNL A   1      45.966  24.863  29.870  1.00  0.00     0.031 C 
ATOM     39  C   UNL A   1      46.339  27.076  30.934  1.00  0.00     0.031 A 
BRANCH  26  40
ATOM     40  C   UNL A   1      43.662  32.537  32.091  1.00  0.00    -0.014 A 
ATOM     41  C   UNL A   1      43.337  32.841  33.426  1.00  0.00     0.010 A 
ATOM     42  C   UNL A   1      44.166  33.560  31.265  1.00  0.00     0.010 A 
ATOM     43  C   UNL A   1      43.463  34.149  33.907  1.00  0.00     0.020 A 
ATOM     44  C   UNL A   1      44.321  34.861  31.750  1.00  0.00     0.020 A 
ATOM     45  C   UNL A   1      43.948  35.153  33.063  1.00  0.00     0.054 A 
BRANCH  45  46
ATOM     46  S   UNL A   1      44.096  36.839  33.712  1.00  0.00     0.124 S 
ATOM     47  O   UNL A   1      43.455  37.625  32.660  1.00  0.00    -0.237 OA
ATOM     48  O   UNL A   1      43.363  36.763  34.974  1.00  0.00    -0.237 OA
ATOM     49  O   UNL A   1      45.537  37.037  33.845  1.00  0.00    -0.744 OA
ENDBRANCH  45  46
ENDBRANCH  26  40
BRANCH  27  50
ATOM     50  C   UNL A   1      42.453  23.519  27.925  1.00  0.00    -0.014 A 
ATOM     51  C   UNL A   1      42.907  23.318  26.612  1.00  0.00     0.010 A 
ATOM     52  C   UNL A   1      41.875  22.440  28.623  1.00  0.00     0.010 A 
ATOM     53  C   UNL A   1      42.781  22.064  26.006  1.00  0.00     0.020 A 
ATOM     54  C   UNL A   1      41.778  21.179  28.033  1.00  0.00     0.020 A 
ATOM     55  C   UNL A   1      42.224  21.001  26.723  1.00  0.00     0.054 A 
BRANCH  55  56
ATOM     56  S   UNL A   1      42.137  19.368  25.940  1.00  0.00     0.124 S 
ATOM     57  O   UNL A   1      43.002  19.542  24.777  1.00  0.00    -0.237 OA
ATOM     58  O   UNL A   1      42.651  18.488  26.986  1.00  0.00    -0.237 OA
ATOM     59  O   UNL A   1      40.715  19.205  25.643  1.00  0.00    -0.744 OA
ENDBRANCH  55  56
ENDBRANCH  27  50
BRANCH  39  60
ATOM     60  C   UNL A   1      47.729  26.620  31.293  1.00  0.00    -0.014 A 
ATOM     61  C   UNL A   1      47.984  25.924  32.488  1.00  0.00     0.010 A 
ATOM     62  C   UNL A   1      48.786  26.848  30.392  1.00  0.00     0.010 A 
ATOM     63  C   UNL A   1      49.278  25.491  32.789  1.00  0.00     0.020 A 
ATOM     64  C   UNL A   1      50.074  26.389  30.676  1.00  0.00     0.020 A 
ATOM     65  C   UNL A   1      50.314  25.724  31.880  1.00  0.00     0.054 A 
BRANCH  65  66
ATOM     66  S   UNL A   1      51.974  25.105  32.271  1.00  0.00     0.124 S 
ATOM     67  O   UNL A   1      51.775  23.658  32.236  1.00  0.00    -0.237 OA
ATOM     68  O   UNL A   1      52.785  25.655  31.187  1.00  0.00    -0.237 OA
ATOM     69  O   UNL A   1      52.250  25.663  33.593  1.00  0.00    -0.744 OA
ENDBRANCH  65  66
ENDBRANCH  39  60
ENDBRANCH  13  14
ENDBRANCH   6   8
ENDBRANCH   3   4
ENDBRANCH   2   3
ENDBRANCH   1   2
BRANCH   1  70
ATOM     70  C   UNL A   1      31.002  27.191  25.865  1.00  0.00     0.002 C 
BRANCH  70  71
ATOM     71  C   UNL A   1      30.403  25.863  26.330  1.00  0.00     0.021 C 
BRANCH  71  72
ATOM     72  C   UNL A   1      31.015  24.605  25.723  1.00  0.00     0.116 C 
BRANCH  72  73
ATOM     73  N   UNL A   1      31.963  23.987  26.636  1.00  0.00    -0.356 N 
ATOM     74  C   UNL A   1      32.553  22.772  26.693  1.00  0.00     0.224 C 
ATOM     75  H   UNL A   1      32.235  24.583  27.371  1.00  0.00     0.163 HD
ATOM     76  O   UNL A   1      33.260  22.560  27.689  1.00  0.00    -0.275 OA
BRANCH  74  77
ATOM     77  C   UNL A   1      32.411  21.669  25.648  1.00  0.00     0.095 C 
ATOM     78  C   UNL A   1      32.949  20.320  26.135  1.00  0.00     0.041 C 
ATOM     79  C   UNL A   1      32.698  22.037  24.177  1.00  0.00     0.095 C 
ATOM     80  C   UNL A   1      32.872  19.241  25.102  1.00  0.00    -0.030 C 
ATOM     81  C   UNL A   1      32.411  20.842  23.228  1.00  0.00     0.041 C 
ATOM     82  C   UNL A   1      32.624  19.474  23.808  1.00  0.00    -0.030 C 
BRANCH  79  83
ATOM     83  C   UNL A   1      34.092  22.540  23.868  1.00  0.00     0.228 C 
ATOM     84  O   UNL A   1      35.082  22.005  24.381  1.00  0.00    -0.274 OA
ATOM     85  N   UNL A   1      34.343  23.534  22.967  1.00  0.00    -0.326 N 
ATOM     86  H   UNL A   1      35.240  23.460  22.567  1.00  0.00     0.169 HD
BRANCH  85  87
ATOM     87  C   UNL A   1      33.624  24.642  22.471  1.00  0.00     0.041 A 
ATOM     88  C   UNL A   1      32.839  24.660  21.320  1.00  0.00     0.030 A 
ATOM     89  C   UNL A   1      33.569  25.762  23.320  1.00  0.00     0.030 A 
ATOM     90  C   UNL A   1      31.980  25.732  21.045  1.00  0.00     0.048 A 
ATOM     91  C   UNL A   1      32.715  26.836  23.051  1.00  0.00     0.048 A 
ATOM     92  C   UNL A   1      31.916  26.806  21.920  1.00  0.00     0.115 A 
BRANCH  92  93
ATOM     93  O   UNL A   1      31.064  27.845  21.703  1.00  0.00    -0.508 OA
ATOM     94  H   UNL A   1      30.781  28.377  22.421  1.00  0.00     0.293 HD
ENDBRANCH  92  93
ENDBRANCH  85  87
ENDBRANCH  79  83
ENDBRANCH  74  77
ENDBRANCH  72  73
ENDBRANCH  71  72
ENDBRANCH  70  71
ENDBRANCH   1  70
TORSDOF 19
ENDMDL
