MODEL 1
REMARK VINA RESULT:      -9.8      0.000      0.000
REMARK SMILES CCOC(=O)c1cccc(NC(=O)CCC(=O)NCCCCCCNC(=O)c2ccc(-c3c4nc(c(-c5ccc(S(=O)(=O)[O-])cc5)c5ccc([nH]5)c(-c5ccc(S(=O)(=O)[O-])cc5)c5nc(c(-c6ccc(S(=O)(=O)[O-])cc6)c6ccc3[nH]6)C=C5)C=C4)cc2)c1
REMARK SMILES IDX 20 1 19 2 18 3 16 4 17 5 15 7 14 8 12 9 11 10 13 12 10 13
REMARK SMILES IDX 6 14 7 15 88 16 8 17 9 18 4 19 5 20 3 21 2 22 1 23 21 24
REMARK SMILES IDX 22 25 23 26 24 27 25 28 26 29 27 31 28 32 29 33 87 34 30 35
REMARK SMILES IDX 86 36 31 37 32 38 33 39 80 40 34 41 85 42 79 43 81 44 35 45
REMARK SMILES IDX 84 46 78 47 77 48 36 50 66 51 47 52 65 53 48 54 51 55 64 56
REMARK SMILES IDX 82 57 49 58 50 59 63 61 83 62 52 63 37 64 38 65 46 66 39 67
REMARK SMILES IDX 45 68 40 69 41 70 42 71 43 72 44 73 67 74 68 75 76 76 69 77
REMARK SMILES IDX 75 78 70 79 71 80 72 81 73 82 74 83 53 84 54 85 62 86 55 87
REMARK SMILES IDX 61 88 56 89 57 90 58 91 59 92 60 93
REMARK H PARENT 18 6 11 11 25 30 81 49 51 60
REMARK Flexibility Score: inf
ROOT
ATOM      1  C   UNL A   1      32.972  27.081  22.753  1.00  0.00     0.021 C 
ENDROOT
BRANCH   1   2
ATOM      2  C   UNL A   1      31.697  26.398  22.273  1.00  0.00     0.116 C 
BRANCH   2   3
ATOM      3  N   UNL A   1      30.649  26.404  23.278  1.00  0.00    -0.356 N 
ATOM      4  C   UNL A   1      30.419  25.541  24.304  1.00  0.00     0.220 C 
ATOM      5  O   UNL A   1      29.524  25.801  25.111  1.00  0.00    -0.275 OA
ATOM      6  H   UNL A   1      30.007  27.146  23.206  1.00  0.00     0.163 HD
BRANCH   4   7
ATOM      7  C   UNL A   1      31.250  24.290  24.454  1.00  0.00     0.110 C 
BRANCH   7   8
ATOM      8  C   UNL A   1      30.548  23.127  25.144  1.00  0.00     0.110 C 
BRANCH   8   9
ATOM      9  C   UNL A   1      30.976  22.844  26.570  1.00  0.00     0.224 C 
ATOM     10  N   UNL A   1      32.140  22.206  26.901  1.00  0.00    -0.326 N 
ATOM     11  H   UNL A   1      32.233  21.994  27.858  1.00  0.00     0.169 HD
ATOM     12  O   UNL A   1      30.285  23.272  27.503  1.00  0.00    -0.275 OA
BRANCH  10  13
ATOM     13  C   UNL A   1      33.222  21.802  26.105  1.00  0.00     0.042 A 
ATOM     14  C   UNL A   1      34.290  19.952  24.965  1.00  0.00     0.062 A 
ATOM     15  C   UNL A   1      35.474  20.688  24.882  1.00  0.00     0.016 A 
ATOM     16  C   UNL A   1      33.141  20.532  25.515  1.00  0.00     0.041 A 
ATOM     17  C   UNL A   1      35.504  22.005  25.331  1.00  0.00     0.003 A 
ATOM     18  C   UNL A   1      34.380  22.558  25.946  1.00  0.00     0.026 A 
BRANCH  14  19
ATOM     19  C   UNL A   1      34.351  18.515  24.628  1.00  0.00     0.338 C 
ATOM     20  O   UNL A   1      35.411  17.915  24.499  1.00  0.00    -0.246 OA
BRANCH  19  21
ATOM     21  O   UNL A   1      33.112  17.995  24.460  1.00  0.00    -0.462 OA
BRANCH  21  22
ATOM     22  C   UNL A   1      32.889  17.387  23.174  1.00  0.00     0.230 C 
ATOM     23  C   UNL A   1      32.290  18.380  22.189  1.00  0.00     0.049 C 
ENDBRANCH  21  22
ENDBRANCH  19  21
ENDBRANCH  14  19
ENDBRANCH  10  13
ENDBRANCH   8   9
ENDBRANCH   7   8
ENDBRANCH   4   7
ENDBRANCH   2   3
ENDBRANCH   1   2
BRANCH   1  24
ATOM     24  C   UNL A   1      33.962  26.164  23.479  1.00  0.00     0.002 C 
BRANCH  24  25
ATOM     25  C   UNL A   1      34.092  26.420  24.979  1.00  0.00     0.002 C 
BRANCH  25  26
ATOM     26  C   UNL A   1      34.065  27.892  25.385  1.00  0.00     0.021 C 
BRANCH  26  27
ATOM     27  C   UNL A   1      34.213  28.147  26.882  1.00  0.00     0.116 C 
BRANCH  27  28
ATOM     28  N   UNL A   1      33.817  29.496  27.252  1.00  0.00    -0.352 N 
ATOM     29  C   UNL A   1      34.514  30.410  28.001  1.00  0.00     0.251 C 
ATOM     30  H   UNL A   1      32.938  29.791  26.922  1.00  0.00     0.163 HD
ATOM     31  O   UNL A   1      33.972  31.437  28.397  1.00  0.00    -0.269 OA
BRANCH  29  32
ATOM     32  C   UNL A   1      35.922  30.123  28.343  1.00  0.00     0.039 A 
ATOM     33  C   UNL A   1      36.227  29.609  29.603  1.00  0.00     0.014 A 
ATOM     34  C   UNL A   1      36.928  30.321  27.392  1.00  0.00     0.014 A 
ATOM     35  C   UNL A   1      37.542  29.242  29.893  1.00  0.00     0.010 A 
ATOM     36  C   UNL A   1      38.219  29.877  27.654  1.00  0.00     0.010 A 
ATOM     37  C   UNL A   1      38.543  29.347  28.913  1.00  0.00    -0.014 A 
BRANCH  37  38
ATOM     38  C   UNL A   1      39.944  28.942  29.194  1.00  0.00     0.031 A 
ATOM     39  C   UNL A   1      40.885  29.916  29.850  1.00  0.00     0.074 A 
ATOM     40  C   UNL A   1      40.383  27.726  28.815  1.00  0.00     0.049 A 
ATOM     41  N   UNL A   1      42.153  29.772  30.140  1.00  0.00    -0.248 NA
ATOM     42  C   UNL A   1      40.335  31.236  30.202  1.00  0.00     0.031 C 
ATOM     43  C   UNL A   1      39.580  26.704  28.139  1.00  0.00     0.029 A 
ATOM     44  N   UNL A   1      41.619  27.142  28.946  1.00  0.00    -0.354 N 
ATOM     45  C   UNL A   1      42.553  30.985  30.690  1.00  0.00     0.074 A 
ATOM     46  C   UNL A   1      41.412  31.871  30.636  1.00  0.00     0.031 C 
ATOM     47  C   UNL A   1      40.332  25.609  27.948  1.00  0.00     0.029 A 
ATOM     48  C   UNL A   1      41.680  25.861  28.450  1.00  0.00     0.049 A 
ATOM     49  H   UNL A   1      42.388  27.598  29.358  1.00  0.00     0.167 HD
ATOM     50  C   UNL A   1      43.753  31.324  31.218  1.00  0.00     0.031 A 
ATOM     51  C   UNL A   1      42.704  24.987  28.407  1.00  0.00     0.031 A 
ATOM     52  C   UNL A   1      44.884  30.437  31.276  1.00  0.00     0.049 A 
ATOM     53  C   UNL A   1      44.034  25.389  28.985  1.00  0.00     0.074 A 
ATOM     54  C   UNL A   1      46.131  30.667  31.830  1.00  0.00     0.029 A 
ATOM     55  N   UNL A   1      44.903  29.149  30.764  1.00  0.00    -0.354 N 
ATOM     56  N   UNL A   1      44.379  26.521  29.552  1.00  0.00    -0.248 NA
ATOM     57  C   UNL A   1      45.111  24.391  28.928  1.00  0.00     0.031 C 
ATOM     58  C   UNL A   1      46.921  29.534  31.608  1.00  0.00     0.029 A 
ATOM     59  C   UNL A   1      46.148  28.576  30.970  1.00  0.00     0.049 A 
ATOM     60  H   UNL A   1      44.145  28.706  30.319  1.00  0.00     0.167 HD
ATOM     61  C   UNL A   1      45.702  26.359  29.949  1.00  0.00     0.074 A 
ATOM     62  C   UNL A   1      46.090  25.017  29.565  1.00  0.00     0.031 C 
ATOM     63  C   UNL A   1      46.518  27.239  30.580  1.00  0.00     0.031 A 
BRANCH  50  64
ATOM     64  C   UNL A   1      43.896  32.723  31.762  1.00  0.00    -0.014 A 
ATOM     65  C   UNL A   1      44.351  33.777  30.947  1.00  0.00     0.010 A 
ATOM     66  C   UNL A   1      43.570  32.989  33.104  1.00  0.00     0.010 A 
ATOM     67  C   UNL A   1      44.536  35.055  31.478  1.00  0.00     0.020 A 
ATOM     68  C   UNL A   1      43.722  34.276  33.631  1.00  0.00     0.020 A 
ATOM     69  C   UNL A   1      44.227  35.295  32.820  1.00  0.00     0.054 A 
BRANCH  69  70
ATOM     70  S   UNL A   1      44.483  36.962  33.487  1.00  0.00     0.124 S 
ATOM     71  O   UNL A   1      44.692  37.743  32.271  1.00  0.00    -0.237 OA
ATOM     72  O   UNL A   1      43.230  37.222  34.191  1.00  0.00    -0.237 OA
ATOM     73  O   UNL A   1      45.658  36.816  34.344  1.00  0.00    -0.744 OA
ENDBRANCH  69  70
ENDBRANCH  50  64
BRANCH  51  74
ATOM     74  C   UNL A   1      42.499  23.632  27.827  1.00  0.00    -0.014 A 
ATOM     75  C   UNL A   1      43.085  23.290  26.595  1.00  0.00     0.010 A 
ATOM     76  C   UNL A   1      41.739  22.666  28.514  1.00  0.00     0.010 A 
ATOM     77  C   UNL A   1      42.907  22.013  26.055  1.00  0.00     0.020 A 
ATOM     78  C   UNL A   1      41.583  21.380  27.989  1.00  0.00     0.020 A 
ATOM     79  C   UNL A   1      42.161  21.064  26.758  1.00  0.00     0.054 A 
BRANCH  79  80
ATOM     80  S   UNL A   1      42.000  19.393  26.068  1.00  0.00     0.124 S 
ATOM     81  O   UNL A   1      42.863  19.464  24.895  1.00  0.00    -0.237 OA
ATOM     82  O   UNL A   1      42.483  18.553  27.161  1.00  0.00    -0.237 OA
ATOM     83  O   UNL A   1      40.570  19.276  25.788  1.00  0.00    -0.744 OA
ENDBRANCH  79  80
ENDBRANCH  51  74
BRANCH  63  84
ATOM     84  C   UNL A   1      47.905  26.769  30.931  1.00  0.00    -0.014 A 
ATOM     85  C   UNL A   1      49.001  27.029  30.091  1.00  0.00     0.010 A 
ATOM     86  C   UNL A   1      48.119  26.106  32.154  1.00  0.00     0.010 A 
ATOM     87  C   UNL A   1      50.283  26.606  30.454  1.00  0.00     0.020 A 
ATOM     88  C   UNL A   1      49.403  25.708  32.534  1.00  0.00     0.020 A 
ATOM     89  C   UNL A   1      50.476  25.948  31.673  1.00  0.00     0.054 A 
BRANCH  89  90
ATOM     90  S   UNL A   1      52.156  25.450  32.142  1.00  0.00     0.124 S 
ATOM     91  O   UNL A   1      52.921  25.804  30.949  1.00  0.00    -0.237 OA
ATOM     92  O   UNL A   1      52.416  26.270  33.322  1.00  0.00    -0.237 OA
ATOM     93  O   UNL A   1      52.033  24.017  32.401  1.00  0.00    -0.744 OA
ENDBRANCH  89  90
ENDBRANCH  63  84
ENDBRANCH  37  38
ENDBRANCH  29  32
ENDBRANCH  27  28
ENDBRANCH  26  27
ENDBRANCH  25  26
ENDBRANCH  24  25
ENDBRANCH   1  24
TORSDOF 22
ENDMDL
MODEL 2
REMARK VINA RESULT:      -9.5      1.199      8.341
REMARK SMILES CCOC(=O)c1cccc(NC(=O)CCC(=O)NCCCCCCNC(=O)c2ccc(-c3c4nc(c(-c5ccc(S(=O)(=O)[O-])cc5)c5ccc([nH]5)c(-c5ccc(S(=O)(=O)[O-])cc5)c5nc(c(-c6ccc(S(=O)(=O)[O-])cc6)c6ccc3[nH]6)C=C5)C=C4)cc2)c1
REMARK SMILES IDX 20 1 19 2 18 3 16 4 17 5 15 7 14 8 12 9 11 10 13 12 10 13
REMARK SMILES IDX 6 14 7 15 88 16 8 17 9 18 4 19 5 20 3 21 2 22 1 23 21 24
REMARK SMILES IDX 22 25 23 26 24 27 25 28 26 29 27 31 28 32 29 33 87 34 30 35
REMARK SMILES IDX 86 36 31 37 32 38 33 39 80 40 34 41 85 42 79 43 81 44 35 45
REMARK SMILES IDX 84 46 78 47 77 48 36 50 66 51 47 52 65 53 48 54 51 55 64 56
REMARK SMILES IDX 82 57 49 58 50 59 63 61 83 62 52 63 37 64 38 65 46 66 39 67
REMARK SMILES IDX 45 68 40 69 41 70 42 71 43 72 44 73 67 74 68 75 76 76 69 77
REMARK SMILES IDX 75 78 70 79 71 80 72 81 73 82 74 83 53 84 54 85 62 86 55 87
REMARK SMILES IDX 61 88 56 89 57 90 58 91 59 92 60 93
REMARK H PARENT 18 6 11 11 25 30 81 49 51 60
REMARK Flexibility Score: inf
ROOT
ATOM      1  C   UNL A   1      32.995  27.350  22.956  1.00  0.00     0.021 C 
ENDROOT
BRANCH   1   2
ATOM      2  C   UNL A   1      31.743  26.766  22.313  1.00  0.00     0.116 C 
BRANCH   2   3
ATOM      3  N   UNL A   1      30.617  26.721  23.227  1.00  0.00    -0.356 N 
ATOM      4  C   UNL A   1      30.319  25.820  24.203  1.00  0.00     0.220 C 
ATOM      5  O   UNL A   1      29.356  26.038  24.941  1.00  0.00    -0.275 OA
ATOM      6  H   UNL A   1      29.968  27.454  23.127  1.00  0.00     0.163 HD
BRANCH   4   7
ATOM      7  C   UNL A   1      31.159  24.579  24.380  1.00  0.00     0.110 C 
BRANCH   7   8
ATOM      8  C   UNL A   1      30.432  23.389  24.994  1.00  0.00     0.110 C 
BRANCH   8   9
ATOM      9  C   UNL A   1      30.690  23.139  26.466  1.00  0.00     0.224 C 
ATOM     10  N   UNL A   1      31.732  22.388  26.938  1.00  0.00    -0.326 N 
ATOM     11  H   UNL A   1      31.710  22.222  27.908  1.00  0.00     0.169 HD
ATOM     12  O   UNL A   1      29.973  23.697  27.306  1.00  0.00    -0.275 OA
BRANCH  10  13
ATOM     13  C   UNL A   1      32.825  21.816  26.270  1.00  0.00     0.042 A 
ATOM     14  C   UNL A   1      35.035  22.192  25.357  1.00  0.00     0.062 A 
ATOM     15  C   UNL A   1      34.924  21.019  24.607  1.00  0.00     0.016 A 
ATOM     16  C   UNL A   1      34.015  22.557  26.243  1.00  0.00     0.041 A 
ATOM     17  C   UNL A   1      33.804  20.205  24.754  1.00  0.00     0.003 A 
ATOM     18  C   UNL A   1      32.755  20.608  25.582  1.00  0.00     0.026 A 
BRANCH  14  19
ATOM     19  C   UNL A   1      36.158  23.100  25.047  1.00  0.00     0.338 C 
ATOM     20  O   UNL A   1      36.583  23.255  23.909  1.00  0.00    -0.246 OA
BRANCH  19  21
ATOM     21  O   UNL A   1      36.644  23.684  26.168  1.00  0.00    -0.462 OA
BRANCH  21  22
ATOM     22  C   UNL A   1      38.008  24.133  26.065  1.00  0.00     0.230 C 
ATOM     23  C   UNL A   1      38.981  23.048  26.498  1.00  0.00     0.049 C 
ENDBRANCH  21  22
ENDBRANCH  19  21
ENDBRANCH  14  19
ENDBRANCH  10  13
ENDBRANCH   8   9
ENDBRANCH   7   8
ENDBRANCH   4   7
ENDBRANCH   2   3
ENDBRANCH   1   2
BRANCH   1  24
ATOM     24  C   UNL A   1      33.894  26.330  23.663  1.00  0.00     0.002 C 
BRANCH  24  25
ATOM     25  C   UNL A   1      34.013  26.517  25.174  1.00  0.00     0.002 C 
BRANCH  25  26
ATOM     26  C   UNL A   1      34.130  27.969  25.634  1.00  0.00     0.021 C 
BRANCH  26  27
ATOM     27  C   UNL A   1      33.978  28.179  27.138  1.00  0.00     0.116 C 
BRANCH  27  28
ATOM     28  N   UNL A   1      33.734  29.571  27.476  1.00  0.00    -0.352 N 
ATOM     29  C   UNL A   1      34.571  30.447  28.122  1.00  0.00     0.251 C 
ATOM     30  H   UNL A   1      32.859  29.932  27.206  1.00  0.00     0.163 HD
ATOM     31  O   UNL A   1      34.158  31.533  28.513  1.00  0.00    -0.269 OA
BRANCH  29  32
ATOM     32  C   UNL A   1      35.973  30.046  28.358  1.00  0.00     0.039 A 
ATOM     33  C   UNL A   1      36.891  30.126  27.311  1.00  0.00     0.014 A 
ATOM     34  C   UNL A   1      36.380  29.640  29.633  1.00  0.00     0.014 A 
ATOM     35  C   UNL A   1      38.237  29.845  27.556  1.00  0.00     0.010 A 
ATOM     36  C   UNL A   1      37.731  29.443  29.892  1.00  0.00     0.010 A 
ATOM     37  C   UNL A   1      38.672  29.529  28.854  1.00  0.00    -0.014 A 
BRANCH  37  38
ATOM     38  C   UNL A   1      40.101  29.247  29.141  1.00  0.00     0.031 A 
ATOM     39  C   UNL A   1      40.679  27.900  28.803  1.00  0.00     0.074 A 
ATOM     40  C   UNL A   1      40.863  30.178  29.749  1.00  0.00     0.049 A 
ATOM     41  N   UNL A   1      41.887  27.443  29.012  1.00  0.00    -0.248 NA
ATOM     42  C   UNL A   1      39.772  26.927  28.171  1.00  0.00     0.031 C 
ATOM     43  C   UNL A   1      40.412  31.510  30.159  1.00  0.00     0.029 A 
ATOM     44  N   UNL A   1      42.182  30.144  30.127  1.00  0.00    -0.354 N 
ATOM     45  C   UNL A   1      41.879  26.130  28.555  1.00  0.00     0.074 A 
ATOM     46  C   UNL A   1      40.531  25.844  28.116  1.00  0.00     0.031 C 
ATOM     47  C   UNL A   1      41.445  32.177  30.699  1.00  0.00     0.029 A 
ATOM     48  C   UNL A   1      42.620  31.311  30.710  1.00  0.00     0.049 A 
ATOM     49  H   UNL A   1      42.760  29.359  29.994  1.00  0.00     0.167 HD
ATOM     50  C   UNL A   1      42.903  25.248  28.481  1.00  0.00     0.031 A 
ATOM     51  C   UNL A   1      43.831  31.645  31.195  1.00  0.00     0.031 A 
ATOM     52  C   UNL A   1      44.244  25.537  28.912  1.00  0.00     0.049 A 
ATOM     53  C   UNL A   1      44.953  30.646  31.118  1.00  0.00     0.074 A 
ATOM     54  C   UNL A   1      45.366  24.730  28.841  1.00  0.00     0.029 A 
ATOM     55  N   UNL A   1      44.645  26.731  29.496  1.00  0.00    -0.354 N 
ATOM     56  N   UNL A   1      44.940  29.427  30.631  1.00  0.00    -0.248 NA
ATOM     57  C   UNL A   1      46.257  31.070  31.644  1.00  0.00     0.031 C 
ATOM     58  C   UNL A   1      46.435  25.418  29.426  1.00  0.00     0.029 A 
ATOM     59  C   UNL A   1      45.993  26.675  29.807  1.00  0.00     0.049 A 
ATOM     60  H   UNL A   1      44.058  27.503  29.663  1.00  0.00     0.167 HD
ATOM     61  C   UNL A   1      46.240  28.952  30.762  1.00  0.00     0.074 A 
ATOM     62  C   UNL A   1      47.014  30.018  31.366  1.00  0.00     0.031 C 
ATOM     63  C   UNL A   1      46.748  27.745  30.409  1.00  0.00     0.031 A 
BRANCH  50  64
ATOM     64  C   UNL A   1      42.598  23.882  27.920  1.00  0.00    -0.014 A 
ATOM     65  C   UNL A   1      42.135  22.843  28.750  1.00  0.00     0.010 A 
ATOM     66  C   UNL A   1      42.774  23.633  26.547  1.00  0.00     0.010 A 
ATOM     67  C   UNL A   1      41.913  21.566  28.229  1.00  0.00     0.020 A 
ATOM     68  C   UNL A   1      42.520  22.365  26.016  1.00  0.00     0.020 A 
ATOM     69  C   UNL A   1      42.114  21.333  26.866  1.00  0.00     0.054 A 
BRANCH  69  70
ATOM     70  S   UNL A   1      41.825  19.664  26.217  1.00  0.00     0.124 S 
ATOM     71  O   UNL A   1      42.250  18.829  27.337  1.00  0.00    -0.237 OA
ATOM     72  O   UNL A   1      40.390  19.669  25.947  1.00  0.00    -0.237 OA
ATOM     73  O   UNL A   1      42.679  19.600  25.032  1.00  0.00    -0.744 OA
ENDBRANCH  69  70
ENDBRANCH  50  64
BRANCH  51  74
ATOM     74  C   UNL A   1      44.053  33.003  31.762  1.00  0.00    -0.014 A 
ATOM     75  C   UNL A   1      43.833  33.246  33.130  1.00  0.00     0.010 A 
ATOM     76  C   UNL A   1      44.510  34.055  30.947  1.00  0.00     0.010 A 
ATOM     77  C   UNL A   1      44.055  34.516  33.670  1.00  0.00     0.020 A 
ATOM     78  C   UNL A   1      44.759  35.319  31.489  1.00  0.00     0.020 A 
ATOM     79  C   UNL A   1      44.522  35.544  32.846  1.00  0.00     0.054 A 
BRANCH  79  80
ATOM     80  S   UNL A   1      44.866  37.167  33.584  1.00  0.00     0.124 S 
ATOM     81  O   UNL A   1      44.178  37.069  34.867  1.00  0.00    -0.237 OA
ATOM     82  O   UNL A   1      46.325  37.181  33.646  1.00  0.00    -0.237 OA
ATOM     83  O   UNL A   1      44.281  38.106  32.629  1.00  0.00    -0.744 OA
ENDBRANCH  79  80
ENDBRANCH  51  74
BRANCH  63  84
ATOM     84  C   UNL A   1      48.221  27.522  30.631  1.00  0.00    -0.014 A 
ATOM     85  C   UNL A   1      49.172  27.898  29.668  1.00  0.00     0.010 A 
ATOM     86  C   UNL A   1      48.659  26.977  31.852  1.00  0.00     0.010 A 
ATOM     87  C   UNL A   1      50.535  27.706  29.910  1.00  0.00     0.020 A 
ATOM     88  C   UNL A   1      50.022  26.810  32.110  1.00  0.00     0.020 A 
ATOM     89  C   UNL A   1      50.951  27.163  31.130  1.00  0.00     0.054 A 
BRANCH  89  90
ATOM     90  S   UNL A   1      52.728  26.966  31.438  1.00  0.00     0.124 S 
ATOM     91  O   UNL A   1      53.256  26.818  30.085  1.00  0.00    -0.237 OA
ATOM     92  O   UNL A   1      53.076  28.212  32.116  1.00  0.00    -0.237 OA
ATOM     93  O   UNL A   1      52.804  25.768  32.272  1.00  0.00    -0.744 OA
ENDBRANCH  89  90
ENDBRANCH  63  84
ENDBRANCH  37  38
ENDBRANCH  29  32
ENDBRANCH  27  28
ENDBRANCH  26  27
ENDBRANCH  25  26
ENDBRANCH  24  25
ENDBRANCH   1  24
TORSDOF 22
ENDMDL
MODEL 3
REMARK VINA RESULT:      -9.5      4.157      9.807
REMARK SMILES CCOC(=O)c1cccc(NC(=O)CCC(=O)NCCCCCCNC(=O)c2ccc(-c3c4nc(c(-c5ccc(S(=O)(=O)[O-])cc5)c5ccc([nH]5)c(-c5ccc(S(=O)(=O)[O-])cc5)c5nc(c(-c6ccc(S(=O)(=O)[O-])cc6)c6ccc3[nH]6)C=C5)C=C4)cc2)c1
REMARK SMILES IDX 20 1 19 2 18 3 16 4 17 5 15 7 14 8 12 9 11 10 13 12 10 13
REMARK SMILES IDX 6 14 7 15 88 16 8 17 9 18 4 19 5 20 3 21 2 22 1 23 21 24
REMARK SMILES IDX 22 25 23 26 24 27 25 28 26 29 27 31 28 32 29 33 87 34 30 35
REMARK SMILES IDX 86 36 31 37 32 38 33 39 80 40 34 41 85 42 79 43 81 44 35 45
REMARK SMILES IDX 84 46 78 47 77 48 36 50 66 51 47 52 65 53 48 54 51 55 64 56
REMARK SMILES IDX 82 57 49 58 50 59 63 61 83 62 52 63 37 64 38 65 46 66 39 67
REMARK SMILES IDX 45 68 40 69 41 70 42 71 43 72 44 73 67 74 68 75 76 76 69 77
REMARK SMILES IDX 75 78 70 79 71 80 72 81 73 82 74 83 53 84 54 85 62 86 55 87
REMARK SMILES IDX 61 88 56 89 57 90 58 91 59 92 60 93
REMARK H PARENT 18 6 11 11 25 30 81 49 51 60
REMARK Flexibility Score: inf
ROOT
ATOM      1  C   UNL A   1      31.180  27.153  26.630  1.00  0.00     0.021 C 
ENDROOT
BRANCH   1   2
ATOM      2  C   UNL A   1      32.238  26.152  26.181  1.00  0.00     0.116 C 
BRANCH   2   3
ATOM      3  N   UNL A   1      31.663  24.892  25.745  1.00  0.00    -0.356 N 
ATOM      4  C   UNL A   1      32.273  23.762  25.297  1.00  0.00     0.220 C 
ATOM      5  O   UNL A   1      31.588  22.760  25.081  1.00  0.00    -0.275 OA
ATOM      6  H   UNL A   1      30.680  24.848  25.779  1.00  0.00     0.163 HD
BRANCH   4   7
ATOM      7  C   UNL A   1      33.766  23.735  25.075  1.00  0.00     0.110 C 
BRANCH   7   8
ATOM      8  C   UNL A   1      34.224  24.221  23.706  1.00  0.00     0.110 C 
BRANCH   8   9
ATOM      9  C   UNL A   1      33.248  24.012  22.566  1.00  0.00     0.224 C 
ATOM     10  N   UNL A   1      32.370  24.967  22.132  1.00  0.00    -0.326 N 
ATOM     11  H   UNL A   1      31.723  24.654  21.459  1.00  0.00     0.169 HD
ATOM     12  O   UNL A   1      33.281  22.950  21.932  1.00  0.00    -0.275 OA
BRANCH  10  13
ATOM     13  C   UNL A   1      32.238  26.318  22.486  1.00  0.00     0.042 A 
ATOM     14  C   UNL A   1      30.708  28.172  22.779  1.00  0.00     0.062 A 
ATOM     15  C   UNL A   1      31.783  29.063  22.747  1.00  0.00     0.016 A 
ATOM     16  C   UNL A   1      30.938  26.793  22.718  1.00  0.00     0.041 A 
ATOM     17  C   UNL A   1      33.085  28.576  22.673  1.00  0.00     0.003 A 
ATOM     18  C   UNL A   1      33.309  27.205  22.537  1.00  0.00     0.026 A 
BRANCH  14  19
ATOM     19  C   UNL A   1      29.346  28.738  22.694  1.00  0.00     0.338 C 
ATOM     20  O   UNL A   1      28.349  28.098  23.005  1.00  0.00    -0.246 OA
BRANCH  19  21
ATOM     21  O   UNL A   1      29.367  30.003  22.211  1.00  0.00    -0.462 OA
BRANCH  21  22
ATOM     22  C   UNL A   1      28.091  30.488  21.754  1.00  0.00     0.230 C 
ATOM     23  C   UNL A   1      28.144  31.977  21.448  1.00  0.00     0.049 C 
ENDBRANCH  21  22
ENDBRANCH  19  21
ENDBRANCH  14  19
ENDBRANCH  10  13
ENDBRANCH   8   9
ENDBRANCH   7   8
ENDBRANCH   4   7
ENDBRANCH   2   3
ENDBRANCH   1   2
BRANCH   1  24
ATOM     24  C   UNL A   1      31.724  28.384  27.363  1.00  0.00     0.002 C 
BRANCH  24  25
ATOM     25  C   UNL A   1      32.447  29.393  26.475  1.00  0.00     0.002 C 
BRANCH  25  26
ATOM     26  C   UNL A   1      32.150  30.858  26.792  1.00  0.00     0.021 C 
BRANCH  26  27
ATOM     27  C   UNL A   1      33.330  31.641  27.361  1.00  0.00     0.116 C 
BRANCH  27  28
ATOM     28  N   UNL A   1      32.955  32.990  27.752  1.00  0.00    -0.352 N 
ATOM     29  C   UNL A   1      33.518  33.780  28.723  1.00  0.00     0.251 C 
ATOM     30  H   UNL A   1      32.202  33.387  27.258  1.00  0.00     0.163 HD
ATOM     31  O   UNL A   1      32.973  34.820  29.077  1.00  0.00    -0.269 OA
BRANCH  29  32
ATOM     32  C   UNL A   1      34.781  33.342  29.351  1.00  0.00     0.039 A 
ATOM     33  C   UNL A   1      35.979  33.946  28.968  1.00  0.00     0.014 A 
ATOM     34  C   UNL A   1      34.764  32.367  30.353  1.00  0.00     0.014 A 
ATOM     35  C   UNL A   1      37.160  33.606  29.631  1.00  0.00     0.010 A 
ATOM     36  C   UNL A   1      35.925  32.094  31.067  1.00  0.00     0.010 A 
ATOM     37  C   UNL A   1      37.139  32.699  30.703  1.00  0.00    -0.014 A 
BRANCH  37  38
ATOM     38  C   UNL A   1      38.380  32.340  31.435  1.00  0.00     0.031 A 
ATOM     39  C   UNL A   1      39.325  31.326  30.849  1.00  0.00     0.074 A 
ATOM     40  C   UNL A   1      38.631  32.881  32.642  1.00  0.00     0.049 A 
ATOM     41  N   UNL A   1      40.435  30.846  31.349  1.00  0.00    -0.248 NA
ATOM     42  C   UNL A   1      38.961  30.756  29.541  1.00  0.00     0.031 C 
ATOM     43  C   UNL A   1      37.776  33.849  33.335  1.00  0.00     0.029 A 
ATOM     44  N   UNL A   1      39.684  32.694  33.504  1.00  0.00    -0.354 N 
ATOM     45  C   UNL A   1      40.889  29.909  30.427  1.00  0.00     0.074 A 
ATOM     46  C   UNL A   1      39.904  29.844  29.370  1.00  0.00     0.031 C 
ATOM     47  C   UNL A   1      38.355  34.196  34.495  1.00  0.00     0.029 A 
ATOM     48  C   UNL A   1      39.601  33.450  34.650  1.00  0.00     0.049 A 
ATOM     49  H   UNL A   1      40.428  32.078  33.318  1.00  0.00     0.167 HD
ATOM     50  C   UNL A   1      42.034  29.186  30.442  1.00  0.00     0.031 A 
ATOM     51  C   UNL A   1      40.434  33.535  35.704  1.00  0.00     0.031 A 
ATOM     52  C   UNL A   1      43.015  29.260  31.491  1.00  0.00     0.049 A 
ATOM     53  C   UNL A   1      41.695  32.712  35.710  1.00  0.00     0.074 A 
ATOM     54  C   UNL A   1      44.231  28.604  31.582  1.00  0.00     0.029 A 
ATOM     55  N   UNL A   1      42.893  30.038  32.633  1.00  0.00    -0.354 N 
ATOM     56  N   UNL A   1      42.135  31.873  34.803  1.00  0.00    -0.248 NA
ATOM     57  C   UNL A   1      42.577  32.857  36.876  1.00  0.00     0.031 C 
ATOM     58  C   UNL A   1      44.821  28.948  32.803  1.00  0.00     0.029 A 
ATOM     59  C   UNL A   1      44.002  29.864  33.445  1.00  0.00     0.049 A 
ATOM     60  H   UNL A   1      42.131  30.626  32.837  1.00  0.00     0.167 HD
ATOM     61  C   UNL A   1      43.361  31.415  35.273  1.00  0.00     0.074 A 
ATOM     62  C   UNL A   1      43.595  32.078  36.540  1.00  0.00     0.031 C 
ATOM     63  C   UNL A   1      44.218  30.531  34.704  1.00  0.00     0.031 A 
BRANCH  50  64
ATOM     64  C   UNL A   1      42.273  28.248  29.287  1.00  0.00    -0.014 A 
ATOM     65  C   UNL A   1      42.960  28.675  28.134  1.00  0.00     0.010 A 
ATOM     66  C   UNL A   1      41.808  26.923  29.352  1.00  0.00     0.010 A 
ATOM     67  C   UNL A   1      43.123  27.815  27.046  1.00  0.00     0.020 A 
ATOM     68  C   UNL A   1      41.998  26.048  28.278  1.00  0.00     0.020 A 
ATOM     69  C   UNL A   1      42.634  26.508  27.122  1.00  0.00     0.054 A 
BRANCH  69  70
ATOM     70  S   UNL A   1      42.852  25.413  25.693  1.00  0.00     0.124 S 
ATOM     71  O   UNL A   1      42.257  26.202  24.617  1.00  0.00    -0.237 OA
ATOM     72  O   UNL A   1      44.303  25.257  25.626  1.00  0.00    -0.237 OA
ATOM     73  O   UNL A   1      42.115  24.207  26.063  1.00  0.00    -0.744 OA
ENDBRANCH  69  70
ENDBRANCH  50  64
BRANCH  51  74
ATOM     74  C   UNL A   1      40.120  34.462  36.825  1.00  0.00    -0.014 A 
ATOM     75  C   UNL A   1      40.557  35.798  36.785  1.00  0.00     0.010 A 
ATOM     76  C   UNL A   1      39.361  34.024  37.927  1.00  0.00     0.010 A 
ATOM     77  C   UNL A   1      40.250  36.676  37.830  1.00  0.00     0.020 A 
ATOM     78  C   UNL A   1      39.030  34.906  38.959  1.00  0.00     0.020 A 
ATOM     79  C   UNL A   1      39.484  36.225  38.908  1.00  0.00     0.054 A 
BRANCH  79  80
ATOM     80  S   UNL A   1      39.044  37.402  40.219  1.00  0.00     0.124 S 
ATOM     81  O   UNL A   1      38.372  36.541  41.186  1.00  0.00    -0.237 OA
ATOM     82  O   UNL A   1      40.346  37.920  40.628  1.00  0.00    -0.237 OA
ATOM     83  O   UNL A   1      38.185  38.367  39.536  1.00  0.00    -0.744 OA
ENDBRANCH  79  80
ENDBRANCH  51  74
BRANCH  63  84
ATOM     84  C   UNL A   1      45.510  30.255  35.427  1.00  0.00    -0.014 A 
ATOM     85  C   UNL A   1      45.625  29.194  36.342  1.00  0.00     0.010 A 
ATOM     86  C   UNL A   1      46.643  31.038  35.139  1.00  0.00     0.010 A 
ATOM     87  C   UNL A   1      46.843  28.941  36.979  1.00  0.00     0.020 A 
ATOM     88  C   UNL A   1      47.869  30.770  35.751  1.00  0.00     0.020 A 
ATOM     89  C   UNL A   1      47.958  29.732  36.679  1.00  0.00     0.054 A 
BRANCH  89  90
ATOM     90  S   UNL A   1      49.538  29.354  37.485  1.00  0.00     0.124 S 
ATOM     91  O   UNL A   1      49.107  28.927  38.813  1.00  0.00    -0.237 OA
ATOM     92  O   UNL A   1      50.089  28.303  36.635  1.00  0.00    -0.237 OA
ATOM     93  O   UNL A   1      50.261  30.624  37.443  1.00  0.00    -0.744 OA
ENDBRANCH  89  90
ENDBRANCH  63  84
ENDBRANCH  37  38
ENDBRANCH  29  32
ENDBRANCH  27  28
ENDBRANCH  26  27
ENDBRANCH  25  26
ENDBRANCH  24  25
ENDBRANCH   1  24
TORSDOF 22
ENDMDL
