MODEL 1
REMARK VINA RESULT:     -12.2      0.000      0.000
REMARK SMILES O=C1C[C@@H](c2cccc(O)c2)c2c(c(C(=O)NCCCCCCNC(=O)c3ccc(-c4c5nc(c(-c6ccc(S(=O)(=O)[O-])cc6)c6ccc([nH]6)c(-c6ccc(S(=O)(=O)[O-])cc6)c6nc(c(-c7ccc(S(=O)(=O)[O-])cc7)c7ccc4[nH]7)C=C6)C=C5)cc3)cn2-c2cccc(C(F)(F)F)c2)N1
REMARK SMILES IDX 21 1 20 2 19 3 18 4 17 5 15 6 16 7 14 9 1 10 2 11 3 12 99 13
REMARK SMILES IDX 4 14 13 15 12 17 88 18 87 19 5 20 6 21 11 22 7 23 9 24 8 25
REMARK SMILES IDX 10 26 89 28 90 29 98 30 91 31 93 32 92 33 94 34 95 35 96 36
REMARK SMILES IDX 97 37 22 38 23 39 24 40 25 41 26 43 27 44 28 45 86 46 29 47
REMARK SMILES IDX 85 48 30 49 31 50 32 51 79 52 33 53 84 54 78 55 80 56 34 57
REMARK SMILES IDX 83 58 77 59 76 60 35 62 65 63 46 64 64 65 47 66 50 67 63 68
REMARK SMILES IDX 81 69 48 70 49 71 62 73 82 74 51 75 36 76 37 77 45 78 38 79
REMARK SMILES IDX 44 80 39 81 40 82 41 83 42 84 43 85 66 86 67 87 75 88 68 89
REMARK SMILES IDX 74 90 69 91 70 92 71 93 72 94 73 95 52 96 53 97 61 98 54 99
REMARK SMILES IDX 60 100 55 101 56 102 57 103 58 104 59 105
REMARK H PARENT 17 8 99 16 10 27 24 42 80 61 50 72
REMARK Flexibility Score: inf
ROOT
ATOM      1  C   UNL A   1      36.748  32.770  28.906  1.00  0.00     0.002 C 
ENDROOT
BRANCH   1   2
ATOM      2  C   UNL A   1      36.257  31.707  27.912  1.00  0.00     0.002 C 
BRANCH   2   3
ATOM      3  C   UNL A   1      35.928  30.334  28.494  1.00  0.00     0.021 C 
BRANCH   3   4
ATOM      4  C   UNL A   1      34.849  29.546  27.757  1.00  0.00     0.116 C 
BRANCH   4   5
ATOM      5  N   UNL A   1      33.674  30.333  27.446  1.00  0.00    -0.352 N 
ATOM      6  C   UNL A   1      32.487  30.012  26.838  1.00  0.00     0.254 C 
ATOM      7  O   UNL A   1      31.689  30.934  26.653  1.00  0.00    -0.269 OA
ATOM      8  H   UNL A   1      33.740  31.275  27.724  1.00  0.00     0.163 HD
BRANCH   6   9
ATOM      9  C   UNL A   1      32.170  28.656  26.393  1.00  0.00     0.081 A 
ATOM     10  O   UNL A   1      29.220  29.430  22.705  1.00  0.00    -0.275 OA
ATOM     11  C   UNL A   1      29.797  28.671  23.485  1.00  0.00     0.225 C 
ATOM     12  C   UNL A   1      29.413  27.198  23.596  1.00  0.00     0.115 C 
ATOM     13  N   UNL A   1      30.701  29.150  24.401  1.00  0.00    -0.324 N 
ATOM     14  C   UNL A   1      30.564  26.266  24.028  1.00  0.00     0.078 C 
ATOM     15  C   UNL A   1      31.388  28.322  25.258  1.00  0.00     0.076 A 
ATOM     16  H   UNL A   1      30.863  30.120  24.445  1.00  0.00     0.170 HD
ATOM     17  C   UNL A   1      31.375  26.957  25.085  1.00  0.00     0.055 A 
ATOM     18  N   UNL A   1      32.128  26.404  26.100  1.00  0.00    -0.317 N 
ATOM     19  C   UNL A   1      32.418  27.430  26.988  1.00  0.00     0.107 A 
BRANCH  14  20
ATOM     20  C   UNL A   1      31.375  25.806  22.831  1.00  0.00    -0.035 A 
ATOM     21  C   UNL A   1      31.436  26.544  21.639  1.00  0.00     0.005 A 
ATOM     22  C   UNL A   1      32.145  24.635  22.938  1.00  0.00     0.050 A 
ATOM     23  C   UNL A   1      32.287  26.152  20.603  1.00  0.00     0.004 A 
ATOM     24  C   UNL A   1      33.014  24.276  21.913  1.00  0.00     0.115 A 
ATOM     25  C   UNL A   1      33.092  25.024  20.746  1.00  0.00     0.046 A 
BRANCH  24  26
ATOM     26  O   UNL A   1      33.828  23.202  22.121  1.00  0.00    -0.508 OA
ATOM     27  H   UNL A   1      34.342  22.861  21.417  1.00  0.00     0.293 HD
ENDBRANCH  24  26
ENDBRANCH  14  20
BRANCH  18  28
ATOM     28  C   UNL A   1      32.611  25.080  26.273  1.00  0.00     0.046 A 
ATOM     29  C   UNL A   1      31.821  24.143  26.953  1.00  0.00     0.026 A 
ATOM     30  C   UNL A   1      33.929  24.757  25.933  1.00  0.00     0.039 A 
ATOM     31  C   UNL A   1      32.331  22.878  27.247  1.00  0.00     0.003 A 
ATOM     32  C   UNL A   1      34.454  23.486  26.231  1.00  0.00     0.058 A 
ATOM     33  C   UNL A   1      33.636  22.550  26.883  1.00  0.00     0.013 A 
BRANCH  32  34
ATOM     34  C   UNL A   1      35.880  23.115  25.890  1.00  0.00     0.416 C 
ATOM     35  F   UNL A   1      36.242  21.916  26.423  1.00  0.00    -0.166 F 
ATOM     36  F   UNL A   1      36.067  22.993  24.545  1.00  0.00    -0.166 F 
ATOM     37  F   UNL A   1      36.807  24.012  26.317  1.00  0.00    -0.166 F 
ENDBRANCH  32  34
ENDBRANCH  18  28
ENDBRANCH   6   9
ENDBRANCH   4   5
ENDBRANCH   3   4
ENDBRANCH   2   3
ENDBRANCH   1   2
BRANCH   1  38
ATOM     38  C   UNL A   1      35.692  33.696  29.530  1.00  0.00     0.021 C 
BRANCH  38  39
ATOM     39  C   UNL A   1      34.657  32.988  30.390  1.00  0.00     0.116 C 
BRANCH  39  40
ATOM     40  N   UNL A   1      34.728  33.391  31.797  1.00  0.00    -0.352 N 
ATOM     41  C   UNL A   1      35.441  32.819  32.839  1.00  0.00     0.251 C 
ATOM     42  H   UNL A   1      34.192  34.180  32.036  1.00  0.00     0.163 HD
ATOM     43  O   UNL A   1      35.111  33.016  33.996  1.00  0.00    -0.269 OA
BRANCH  41  44
ATOM     44  C   UNL A   1      36.614  31.983  32.522  1.00  0.00     0.039 A 
ATOM     45  C   UNL A   1      36.513  30.618  32.233  1.00  0.00     0.014 A 
ATOM     46  C   UNL A   1      37.854  32.611  32.528  1.00  0.00     0.014 A 
ATOM     47  C   UNL A   1      37.674  29.914  31.906  1.00  0.00     0.010 A 
ATOM     48  C   UNL A   1      38.936  31.988  31.984  1.00  0.00     0.010 A 
ATOM     49  C   UNL A   1      38.879  30.617  31.786  1.00  0.00    -0.014 A 
BRANCH  49  50
ATOM     50  C   UNL A   1      40.132  29.993  31.402  1.00  0.00     0.031 A 
ATOM     51  C   UNL A   1      41.015  29.660  32.546  1.00  0.00     0.074 A 
ATOM     52  C   UNL A   1      40.295  29.442  30.178  1.00  0.00     0.049 A 
ATOM     53  N   UNL A   1      42.108  30.246  32.903  1.00  0.00    -0.248 NA
ATOM     54  C   UNL A   1      40.523  28.673  33.525  1.00  0.00     0.031 C 
ATOM     55  C   UNL A   1      39.312  29.331  29.089  1.00  0.00     0.029 A 
ATOM     56  N   UNL A   1      41.337  28.718  29.701  1.00  0.00    -0.354 N 
ATOM     57  C   UNL A   1      42.572  29.528  34.000  1.00  0.00     0.074 A 
ATOM     58  C   UNL A   1      41.441  28.783  34.487  1.00  0.00     0.031 C 
ATOM     59  C   UNL A   1      39.716  28.387  28.209  1.00  0.00     0.029 A 
ATOM     60  C   UNL A   1      41.049  27.945  28.580  1.00  0.00     0.049 A 
ATOM     61  H   UNL A   1      42.229  28.738  30.116  1.00  0.00     0.167 HD
ATOM     62  C   UNL A   1      43.905  29.355  34.229  1.00  0.00     0.031 A 
ATOM     63  C   UNL A   1      41.837  26.974  28.047  1.00  0.00     0.031 A 
ATOM     64  C   UNL A   1      44.697  30.196  33.362  1.00  0.00     0.049 A 
ATOM     65  C   UNL A   1      43.202  27.181  28.600  1.00  0.00     0.074 A 
ATOM     66  C   UNL A   1      44.760  31.555  33.116  1.00  0.00     0.029 A 
ATOM     67  N   UNL A   1      45.281  29.588  32.272  1.00  0.00    -0.354 N 
ATOM     68  N   UNL A   1      43.935  28.226  28.335  1.00  0.00    -0.248 NA
ATOM     69  C   UNL A   1      43.552  26.471  29.822  1.00  0.00     0.031 C 
ATOM     70  C   UNL A   1      44.914  31.661  31.702  1.00  0.00     0.029 A 
ATOM     71  C   UNL A   1      45.031  30.372  31.176  1.00  0.00     0.049 A 
ATOM     72  H   UNL A   1      45.785  28.743  32.280  1.00  0.00     0.167 HD
ATOM     73  C   UNL A   1      44.529  28.561  29.544  1.00  0.00     0.074 A 
ATOM     74  C   UNL A   1      44.330  27.391  30.400  1.00  0.00     0.031 C 
ATOM     75  C   UNL A   1      44.861  29.856  29.834  1.00  0.00     0.031 A 
BRANCH  62  76
ATOM     76  C   UNL A   1      44.502  28.135  34.903  1.00  0.00    -0.014 A 
ATOM     77  C   UNL A   1      44.777  27.001  34.110  1.00  0.00     0.010 A 
ATOM     78  C   UNL A   1      44.564  27.959  36.300  1.00  0.00     0.010 A 
ATOM     79  C   UNL A   1      45.004  25.744  34.687  1.00  0.00     0.020 A 
ATOM     80  C   UNL A   1      44.836  26.721  36.886  1.00  0.00     0.020 A 
ATOM     81  C   UNL A   1      45.015  25.613  36.074  1.00  0.00     0.054 A 
BRANCH  81  82
ATOM     82  S   UNL A   1      45.202  23.973  36.810  1.00  0.00     0.124 S 
ATOM     83  O   UNL A   1      46.623  23.712  36.600  1.00  0.00    -0.237 OA
ATOM     84  O   UNL A   1      44.797  24.210  38.193  1.00  0.00    -0.237 OA
ATOM     85  O   UNL A   1      44.288  23.142  36.032  1.00  0.00    -0.744 OA
ENDBRANCH  81  82
ENDBRANCH  62  76
BRANCH  63  86
ATOM     86  C   UNL A   1      41.451  25.713  27.358  1.00  0.00    -0.014 A 
ATOM     87  C   UNL A   1      42.419  24.940  26.686  1.00  0.00     0.010 A 
ATOM     88  C   UNL A   1      40.204  25.110  27.616  1.00  0.00     0.010 A 
ATOM     89  C   UNL A   1      42.184  23.589  26.372  1.00  0.00     0.020 A 
ATOM     90  C   UNL A   1      39.958  23.767  27.299  1.00  0.00     0.020 A 
ATOM     91  C   UNL A   1      40.962  23.002  26.708  1.00  0.00     0.054 A 
BRANCH  91  92
ATOM     92  S   UNL A   1      40.747  21.206  26.512  1.00  0.00     0.124 S 
ATOM     93  O   UNL A   1      39.423  21.113  25.907  1.00  0.00    -0.237 OA
ATOM     94  O   UNL A   1      41.866  20.844  25.646  1.00  0.00    -0.237 OA
ATOM     95  O   UNL A   1      40.841  20.698  27.881  1.00  0.00    -0.744 OA
ENDBRANCH  91  92
ENDBRANCH  63  86
BRANCH  75  96
ATOM     96  C   UNL A   1      44.845  30.877  28.718  1.00  0.00    -0.014 A 
ATOM     97  C   UNL A   1      45.952  31.182  27.900  1.00  0.00     0.010 A 
ATOM     98  C   UNL A   1      43.605  31.459  28.403  1.00  0.00     0.010 A 
ATOM     99  C   UNL A   1      45.828  32.077  26.826  1.00  0.00     0.020 A 
ATOM    100  C   UNL A   1      43.468  32.334  27.324  1.00  0.00     0.020 A 
ATOM    101  C   UNL A   1      44.584  32.653  26.550  1.00  0.00     0.054 A 
BRANCH 101 102
ATOM    102  S   UNL A   1      44.419  33.811  25.162  1.00  0.00     0.124 S 
ATOM    103  O   UNL A   1      45.776  34.335  25.025  1.00  0.00    -0.237 OA
ATOM    104  O   UNL A   1      43.964  32.950  24.073  1.00  0.00    -0.237 OA
ATOM    105  O   UNL A   1      43.428  34.778  25.631  1.00  0.00    -0.744 OA
ENDBRANCH 101 102
ENDBRANCH  75  96
ENDBRANCH  49  50
ENDBRANCH  41  44
ENDBRANCH  39  40
ENDBRANCH  38  39
ENDBRANCH   1  38
TORSDOF 20
ENDMDL
MODEL 2
REMARK VINA RESULT:     -10.8      2.317      3.569
REMARK SMILES O=C1C[C@@H](c2cccc(O)c2)c2c(c(C(=O)NCCCCCCNC(=O)c3ccc(-c4c5nc(c(-c6ccc(S(=O)(=O)[O-])cc6)c6ccc([nH]6)c(-c6ccc(S(=O)(=O)[O-])cc6)c6nc(c(-c7ccc(S(=O)(=O)[O-])cc7)c7ccc4[nH]7)C=C6)C=C5)cc3)cn2-c2cccc(C(F)(F)F)c2)N1
REMARK SMILES IDX 21 1 20 2 19 3 18 4 17 5 15 6 16 7 14 9 1 10 2 11 3 12 99 13
REMARK SMILES IDX 4 14 13 15 12 17 88 18 87 19 5 20 6 21 11 22 7 23 9 24 8 25
REMARK SMILES IDX 10 26 89 28 90 29 98 30 91 31 93 32 92 33 94 34 95 35 96 36
REMARK SMILES IDX 97 37 22 38 23 39 24 40 25 41 26 43 27 44 28 45 86 46 29 47
REMARK SMILES IDX 85 48 30 49 31 50 32 51 79 52 33 53 84 54 78 55 80 56 34 57
REMARK SMILES IDX 83 58 77 59 76 60 35 62 65 63 46 64 64 65 47 66 50 67 63 68
REMARK SMILES IDX 81 69 48 70 49 71 62 73 82 74 51 75 36 76 37 77 45 78 38 79
REMARK SMILES IDX 44 80 39 81 40 82 41 83 42 84 43 85 66 86 67 87 75 88 68 89
REMARK SMILES IDX 74 90 69 91 70 92 71 93 72 94 73 95 52 96 53 97 61 98 54 99
REMARK SMILES IDX 60 100 55 101 56 102 57 103 58 104 59 105
REMARK H PARENT 17 8 99 16 10 27 24 42 80 61 50 72
REMARK Flexibility Score: inf
ROOT
ATOM      1  C   UNL A   1      34.590  31.848  27.796  1.00  0.00     0.002 C 
ENDROOT
BRANCH   1   2
ATOM      2  C   UNL A   1      33.389  30.984  27.386  1.00  0.00     0.002 C 
BRANCH   2   3
ATOM      3  C   UNL A   1      33.708  29.669  26.677  1.00  0.00     0.021 C 
BRANCH   3   4
ATOM      4  C   UNL A   1      32.570  28.654  26.626  1.00  0.00     0.116 C 
BRANCH   4   5
ATOM      5  N   UNL A   1      32.152  28.328  25.279  1.00  0.00    -0.352 N 
ATOM      6  C   UNL A   1      32.326  27.205  24.509  1.00  0.00     0.254 C 
ATOM      7  O   UNL A   1      31.900  27.252  23.352  1.00  0.00    -0.269 OA
ATOM      8  H   UNL A   1      31.649  29.045  24.832  1.00  0.00     0.163 HD
BRANCH   6   9
ATOM      9  C   UNL A   1      33.005  26.008  25.001  1.00  0.00     0.081 A 
ATOM     10  O   UNL A   1      29.474  23.626  27.183  1.00  0.00    -0.275 OA
ATOM     11  C   UNL A   1      30.660  23.757  26.878  1.00  0.00     0.225 C 
ATOM     12  C   UNL A   1      31.752  22.919  27.539  1.00  0.00     0.115 C 
ATOM     13  N   UNL A   1      31.070  24.769  26.045  1.00  0.00    -0.324 N 
ATOM     14  C   UNL A   1      32.992  22.670  26.656  1.00  0.00     0.078 C 
ATOM     15  C   UNL A   1      32.381  24.916  25.656  1.00  0.00     0.076 A 
ATOM     16  H   UNL A   1      30.401  25.412  25.715  1.00  0.00     0.170 HD
ATOM     17  C   UNL A   1      33.306  23.925  25.896  1.00  0.00     0.055 A 
ATOM     18  N   UNL A   1      34.520  24.368  25.416  1.00  0.00    -0.317 N 
ATOM     19  C   UNL A   1      34.355  25.702  25.074  1.00  0.00     0.107 A 
BRANCH  14  20
ATOM     20  C   UNL A   1      32.802  21.447  25.778  1.00  0.00    -0.035 A 
ATOM     21  C   UNL A   1      32.451  21.546  24.422  1.00  0.00     0.005 A 
ATOM     22  C   UNL A   1      33.051  20.173  26.318  1.00  0.00     0.050 A 
ATOM     23  C   UNL A   1      32.404  20.407  23.616  1.00  0.00     0.004 A 
ATOM     24  C   UNL A   1      33.035  19.053  25.496  1.00  0.00     0.115 A 
ATOM     25  C   UNL A   1      32.713  19.157  24.149  1.00  0.00     0.046 A 
BRANCH  24  26
ATOM     26  O   UNL A   1      33.405  17.860  26.044  1.00  0.00    -0.508 OA
ATOM     27  H   UNL A   1      34.301  17.589  26.012  1.00  0.00     0.293 HD
ENDBRANCH  24  26
ENDBRANCH  14  20
BRANCH  18  28
ATOM     28  C   UNL A   1      35.742  23.671  25.217  1.00  0.00     0.046 A 
ATOM     29  C   UNL A   1      35.762  22.538  24.393  1.00  0.00     0.026 A 
ATOM     30  C   UNL A   1      36.875  23.999  25.970  1.00  0.00     0.039 A 
ATOM     31  C   UNL A   1      36.920  21.767  24.289  1.00  0.00     0.003 A 
ATOM     32  C   UNL A   1      38.045  23.224  25.877  1.00  0.00     0.058 A 
ATOM     33  C   UNL A   1      38.056  22.110  25.021  1.00  0.00     0.013 A 
BRANCH  32  34
ATOM     34  C   UNL A   1      39.278  23.544  26.692  1.00  0.00     0.416 C 
ATOM     35  F   UNL A   1      40.141  22.494  26.754  1.00  0.00    -0.166 F 
ATOM     36  F   UNL A   1      39.990  24.576  26.155  1.00  0.00    -0.166 F 
ATOM     37  F   UNL A   1      39.020  23.896  27.979  1.00  0.00    -0.166 F 
ENDBRANCH  32  34
ENDBRANCH  18  28
ENDBRANCH   6   9
ENDBRANCH   4   5
ENDBRANCH   3   4
ENDBRANCH   2   3
ENDBRANCH   1   2
BRANCH   1  38
ATOM     38  C   UNL A   1      35.906  31.123  28.122  1.00  0.00     0.021 C 
BRANCH  38  39
ATOM     39  C   UNL A   1      35.832  30.183  29.315  1.00  0.00     0.116 C 
BRANCH  39  40
ATOM     40  N   UNL A   1      35.804  30.900  30.592  1.00  0.00    -0.352 N 
ATOM     41  C   UNL A   1      36.656  30.791  31.680  1.00  0.00     0.251 C 
ATOM     42  H   UNL A   1      35.075  31.554  30.692  1.00  0.00     0.163 HD
ATOM     43  O   UNL A   1      36.296  31.154  32.787  1.00  0.00    -0.269 OA
BRANCH  41  44
ATOM     44  C   UNL A   1      38.010  30.245  31.470  1.00  0.00     0.039 A 
ATOM     45  C   UNL A   1      38.289  28.876  31.523  1.00  0.00     0.014 A 
ATOM     46  C   UNL A   1      39.025  31.161  31.219  1.00  0.00     0.014 A 
ATOM     47  C   UNL A   1      39.593  28.446  31.272  1.00  0.00     0.010 A 
ATOM     48  C   UNL A   1      40.228  30.730  30.746  1.00  0.00     0.010 A 
ATOM     49  C   UNL A   1      40.552  29.390  30.885  1.00  0.00    -0.014 A 
BRANCH  49  50
ATOM     50  C   UNL A   1      41.923  29.045  30.552  1.00  0.00     0.031 A 
ATOM     51  C   UNL A   1      42.774  28.754  31.731  1.00  0.00     0.074 A 
ATOM     52  C   UNL A   1      42.267  28.669  29.300  1.00  0.00     0.049 A 
ATOM     53  N   UNL A   1      43.712  29.485  32.233  1.00  0.00    -0.248 NA
ATOM     54  C   UNL A   1      42.411  27.596  32.567  1.00  0.00     0.031 C 
ATOM     55  C   UNL A   1      41.396  28.502  28.126  1.00  0.00     0.029 A 
ATOM     56  N   UNL A   1      43.455  28.198  28.848  1.00  0.00    -0.354 N 
ATOM     57  C   UNL A   1      44.228  28.747  33.293  1.00  0.00     0.074 A 
ATOM     58  C   UNL A   1      43.226  27.763  33.610  1.00  0.00     0.031 C 
ATOM     59  C   UNL A   1      42.027  27.746  27.198  1.00  0.00     0.029 A 
ATOM     60  C   UNL A   1      43.391  27.512  27.638  1.00  0.00     0.049 A 
ATOM     61  H   UNL A   1      44.298  28.332  29.337  1.00  0.00     0.167 HD
ATOM     62  C   UNL A   1      45.552  28.792  33.618  1.00  0.00     0.031 A 
ATOM     63  C   UNL A   1      44.381  26.761  27.085  1.00  0.00     0.031 A 
ATOM     64  C   UNL A   1      46.229  29.849  32.905  1.00  0.00     0.049 A 
ATOM     65  C   UNL A   1      45.643  27.148  27.770  1.00  0.00     0.074 A 
ATOM     66  C   UNL A   1      46.053  31.216  32.793  1.00  0.00     0.029 A 
ATOM     67  N   UNL A   1      46.987  29.477  31.816  1.00  0.00    -0.354 N 
ATOM     68  N   UNL A   1      46.184  28.329  27.667  1.00  0.00    -0.248 NA
ATOM     69  C   UNL A   1      46.037  26.384  28.946  1.00  0.00     0.031 C 
ATOM     70  C   UNL A   1      46.279  31.501  31.413  1.00  0.00     0.029 A 
ATOM     71  C   UNL A   1      46.669  30.318  30.781  1.00  0.00     0.049 A 
ATOM     72  H   UNL A   1      47.639  28.740  31.787  1.00  0.00     0.167 HD
ATOM     73  C   UNL A   1      46.623  28.633  28.949  1.00  0.00     0.074 A 
ATOM     74  C   UNL A   1      46.589  27.361  29.672  1.00  0.00     0.031 C 
ATOM     75  C   UNL A   1      46.688  29.927  29.387  1.00  0.00     0.031 A 
BRANCH  62  76
ATOM     76  C   UNL A   1      46.320  27.633  34.222  1.00  0.00    -0.014 A 
ATOM     77  C   UNL A   1      47.212  26.918  33.396  1.00  0.00     0.010 A 
ATOM     78  C   UNL A   1      46.020  27.057  35.474  1.00  0.00     0.010 A 
ATOM     79  C   UNL A   1      47.695  25.655  33.762  1.00  0.00     0.020 A 
ATOM     80  C   UNL A   1      46.534  25.821  35.871  1.00  0.00     0.020 A 
ATOM     81  C   UNL A   1      47.338  25.110  34.994  1.00  0.00     0.054 A 
BRANCH  81  82
ATOM     82  S   UNL A   1      47.878  23.437  35.417  1.00  0.00     0.124 S 
ATOM     83  O   UNL A   1      48.683  23.081  34.253  1.00  0.00    -0.237 OA
ATOM     84  O   UNL A   1      48.616  23.659  36.658  1.00  0.00    -0.237 OA
ATOM     85  O   UNL A   1      46.626  22.701  35.565  1.00  0.00    -0.744 OA
ENDBRANCH  81  82
ENDBRANCH  62  76
BRANCH  63  86
ATOM     86  C   UNL A   1      44.284  25.533  26.251  1.00  0.00    -0.014 A 
ATOM     87  C   UNL A   1      45.328  25.181  25.372  1.00  0.00     0.010 A 
ATOM     88  C   UNL A   1      43.315  24.549  26.536  1.00  0.00     0.010 A 
ATOM     89  C   UNL A   1      45.453  23.870  24.877  1.00  0.00     0.020 A 
ATOM     90  C   UNL A   1      43.428  23.243  26.039  1.00  0.00     0.020 A 
ATOM     91  C   UNL A   1      44.516  22.900  25.239  1.00  0.00     0.054 A 
BRANCH  91  92
ATOM     92  S   UNL A   1      44.806  21.161  24.788  1.00  0.00     0.124 S 
ATOM     93  O   UNL A   1      46.191  20.958  25.198  1.00  0.00    -0.237 OA
ATOM     94  O   UNL A   1      43.802  20.456  25.579  1.00  0.00    -0.237 OA
ATOM     95  O   UNL A   1      44.576  21.139  23.343  1.00  0.00    -0.744 OA
ENDBRANCH  91  92
ENDBRANCH  63  86
BRANCH  75  96
ATOM     96  C   UNL A   1      46.555  31.044  28.374  1.00  0.00    -0.014 A 
ATOM     97  C   UNL A   1      45.326  31.556  27.909  1.00  0.00     0.010 A 
ATOM     98  C   UNL A   1      47.738  31.689  27.976  1.00  0.00     0.010 A 
ATOM     99  C   UNL A   1      45.291  32.655  27.037  1.00  0.00     0.020 A 
ATOM    100  C   UNL A   1      47.710  32.795  27.126  1.00  0.00     0.020 A 
ATOM    101  C   UNL A   1      46.487  33.264  26.646  1.00  0.00     0.054 A 
BRANCH 101 102
ATOM    102  S   UNL A   1      46.444  34.686  25.519  1.00  0.00     0.124 S 
ATOM    103  O   UNL A   1      47.812  34.726  25.008  1.00  0.00    -0.237 OA
ATOM    104  O   UNL A   1      45.420  34.302  24.549  1.00  0.00    -0.237 OA
ATOM    105  O   UNL A   1      46.075  35.805  26.384  1.00  0.00    -0.744 OA
ENDBRANCH 101 102
ENDBRANCH  75  96
ENDBRANCH  49  50
ENDBRANCH  41  44
ENDBRANCH  39  40
ENDBRANCH  38  39
ENDBRANCH   1  38
TORSDOF 20
ENDMDL
MODEL 3
REMARK VINA RESULT:     -10.6      2.221      3.541
REMARK SMILES O=C1C[C@@H](c2cccc(O)c2)c2c(c(C(=O)NCCCCCCNC(=O)c3ccc(-c4c5nc(c(-c6ccc(S(=O)(=O)[O-])cc6)c6ccc([nH]6)c(-c6ccc(S(=O)(=O)[O-])cc6)c6nc(c(-c7ccc(S(=O)(=O)[O-])cc7)c7ccc4[nH]7)C=C6)C=C5)cc3)cn2-c2cccc(C(F)(F)F)c2)N1
REMARK SMILES IDX 21 1 20 2 19 3 18 4 17 5 15 6 16 7 14 9 1 10 2 11 3 12 99 13
REMARK SMILES IDX 4 14 13 15 12 17 88 18 87 19 5 20 6 21 11 22 7 23 9 24 8 25
REMARK SMILES IDX 10 26 89 28 90 29 98 30 91 31 93 32 92 33 94 34 95 35 96 36
REMARK SMILES IDX 97 37 22 38 23 39 24 40 25 41 26 43 27 44 28 45 86 46 29 47
REMARK SMILES IDX 85 48 30 49 31 50 32 51 79 52 33 53 84 54 78 55 80 56 34 57
REMARK SMILES IDX 83 58 77 59 76 60 35 62 65 63 46 64 64 65 47 66 50 67 63 68
REMARK SMILES IDX 81 69 48 70 49 71 62 73 82 74 51 75 36 76 37 77 45 78 38 79
REMARK SMILES IDX 44 80 39 81 40 82 41 83 42 84 43 85 66 86 67 87 75 88 68 89
REMARK SMILES IDX 74 90 69 91 70 92 71 93 72 94 73 95 52 96 53 97 61 98 54 99
REMARK SMILES IDX 60 100 55 101 56 102 57 103 58 104 59 105
REMARK H PARENT 17 8 99 16 10 27 24 42 80 61 50 72
REMARK Flexibility Score: inf
ROOT
ATOM      1  C   UNL A   1      34.313  32.000  27.808  1.00  0.00     0.002 C 
ENDROOT
BRANCH   1   2
ATOM      2  C   UNL A   1      33.054  31.142  27.619  1.00  0.00     0.002 C 
BRANCH   2   3
ATOM      3  C   UNL A   1      33.172  29.962  26.657  1.00  0.00     0.021 C 
BRANCH   3   4
ATOM      4  C   UNL A   1      32.323  28.743  26.999  1.00  0.00     0.116 C 
BRANCH   4   5
ATOM      5  N   UNL A   1      31.449  28.330  25.921  1.00  0.00    -0.352 N 
ATOM      6  C   UNL A   1      31.375  27.171  25.190  1.00  0.00     0.254 C 
ATOM      7  O   UNL A   1      30.548  27.141  24.276  1.00  0.00    -0.269 OA
ATOM      8  H   UNL A   1      30.783  29.007  25.665  1.00  0.00     0.163 HD
BRANCH   6   9
ATOM      9  C   UNL A   1      32.243  26.022  25.443  1.00  0.00     0.081 A 
ATOM     10  O   UNL A   1      29.212  22.805  27.276  1.00  0.00    -0.275 OA
ATOM     11  C   UNL A   1      30.349  23.161  26.963  1.00  0.00     0.225 C 
ATOM     12  C   UNL A   1      31.583  22.395  27.432  1.00  0.00     0.115 C 
ATOM     13  N   UNL A   1      30.564  24.349  26.310  1.00  0.00    -0.324 N 
ATOM     14  C   UNL A   1      32.795  22.487  26.481  1.00  0.00     0.078 C 
ATOM     15  C   UNL A   1      31.818  24.754  25.913  1.00  0.00     0.076 A 
ATOM     16  H   UNL A   1      29.794  24.932  26.119  1.00  0.00     0.170 HD
ATOM     17  C   UNL A   1      32.885  23.886  25.946  1.00  0.00     0.055 A 
ATOM     18  N   UNL A   1      33.996  24.579  25.515  1.00  0.00    -0.317 N 
ATOM     19  C   UNL A   1      33.624  25.913  25.420  1.00  0.00     0.107 A 
BRANCH  14  20
ATOM     20  C   UNL A   1      32.731  21.417  25.407  1.00  0.00    -0.035 A 
ATOM     21  C   UNL A   1      32.957  20.060  25.687  1.00  0.00     0.005 A 
ATOM     22  C   UNL A   1      32.368  21.783  24.099  1.00  0.00     0.050 A 
ATOM     23  C   UNL A   1      32.770  19.091  24.699  1.00  0.00     0.004 A 
ATOM     24  C   UNL A   1      32.151  20.805  23.136  1.00  0.00     0.115 A 
ATOM     25  C   UNL A   1      32.350  19.461  23.424  1.00  0.00     0.046 A 
BRANCH  24  26
ATOM     26  O   UNL A   1      31.680  21.206  21.921  1.00  0.00    -0.508 OA
ATOM     27  H   UNL A   1      32.146  20.980  21.141  1.00  0.00     0.293 HD
ENDBRANCH  24  26
ENDBRANCH  14  20
BRANCH  18  28
ATOM     28  C   UNL A   1      35.291  24.117  25.159  1.00  0.00     0.046 A 
ATOM     29  C   UNL A   1      35.449  23.335  24.007  1.00  0.00     0.026 A 
ATOM     30  C   UNL A   1      36.369  24.284  26.036  1.00  0.00     0.039 A 
ATOM     31  C   UNL A   1      36.688  22.764  23.712  1.00  0.00     0.003 A 
ATOM     32  C   UNL A   1      37.619  23.706  25.750  1.00  0.00     0.058 A 
ATOM     33  C   UNL A   1      37.767  22.953  24.575  1.00  0.00     0.013 A 
BRANCH  32  34
ATOM     34  C   UNL A   1      38.796  23.856  26.688  1.00  0.00     0.416 C 
ATOM     35  F   UNL A   1      39.410  22.667  26.938  1.00  0.00    -0.166 F 
ATOM     36  F   UNL A   1      39.761  24.667  26.169  1.00  0.00    -0.166 F 
ATOM     37  F   UNL A   1      38.480  24.378  27.902  1.00  0.00    -0.166 F 
ENDBRANCH  32  34
ENDBRANCH  18  28
ENDBRANCH   6   9
ENDBRANCH   4   5
ENDBRANCH   3   4
ENDBRANCH   2   3
ENDBRANCH   1   2
BRANCH   1  38
ATOM     38  C   UNL A   1      35.672  31.285  27.750  1.00  0.00     0.021 C 
BRANCH  38  39
ATOM     39  C   UNL A   1      36.016  30.476  28.991  1.00  0.00     0.116 C 
BRANCH  39  40
ATOM     40  N   UNL A   1      35.725  31.201  30.230  1.00  0.00    -0.352 N 
ATOM     41  C   UNL A   1      36.236  31.006  31.503  1.00  0.00     0.251 C 
ATOM     42  H   UNL A   1      35.071  31.932  30.146  1.00  0.00     0.163 HD
ATOM     43  O   UNL A   1      35.634  31.415  32.481  1.00  0.00    -0.269 OA
BRANCH  41  44
ATOM     44  C   UNL A   1      37.530  30.313  31.650  1.00  0.00     0.039 A 
ATOM     45  C   UNL A   1      37.628  28.931  31.846  1.00  0.00     0.014 A 
ATOM     46  C   UNL A   1      38.675  31.098  31.594  1.00  0.00     0.014 A 
ATOM     47  C   UNL A   1      38.896  28.354  31.936  1.00  0.00     0.010 A 
ATOM     48  C   UNL A   1      39.896  30.513  31.444  1.00  0.00     0.010 A 
ATOM     49  C   UNL A   1      40.021  29.162  31.732  1.00  0.00    -0.014 A 
BRANCH  49  50
ATOM     50  C   UNL A   1      41.382  28.657  31.753  1.00  0.00     0.031 A 
ATOM     51  C   UNL A   1      41.943  28.491  33.115  1.00  0.00     0.074 A 
ATOM     52  C   UNL A   1      41.923  28.055  30.670  1.00  0.00     0.049 A 
ATOM     53  N   UNL A   1      42.840  29.214  33.698  1.00  0.00    -0.248 NA
ATOM     54  C   UNL A   1      41.290  27.517  34.010  1.00  0.00     0.031 C 
ATOM     55  C   UNL A   1      41.290  27.772  29.372  1.00  0.00     0.029 A 
ATOM     56  N   UNL A   1      43.115  27.421  30.554  1.00  0.00    -0.354 N 
ATOM     57  C   UNL A   1      43.046  28.617  34.938  1.00  0.00     0.074 A 
ATOM     58  C   UNL A   1      41.895  27.784  35.169  1.00  0.00     0.031 C 
ATOM     59  C   UNL A   1      42.002  26.827  28.717  1.00  0.00     0.029 A 
ATOM     60  C   UNL A   1      43.215  26.555  29.468  1.00  0.00     0.049 A 
ATOM     61  H   UNL A   1      43.854  27.562  31.188  1.00  0.00     0.167 HD
ATOM     62  C   UNL A   1      44.275  28.604  35.529  1.00  0.00     0.031 A 
ATOM     63  C   UNL A   1      44.203  25.645  29.251  1.00  0.00     0.031 A 
ATOM     64  C   UNL A   1      45.197  29.473  34.835  1.00  0.00     0.049 A 
ATOM     65  C   UNL A   1      45.339  26.033  30.129  1.00  0.00     0.074 A 
ATOM     66  C   UNL A   1      45.205  30.813  34.497  1.00  0.00     0.029 A 
ATOM     67  N   UNL A   1      46.109  28.868  33.998  1.00  0.00    -0.354 N 
ATOM     68  N   UNL A   1      46.022  27.133  29.979  1.00  0.00    -0.248 NA
ATOM     69  C   UNL A   1      45.402  25.439  31.458  1.00  0.00     0.031 C 
ATOM     70  C   UNL A   1      45.731  30.851  33.172  1.00  0.00     0.029 A 
ATOM     71  C   UNL A   1      46.101  29.553  32.811  1.00  0.00     0.049 A 
ATOM     72  H   UNL A   1      46.665  28.084  34.214  1.00  0.00     0.167 HD
ATOM     73  C   UNL A   1      46.229  27.603  31.269  1.00  0.00     0.074 A 
ATOM     74  C   UNL A   1      45.906  26.472  32.139  1.00  0.00     0.031 C 
ATOM     75  C   UNL A   1      46.353  28.941  31.523  1.00  0.00     0.031 A 
BRANCH  62  76
ATOM     76  C   UNL A   1      44.770  27.499  36.442  1.00  0.00    -0.014 A 
ATOM     77  C   UNL A   1      45.171  27.842  37.750  1.00  0.00     0.010 A 
ATOM     78  C   UNL A   1      45.101  26.202  36.000  1.00  0.00     0.010 A 
ATOM     79  C   UNL A   1      45.943  26.970  38.530  1.00  0.00     0.020 A 
ATOM     80  C   UNL A   1      45.827  25.306  36.786  1.00  0.00     0.020 A 
ATOM     81  C   UNL A   1      46.278  25.713  38.033  1.00  0.00     0.054 A 
BRANCH  81  82
ATOM     82  S   UNL A   1      47.360  24.633  38.998  1.00  0.00     0.124 S 
ATOM     83  O   UNL A   1      48.354  24.241  38.004  1.00  0.00    -0.237 OA
ATOM     84  O   UNL A   1      47.831  25.532  40.049  1.00  0.00    -0.237 OA
ATOM     85  O   UNL A   1      46.467  23.569  39.449  1.00  0.00    -0.744 OA
ENDBRANCH  81  82
ENDBRANCH  62  76
BRANCH  63  86
ATOM     86  C   UNL A   1      44.134  24.311  28.598  1.00  0.00    -0.014 A 
ATOM     87  C   UNL A   1      42.896  23.656  28.437  1.00  0.00     0.010 A 
ATOM     88  C   UNL A   1      45.230  23.818  27.862  1.00  0.00     0.010 A 
ATOM     89  C   UNL A   1      42.739  22.614  27.506  1.00  0.00     0.020 A 
ATOM     90  C   UNL A   1      45.082  22.774  26.937  1.00  0.00     0.020 A 
ATOM     91  C   UNL A   1      43.829  22.199  26.739  1.00  0.00     0.054 A 
BRANCH  91  92
ATOM     92  S   UNL A   1      43.571  21.017  25.379  1.00  0.00     0.124 S 
ATOM     93  O   UNL A   1      43.763  21.851  24.198  1.00  0.00    -0.237 OA
ATOM     94  O   UNL A   1      44.608  20.019  25.625  1.00  0.00    -0.237 OA
ATOM     95  O   UNL A   1      42.202  20.545  25.591  1.00  0.00    -0.744 OA
ENDBRANCH  91  92
ENDBRANCH  63  86
BRANCH  75  96
ATOM     96  C   UNL A   1      46.553  29.886  30.358  1.00  0.00    -0.014 A 
ATOM     97  C   UNL A   1      45.508  30.426  29.581  1.00  0.00     0.010 A 
ATOM     98  C   UNL A   1      47.860  30.347  30.127  1.00  0.00     0.010 A 
ATOM     99  C   UNL A   1      45.773  31.368  28.575  1.00  0.00     0.020 A 
ATOM    100  C   UNL A   1      48.130  31.298  29.142  1.00  0.00     0.020 A 
ATOM    101  C   UNL A   1      47.087  31.793  28.358  1.00  0.00     0.054 A 
BRANCH 101 102
ATOM    102  S   UNL A   1      47.434  33.011  27.058  1.00  0.00     0.124 S 
ATOM    103  O   UNL A   1      47.507  34.262  27.808  1.00  0.00    -0.237 OA
ATOM    104  O   UNL A   1      48.698  32.538  26.498  1.00  0.00    -0.237 OA
ATOM    105  O   UNL A   1      46.287  32.897  26.159  1.00  0.00    -0.744 OA
ENDBRANCH 101 102
ENDBRANCH  75  96
ENDBRANCH  49  50
ENDBRANCH  41  44
ENDBRANCH  39  40
ENDBRANCH  38  39
ENDBRANCH   1  38
TORSDOF 20
ENDMDL
