MODEL 1
REMARK VINA RESULT:     -11.6      0.000      0.000
REMARK SMILES C[C@@H]1Cc2ccccc2N1c1ccc(F)cc1C(=O)NCCCCCCNC(=O)c1ccc(-c2c3nc(c(-c4ccc(S(=O)(=O)[O-])cc4)c4ccc([nH]4)c(-c4ccc(S(=O)(=O)[O-])cc4)c4nc(c(-c5ccc(S(=O)(=O)[O-])cc5)c5ccc2[nH]5)C=C4)C=C3)cc1
REMARK SMILES IDX 24 1 23 2 22 3 21 4 20 5 18 6 19 7 17 9 11 10 12 11 13 12
REMARK SMILES IDX 16 13 14 14 15 15 10 16 1 17 2 18 3 19 4 20 9 21 5 22 8 23
REMARK SMILES IDX 6 24 7 25 25 26 26 27 27 28 28 29 29 31 30 32 31 33 89 34
REMARK SMILES IDX 32 35 88 36 33 37 34 38 35 39 82 40 36 41 87 42 81 43 83 44
REMARK SMILES IDX 37 45 86 46 80 47 79 48 38 50 68 51 49 52 67 53 50 54 53 55
REMARK SMILES IDX 66 56 84 57 51 58 52 59 65 61 85 62 54 63 39 64 40 65 48 66
REMARK SMILES IDX 41 67 47 68 42 69 43 70 44 71 45 72 46 73 69 74 70 75 78 76
REMARK SMILES IDX 71 77 77 78 72 79 73 80 74 81 75 82 76 83 55 84 56 85 64 86
REMARK SMILES IDX 57 87 63 88 58 89 59 90 60 91 61 92 62 93
REMARK H PARENT 20 8 27 30 83 49 53 60
REMARK Flexibility Score: inf
ROOT
ATOM      1  C   UNL A   1      32.771  26.024  25.159  1.00  0.00     0.002 C 
ENDROOT
BRANCH   1   2
ATOM      2  C   UNL A   1      33.970  26.023  24.203  1.00  0.00     0.002 C 
BRANCH   2   3
ATOM      3  C   UNL A   1      34.134  24.850  23.229  1.00  0.00     0.021 C 
BRANCH   3   4
ATOM      4  C   UNL A   1      32.906  24.413  22.436  1.00  0.00     0.116 C 
BRANCH   4   5
ATOM      5  N   UNL A   1      32.666  22.998  22.330  1.00  0.00    -0.352 N 
ATOM      6  C   UNL A   1      32.265  22.102  23.296  1.00  0.00     0.253 C 
ATOM      7  O   UNL A   1      32.039  20.948  22.912  1.00  0.00    -0.269 OA
ATOM      8  H   UNL A   1      32.808  22.614  21.435  1.00  0.00     0.163 HD
BRANCH   6   9
ATOM      9  C   UNL A   1      32.156  22.368  24.772  1.00  0.00     0.066 A 
ATOM     10  C   UNL A   1      33.130  22.175  25.781  1.00  0.00     0.054 A 
ATOM     11  C   UNL A   1      32.837  22.603  27.101  1.00  0.00     0.030 A 
ATOM     12  C   UNL A   1      31.622  23.192  27.434  1.00  0.00     0.041 A 
ATOM     13  C   UNL A   1      30.932  22.979  25.134  1.00  0.00     0.055 A 
ATOM     14  C   UNL A   1      30.676  23.371  26.443  1.00  0.00     0.124 A 
ATOM     15  F   UNL A   1      29.499  23.934  26.749  1.00  0.00    -0.207 F 
BRANCH  10  16
ATOM     16  N   UNL A   1      34.350  21.538  25.587  1.00  0.00    -0.337 N 
ATOM     17  C   UNL A   1      33.701  19.130  25.374  1.00  0.00     0.032 C 
ATOM     18  C   UNL A   1      34.500  20.294  24.794  1.00  0.00     0.089 C 
ATOM     19  C   UNL A   1      36.023  19.966  24.772  1.00  0.00     0.063 C 
ATOM     20  C   UNL A   1      36.634  21.261  25.203  1.00  0.00    -0.022 A 
ATOM     21  C   UNL A   1      35.629  22.150  25.575  1.00  0.00     0.045 A 
ATOM     22  C   UNL A   1      37.972  21.591  25.351  1.00  0.00     0.006 A 
ATOM     23  C   UNL A   1      35.944  23.428  26.023  1.00  0.00     0.026 A 
ATOM     24  C   UNL A   1      38.294  22.858  25.849  1.00  0.00     0.000 A 
ATOM     25  C   UNL A   1      37.286  23.779  26.164  1.00  0.00     0.002 A 
ENDBRANCH  10  16
ENDBRANCH   6   9
ENDBRANCH   4   5
ENDBRANCH   3   4
ENDBRANCH   2   3
ENDBRANCH   1   2
BRANCH   1  26
ATOM     26  C   UNL A   1      32.744  27.065  26.275  1.00  0.00     0.021 C 
BRANCH  26  27
ATOM     27  C   UNL A   1      33.895  28.058  26.358  1.00  0.00     0.116 C 
BRANCH  27  28
ATOM     28  N   UNL A   1      33.514  29.378  26.828  1.00  0.00    -0.352 N 
ATOM     29  C   UNL A   1      34.214  30.311  27.563  1.00  0.00     0.251 C 
ATOM     30  H   UNL A   1      32.601  29.654  26.581  1.00  0.00     0.163 HD
ATOM     31  O   UNL A   1      33.651  31.355  27.891  1.00  0.00    -0.269 OA
BRANCH  29  32
ATOM     32  C   UNL A   1      35.612  30.066  28.007  1.00  0.00     0.039 A 
ATOM     33  C   UNL A   1      36.710  30.300  27.179  1.00  0.00     0.014 A 
ATOM     34  C   UNL A   1      35.831  29.603  29.311  1.00  0.00     0.014 A 
ATOM     35  C   UNL A   1      37.985  29.895  27.577  1.00  0.00     0.010 A 
ATOM     36  C   UNL A   1      37.125  29.288  29.745  1.00  0.00     0.010 A 
ATOM     37  C   UNL A   1      38.213  29.380  28.863  1.00  0.00    -0.014 A 
BRANCH  37  38
ATOM     38  C   UNL A   1      39.583  28.950  29.267  1.00  0.00     0.031 A 
ATOM     39  C   UNL A   1      40.434  29.817  30.163  1.00  0.00     0.074 A 
ATOM     40  C   UNL A   1      40.052  27.751  28.867  1.00  0.00     0.049 A 
ATOM     41  N   UNL A   1      41.639  29.587  30.624  1.00  0.00    -0.248 NA
ATOM     42  C   UNL A   1      39.868  31.104  30.598  1.00  0.00     0.031 C 
ATOM     43  C   UNL A   1      39.324  26.807  28.016  1.00  0.00     0.029 A 
ATOM     44  N   UNL A   1      41.233  27.104  29.140  1.00  0.00    -0.354 N 
ATOM     45  C   UNL A   1      41.977  30.699  31.389  1.00  0.00     0.074 A 
ATOM     46  C   UNL A   1      40.866  31.621  31.302  1.00  0.00     0.031 C 
ATOM     47  C   UNL A   1      40.044  25.683  27.891  1.00  0.00     0.029 A 
ATOM     48  C   UNL A   1      41.318  25.847  28.586  1.00  0.00     0.049 A 
ATOM     49  H   UNL A   1      41.952  27.502  29.682  1.00  0.00     0.167 HD
ATOM     50  C   UNL A   1      43.102  30.925  32.109  1.00  0.00     0.031 A 
ATOM     51  C   UNL A   1      42.303  24.928  28.616  1.00  0.00     0.031 A 
ATOM     52  C   UNL A   1      44.202  30.000  32.205  1.00  0.00     0.049 A 
ATOM     53  C   UNL A   1      43.565  25.223  29.375  1.00  0.00     0.074 A 
ATOM     54  C   UNL A   1      45.374  30.141  32.929  1.00  0.00     0.029 A 
ATOM     55  N   UNL A   1      44.271  28.769  31.571  1.00  0.00    -0.354 N 
ATOM     56  N   UNL A   1      43.858  26.279  30.096  1.00  0.00    -0.248 NA
ATOM     57  C   UNL A   1      44.629  24.211  29.327  1.00  0.00     0.031 C 
ATOM     58  C   UNL A   1      46.180  29.028  32.679  1.00  0.00     0.029 A 
ATOM     59  C   UNL A   1      45.478  28.155  31.862  1.00  0.00     0.049 A 
ATOM     60  H   UNL A   1      43.567  28.389  30.997  1.00  0.00     0.167 HD
ATOM     61  C   UNL A   1      45.136  26.054  30.595  1.00  0.00     0.074 A 
ATOM     62  C   UNL A   1      45.552  24.753  30.113  1.00  0.00     0.031 C 
ATOM     63  C   UNL A   1      45.892  26.861  31.379  1.00  0.00     0.031 A 
BRANCH  50  64
ATOM     64  C   UNL A   1      43.219  32.224  32.869  1.00  0.00    -0.014 A 
ATOM     65  C   UNL A   1      42.697  32.320  34.174  1.00  0.00     0.010 A 
ATOM     66  C   UNL A   1      43.726  33.380  32.250  1.00  0.00     0.010 A 
ATOM     67  C   UNL A   1      42.653  33.552  34.833  1.00  0.00     0.020 A 
ATOM     68  C   UNL A   1      43.710  34.609  32.918  1.00  0.00     0.020 A 
ATOM     69  C   UNL A   1      43.152  34.691  34.196  1.00  0.00     0.054 A 
BRANCH  69  70
ATOM     70  S   UNL A   1      43.066  36.287  35.057  1.00  0.00     0.124 S 
ATOM     71  O   UNL A   1      42.813  37.216  33.961  1.00  0.00    -0.237 OA
ATOM     72  O   UNL A   1      41.956  36.088  35.987  1.00  0.00    -0.237 OA
ATOM     73  O   UNL A   1      44.379  36.404  35.687  1.00  0.00    -0.744 OA
ENDBRANCH  69  70
ENDBRANCH  50  64
BRANCH  51  74
ATOM     74  C   UNL A   1      42.102  23.630  27.911  1.00  0.00    -0.014 A 
ATOM     75  C   UNL A   1      41.501  22.544  28.575  1.00  0.00     0.010 A 
ATOM     76  C   UNL A   1      42.605  23.442  26.612  1.00  0.00     0.010 A 
ATOM     77  C   UNL A   1      41.474  21.278  27.985  1.00  0.00     0.020 A 
ATOM     78  C   UNL A   1      42.548  22.182  26.004  1.00  0.00     0.020 A 
ATOM     79  C   UNL A   1      42.015  21.102  26.710  1.00  0.00     0.054 A 
BRANCH  79  80
ATOM     80  S   UNL A   1      42.042  19.434  25.998  1.00  0.00     0.124 S 
ATOM     81  O   UNL A   1      40.625  19.196  25.742  1.00  0.00    -0.237 OA
ATOM     82  O   UNL A   1      42.875  19.607  24.810  1.00  0.00    -0.237 OA
ATOM     83  O   UNL A   1      42.633  18.619  27.056  1.00  0.00    -0.744 OA
ENDBRANCH  79  80
ENDBRANCH  51  74
BRANCH  63  84
ATOM     84  C   UNL A   1      47.265  26.386  31.781  1.00  0.00    -0.014 A 
ATOM     85  C   UNL A   1      48.376  26.700  30.975  1.00  0.00     0.010 A 
ATOM     86  C   UNL A   1      47.435  25.512  32.868  1.00  0.00     0.010 A 
ATOM     87  C   UNL A   1      49.619  26.115  31.220  1.00  0.00     0.020 A 
ATOM     88  C   UNL A   1      48.686  24.947  33.135  1.00  0.00     0.020 A 
ATOM     89  C   UNL A   1      49.763  25.229  32.292  1.00  0.00     0.054 A 
BRANCH  89  90
ATOM     90  S   UNL A   1      51.373  24.439  32.563  1.00  0.00     0.124 S 
ATOM     91  O   UNL A   1      51.047  23.023  32.425  1.00  0.00    -0.237 OA
ATOM     92  O   UNL A   1      52.193  25.004  31.494  1.00  0.00    -0.237 OA
ATOM     93  O   UNL A   1      51.742  24.866  33.911  1.00  0.00    -0.744 OA
ENDBRANCH  89  90
ENDBRANCH  63  84
ENDBRANCH  37  38
ENDBRANCH  29  32
ENDBRANCH  27  28
ENDBRANCH  26  27
ENDBRANCH   1  26
TORSDOF 17
ENDMDL
MODEL 2
REMARK VINA RESULT:     -11.3      2.732      8.448
REMARK SMILES C[C@@H]1Cc2ccccc2N1c1ccc(F)cc1C(=O)NCCCCCCNC(=O)c1ccc(-c2c3nc(c(-c4ccc(S(=O)(=O)[O-])cc4)c4ccc([nH]4)c(-c4ccc(S(=O)(=O)[O-])cc4)c4nc(c(-c5ccc(S(=O)(=O)[O-])cc5)c5ccc2[nH]5)C=C4)C=C3)cc1
REMARK SMILES IDX 24 1 23 2 22 3 21 4 20 5 18 6 19 7 17 9 11 10 12 11 13 12
REMARK SMILES IDX 16 13 14 14 15 15 10 16 1 17 2 18 3 19 4 20 9 21 5 22 8 23
REMARK SMILES IDX 6 24 7 25 25 26 26 27 27 28 28 29 29 31 30 32 31 33 89 34
REMARK SMILES IDX 32 35 88 36 33 37 34 38 35 39 82 40 36 41 87 42 81 43 83 44
REMARK SMILES IDX 37 45 86 46 80 47 79 48 38 50 68 51 49 52 67 53 50 54 53 55
REMARK SMILES IDX 66 56 84 57 51 58 52 59 65 61 85 62 54 63 39 64 40 65 48 66
REMARK SMILES IDX 41 67 47 68 42 69 43 70 44 71 45 72 46 73 69 74 70 75 78 76
REMARK SMILES IDX 71 77 77 78 72 79 73 80 74 81 75 82 76 83 55 84 56 85 64 86
REMARK SMILES IDX 57 87 63 88 58 89 59 90 60 91 61 92 62 93
REMARK H PARENT 20 8 27 30 83 49 53 60
REMARK Flexibility Score: inf
ROOT
ATOM      1  C   UNL A   1      35.086  22.301  25.969  1.00  0.00     0.002 C 
ENDROOT
BRANCH   1   2
ATOM      2  C   UNL A   1      34.088  22.389  27.130  1.00  0.00     0.002 C 
BRANCH   2   3
ATOM      3  C   UNL A   1      32.701  22.987  26.863  1.00  0.00     0.021 C 
BRANCH   3   4
ATOM      4  C   UNL A   1      32.541  24.496  27.014  1.00  0.00     0.116 C 
BRANCH   4   5
ATOM      5  N   UNL A   1      31.278  25.063  26.617  1.00  0.00    -0.352 N 
ATOM      6  C   UNL A   1      30.882  25.554  25.392  1.00  0.00     0.253 C 
ATOM      7  O   UNL A   1      29.699  25.899  25.298  1.00  0.00    -0.269 OA
ATOM      8  H   UNL A   1      30.596  25.105  27.326  1.00  0.00     0.163 HD
BRANCH   6   9
ATOM      9  C   UNL A   1      31.763  25.784  24.196  1.00  0.00     0.066 A 
ATOM     10  C   UNL A   1      32.404  26.978  23.786  1.00  0.00     0.054 A 
ATOM     11  C   UNL A   1      33.282  26.931  22.673  1.00  0.00     0.030 A 
ATOM     12  C   UNL A   1      33.520  25.755  21.969  1.00  0.00     0.041 A 
ATOM     13  C   UNL A   1      32.030  24.600  23.470  1.00  0.00     0.055 A 
ATOM     14  C   UNL A   1      32.885  24.597  22.374  1.00  0.00     0.124 A 
ATOM     15  F   UNL A   1      33.102  23.457  21.704  1.00  0.00    -0.207 F 
BRANCH  10  16
ATOM     16  N   UNL A   1      32.194  28.224  24.364  1.00  0.00    -0.337 N 
ATOM     17  C   UNL A   1      30.549  29.296  22.811  1.00  0.00     0.032 C 
ATOM     18  C   UNL A   1      30.914  28.965  24.256  1.00  0.00     0.089 C 
ATOM     19  C   UNL A   1      31.085  30.265  25.098  1.00  0.00     0.063 C 
ATOM     20  C   UNL A   1      32.286  29.949  25.931  1.00  0.00    -0.022 A 
ATOM     21  C   UNL A   1      32.829  28.733  25.526  1.00  0.00     0.045 A 
ATOM     22  C   UNL A   1      32.908  30.723  26.898  1.00  0.00     0.006 A 
ATOM     23  C   UNL A   1      33.963  28.221  26.145  1.00  0.00     0.026 A 
ATOM     24  C   UNL A   1      34.078  30.236  27.490  1.00  0.00     0.000 A 
ATOM     25  C   UNL A   1      34.592  28.983  27.131  1.00  0.00     0.002 A 
ENDBRANCH  10  16
ENDBRANCH   6   9
ENDBRANCH   4   5
ENDBRANCH   3   4
ENDBRANCH   2   3
ENDBRANCH   1   2
BRANCH   1  26
ATOM     26  C   UNL A   1      35.657  23.604  25.413  1.00  0.00     0.021 C 
BRANCH  26  27
ATOM     27  C   UNL A   1      37.012  23.556  24.722  1.00  0.00     0.116 C 
BRANCH  27  28
ATOM     28  N   UNL A   1      37.940  22.595  25.292  1.00  0.00    -0.352 N 
ATOM     29  C   UNL A   1      38.978  22.763  26.183  1.00  0.00     0.251 C 
ATOM     30  H   UNL A   1      37.805  21.667  24.991  1.00  0.00     0.163 HD
ATOM     31  O   UNL A   1      39.669  21.789  26.482  1.00  0.00    -0.269 OA
BRANCH  29  32
ATOM     32  C   UNL A   1      39.312  24.095  26.753  1.00  0.00     0.039 A 
ATOM     33  C   UNL A   1      40.008  25.063  26.028  1.00  0.00     0.014 A 
ATOM     34  C   UNL A   1      38.895  24.392  28.057  1.00  0.00     0.014 A 
ATOM     35  C   UNL A   1      40.447  26.229  26.658  1.00  0.00     0.010 A 
ATOM     36  C   UNL A   1      39.254  25.606  28.657  1.00  0.00     0.010 A 
ATOM     37  C   UNL A   1      40.081  26.517  27.983  1.00  0.00    -0.014 A 
BRANCH  37  38
ATOM     38  C   UNL A   1      40.564  27.766  28.639  1.00  0.00     0.031 A 
ATOM     39  C   UNL A   1      39.644  28.948  28.829  1.00  0.00     0.074 A 
ATOM     40  C   UNL A   1      41.825  27.827  29.112  1.00  0.00     0.049 A 
ATOM     41  N   UNL A   1      39.896  30.103  29.394  1.00  0.00    -0.248 NA
ATOM     42  C   UNL A   1      38.268  28.823  28.322  1.00  0.00     0.031 C 
ATOM     43  C   UNL A   1      42.812  26.750  29.012  1.00  0.00     0.029 A 
ATOM     44  N   UNL A   1      42.489  28.819  29.794  1.00  0.00    -0.354 N 
ATOM     45  C   UNL A   1      38.721  30.841  29.300  1.00  0.00     0.074 A 
ATOM     46  C   UNL A   1      37.764  30.020  28.593  1.00  0.00     0.031 C 
ATOM     47  C   UNL A   1      43.926  27.112  29.663  1.00  0.00     0.029 A 
ATOM     48  C   UNL A   1      43.769  28.475  30.165  1.00  0.00     0.049 A 
ATOM     49  H   UNL A   1      42.086  29.694  29.999  1.00  0.00     0.167 HD
ATOM     50  C   UNL A   1      38.458  32.083  29.774  1.00  0.00     0.031 A 
ATOM     51  C   UNL A   1      44.720  29.169  30.821  1.00  0.00     0.031 A 
ATOM     52  C   UNL A   1      39.407  32.895  30.491  1.00  0.00     0.049 A 
ATOM     53  C   UNL A   1      44.425  30.566  31.288  1.00  0.00     0.074 A 
ATOM     54  C   UNL A   1      39.219  34.159  31.023  1.00  0.00     0.029 A 
ATOM     55  N   UNL A   1      40.713  32.531  30.782  1.00  0.00    -0.354 N 
ATOM     56  N   UNL A   1      43.304  31.241  31.193  1.00  0.00    -0.248 NA
ATOM     57  C   UNL A   1      45.516  31.297  31.947  1.00  0.00     0.031 C 
ATOM     58  C   UNL A   1      40.428  34.587  31.576  1.00  0.00     0.029 A 
ATOM     59  C   UNL A   1      41.350  33.559  31.458  1.00  0.00     0.049 A 
ATOM     60  H   UNL A   1      41.127  31.671  30.541  1.00  0.00     0.167 HD
ATOM     61  C   UNL A   1      43.552  32.472  31.788  1.00  0.00     0.074 A 
ATOM     62  C   UNL A   1      44.921  32.443  32.260  1.00  0.00     0.031 C 
ATOM     63  C   UNL A   1      42.714  33.529  31.925  1.00  0.00     0.031 A 
BRANCH  50  64
ATOM     64  C   UNL A   1      37.082  32.662  29.547  1.00  0.00    -0.014 A 
ATOM     65  C   UNL A   1      36.756  33.220  28.296  1.00  0.00     0.010 A 
ATOM     66  C   UNL A   1      36.161  32.771  30.604  1.00  0.00     0.010 A 
ATOM     67  C   UNL A   1      35.549  33.901  28.114  1.00  0.00     0.020 A 
ATOM     68  C   UNL A   1      34.939  33.426  30.417  1.00  0.00     0.020 A 
ATOM     69  C   UNL A   1      34.651  34.007  29.179  1.00  0.00     0.054 A 
BRANCH  69  70
ATOM     70  S   UNL A   1      33.099  34.914  28.933  1.00  0.00     0.124 S 
ATOM     71  O   UNL A   1      33.569  36.199  28.427  1.00  0.00    -0.237 OA
ATOM     72  O   UNL A   1      32.389  34.076  27.968  1.00  0.00    -0.237 OA
ATOM     73  O   UNL A   1      32.507  34.945  30.268  1.00  0.00    -0.744 OA
ENDBRANCH  69  70
ENDBRANCH  50  64
BRANCH  51  74
ATOM     74  C   UNL A   1      46.036  28.519  31.085  1.00  0.00    -0.014 A 
ATOM     75  C   UNL A   1      47.090  28.643  30.160  1.00  0.00     0.010 A 
ATOM     76  C   UNL A   1      46.206  27.689  32.206  1.00  0.00     0.010 A 
ATOM     77  C   UNL A   1      48.258  27.894  30.311  1.00  0.00     0.020 A 
ATOM     78  C   UNL A   1      47.390  26.963  32.378  1.00  0.00     0.020 A 
ATOM     79  C   UNL A   1      48.392  27.043  31.410  1.00  0.00     0.054 A 
BRANCH  79  80
ATOM     80  S   UNL A   1      49.883  26.018  31.541  1.00  0.00     0.124 S 
ATOM     81  O   UNL A   1      50.934  27.029  31.616  1.00  0.00    -0.237 OA
ATOM     82  O   UNL A   1      49.646  25.266  32.771  1.00  0.00    -0.237 OA
ATOM     83  O   UNL A   1      49.863  25.225  30.316  1.00  0.00    -0.744 OA
ENDBRANCH  79  80
ENDBRANCH  51  74
BRANCH  63  84
ATOM     84  C   UNL A   1      43.232  34.769  32.608  1.00  0.00    -0.014 A 
ATOM     85  C   UNL A   1      42.943  34.988  33.968  1.00  0.00     0.010 A 
ATOM     86  C   UNL A   1      43.876  35.780  31.875  1.00  0.00     0.010 A 
ATOM     87  C   UNL A   1      43.244  36.210  34.571  1.00  0.00     0.020 A 
ATOM     88  C   UNL A   1      44.207  36.996  32.483  1.00  0.00     0.020 A 
ATOM     89  C   UNL A   1      43.863  37.213  33.820  1.00  0.00     0.054 A 
BRANCH  89  90
ATOM     90  S   UNL A   1      44.200  38.813  34.606  1.00  0.00     0.124 S 
ATOM     91  O   UNL A   1      43.142  39.654  34.055  1.00  0.00    -0.237 OA
ATOM     92  O   UNL A   1      44.083  38.502  36.028  1.00  0.00    -0.237 OA
ATOM     93  O   UNL A   1      45.552  39.137  34.156  1.00  0.00    -0.744 OA
ENDBRANCH  89  90
ENDBRANCH  63  84
ENDBRANCH  37  38
ENDBRANCH  29  32
ENDBRANCH  27  28
ENDBRANCH  26  27
ENDBRANCH   1  26
TORSDOF 17
ENDMDL
MODEL 3
REMARK VINA RESULT:     -10.6      3.876      9.892
REMARK SMILES C[C@@H]1Cc2ccccc2N1c1ccc(F)cc1C(=O)NCCCCCCNC(=O)c1ccc(-c2c3nc(c(-c4ccc(S(=O)(=O)[O-])cc4)c4ccc([nH]4)c(-c4ccc(S(=O)(=O)[O-])cc4)c4nc(c(-c5ccc(S(=O)(=O)[O-])cc5)c5ccc2[nH]5)C=C4)C=C3)cc1
REMARK SMILES IDX 24 1 23 2 22 3 21 4 20 5 18 6 19 7 17 9 11 10 12 11 13 12
REMARK SMILES IDX 16 13 14 14 15 15 10 16 1 17 2 18 3 19 4 20 9 21 5 22 8 23
REMARK SMILES IDX 6 24 7 25 25 26 26 27 27 28 28 29 29 31 30 32 31 33 89 34
REMARK SMILES IDX 32 35 88 36 33 37 34 38 35 39 82 40 36 41 87 42 81 43 83 44
REMARK SMILES IDX 37 45 86 46 80 47 79 48 38 50 68 51 49 52 67 53 50 54 53 55
REMARK SMILES IDX 66 56 84 57 51 58 52 59 65 61 85 62 54 63 39 64 40 65 48 66
REMARK SMILES IDX 41 67 47 68 42 69 43 70 44 71 45 72 46 73 69 74 70 75 78 76
REMARK SMILES IDX 71 77 77 78 72 79 73 80 74 81 75 82 76 83 55 84 56 85 64 86
REMARK SMILES IDX 57 87 63 88 58 89 59 90 60 91 61 92 62 93
REMARK H PARENT 20 8 27 30 83 49 53 60
REMARK Flexibility Score: inf
ROOT
ATOM      1  C   UNL A   1      39.877  21.943  26.141  1.00  0.00     0.002 C 
ENDROOT
BRANCH   1   2
ATOM      2  C   UNL A   1      38.360  22.039  25.944  1.00  0.00     0.002 C 
BRANCH   2   3
ATOM      3  C   UNL A   1      37.728  23.425  25.763  1.00  0.00     0.021 C 
BRANCH   3   4
ATOM      4  C   UNL A   1      36.208  23.502  25.667  1.00  0.00     0.116 C 
BRANCH   4   5
ATOM      5  N   UNL A   1      35.456  23.038  26.804  1.00  0.00    -0.352 N 
ATOM      6  C   UNL A   1      34.359  22.206  26.851  1.00  0.00     0.253 C 
ATOM      7  O   UNL A   1      33.962  21.889  27.977  1.00  0.00    -0.269 OA
ATOM      8  H   UNL A   1      35.773  23.364  27.677  1.00  0.00     0.163 HD
BRANCH   6   9
ATOM      9  C   UNL A   1      33.558  21.718  25.676  1.00  0.00     0.066 A 
ATOM     10  C   UNL A   1      32.656  22.440  24.858  1.00  0.00     0.054 A 
ATOM     11  C   UNL A   1      32.092  21.792  23.730  1.00  0.00     0.030 A 
ATOM     12  C   UNL A   1      32.388  20.470  23.412  1.00  0.00     0.041 A 
ATOM     13  C   UNL A   1      33.851  20.378  25.327  1.00  0.00     0.055 A 
ATOM     14  C   UNL A   1      33.265  19.773  24.220  1.00  0.00     0.124 A 
ATOM     15  F   UNL A   1      33.557  18.498  23.930  1.00  0.00    -0.207 F 
BRANCH  10  16
ATOM     16  N   UNL A   1      32.231  23.739  25.110  1.00  0.00    -0.337 N 
ATOM     17  C   UNL A   1      30.340  23.411  26.717  1.00  0.00     0.032 C 
ATOM     18  C   UNL A   1      31.630  24.162  26.398  1.00  0.00     0.089 C 
ATOM     19  C   UNL A   1      31.367  25.693  26.280  1.00  0.00     0.063 C 
ATOM     20  C   UNL A   1      32.210  26.071  25.104  1.00  0.00    -0.022 A 
ATOM     21  C   UNL A   1      32.747  24.924  24.526  1.00  0.00     0.045 A 
ATOM     22  C   UNL A   1      32.402  27.318  24.531  1.00  0.00     0.006 A 
ATOM     23  C   UNL A   1      33.565  25.011  23.406  1.00  0.00     0.026 A 
ATOM     24  C   UNL A   1      33.184  27.405  23.374  1.00  0.00     0.000 A 
ATOM     25  C   UNL A   1      33.780  26.261  22.826  1.00  0.00     0.002 A 
ENDBRANCH  10  16
ENDBRANCH   6   9
ENDBRANCH   4   5
ENDBRANCH   3   4
ENDBRANCH   2   3
ENDBRANCH   1   2
BRANCH   1  26
ATOM     26  C   UNL A   1      40.449  22.321  27.506  1.00  0.00     0.021 C 
BRANCH  26  27
ATOM     27  C   UNL A   1      41.764  23.086  27.545  1.00  0.00     0.116 C 
BRANCH  27  28
ATOM     28  N   UNL A   1      42.051  23.845  26.340  1.00  0.00    -0.352 N 
ATOM     29  C   UNL A   1      42.012  25.201  26.097  1.00  0.00     0.251 C 
ATOM     30  H   UNL A   1      42.319  23.298  25.566  1.00  0.00     0.163 HD
ATOM     31  O   UNL A   1      42.250  25.609  24.961  1.00  0.00    -0.269 OA
BRANCH  29  32
ATOM     32  C   UNL A   1      41.643  26.175  27.159  1.00  0.00     0.039 A 
ATOM     33  C   UNL A   1      42.332  27.374  27.343  1.00  0.00     0.014 A 
ATOM     34  C   UNL A   1      40.554  25.882  27.990  1.00  0.00     0.014 A 
ATOM     35  C   UNL A   1      42.061  28.173  28.455  1.00  0.00     0.010 A 
ATOM     36  C   UNL A   1      40.220  26.735  29.050  1.00  0.00     0.010 A 
ATOM     37  C   UNL A   1      41.005  27.865  29.328  1.00  0.00    -0.014 A 
BRANCH  37  38
ATOM     38  C   UNL A   1      40.734  28.730  30.512  1.00  0.00     0.031 A 
ATOM     39  C   UNL A   1      41.607  28.656  31.742  1.00  0.00     0.074 A 
ATOM     40  C   UNL A   1      39.726  29.624  30.470  1.00  0.00     0.049 A 
ATOM     41  N   UNL A   1      41.523  29.347  32.852  1.00  0.00    -0.248 NA
ATOM     42  C   UNL A   1      42.713  27.685  31.730  1.00  0.00     0.031 C 
ATOM     43  C   UNL A   1      38.819  29.813  29.336  1.00  0.00     0.029 A 
ATOM     44  N   UNL A   1      39.308  30.561  31.385  1.00  0.00    -0.354 N 
ATOM     45  C   UNL A   1      42.552  28.889  33.669  1.00  0.00     0.074 A 
ATOM     46  C   UNL A   1      43.226  27.835  32.944  1.00  0.00     0.031 C 
ATOM     47  C   UNL A   1      37.998  30.840  29.595  1.00  0.00     0.029 A 
ATOM     48  C   UNL A   1      38.263  31.340  30.942  1.00  0.00     0.049 A 
ATOM     49  H   UNL A   1      39.718  30.666  32.274  1.00  0.00     0.167 HD
ATOM     50  C   UNL A   1      42.911  29.317  34.903  1.00  0.00     0.031 A 
ATOM     51  C   UNL A   1      37.581  32.336  31.542  1.00  0.00     0.031 A 
ATOM     52  C   UNL A   1      42.247  30.377  35.618  1.00  0.00     0.049 A 
ATOM     53  C   UNL A   1      37.962  32.756  32.934  1.00  0.00     0.074 A 
ATOM     54  C   UNL A   1      42.557  30.888  36.867  1.00  0.00     0.029 A 
ATOM     55  N   UNL A   1      41.151  31.090  35.158  1.00  0.00    -0.354 N 
ATOM     56  N   UNL A   1      38.942  32.313  33.683  1.00  0.00    -0.248 NA
ATOM     57  C   UNL A   1      37.149  33.807  33.562  1.00  0.00     0.031 C 
ATOM     58  C   UNL A   1      41.610  31.862  37.190  1.00  0.00     0.029 A 
ATOM     59  C   UNL A   1      40.754  32.014  36.110  1.00  0.00     0.049 A 
ATOM     60  H   UNL A   1      40.718  30.957  34.283  1.00  0.00     0.167 HD
ATOM     61  C   UNL A   1      38.870  33.036  34.868  1.00  0.00     0.074 A 
ATOM     62  C   UNL A   1      37.765  33.961  34.729  1.00  0.00     0.031 C 
ATOM     63  C   UNL A   1      39.652  32.933  35.971  1.00  0.00     0.031 A 
BRANCH  50  64
ATOM     64  C   UNL A   1      44.085  28.653  35.580  1.00  0.00    -0.014 A 
ATOM     65  C   UNL A   1      45.393  29.101  35.310  1.00  0.00     0.010 A 
ATOM     66  C   UNL A   1      43.908  27.509  36.377  1.00  0.00     0.010 A 
ATOM     67  C   UNL A   1      46.500  28.402  35.800  1.00  0.00     0.020 A 
ATOM     68  C   UNL A   1      45.012  26.824  36.894  1.00  0.00     0.020 A 
ATOM     69  C   UNL A   1      46.302  27.261  36.582  1.00  0.00     0.054 A 
BRANCH  69  70
ATOM     70  S   UNL A   1      47.749  26.352  37.190  1.00  0.00     0.124 S 
ATOM     71  O   UNL A   1      47.625  26.504  38.636  1.00  0.00    -0.237 OA
ATOM     72  O   UNL A   1      47.521  25.005  36.673  1.00  0.00    -0.237 OA
ATOM     73  O   UNL A   1      48.875  27.058  36.582  1.00  0.00    -0.744 OA
ENDBRANCH  69  70
ENDBRANCH  50  64
BRANCH  51  74
ATOM     74  C   UNL A   1      36.479  33.009  30.797  1.00  0.00    -0.014 A 
ATOM     75  C   UNL A   1      36.771  33.928  29.772  1.00  0.00     0.010 A 
ATOM     76  C   UNL A   1      35.141  32.814  31.180  1.00  0.00     0.010 A 
ATOM     77  C   UNL A   1      35.755  34.694  29.195  1.00  0.00     0.020 A 
ATOM     78  C   UNL A   1      34.117  33.556  30.580  1.00  0.00     0.020 A 
ATOM     79  C   UNL A   1      34.436  34.516  29.617  1.00  0.00     0.054 A 
BRANCH  79  80
ATOM     80  S   UNL A   1      33.145  35.579  28.914  1.00  0.00     0.124 S 
ATOM     81  O   UNL A   1      32.398  34.633  28.089  1.00  0.00    -0.237 OA
ATOM     82  O   UNL A   1      32.448  36.064  30.102  1.00  0.00    -0.237 OA
ATOM     83  O   UNL A   1      33.898  36.592  28.179  1.00  0.00    -0.744 OA
ENDBRANCH  79  80
ENDBRANCH  51  74
BRANCH  63  84
ATOM     84  C   UNL A   1      39.359  33.835  37.142  1.00  0.00    -0.014 A 
ATOM     85  C   UNL A   1      39.928  35.122  37.191  1.00  0.00     0.010 A 
ATOM     86  C   UNL A   1      38.646  33.361  38.256  1.00  0.00     0.010 A 
ATOM     87  C   UNL A   1      39.830  35.899  38.346  1.00  0.00     0.020 A 
ATOM     88  C   UNL A   1      38.518  34.149  39.405  1.00  0.00     0.020 A 
ATOM     89  C   UNL A   1      39.136  35.401  39.453  1.00  0.00     0.054 A 
BRANCH  89  90
ATOM     90  S   UNL A   1      39.063  36.403  40.963  1.00  0.00     0.124 S 
ATOM     91  O   UNL A   1      40.430  36.301  41.466  1.00  0.00    -0.237 OA
ATOM     92  O   UNL A   1      38.674  37.718  40.457  1.00  0.00    -0.237 OA
ATOM     93  O   UNL A   1      38.049  35.731  41.772  1.00  0.00    -0.744 OA
ENDBRANCH  89  90
ENDBRANCH  63  84
ENDBRANCH  37  38
ENDBRANCH  29  32
ENDBRANCH  27  28
ENDBRANCH  26  27
ENDBRANCH   1  26
TORSDOF 17
ENDMDL
