MODEL 1
REMARK VINA RESULT:     -10.5      0.000      0.000
REMARK SMILES C[C@@H]1CC[C@@]1(SC1CCCCC1)C(=O)NCCCCCCNC(=O)c1ccc(-c2c3nc(c(-c4ccc(S(=O)(=O)[O-])cc4)c4ccc([nH]4)c(-c4ccc(S(=O)(=O)[O-])cc4)c4nc(c(-c5ccc(S(=O)(=O)[O-])cc5)c5ccc2[nH]5)C=C4)C=C3)cc1
REMARK SMILES IDX 19 1 18 2 17 3 16 4 15 5 13 6 14 7 5 9 1 10 2 11 3 12 4 13
REMARK SMILES IDX 6 14 7 15 8 16 12 17 9 18 11 19 10 20 20 21 21 22 22 23
REMARK SMILES IDX 23 24 24 26 25 27 26 28 84 29 27 30 83 31 28 32 29 33 30 34
REMARK SMILES IDX 77 35 31 36 82 37 76 38 78 39 32 40 81 41 75 42 74 43 33 45
REMARK SMILES IDX 63 46 44 47 62 48 45 49 48 50 61 51 79 52 46 53 47 54 60 56
REMARK SMILES IDX 80 57 49 58 34 59 35 60 43 61 36 62 42 63 37 64 38 65 39 66
REMARK SMILES IDX 40 67 41 68 64 69 65 70 73 71 66 72 72 73 67 74 68 75 69 76
REMARK SMILES IDX 70 77 71 78 50 79 51 80 59 81 52 82 58 83 53 84 54 85 55 86
REMARK SMILES IDX 56 87 57 88
REMARK H PARENT 15 8 22 25 78 44 48 55
REMARK Flexibility Score: inf
ROOT
ATOM      1  C   UNL A   1      31.567  28.409  25.655  1.00  0.00     0.002 C 
ENDROOT
BRANCH   1   2
ATOM      2  C   UNL A   1      32.475  29.195  24.701  1.00  0.00     0.002 C 
BRANCH   2   3
ATOM      3  C   UNL A   1      32.136  29.026  23.214  1.00  0.00     0.021 C 
BRANCH   3   4
ATOM      4  C   UNL A   1      31.551  27.657  22.895  1.00  0.00     0.116 C 
BRANCH   4   5
ATOM      5  N   UNL A   1      32.216  27.083  21.744  1.00  0.00    -0.355 N 
ATOM      6  C   UNL A   1      32.691  25.816  21.512  1.00  0.00     0.236 C 
ATOM      7  O   UNL A   1      33.140  25.634  20.368  1.00  0.00    -0.273 OA
ATOM      8  H   UNL A   1      32.350  27.710  20.998  1.00  0.00     0.163 HD
BRANCH   6   9
ATOM      9  C   UNL A   1      32.683  24.700  22.622  1.00  0.00     0.097 C 
ATOM     10  C   UNL A   1      30.306  24.806  24.030  1.00  0.00     0.009 C 
ATOM     11  C   UNL A   1      31.172  24.236  22.921  1.00  0.00     0.012 C 
ATOM     12  C   UNL A   1      31.695  22.810  23.157  1.00  0.00     0.007 C 
ATOM     13  C   UNL A   1      32.936  23.185  22.343  1.00  0.00     0.028 C 
BRANCH   9  14
ATOM     14  S   UNL A   1      33.487  25.290  24.213  1.00  0.00    -0.141 SA
BRANCH  14  15
ATOM     15  C   UNL A   1      33.599  23.840  25.328  1.00  0.00     0.047 C 
ATOM     16  C   UNL A   1      35.042  23.402  25.585  1.00  0.00     0.014 C 
ATOM     17  C   UNL A   1      32.752  23.887  26.604  1.00  0.00     0.014 C 
ATOM     18  C   UNL A   1      35.096  22.100  26.386  1.00  0.00     0.001 C 
ATOM     19  C   UNL A   1      32.880  22.618  27.452  1.00  0.00     0.001 C 
ATOM     20  C   UNL A   1      34.338  22.239  27.700  1.00  0.00     0.000 C 
ENDBRANCH  14  15
ENDBRANCH   9  14
ENDBRANCH   6   9
ENDBRANCH   4   5
ENDBRANCH   3   4
ENDBRANCH   2   3
ENDBRANCH   1   2
BRANCH   1  21
ATOM     21  C   UNL A   1      32.258  27.917  26.930  1.00  0.00     0.021 C 
BRANCH  21  22
ATOM     22  C   UNL A   1      33.640  28.521  27.155  1.00  0.00     0.116 C 
BRANCH  22  23
ATOM     23  N   UNL A   1      33.561  29.932  27.499  1.00  0.00    -0.352 N 
ATOM     24  C   UNL A   1      34.466  30.703  28.179  1.00  0.00     0.251 C 
ATOM     25  H   UNL A   1      32.745  30.396  27.204  1.00  0.00     0.163 HD
ATOM     26  O   UNL A   1      34.146  31.819  28.584  1.00  0.00    -0.269 OA
BRANCH  24  27
ATOM     27  C   UNL A   1      35.822  30.176  28.434  1.00  0.00     0.039 A 
ATOM     28  C   UNL A   1      36.777  30.236  27.418  1.00  0.00     0.014 A 
ATOM     29  C   UNL A   1      36.146  29.632  29.681  1.00  0.00     0.014 A 
ATOM     30  C   UNL A   1      38.078  29.799  27.671  1.00  0.00     0.010 A 
ATOM     31  C   UNL A   1      37.461  29.273  29.955  1.00  0.00     0.010 A 
ATOM     32  C   UNL A   1      38.438  29.344  28.951  1.00  0.00    -0.014 A 
BRANCH  32  33
ATOM     33  C   UNL A   1      39.833  28.943  29.258  1.00  0.00     0.031 A 
ATOM     34  C   UNL A   1      40.785  29.925  29.883  1.00  0.00     0.074 A 
ATOM     35  C   UNL A   1      40.263  27.715  28.909  1.00  0.00     0.049 A 
ATOM     36  N   UNL A   1      42.049  29.770  30.184  1.00  0.00    -0.248 NA
ATOM     37  C   UNL A   1      40.256  31.266  30.182  1.00  0.00     0.031 C 
ATOM     38  C   UNL A   1      39.450  26.690  28.248  1.00  0.00     0.029 A 
ATOM     39  N   UNL A   1      41.492  27.122  29.051  1.00  0.00    -0.354 N 
ATOM     40  C   UNL A   1      42.471  30.997  30.686  1.00  0.00     0.074 A 
ATOM     41  C   UNL A   1      41.343  31.897  30.598  1.00  0.00     0.031 C 
ATOM     42  C   UNL A   1      40.195  25.590  28.064  1.00  0.00     0.029 A 
ATOM     43  C   UNL A   1      41.548  25.843  28.550  1.00  0.00     0.049 A 
ATOM     44  H   UNL A   1      42.262  27.571  29.470  1.00  0.00     0.167 HD
ATOM     45  C   UNL A   1      43.682  31.337  31.187  1.00  0.00     0.031 A 
ATOM     46  C   UNL A   1      42.574  24.972  28.477  1.00  0.00     0.031 A 
ATOM     47  C   UNL A   1      44.800  30.434  31.268  1.00  0.00     0.049 A 
ATOM     48  C   UNL A   1      43.910  25.366  29.039  1.00  0.00     0.074 A 
ATOM     49  C   UNL A   1      46.048  30.657  31.822  1.00  0.00     0.029 A 
ATOM     50  N   UNL A   1      44.813  29.139  30.765  1.00  0.00    -0.354 N 
ATOM     51  N   UNL A   1      44.267  26.502  29.591  1.00  0.00    -0.248 NA
ATOM     52  C   UNL A   1      44.978  24.361  28.979  1.00  0.00     0.031 C 
ATOM     53  C   UNL A   1      46.835  29.524  31.593  1.00  0.00     0.029 A 
ATOM     54  C   UNL A   1      46.057  28.566  30.962  1.00  0.00     0.049 A 
ATOM     55  H   UNL A   1      44.047  28.695  30.332  1.00  0.00     0.167 HD
ATOM     56  C   UNL A   1      45.596  26.340  29.966  1.00  0.00     0.074 A 
ATOM     57  C   UNL A   1      45.973  24.991  29.590  1.00  0.00     0.031 C 
ATOM     58  C   UNL A   1      46.427  27.227  30.570  1.00  0.00     0.031 A 
BRANCH  45  59
ATOM     59  C   UNL A   1      43.865  32.759  31.656  1.00  0.00    -0.014 A 
ATOM     60  C   UNL A   1      44.338  33.764  30.791  1.00  0.00     0.010 A 
ATOM     61  C   UNL A   1      43.552  33.098  32.985  1.00  0.00     0.010 A 
ATOM     62  C   UNL A   1      44.557  35.060  31.262  1.00  0.00     0.020 A 
ATOM     63  C   UNL A   1      43.736  34.403  33.452  1.00  0.00     0.020 A 
ATOM     64  C   UNL A   1      44.262  35.370  32.593  1.00  0.00     0.054 A 
BRANCH  64  65
ATOM     65  S   UNL A   1      44.569  37.057  33.182  1.00  0.00     0.124 S 
ATOM     66  O   UNL A   1      44.982  37.733  31.955  1.00  0.00    -0.237 OA
ATOM     67  O   UNL A   1      43.266  37.455  33.710  1.00  0.00    -0.237 OA
ATOM     68  O   UNL A   1      45.620  36.890  34.183  1.00  0.00    -0.744 OA
ENDBRANCH  64  65
ENDBRANCH  45  59
BRANCH  46  69
ATOM     69  C   UNL A   1      42.353  23.638  27.854  1.00  0.00    -0.014 A 
ATOM     70  C   UNL A   1      42.606  23.432  26.487  1.00  0.00     0.010 A 
ATOM     71  C   UNL A   1      41.951  22.548  28.648  1.00  0.00     0.010 A 
ATOM     72  C   UNL A   1      42.466  22.158  25.927  1.00  0.00     0.020 A 
ATOM     73  C   UNL A   1      41.838  21.268  28.098  1.00  0.00     0.020 A 
ATOM     74  C   UNL A   1      42.094  21.082  26.739  1.00  0.00     0.054 A 
BRANCH  74  75
ATOM     75  S   UNL A   1      42.016  19.423  26.010  1.00  0.00     0.124 S 
ATOM     76  O   UNL A   1      42.873  19.564  24.838  1.00  0.00    -0.237 OA
ATOM     77  O   UNL A   1      42.543  18.583  27.084  1.00  0.00    -0.237 OA
ATOM     78  O   UNL A   1      40.594  19.239  25.729  1.00  0.00    -0.744 OA
ENDBRANCH  74  75
ENDBRANCH  46  69
BRANCH  58  79
ATOM     79  C   UNL A   1      47.826  26.766  30.885  1.00  0.00    -0.014 A 
ATOM     80  C   UNL A   1      48.872  26.911  29.957  1.00  0.00     0.010 A 
ATOM     81  C   UNL A   1      48.108  26.233  32.157  1.00  0.00     0.010 A 
ATOM     82  C   UNL A   1      50.169  26.504  30.284  1.00  0.00     0.020 A 
ATOM     83  C   UNL A   1      49.408  25.855  32.499  1.00  0.00     0.020 A 
ATOM     84  C   UNL A   1      50.429  25.980  31.555  1.00  0.00     0.054 A 
BRANCH  84  85
ATOM     85  S   UNL A   1      52.129  25.503  31.970  1.00  0.00     0.124 S 
ATOM     86  O   UNL A   1      52.003  24.061  32.156  1.00  0.00    -0.237 OA
ATOM     87  O   UNL A   1      52.876  25.923  30.787  1.00  0.00    -0.237 OA
ATOM     88  O   UNL A   1      52.415  26.265  33.184  1.00  0.00    -0.744 OA
ENDBRANCH  84  85
ENDBRANCH  58  79
ENDBRANCH  32  33
ENDBRANCH  24  27
ENDBRANCH  22  23
ENDBRANCH  21  22
ENDBRANCH   1  21
TORSDOF 18
ENDMDL
MODEL 2
REMARK VINA RESULT:     -10.2      3.827      9.456
REMARK SMILES C[C@@H]1CC[C@@]1(SC1CCCCC1)C(=O)NCCCCCCNC(=O)c1ccc(-c2c3nc(c(-c4ccc(S(=O)(=O)[O-])cc4)c4ccc([nH]4)c(-c4ccc(S(=O)(=O)[O-])cc4)c4nc(c(-c5ccc(S(=O)(=O)[O-])cc5)c5ccc2[nH]5)C=C4)C=C3)cc1
REMARK SMILES IDX 19 1 18 2 17 3 16 4 15 5 13 6 14 7 5 9 1 10 2 11 3 12 4 13
REMARK SMILES IDX 6 14 7 15 8 16 12 17 9 18 11 19 10 20 20 21 21 22 22 23
REMARK SMILES IDX 23 24 24 26 25 27 26 28 84 29 27 30 83 31 28 32 29 33 30 34
REMARK SMILES IDX 77 35 31 36 82 37 76 38 78 39 32 40 81 41 75 42 74 43 33 45
REMARK SMILES IDX 63 46 44 47 62 48 45 49 48 50 61 51 79 52 46 53 47 54 60 56
REMARK SMILES IDX 80 57 49 58 34 59 35 60 43 61 36 62 42 63 37 64 38 65 39 66
REMARK SMILES IDX 40 67 41 68 64 69 65 70 73 71 66 72 72 73 67 74 68 75 69 76
REMARK SMILES IDX 70 77 71 78 50 79 51 80 59 81 52 82 58 83 53 84 54 85 55 86
REMARK SMILES IDX 56 87 57 88
REMARK H PARENT 15 8 22 25 78 44 48 55
REMARK Flexibility Score: inf
ROOT
ATOM      1  C   UNL A   1      38.220  21.526  25.074  1.00  0.00     0.002 C 
ENDROOT
BRANCH   1   2
ATOM      2  C   UNL A   1      38.637  22.532  26.153  1.00  0.00     0.002 C 
BRANCH   2   3
ATOM      3  C   UNL A   1      37.854  23.851  26.133  1.00  0.00     0.021 C 
BRANCH   3   4
ATOM      4  C   UNL A   1      36.404  23.669  25.703  1.00  0.00     0.116 C 
BRANCH   4   5
ATOM      5  N   UNL A   1      35.686  22.881  26.681  1.00  0.00    -0.355 N 
ATOM      6  C   UNL A   1      34.496  22.200  26.598  1.00  0.00     0.236 C 
ATOM      7  O   UNL A   1      34.203  21.547  27.613  1.00  0.00    -0.273 OA
ATOM      8  H   UNL A   1      36.127  22.823  27.558  1.00  0.00     0.163 HD
BRANCH   6   9
ATOM      9  C   UNL A   1      33.578  22.268  25.321  1.00  0.00     0.097 C 
ATOM     10  C   UNL A   1      31.376  23.858  25.842  1.00  0.00     0.009 C 
ATOM     11  C   UNL A   1      32.779  23.664  25.295  1.00  0.00     0.012 C 
ATOM     12  C   UNL A   1      32.896  23.661  23.763  1.00  0.00     0.007 C 
ATOM     13  C   UNL A   1      34.077  22.697  23.905  1.00  0.00     0.028 C 
BRANCH   9  14
ATOM     14  S   UNL A   1      32.357  20.842  25.261  1.00  0.00    -0.141 SA
BRANCH  14  15
ATOM     15  C   UNL A   1      33.128  19.519  24.256  1.00  0.00     0.047 C 
ATOM     16  C   UNL A   1      33.986  18.566  25.091  1.00  0.00     0.014 C 
ATOM     17  C   UNL A   1      32.215  18.788  23.265  1.00  0.00     0.014 C 
ATOM     18  C   UNL A   1      34.740  17.572  24.207  1.00  0.00     0.001 C 
ATOM     19  C   UNL A   1      32.955  17.727  22.444  1.00  0.00     0.001 C 
ATOM     20  C   UNL A   1      33.775  16.789  23.326  1.00  0.00     0.000 C 
ENDBRANCH  14  15
ENDBRANCH   9  14
ENDBRANCH   6   9
ENDBRANCH   4   5
ENDBRANCH   3   4
ENDBRANCH   2   3
ENDBRANCH   1   2
BRANCH   1  21
ATOM     21  C   UNL A   1      38.756  20.107  25.285  1.00  0.00     0.021 C 
BRANCH  21  22
ATOM     22  C   UNL A   1      39.698  19.974  26.476  1.00  0.00     0.116 C 
BRANCH  22  23
ATOM     23  N   UNL A   1      40.887  19.208  26.138  1.00  0.00    -0.352 N 
ATOM     24  C   UNL A   1      42.155  19.659  25.877  1.00  0.00     0.251 C 
ATOM     25  H   UNL A   1      40.765  18.233  26.090  1.00  0.00     0.163 HD
ATOM     26  O   UNL A   1      42.990  18.903  25.385  1.00  0.00    -0.269 OA
BRANCH  24  27
ATOM     27  C   UNL A   1      42.501  21.063  26.174  1.00  0.00     0.039 A 
ATOM     28  C   UNL A   1      42.804  21.425  27.488  1.00  0.00     0.014 A 
ATOM     29  C   UNL A   1      42.535  22.016  25.151  1.00  0.00     0.014 A 
ATOM     30  C   UNL A   1      43.194  22.735  27.767  1.00  0.00     0.010 A 
ATOM     31  C   UNL A   1      43.002  23.298  25.418  1.00  0.00     0.010 A 
ATOM     32  C   UNL A   1      43.327  23.674  26.730  1.00  0.00    -0.014 A 
BRANCH  32  33
ATOM     33  C   UNL A   1      43.810  25.051  26.998  1.00  0.00     0.031 A 
ATOM     34  C   UNL A   1      45.244  25.417  26.734  1.00  0.00     0.074 A 
ATOM     35  C   UNL A   1      42.973  25.953  27.546  1.00  0.00     0.049 A 
ATOM     36  N   UNL A   1      45.857  26.554  26.945  1.00  0.00    -0.248 NA
ATOM     37  C   UNL A   1      46.112  24.360  26.189  1.00  0.00     0.031 C 
ATOM     38  C   UNL A   1      41.573  25.703  27.898  1.00  0.00     0.029 A 
ATOM     39  N   UNL A   1      43.179  27.259  27.913  1.00  0.00    -0.354 N 
ATOM     40  C   UNL A   1      47.183  26.342  26.581  1.00  0.00     0.074 A 
ATOM     41  C   UNL A   1      47.294  24.955  26.186  1.00  0.00     0.031 C 
ATOM     42  C   UNL A   1      41.041  26.824  28.408  1.00  0.00     0.029 A 
ATOM     43  C   UNL A   1      42.070  27.858  28.461  1.00  0.00     0.049 A 
ATOM     44  H   UNL A   1      44.040  27.722  27.797  1.00  0.00     0.167 HD
ATOM     45  C   UNL A   1      48.209  27.226  26.562  1.00  0.00     0.031 A 
ATOM     46  C   UNL A   1      41.899  29.097  28.963  1.00  0.00     0.031 A 
ATOM     47  C   UNL A   1      48.089  28.604  26.959  1.00  0.00     0.049 A 
ATOM     48  C   UNL A   1      43.048  30.064  28.934  1.00  0.00     0.074 A 
ATOM     49  C   UNL A   1      49.048  29.600  26.911  1.00  0.00     0.029 A 
ATOM     50  N   UNL A   1      46.943  29.179  27.493  1.00  0.00    -0.354 N 
ATOM     51  N   UNL A   1      44.273  29.872  28.502  1.00  0.00    -0.248 NA
ATOM     52  C   UNL A   1      42.792  31.416  29.446  1.00  0.00     0.031 C 
ATOM     53  C   UNL A   1      48.505  30.756  27.480  1.00  0.00     0.029 A 
ATOM     54  C   UNL A   1      47.184  30.504  27.815  1.00  0.00     0.049 A 
ATOM     55  H   UNL A   1      46.086  28.712  27.624  1.00  0.00     0.167 HD
ATOM     56  C   UNL A   1      44.928  31.087  28.671  1.00  0.00     0.074 A 
ATOM     57  C   UNL A   1      43.958  32.010  29.229  1.00  0.00     0.031 C 
ATOM     58  C   UNL A   1      46.215  31.409  28.385  1.00  0.00     0.031 A 
BRANCH  45  59
ATOM     59  C   UNL A   1      49.559  26.712  26.127  1.00  0.00    -0.014 A 
ATOM     60  C   UNL A   1      50.384  25.981  27.002  1.00  0.00     0.010 A 
ATOM     61  C   UNL A   1      50.008  26.961  24.817  1.00  0.00     0.010 A 
ATOM     62  C   UNL A   1      51.656  25.567  26.598  1.00  0.00     0.020 A 
ATOM     63  C   UNL A   1      51.265  26.518  24.397  1.00  0.00     0.020 A 
ATOM     64  C   UNL A   1      52.092  25.846  25.299  1.00  0.00     0.054 A 
BRANCH  64  65
ATOM     65  S   UNL A   1      53.753  25.311  24.805  1.00  0.00     0.124 S 
ATOM     66  O   UNL A   1      53.871  25.892  23.470  1.00  0.00    -0.237 OA
ATOM     67  O   UNL A   1      54.602  25.913  25.829  1.00  0.00    -0.237 OA
ATOM     68  O   UNL A   1      53.673  23.852  24.842  1.00  0.00    -0.744 OA
ENDBRANCH  64  65
ENDBRANCH  45  59
BRANCH  46  69
ATOM     69  C   UNL A   1      40.573  29.479  29.521  1.00  0.00    -0.014 A 
ATOM     70  C   UNL A   1      40.376  29.570  30.910  1.00  0.00     0.010 A 
ATOM     71  C   UNL A   1      39.516  29.820  28.657  1.00  0.00     0.010 A 
ATOM     72  C   UNL A   1      39.149  30.001  31.423  1.00  0.00     0.020 A 
ATOM     73  C   UNL A   1      38.298  30.277  29.165  1.00  0.00     0.020 A 
ATOM     74  C   UNL A   1      38.121  30.363  30.546  1.00  0.00     0.054 A 
BRANCH  74  75
ATOM     75  S   UNL A   1      36.574  31.013  31.234  1.00  0.00     0.124 S 
ATOM     76  O   UNL A   1      35.808  31.320  30.030  1.00  0.00    -0.237 OA
ATOM     77  O   UNL A   1      36.085  29.888  32.027  1.00  0.00    -0.237 OA
ATOM     78  O   UNL A   1      37.006  32.172  32.014  1.00  0.00    -0.744 OA
ENDBRANCH  74  75
ENDBRANCH  46  69
BRANCH  58  79
ATOM     79  C   UNL A   1      46.652  32.826  28.651  1.00  0.00    -0.014 A 
ATOM     80  C   UNL A   1      47.228  33.198  29.878  1.00  0.00     0.010 A 
ATOM     81  C   UNL A   1      46.538  33.788  27.629  1.00  0.00     0.010 A 
ATOM     82  C   UNL A   1      47.654  34.512  30.090  1.00  0.00     0.020 A 
ATOM     83  C   UNL A   1      46.993  35.094  27.825  1.00  0.00     0.020 A 
ATOM     84  C   UNL A   1      47.535  35.452  29.060  1.00  0.00     0.054 A 
BRANCH  84  85
ATOM     85  S   UNL A   1      48.140  37.138  29.344  1.00  0.00     0.124 S 
ATOM     86  O   UNL A   1      49.389  36.896  30.059  1.00  0.00    -0.237 OA
ATOM     87  O   UNL A   1      48.283  37.660  27.987  1.00  0.00    -0.237 OA
ATOM     88  O   UNL A   1      47.079  37.758  30.135  1.00  0.00    -0.744 OA
ENDBRANCH  84  85
ENDBRANCH  58  79
ENDBRANCH  32  33
ENDBRANCH  24  27
ENDBRANCH  22  23
ENDBRANCH  21  22
ENDBRANCH   1  21
TORSDOF 18
ENDMDL
MODEL 3
REMARK VINA RESULT:     -10.1      3.310      9.313
REMARK SMILES C[C@@H]1CC[C@@]1(SC1CCCCC1)C(=O)NCCCCCCNC(=O)c1ccc(-c2c3nc(c(-c4ccc(S(=O)(=O)[O-])cc4)c4ccc([nH]4)c(-c4ccc(S(=O)(=O)[O-])cc4)c4nc(c(-c5ccc(S(=O)(=O)[O-])cc5)c5ccc2[nH]5)C=C4)C=C3)cc1
REMARK SMILES IDX 19 1 18 2 17 3 16 4 15 5 13 6 14 7 5 9 1 10 2 11 3 12 4 13
REMARK SMILES IDX 6 14 7 15 8 16 12 17 9 18 11 19 10 20 20 21 21 22 22 23
REMARK SMILES IDX 23 24 24 26 25 27 26 28 84 29 27 30 83 31 28 32 29 33 30 34
REMARK SMILES IDX 77 35 31 36 82 37 76 38 78 39 32 40 81 41 75 42 74 43 33 45
REMARK SMILES IDX 63 46 44 47 62 48 45 49 48 50 61 51 79 52 46 53 47 54 60 56
REMARK SMILES IDX 80 57 49 58 34 59 35 60 43 61 36 62 42 63 37 64 38 65 39 66
REMARK SMILES IDX 40 67 41 68 64 69 65 70 73 71 66 72 72 73 67 74 68 75 69 76
REMARK SMILES IDX 70 77 71 78 50 79 51 80 59 81 52 82 58 83 53 84 54 85 55 86
REMARK SMILES IDX 56 87 57 88
REMARK H PARENT 15 8 22 25 78 44 48 55
REMARK Flexibility Score: inf
ROOT
ATOM      1  C   UNL A   1      37.093  21.287  24.779  1.00  0.00     0.002 C 
ENDROOT
BRANCH   1   2
ATOM      2  C   UNL A   1      35.670  20.862  25.160  1.00  0.00     0.002 C 
BRANCH   2   3
ATOM      3  C   UNL A   1      34.564  21.503  24.311  1.00  0.00     0.021 C 
BRANCH   3   4
ATOM      4  C   UNL A   1      34.937  22.891  23.808  1.00  0.00     0.116 C 
BRANCH   4   5
ATOM      5  N   UNL A   1      33.836  23.469  23.068  1.00  0.00    -0.355 N 
ATOM      6  C   UNL A   1      32.742  24.188  23.484  1.00  0.00     0.236 C 
ATOM      7  O   UNL A   1      32.023  24.613  22.565  1.00  0.00    -0.273 OA
ATOM      8  H   UNL A   1      33.879  23.322  22.096  1.00  0.00     0.163 HD
BRANCH   6   9
ATOM      9  C   UNL A   1      32.427  24.427  25.008  1.00  0.00     0.097 C 
ATOM     10  C   UNL A   1      30.684  22.481  25.914  1.00  0.00     0.009 C 
ATOM     11  C   UNL A   1      32.088  23.027  25.723  1.00  0.00     0.012 C 
ATOM     12  C   UNL A   1      32.770  23.553  26.996  1.00  0.00     0.007 C 
ATOM     13  C   UNL A   1      33.517  24.561  26.117  1.00  0.00     0.028 C 
BRANCH   9  14
ATOM     14  S   UNL A   1      30.995  25.619  25.247  1.00  0.00    -0.141 SA
BRANCH  14  15
ATOM     15  C   UNL A   1      31.721  27.258  25.629  1.00  0.00     0.047 C 
ATOM     16  C   UNL A   1      31.181  28.369  24.726  1.00  0.00     0.014 C 
ATOM     17  C   UNL A   1      31.771  27.660  27.107  1.00  0.00     0.014 C 
ATOM     18  C   UNL A   1      31.917  29.688  24.962  1.00  0.00     0.001 C 
ATOM     19  C   UNL A   1      32.427  29.026  27.332  1.00  0.00     0.001 C 
ATOM     20  C   UNL A   1      31.835  30.102  26.426  1.00  0.00     0.000 C 
ENDBRANCH  14  15
ENDBRANCH   9  14
ENDBRANCH   6   9
ENDBRANCH   4   5
ENDBRANCH   3   4
ENDBRANCH   2   3
ENDBRANCH   1   2
BRANCH   1  21
ATOM     21  C   UNL A   1      38.151  20.195  24.952  1.00  0.00     0.021 C 
BRANCH  21  22
ATOM     22  C   UNL A   1      39.261  20.559  25.932  1.00  0.00     0.116 C 
BRANCH  22  23
ATOM     23  N   UNL A   1      40.247  19.496  26.048  1.00  0.00    -0.352 N 
ATOM     24  C   UNL A   1      41.611  19.593  26.133  1.00  0.00     0.251 C 
ATOM     25  H   UNL A   1      39.884  18.581  26.068  1.00  0.00     0.163 HD
ATOM     26  O   UNL A   1      42.311  18.592  25.997  1.00  0.00    -0.269 OA
BRANCH  24  27
ATOM     27  C   UNL A   1      42.231  20.911  26.373  1.00  0.00     0.039 A 
ATOM     28  C   UNL A   1      42.509  21.740  25.285  1.00  0.00     0.014 A 
ATOM     29  C   UNL A   1      42.528  21.327  27.674  1.00  0.00     0.014 A 
ATOM     30  C   UNL A   1      43.035  23.013  25.507  1.00  0.00     0.010 A 
ATOM     31  C   UNL A   1      42.978  22.624  27.897  1.00  0.00     0.010 A 
ATOM     32  C   UNL A   1      43.245  23.476  26.816  1.00  0.00    -0.014 A 
BRANCH  32  33
ATOM     33  C   UNL A   1      43.737  24.852  27.074  1.00  0.00     0.031 A 
ATOM     34  C   UNL A   1      45.183  25.196  26.847  1.00  0.00     0.074 A 
ATOM     35  C   UNL A   1      42.895  25.775  27.579  1.00  0.00     0.049 A 
ATOM     36  N   UNL A   1      45.804  26.330  27.056  1.00  0.00    -0.248 NA
ATOM     37  C   UNL A   1      46.053  24.119  26.348  1.00  0.00     0.031 C 
ATOM     38  C   UNL A   1      41.481  25.548  27.893  1.00  0.00     0.029 A 
ATOM     39  N   UNL A   1      43.106  27.085  27.928  1.00  0.00    -0.354 N 
ATOM     40  C   UNL A   1      47.137  26.095  26.736  1.00  0.00     0.074 A 
ATOM     41  C   UNL A   1      47.242  24.700  26.371  1.00  0.00     0.031 C 
ATOM     42  C   UNL A   1      40.948  26.685  28.365  1.00  0.00     0.029 A 
ATOM     43  C   UNL A   1      41.988  27.708  28.431  1.00  0.00     0.049 A 
ATOM     44  H   UNL A   1      43.976  27.535  27.830  1.00  0.00     0.167 HD
ATOM     45  C   UNL A   1      48.174  26.966  26.732  1.00  0.00     0.031 A 
ATOM     46  C   UNL A   1      41.818  28.958  28.905  1.00  0.00     0.031 A 
ATOM     47  C   UNL A   1      48.059  28.353  27.100  1.00  0.00     0.049 A 
ATOM     48  C   UNL A   1      42.979  29.910  28.892  1.00  0.00     0.074 A 
ATOM     49  C   UNL A   1      49.032  29.336  27.063  1.00  0.00     0.029 A 
ATOM     50  N   UNL A   1      46.905  28.952  27.588  1.00  0.00    -0.354 N 
ATOM     51  N   UNL A   1      44.214  29.696  28.502  1.00  0.00    -0.248 NA
ATOM     52  C   UNL A   1      42.725  31.274  29.372  1.00  0.00     0.031 C 
ATOM     53  C   UNL A   1      48.486  30.509  27.594  1.00  0.00     0.029 A 
ATOM     54  C   UNL A   1      47.152  30.280  27.892  1.00  0.00     0.049 A 
ATOM     55  H   UNL A   1      46.038  28.497  27.701  1.00  0.00     0.167 HD
ATOM     56  C   UNL A   1      44.879  30.906  28.668  1.00  0.00     0.074 A 
ATOM     57  C   UNL A   1      43.904  31.850  29.180  1.00  0.00     0.031 C 
ATOM     58  C   UNL A   1      46.178  31.207  28.416  1.00  0.00     0.031 A 
BRANCH  45  59
ATOM     59  C   UNL A   1      49.530  26.428  26.349  1.00  0.00    -0.014 A 
ATOM     60  C   UNL A   1      50.360  25.788  27.288  1.00  0.00     0.010 A 
ATOM     61  C   UNL A   1      49.980  26.561  25.022  1.00  0.00     0.010 A 
ATOM     62  C   UNL A   1      51.637  25.352  26.926  1.00  0.00     0.020 A 
ATOM     63  C   UNL A   1      51.242  26.094  24.646  1.00  0.00     0.020 A 
ATOM     64  C   UNL A   1      52.073  25.515  25.607  1.00  0.00     0.054 A 
BRANCH  64  65
ATOM     65  S   UNL A   1      53.740  24.953  25.167  1.00  0.00     0.124 S 
ATOM     66  O   UNL A   1      53.568  23.503  25.130  1.00  0.00    -0.237 OA
ATOM     67  O   UNL A   1      53.962  25.592  23.872  1.00  0.00    -0.237 OA
ATOM     68  O   UNL A   1      54.575  25.452  26.257  1.00  0.00    -0.744 OA
ENDBRANCH  64  65
ENDBRANCH  45  59
BRANCH  46  69
ATOM     69  C   UNL A   1      40.481  29.366  29.415  1.00  0.00    -0.014 A 
ATOM     70  C   UNL A   1      40.212  29.386  30.794  1.00  0.00     0.010 A 
ATOM     71  C   UNL A   1      39.487  29.803  28.518  1.00  0.00     0.010 A 
ATOM     72  C   UNL A   1      38.978  29.842  31.267  1.00  0.00     0.020 A 
ATOM     73  C   UNL A   1      38.263  30.285  28.988  1.00  0.00     0.020 A 
ATOM     74  C   UNL A   1      38.015  30.299  30.362  1.00  0.00     0.054 A 
BRANCH  74  75
ATOM     75  S   UNL A   1      36.461  30.977  31.006  1.00  0.00     0.124 S 
ATOM     76  O   UNL A   1      36.038  29.938  31.939  1.00  0.00    -0.237 OA
ATOM     77  O   UNL A   1      36.894  32.235  31.610  1.00  0.00    -0.237 OA
ATOM     78  O   UNL A   1      35.630  31.123  29.811  1.00  0.00    -0.744 OA
ENDBRANCH  74  75
ENDBRANCH  46  69
BRANCH  58  79
ATOM     79  C   UNL A   1      46.624  32.623  28.669  1.00  0.00    -0.014 A 
ATOM     80  C   UNL A   1      46.411  33.639  27.720  1.00  0.00     0.010 A 
ATOM     81  C   UNL A   1      47.213  32.953  29.904  1.00  0.00     0.010 A 
ATOM     82  C   UNL A   1      46.806  34.953  27.991  1.00  0.00     0.020 A 
ATOM     83  C   UNL A   1      47.579  34.270  30.191  1.00  0.00     0.020 A 
ATOM     84  C   UNL A   1      47.386  35.260  29.226  1.00  0.00     0.054 A 
BRANCH  84  85
ATOM     85  S   UNL A   1      47.846  36.980  29.570  1.00  0.00     0.124 S 
ATOM     86  O   UNL A   1      48.777  37.268  28.483  1.00  0.00    -0.237 OA
ATOM     87  O   UNL A   1      46.562  37.674  29.500  1.00  0.00    -0.237 OA
ATOM     88  O   UNL A   1      48.443  36.920  30.902  1.00  0.00    -0.744 OA
ENDBRANCH  84  85
ENDBRANCH  58  79
ENDBRANCH  32  33
ENDBRANCH  24  27
ENDBRANCH  22  23
ENDBRANCH  21  22
ENDBRANCH   1  21
TORSDOF 18
ENDMDL
