MODEL 1
REMARK VINA RESULT:     -11.8      0.000      0.000
REMARK SMILES Cc1ccccc1NC(=S)NN1C(=O)CS[C@H]1c1ccccc1C(=O)NCCCCCCNC(=O)c1ccc(-c2c3nc(c(-c4ccc(S(=O)(=O)[O-])cc4)c4ccc([nH]4)c(-c4ccc(S(=O)(=O)[O-])cc4)c4nc(c(-c5ccc(S(=O)(=O)[O-])cc5)c5ccc2[nH]5)C=C4)C=C3)cc1
REMARK SMILES IDX 28 1 27 2 26 3 24 4 25 5 23 7 18 8 19 9 20 10 22 11 21 12
REMARK SMILES IDX 17 13 12 14 13 15 14 16 15 17 16 18 11 19 9 21 10 22 8 23
REMARK SMILES IDX 7 25 1 26 2 27 3 28 4 29 6 30 5 31 29 32 30 33 31 34 32 35
REMARK SMILES IDX 33 36 34 37 35 39 36 40 37 41 95 42 38 43 94 44 39 45 40 46
REMARK SMILES IDX 41 47 88 48 42 49 93 50 87 51 89 52 43 53 92 54 86 55 85 56
REMARK SMILES IDX 44 58 74 59 55 60 73 61 56 62 59 63 72 64 90 65 57 66 58 67
REMARK SMILES IDX 71 69 91 70 60 71 45 72 46 73 54 74 47 75 53 76 48 77 49 78
REMARK SMILES IDX 50 79 51 80 52 81 75 82 76 83 84 84 77 85 83 86 78 87 79 88
REMARK SMILES IDX 80 89 81 90 82 91 61 92 62 93 70 94 63 95 69 96 64 97 65 98
REMARK SMILES IDX 66 99 67 100 68 101
REMARK H PARENT 26 6 11 20 8 24 33 38 89 57 59 68
REMARK Flexibility Score: inf
ROOT
ATOM      1  C   UNL A   1      34.419  27.933  23.102  1.00  0.00     0.021 C 
ENDROOT
BRANCH   1   2
ATOM      2  C   UNL A   1      33.416  26.772  22.740  1.00  0.00     0.116 C 
BRANCH   2   3
ATOM      3  N   UNL A   1      33.345  25.480  23.523  1.00  0.00    -0.352 N 
ATOM      4  C   UNL A   1      34.167  25.245  24.661  1.00  0.00     0.251 C 
ATOM      5  O   UNL A   1      33.926  25.897  25.682  1.00  0.00    -0.269 OA
ATOM      6  H   UNL A   1      32.710  24.783  23.238  1.00  0.00     0.163 HD
BRANCH   4   7
ATOM      7  C   UNL A   1      35.181  24.063  24.806  1.00  0.00     0.046 A 
ATOM      8  C   UNL A   1      35.028  22.694  24.489  1.00  0.00    -0.001 A 
ATOM      9  C   UNL A   1      36.021  21.736  24.871  1.00  0.00     0.007 A 
ATOM     10  C   UNL A   1      37.202  22.104  25.478  1.00  0.00     0.000 A 
ATOM     11  C   UNL A   1      36.445  24.407  25.343  1.00  0.00     0.014 A 
ATOM     12  C   UNL A   1      37.430  23.451  25.680  1.00  0.00     0.001 A 
BRANCH   8  13
ATOM     13  C   UNL A   1      33.743  22.117  24.059  1.00  0.00     0.197 C 
ATOM     14  N   UNL A   1      32.606  22.146  24.926  1.00  0.00    -0.236 N 
ATOM     15  C   UNL A   1      31.945  21.033  24.296  1.00  0.00     0.252 C 
ATOM     16  O   UNL A   1      32.142  19.855  24.601  1.00  0.00    -0.272 OA
ATOM     17  C   UNL A   1      31.589  21.378  22.863  1.00  0.00     0.174 C 
ATOM     18  S   UNL A   1      32.983  22.477  22.423  1.00  0.00    -0.120 SA
BRANCH  14  19
ATOM     19  N   UNL A   1      31.954  23.608  25.105  1.00  0.00    -0.270 N 
ATOM     20  H   UNL A   1      32.460  24.369  24.739  1.00  0.00     0.191 HD
BRANCH  19  21
ATOM     21  C   UNL A   1      30.732  23.902  25.733  1.00  0.00     0.189 C 
ATOM     22  S   UNL A   1      30.232  22.900  26.992  1.00  0.00    -0.039 S 
BRANCH  21  23
ATOM     23  N   UNL A   1      29.926  25.002  25.474  1.00  0.00    -0.331 N 
ATOM     24  H   UNL A   1      28.969  24.858  25.657  1.00  0.00     0.169 HD
BRANCH  23  25
ATOM     25  C   UNL A   1      30.241  26.291  24.995  1.00  0.00     0.043 A 
ATOM     26  C   UNL A   1      31.486  27.545  27.351  1.00  0.00     0.046 C 
ATOM     27  C   UNL A   1      31.038  27.621  25.928  1.00  0.00    -0.028 A 
ATOM     28  C   UNL A   1      31.022  29.313  25.264  1.00  0.00     0.005 A 
ATOM     29  C   UNL A   1      30.297  29.654  23.649  1.00  0.00     0.000 A 
ATOM     30  C   UNL A   1      29.596  26.660  23.390  1.00  0.00     0.026 A 
ATOM     31  C   UNL A   1      29.519  28.324  22.743  1.00  0.00     0.002 A 
ENDBRANCH  23  25
ENDBRANCH  21  23
ENDBRANCH  19  21
ENDBRANCH  14  19
ENDBRANCH   8  13
ENDBRANCH   4   7
ENDBRANCH   2   3
ENDBRANCH   1   2
BRANCH   1  32
ATOM     32  C   UNL A   1      34.096  29.012  24.473  1.00  0.00     0.002 C 
BRANCH  32  33
ATOM     33  C   UNL A   1      34.553  29.208  26.624  1.00  0.00     0.002 C 
BRANCH  33  34
ATOM     34  C   UNL A   1      34.960  30.496  27.773  1.00  0.00     0.021 C 
BRANCH  34  35
ATOM     35  C   UNL A   1      36.330  30.936  28.316  1.00  0.00     0.116 C 
BRANCH  35  36
ATOM     36  N   UNL A   1      36.408  31.690  29.556  1.00  0.00    -0.352 N 
ATOM     37  C   UNL A   1      36.754  31.023  30.736  1.00  0.00     0.251 C 
ATOM     38  H   UNL A   1      36.220  32.656  29.565  1.00  0.00     0.163 HD
ATOM     39  O   UNL A   1      36.027  30.294  31.399  1.00  0.00    -0.269 OA
BRANCH  37  40
ATOM     40  C   UNL A   1      38.214  30.936  30.909  1.00  0.00     0.039 A 
ATOM     41  C   UNL A   1      39.153  31.580  30.103  1.00  0.00     0.014 A 
ATOM     42  C   UNL A   1      38.576  29.925  31.796  1.00  0.00     0.014 A 
ATOM     43  C   UNL A   1      40.451  31.082  30.099  1.00  0.00     0.010 A 
ATOM     44  C   UNL A   1      39.751  29.280  31.600  1.00  0.00     0.010 A 
ATOM     45  C   UNL A   1      40.692  29.882  30.773  1.00  0.00    -0.014 A 
BRANCH  45  46
ATOM     46  C   UNL A   1      41.992  29.293  30.982  1.00  0.00     0.031 A 
ATOM     47  C   UNL A   1      42.135  28.002  30.274  1.00  0.00     0.074 A 
ATOM     48  C   UNL A   1      42.912  30.089  31.574  1.00  0.00     0.049 A 
ATOM     49  N   UNL A   1      42.761  26.972  30.707  1.00  0.00    -0.248 NA
ATOM     50  C   UNL A   1      41.412  27.702  29.016  1.00  0.00     0.031 C 
ATOM     51  C   UNL A   1      44.352  29.957  31.727  1.00  0.00     0.029 A 
ATOM     52  N   UNL A   1      42.602  31.185  32.396  1.00  0.00    -0.354 N 
ATOM     53  C   UNL A   1      42.934  26.161  29.600  1.00  0.00     0.074 A 
ATOM     54  C   UNL A   1      41.882  26.496  28.690  1.00  0.00     0.031 C 
ATOM     55  C   UNL A   1      44.727  30.630  32.837  1.00  0.00     0.029 A 
ATOM     56  C   UNL A   1      43.513  31.144  33.464  1.00  0.00     0.049 A 
ATOM     57  H   UNL A   1      41.888  31.848  32.253  1.00  0.00     0.167 HD
ATOM     58  C   UNL A   1      44.139  25.552  29.426  1.00  0.00     0.031 A 
ATOM     59  C   UNL A   1      43.043  30.764  34.691  1.00  0.00     0.031 A 
ATOM     60  C   UNL A   1      45.019  25.938  30.527  1.00  0.00     0.049 A 
ATOM     61  C   UNL A   1      43.541  29.381  35.042  1.00  0.00     0.074 A 
ATOM     62  C   UNL A   1      46.008  26.901  30.627  1.00  0.00     0.029 A 
ATOM     63  N   UNL A   1      44.618  25.646  31.820  1.00  0.00    -0.354 N 
ATOM     64  N   UNL A   1      43.817  28.449  34.167  1.00  0.00    -0.248 NA
ATOM     65  C   UNL A   1      43.878  28.998  36.407  1.00  0.00     0.031 C 
ATOM     66  C   UNL A   1      46.158  27.220  32.008  1.00  0.00     0.029 A 
ATOM     67  C   UNL A   1      45.247  26.468  32.732  1.00  0.00     0.049 A 
ATOM     68  H   UNL A   1      43.970  24.944  32.058  1.00  0.00     0.167 HD
ATOM     69  C   UNL A   1      44.439  27.404  34.802  1.00  0.00     0.074 A 
ATOM     70  C   UNL A   1      44.443  27.797  36.202  1.00  0.00     0.031 C 
ATOM     71  C   UNL A   1      44.946  26.315  34.148  1.00  0.00     0.031 A 
BRANCH  58  72
ATOM     72  C   UNL A   1      44.643  24.908  28.157  1.00  0.00    -0.014 A 
ATOM     73  C   UNL A   1      44.135  23.637  27.820  1.00  0.00     0.010 A 
ATOM     74  C   UNL A   1      45.565  25.472  27.250  1.00  0.00     0.010 A 
ATOM     75  C   UNL A   1      44.526  22.954  26.665  1.00  0.00     0.020 A 
ATOM     76  C   UNL A   1      45.975  24.790  26.088  1.00  0.00     0.020 A 
ATOM     77  C   UNL A   1      45.443  23.536  25.799  1.00  0.00     0.054 A 
BRANCH  77  78
ATOM     78  S   UNL A   1      45.880  22.640  24.287  1.00  0.00     0.124 S 
ATOM     79  O   UNL A   1      46.784  23.573  23.620  1.00  0.00    -0.237 OA
ATOM     80  O   UNL A   1      46.502  21.427  24.811  1.00  0.00    -0.237 OA
ATOM     81  O   UNL A   1      44.596  22.440  23.617  1.00  0.00    -0.744 OA
ENDBRANCH  77  78
ENDBRANCH  58  72
BRANCH  59  82
ATOM     82  C   UNL A   1      41.672  31.302  34.971  1.00  0.00    -0.014 A 
ATOM     83  C   UNL A   1      40.586  30.400  34.904  1.00  0.00     0.010 A 
ATOM     84  C   UNL A   1      41.493  32.504  35.675  1.00  0.00     0.010 A 
ATOM     85  C   UNL A   1      39.414  30.626  35.635  1.00  0.00     0.020 A 
ATOM     86  C   UNL A   1      40.327  32.722  36.426  1.00  0.00     0.020 A 
ATOM     87  C   UNL A   1      39.323  31.752  36.452  1.00  0.00     0.054 A 
BRANCH  87  88
ATOM     88  S   UNL A   1      37.940  31.911  37.618  1.00  0.00     0.124 S 
ATOM     89  O   UNL A   1      38.584  32.438  38.818  1.00  0.00    -0.237 OA
ATOM     90  O   UNL A   1      37.066  32.849  36.916  1.00  0.00    -0.237 OA
ATOM     91  O   UNL A   1      37.423  30.551  37.723  1.00  0.00    -0.744 OA
ENDBRANCH  87  88
ENDBRANCH  59  82
BRANCH  71  92
ATOM     92  C   UNL A   1      45.260  24.977  34.786  1.00  0.00    -0.014 A 
ATOM     93  C   UNL A   1      44.296  24.108  35.304  1.00  0.00     0.010 A 
ATOM     94  C   UNL A   1      46.594  24.490  34.760  1.00  0.00     0.010 A 
ATOM     95  C   UNL A   1      44.646  22.870  35.846  1.00  0.00     0.020 A 
ATOM     96  C   UNL A   1      46.944  23.220  35.212  1.00  0.00     0.020 A 
ATOM     97  C   UNL A   1      45.967  22.433  35.793  1.00  0.00     0.054 A 
BRANCH  97  98
ATOM     98  S   UNL A   1      46.371  20.819  36.480  1.00  0.00     0.124 S 
ATOM     99  O   UNL A   1      45.837  20.934  37.835  1.00  0.00    -0.237 OA
ATOM    100  O   UNL A   1      45.646  19.911  35.594  1.00  0.00    -0.237 OA
ATOM    101  O   UNL A   1      47.826  20.752  36.384  1.00  0.00    -0.744 OA
ENDBRANCH  97  98
ENDBRANCH  71  92
ENDBRANCH  45  46
ENDBRANCH  37  40
ENDBRANCH  35  36
ENDBRANCH  34  35
ENDBRANCH  33  34
ENDBRANCH  32  33
ENDBRANCH   1  32
TORSDOF 21
ENDMDL
MODEL 2
REMARK VINA RESULT:     -11.4      5.827     11.395
REMARK SMILES Cc1ccccc1NC(=S)NN1C(=O)CS[C@H]1c1ccccc1C(=O)NCCCCCCNC(=O)c1ccc(-c2c3nc(c(-c4ccc(S(=O)(=O)[O-])cc4)c4ccc([nH]4)c(-c4ccc(S(=O)(=O)[O-])cc4)c4nc(c(-c5ccc(S(=O)(=O)[O-])cc5)c5ccc2[nH]5)C=C4)C=C3)cc1
REMARK SMILES IDX 28 1 27 2 26 3 24 4 25 5 23 7 18 8 19 9 20 10 22 11 21 12
REMARK SMILES IDX 17 13 12 14 13 15 14 16 15 17 16 18 11 19 9 21 10 22 8 23
REMARK SMILES IDX 7 25 1 26 2 27 3 28 4 29 6 30 5 31 29 32 30 33 31 34 32 35
REMARK SMILES IDX 33 36 34 37 35 39 36 40 37 41 95 42 38 43 94 44 39 45 40 46
REMARK SMILES IDX 41 47 88 48 42 49 93 50 87 51 89 52 43 53 92 54 86 55 85 56
REMARK SMILES IDX 44 58 74 59 55 60 73 61 56 62 59 63 72 64 90 65 57 66 58 67
REMARK SMILES IDX 71 69 91 70 60 71 45 72 46 73 54 74 47 75 53 76 48 77 49 78
REMARK SMILES IDX 50 79 51 80 52 81 75 82 76 83 84 84 77 85 83 86 78 87 79 88
REMARK SMILES IDX 80 89 81 90 82 91 61 92 62 93 70 94 63 95 69 96 64 97 65 98
REMARK SMILES IDX 66 99 67 100 68 101
REMARK H PARENT 26 6 11 20 8 24 33 38 89 57 59 68
REMARK Flexibility Score: inf
ROOT
ATOM      1  C   UNL A   1      46.669  31.925  30.831  1.00  0.00     0.021 C 
ENDROOT
BRANCH   1   2
ATOM      2  C   UNL A   1      45.106  31.828  30.657  1.00  0.00     0.116 C 
BRANCH   2   3
ATOM      3  N   UNL A   1      44.426  30.634  30.025  1.00  0.00    -0.352 N 
ATOM      4  C   UNL A   1      43.338  30.782  29.119  1.00  0.00     0.251 C 
ATOM      5  O   UNL A   1      43.585  31.252  28.004  1.00  0.00    -0.269 OA
ATOM      6  H   UNL A   1      44.746  29.729  30.246  1.00  0.00     0.163 HD
BRANCH   4   7
ATOM      7  C   UNL A   1      41.913  30.172  29.323  1.00  0.00     0.046 A 
ATOM      8  C   UNL A   1      41.326  29.025  28.743  1.00  0.00    -0.001 A 
ATOM      9  C   UNL A   1      39.935  28.738  28.924  1.00  0.00     0.007 A 
ATOM     10  C   UNL A   1      39.126  29.507  29.734  1.00  0.00     0.000 A 
ATOM     11  C   UNL A   1      41.071  30.877  30.218  1.00  0.00     0.014 A 
ATOM     12  C   UNL A   1      39.708  30.558  30.414  1.00  0.00     0.001 A 
BRANCH   8  13
ATOM     13  C   UNL A   1      41.985  28.246  27.681  1.00  0.00     0.197 C 
ATOM     14  N   UNL A   1      42.655  27.020  27.988  1.00  0.00    -0.236 N 
ATOM     15  C   UNL A   1      43.511  27.057  26.832  1.00  0.00     0.252 C 
ATOM     16  O   UNL A   1      44.598  27.639  26.801  1.00  0.00    -0.272 OA
ATOM     17  C   UNL A   1      42.685  26.963  25.565  1.00  0.00     0.174 C 
ATOM     18  S   UNL A   1      41.167  27.841  26.083  1.00  0.00    -0.120 SA
BRANCH  14  19
ATOM     19  N   UNL A   1      41.664  25.801  28.346  1.00  0.00    -0.270 N 
ATOM     20  H   UNL A   1      40.968  25.977  29.020  1.00  0.00     0.191 HD
BRANCH  19  21
ATOM     21  C   UNL A   1      41.697  24.512  27.789  1.00  0.00     0.189 C 
ATOM     22  S   UNL A   1      40.358  24.002  26.904  1.00  0.00    -0.039 S 
BRANCH  21  23
ATOM     23  N   UNL A   1      42.774  23.637  27.822  1.00  0.00    -0.331 N 
ATOM     24  H   UNL A   1      43.235  23.590  28.691  1.00  0.00     0.169 HD
BRANCH  23  25
ATOM     25  C   UNL A   1      43.321  22.802  26.825  1.00  0.00     0.043 A 
ATOM     26  C   UNL A   1      41.676  20.372  27.073  1.00  0.00     0.046 C 
ATOM     27  C   UNL A   1      42.788  21.123  26.414  1.00  0.00    -0.028 A 
ATOM     28  C   UNL A   1      43.845  20.079  25.368  1.00  0.00     0.005 A 
ATOM     29  C   UNL A   1      45.372  20.735  24.669  1.00  0.00     0.000 A 
ATOM     30  C   UNL A   1      44.795  23.423  26.070  1.00  0.00     0.026 A 
ATOM     31  C   UNL A   1      45.878  22.398  25.085  1.00  0.00     0.002 A 
ENDBRANCH  23  25
ENDBRANCH  21  23
ENDBRANCH  19  21
ENDBRANCH  14  19
ENDBRANCH   8  13
ENDBRANCH   4   7
ENDBRANCH   2   3
ENDBRANCH   1   2
BRANCH   1  32
ATOM     32  C   UNL A   1      47.677  30.465  30.781  1.00  0.00     0.002 C 
BRANCH  32  33
ATOM     33  C   UNL A   1      48.585  29.078  29.324  1.00  0.00     0.002 C 
BRANCH  33  34
ATOM     34  C   UNL A   1      48.256  28.486  27.686  1.00  0.00     0.021 C 
BRANCH  34  35
ATOM     35  C   UNL A   1      48.380  27.068  27.105  1.00  0.00     0.116 C 
BRANCH  35  36
ATOM     36  N   UNL A   1      47.258  26.149  27.194  1.00  0.00    -0.352 N 
ATOM     37  C   UNL A   1      47.301  25.113  28.133  1.00  0.00     0.251 C 
ATOM     38  H   UNL A   1      46.479  26.254  26.602  1.00  0.00     0.163 HD
ATOM     39  O   UNL A   1      47.949  24.078  28.044  1.00  0.00    -0.269 OA
BRANCH  37  40
ATOM     40  C   UNL A   1      46.814  25.548  29.453  1.00  0.00     0.039 A 
ATOM     41  C   UNL A   1      47.614  25.721  30.581  1.00  0.00     0.014 A 
ATOM     42  C   UNL A   1      45.424  25.509  29.535  1.00  0.00     0.014 A 
ATOM     43  C   UNL A   1      46.991  25.707  31.824  1.00  0.00     0.010 A 
ATOM     44  C   UNL A   1      44.852  25.233  30.733  1.00  0.00     0.010 A 
ATOM     45  C   UNL A   1      45.638  25.363  31.872  1.00  0.00    -0.014 A 
BRANCH  45  46
ATOM     46  C   UNL A   1      44.806  25.425  33.049  1.00  0.00     0.031 A 
ATOM     47  C   UNL A   1      44.376  26.809  33.350  1.00  0.00     0.074 A 
ATOM     48  C   UNL A   1      44.381  24.236  33.534  1.00  0.00     0.049 A 
ATOM     49  N   UNL A   1      44.251  27.319  34.518  1.00  0.00    -0.248 NA
ATOM     50  C   UNL A   1      44.190  27.829  32.293  1.00  0.00     0.031 C 
ATOM     51  C   UNL A   1      43.363  23.900  34.518  1.00  0.00     0.029 A 
ATOM     52  N   UNL A   1      45.030  23.011  33.313  1.00  0.00    -0.354 N 
ATOM     53  C   UNL A   1      43.505  28.470  34.331  1.00  0.00     0.074 A 
ATOM     54  C   UNL A   1      43.732  28.880  32.979  1.00  0.00     0.031 C 
ATOM     55  C   UNL A   1      43.695  22.721  35.089  1.00  0.00     0.029 A 
ATOM     56  C   UNL A   1      44.983  22.315  34.533  1.00  0.00     0.049 A 
ATOM     57  H   UNL A   1      45.437  22.701  32.472  1.00  0.00     0.167 HD
ATOM     58  C   UNL A   1      42.513  28.750  35.221  1.00  0.00     0.031 A 
ATOM     59  C   UNL A   1      46.144  22.200  35.248  1.00  0.00     0.031 A 
ATOM     60  C   UNL A   1      42.471  27.686  36.222  1.00  0.00     0.049 A 
ATOM     61  C   UNL A   1      46.100  23.083  36.473  1.00  0.00     0.074 A 
ATOM     62  C   UNL A   1      41.673  26.562  36.345  1.00  0.00     0.029 A 
ATOM     63  N   UNL A   1      43.611  27.447  36.971  1.00  0.00    -0.354 N 
ATOM     64  N   UNL A   1      45.429  24.202  36.557  1.00  0.00    -0.248 NA
ATOM     65  C   UNL A   1      46.716  22.693  37.735  1.00  0.00     0.031 C 
ATOM     66  C   UNL A   1      42.380  25.619  37.146  1.00  0.00     0.029 A 
ATOM     67  C   UNL A   1      43.608  26.166  37.482  1.00  0.00     0.049 A 
ATOM     68  H   UNL A   1      44.328  28.104  37.121  1.00  0.00     0.167 HD
ATOM     69  C   UNL A   1      45.433  24.634  37.858  1.00  0.00     0.074 A 
ATOM     70  C   UNL A   1      46.259  23.658  38.550  1.00  0.00     0.031 C 
ATOM     71  C   UNL A   1      44.733  25.725  38.296  1.00  0.00     0.031 A 
BRANCH  58  72
ATOM     72  C   UNL A   1      41.395  29.746  35.032  1.00  0.00    -0.014 A 
ATOM     73  C   UNL A   1      41.422  30.919  35.813  1.00  0.00     0.010 A 
ATOM     74  C   UNL A   1      40.325  29.629  34.120  1.00  0.00     0.010 A 
ATOM     75  C   UNL A   1      40.442  31.911  35.713  1.00  0.00     0.020 A 
ATOM     76  C   UNL A   1      39.325  30.616  34.017  1.00  0.00     0.020 A 
ATOM     77  C   UNL A   1      39.398  31.757  34.811  1.00  0.00     0.054 A 
BRANCH  77  78
ATOM     78  S   UNL A   1      38.181  33.092  34.675  1.00  0.00     0.124 S 
ATOM     79  O   UNL A   1      36.994  32.497  35.284  1.00  0.00    -0.237 OA
ATOM     80  O   UNL A   1      38.808  34.165  35.441  1.00  0.00    -0.237 OA
ATOM     81  O   UNL A   1      38.084  33.330  33.236  1.00  0.00    -0.744 OA
ENDBRANCH  77  78
ENDBRANCH  58  72
BRANCH  59  82
ATOM     82  C   UNL A   1      47.337  21.975  34.369  1.00  0.00    -0.014 A 
ATOM     83  C   UNL A   1      48.332  22.979  34.343  1.00  0.00     0.010 A 
ATOM     84  C   UNL A   1      47.682  20.687  33.927  1.00  0.00     0.010 A 
ATOM     85  C   UNL A   1      49.660  22.669  34.026  1.00  0.00     0.020 A 
ATOM     86  C   UNL A   1      49.018  20.372  33.630  1.00  0.00     0.020 A 
ATOM     87  C   UNL A   1      50.007  21.349  33.743  1.00  0.00     0.054 A 
BRANCH  87  88
ATOM     88  S   UNL A   1      51.759  20.886  33.614  1.00  0.00     0.124 S 
ATOM     89  O   UNL A   1      51.757  19.485  34.027  1.00  0.00    -0.237 OA
ATOM     90  O   UNL A   1      52.022  21.117  32.195  1.00  0.00    -0.237 OA
ATOM     91  O   UNL A   1      52.427  21.812  34.521  1.00  0.00    -0.744 OA
ENDBRANCH  87  88
ENDBRANCH  59  82
BRANCH  71  92
ATOM     92  C   UNL A   1      45.005  26.486  39.577  1.00  0.00    -0.014 A 
ATOM     93  C   UNL A   1      44.235  26.373  40.737  1.00  0.00     0.010 A 
ATOM     94  C   UNL A   1      46.181  27.276  39.680  1.00  0.00     0.010 A 
ATOM     95  C   UNL A   1      44.559  27.074  41.900  1.00  0.00     0.020 A 
ATOM     96  C   UNL A   1      46.567  27.906  40.861  1.00  0.00     0.020 A 
ATOM     97  C   UNL A   1      45.725  27.832  41.955  1.00  0.00     0.054 A 
BRANCH  97  98
ATOM     98  S   UNL A   1      46.120  28.698  43.482  1.00  0.00     0.124 S 
ATOM     99  O   UNL A   1      46.406  30.044  42.992  1.00  0.00    -0.237 OA
ATOM    100  O   UNL A   1      44.886  28.559  44.251  1.00  0.00    -0.237 OA
ATOM    101  O   UNL A   1      47.268  27.968  44.012  1.00  0.00    -0.744 OA
ENDBRANCH  97  98
ENDBRANCH  71  92
ENDBRANCH  45  46
ENDBRANCH  37  40
ENDBRANCH  35  36
ENDBRANCH  34  35
ENDBRANCH  33  34
ENDBRANCH  32  33
ENDBRANCH   1  32
TORSDOF 21
ENDMDL
MODEL 3
REMARK VINA RESULT:     -11.2      2.537      3.265
REMARK SMILES Cc1ccccc1NC(=S)NN1C(=O)CS[C@H]1c1ccccc1C(=O)NCCCCCCNC(=O)c1ccc(-c2c3nc(c(-c4ccc(S(=O)(=O)[O-])cc4)c4ccc([nH]4)c(-c4ccc(S(=O)(=O)[O-])cc4)c4nc(c(-c5ccc(S(=O)(=O)[O-])cc5)c5ccc2[nH]5)C=C4)C=C3)cc1
REMARK SMILES IDX 28 1 27 2 26 3 24 4 25 5 23 7 18 8 19 9 20 10 22 11 21 12
REMARK SMILES IDX 17 13 12 14 13 15 14 16 15 17 16 18 11 19 9 21 10 22 8 23
REMARK SMILES IDX 7 25 1 26 2 27 3 28 4 29 6 30 5 31 29 32 30 33 31 34 32 35
REMARK SMILES IDX 33 36 34 37 35 39 36 40 37 41 95 42 38 43 94 44 39 45 40 46
REMARK SMILES IDX 41 47 88 48 42 49 93 50 87 51 89 52 43 53 92 54 86 55 85 56
REMARK SMILES IDX 44 58 74 59 55 60 73 61 56 62 59 63 72 64 90 65 57 66 58 67
REMARK SMILES IDX 71 69 91 70 60 71 45 72 46 73 54 74 47 75 53 76 48 77 49 78
REMARK SMILES IDX 50 79 51 80 52 81 75 82 76 83 84 84 77 85 83 86 78 87 79 88
REMARK SMILES IDX 80 89 81 90 82 91 61 92 62 93 70 94 63 95 69 96 64 97 65 98
REMARK SMILES IDX 66 99 67 100 68 101
REMARK H PARENT 26 6 11 20 8 24 33 38 89 57 59 68
REMARK Flexibility Score: inf
ROOT
ATOM      1  C   UNL A   1      33.026  27.472  21.630  1.00  0.00     0.021 C 
ENDROOT
BRANCH   1   2
ATOM      2  C   UNL A   1      32.413  26.023  21.717  1.00  0.00     0.116 C 
BRANCH   2   3
ATOM      3  N   UNL A   1      33.250  24.772  21.577  1.00  0.00    -0.352 N 
ATOM      4  C   UNL A   1      33.145  23.690  22.498  1.00  0.00     0.251 C 
ATOM      5  O   UNL A   1      32.109  23.020  22.472  1.00  0.00    -0.269 OA
ATOM      6  H   UNL A   1      33.885  24.702  20.827  1.00  0.00     0.163 HD
BRANCH   4   7
ATOM      7  C   UNL A   1      34.323  23.130  23.359  1.00  0.00     0.046 A 
ATOM      8  C   UNL A   1      34.310  22.574  24.659  1.00  0.00    -0.001 A 
ATOM      9  C   UNL A   1      35.533  22.286  25.347  1.00  0.00     0.007 A 
ATOM     10  C   UNL A   1      36.766  22.448  24.753  1.00  0.00     0.000 A 
ATOM     11  C   UNL A   1      35.602  23.192  22.756  1.00  0.00     0.014 A 
ATOM     12  C   UNL A   1      36.798  22.866  23.438  1.00  0.00     0.001 A 
BRANCH   8  13
ATOM     13  C   UNL A   1      33.105  22.558  25.505  1.00  0.00     0.197 C 
ATOM     14  N   UNL A   1      32.580  23.774  26.046  1.00  0.00    -0.236 N 
ATOM     15  C   UNL A   1      31.891  23.134  27.135  1.00  0.00     0.252 C 
ATOM     16  O   UNL A   1      32.413  22.881  28.224  1.00  0.00    -0.272 OA
ATOM     17  C   UNL A   1      30.804  22.220  26.604  1.00  0.00     0.174 C 
ATOM     18  S   UNL A   1      31.571  21.653  25.044  1.00  0.00    -0.120 SA
BRANCH  14  19
ATOM     19  N   UNL A   1      31.871  24.725  24.955  1.00  0.00    -0.270 N 
ATOM     20  H   UNL A   1      32.075  24.546  24.009  1.00  0.00     0.191 HD
BRANCH  19  21
ATOM     21  C   UNL A   1      30.989  25.785  25.225  1.00  0.00     0.189 C 
ATOM     22  S   UNL A   1      29.506  25.415  25.932  1.00  0.00    -0.039 S 
BRANCH  21  23
ATOM     23  N   UNL A   1      31.258  27.135  25.046  1.00  0.00    -0.331 N 
ATOM     24  H   UNL A   1      32.104  27.439  25.449  1.00  0.00     0.169 HD
BRANCH  23  25
ATOM     25  C   UNL A   1      30.529  28.146  24.385  1.00  0.00     0.043 A 
ATOM     26  C   UNL A   1      31.623  30.597  25.597  1.00  0.00     0.046 C 
ATOM     27  C   UNL A   1      30.686  29.930  24.643  1.00  0.00    -0.028 A 
ATOM     28  C   UNL A   1      29.414  31.045  23.980  1.00  0.00     0.005 A 
ATOM     29  C   UNL A   1      28.049  30.394  22.998  1.00  0.00     0.000 A 
ATOM     30  C   UNL A   1      29.208  27.558  23.367  1.00  0.00     0.026 A 
ATOM     31  C   UNL A   1      27.916  28.628  22.752  1.00  0.00     0.002 A 
ENDBRANCH  23  25
ENDBRANCH  21  23
ENDBRANCH  19  21
ENDBRANCH  14  19
ENDBRANCH   8  13
ENDBRANCH   4   7
ENDBRANCH   2   3
ENDBRANCH   1   2
BRANCH   1  32
ATOM     32  C   UNL A   1      33.847  28.192  23.028  1.00  0.00     0.002 C 
BRANCH  32  33
ATOM     33  C   UNL A   1      34.355  27.726  25.126  1.00  0.00     0.002 C 
BRANCH  33  34
ATOM     34  C   UNL A   1      34.159  28.466  26.725  1.00  0.00     0.021 C 
BRANCH  34  35
ATOM     35  C   UNL A   1      35.175  29.231  27.588  1.00  0.00     0.116 C 
BRANCH  35  36
ATOM     36  N   UNL A   1      35.317  30.669  27.435  1.00  0.00    -0.352 N 
ATOM     37  C   UNL A   1      35.241  31.484  28.569  1.00  0.00     0.251 C 
ATOM     38  H   UNL A   1      35.467  31.063  26.546  1.00  0.00     0.163 HD
ATOM     39  O   UNL A   1      34.222  31.800  29.170  1.00  0.00    -0.269 OA
BRANCH  37  40
ATOM     40  C   UNL A   1      36.544  31.610  29.243  1.00  0.00     0.039 A 
ATOM     41  C   UNL A   1      37.353  32.746  29.211  1.00  0.00     0.014 A 
ATOM     42  C   UNL A   1      37.019  30.381  29.695  1.00  0.00     0.014 A 
ATOM     43  C   UNL A   1      38.702  32.587  29.507  1.00  0.00     0.010 A 
ATOM     44  C   UNL A   1      38.358  30.173  29.724  1.00  0.00     0.010 A 
ATOM     45  C   UNL A   1      39.188  31.285  29.658  1.00  0.00    -0.014 A 
BRANCH  45  46
ATOM     46  C   UNL A   1      40.521  30.942  30.092  1.00  0.00     0.031 A 
ATOM     47  C   UNL A   1      41.133  29.907  29.230  1.00  0.00     0.074 A 
ATOM     48  C   UNL A   1      41.061  31.749  31.035  1.00  0.00     0.049 A 
ATOM     49  N   UNL A   1      41.894  28.955  29.624  1.00  0.00    -0.248 NA
ATOM     50  C   UNL A   1      40.795  29.767  27.796  1.00  0.00     0.031 C 
ATOM     51  C   UNL A   1      42.421  31.881  31.532  1.00  0.00     0.029 A 
ATOM     52  N   UNL A   1      40.316  32.536  31.927  1.00  0.00    -0.354 N 
ATOM     53  C   UNL A   1      42.499  28.476  28.475  1.00  0.00     0.074 A 
ATOM     54  C   UNL A   1      41.614  28.792  27.396  1.00  0.00     0.031 C 
ATOM     55  C   UNL A   1      42.368  32.339  32.802  1.00  0.00     0.029 A 
ATOM     56  C   UNL A   1      40.959  32.436  33.172  1.00  0.00     0.049 A 
ATOM     57  H   UNL A   1      39.504  33.055  31.722  1.00  0.00     0.167 HD
ATOM     58  C   UNL A   1      43.827  28.183  28.518  1.00  0.00     0.031 A 
ATOM     59  C   UNL A   1      40.351  31.693  34.146  1.00  0.00     0.031 A 
ATOM     60  C   UNL A   1      44.326  28.473  29.860  1.00  0.00     0.049 A 
ATOM     61  C   UNL A   1      41.098  30.397  34.365  1.00  0.00     0.074 A 
ATOM     62  C   UNL A   1      44.993  29.567  30.383  1.00  0.00     0.029 A 
ATOM     63  N   UNL A   1      43.747  27.813  30.931  1.00  0.00    -0.354 N 
ATOM     64  N   UNL A   1      41.781  29.771  33.444  1.00  0.00    -0.248 NA
ATOM     65  C   UNL A   1      41.223  29.785  35.682  1.00  0.00     0.031 C 
ATOM     66  C   UNL A   1      44.761  29.580  31.789  1.00  0.00     0.029 A 
ATOM     67  C   UNL A   1      43.938  28.511  32.105  1.00  0.00     0.049 A 
ATOM     68  H   UNL A   1      43.263  26.959  30.864  1.00  0.00     0.167 HD
ATOM     69  C   UNL A   1      42.498  28.756  34.024  1.00  0.00     0.074 A 
ATOM     70  C   UNL A   1      42.105  28.805  35.423  1.00  0.00     0.031 C 
ATOM     71  C   UNL A   1      43.392  27.975  33.345  1.00  0.00     0.031 A 
BRANCH  58  72
ATOM     72  C   UNL A   1      44.736  27.968  27.332  1.00  0.00    -0.014 A 
ATOM     73  C   UNL A   1      46.093  28.325  27.471  1.00  0.00     0.010 A 
ATOM     74  C   UNL A   1      44.362  27.412  26.090  1.00  0.00     0.010 A 
ATOM     75  C   UNL A   1      47.022  28.161  26.441  1.00  0.00     0.020 A 
ATOM     76  C   UNL A   1      45.287  27.251  25.040  1.00  0.00     0.020 A 
ATOM     77  C   UNL A   1      46.616  27.620  25.228  1.00  0.00     0.054 A 
BRANCH  77  78
ATOM     78  S   UNL A   1      47.865  27.375  23.939  1.00  0.00     0.124 S 
ATOM     79  O   UNL A   1      47.286  28.085  22.802  1.00  0.00    -0.237 OA
ATOM     80  O   UNL A   1      49.049  27.993  24.530  1.00  0.00    -0.237 OA
ATOM     81  O   UNL A   1      47.932  25.922  23.790  1.00  0.00    -0.744 OA
ENDBRANCH  77  78
ENDBRANCH  58  72
BRANCH  59  82
ATOM     82  C   UNL A   1      38.862  31.860  34.149  1.00  0.00    -0.014 A 
ATOM     83  C   UNL A   1      38.333  33.021  34.758  1.00  0.00     0.010 A 
ATOM     84  C   UNL A   1      38.050  31.157  33.244  1.00  0.00     0.010 A 
ATOM     85  C   UNL A   1      37.092  33.540  34.367  1.00  0.00     0.020 A 
ATOM     86  C   UNL A   1      36.816  31.689  32.835  1.00  0.00     0.020 A 
ATOM     87  C   UNL A   1      36.376  32.908  33.352  1.00  0.00     0.054 A 
BRANCH  87  88
ATOM     88  S   UNL A   1      34.916  33.721  32.638  1.00  0.00     0.124 S 
ATOM     89  O   UNL A   1      33.961  32.624  32.513  1.00  0.00    -0.237 OA
ATOM     90  O   UNL A   1      34.598  34.712  33.665  1.00  0.00    -0.237 OA
ATOM     91  O   UNL A   1      35.412  34.275  31.383  1.00  0.00    -0.744 OA
ENDBRANCH  87  88
ENDBRANCH  59  82
BRANCH  71  92
ATOM     92  C   UNL A   1      43.893  26.619  33.796  1.00  0.00    -0.014 A 
ATOM     93  C   UNL A   1      45.240  26.248  33.826  1.00  0.00     0.010 A 
ATOM     94  C   UNL A   1      42.974  25.686  34.348  1.00  0.00     0.010 A 
ATOM     95  C   UNL A   1      45.642  24.994  34.288  1.00  0.00     0.020 A 
ATOM     96  C   UNL A   1      43.370  24.469  34.898  1.00  0.00     0.020 A 
ATOM     97  C   UNL A   1      44.705  24.115  34.825  1.00  0.00     0.054 A 
BRANCH  97  98
ATOM     98  S   UNL A   1      45.269  22.518  35.435  1.00  0.00     0.124 S 
ATOM     99  O   UNL A   1      45.332  22.758  36.874  1.00  0.00    -0.237 OA
ATOM    100  O   UNL A   1      44.204  21.620  34.995  1.00  0.00    -0.237 OA
ATOM    101  O   UNL A   1      46.556  22.326  34.774  1.00  0.00    -0.744 OA
ENDBRANCH  97  98
ENDBRANCH  71  92
ENDBRANCH  45  46
ENDBRANCH  37  40
ENDBRANCH  35  36
ENDBRANCH  34  35
ENDBRANCH  33  34
ENDBRANCH  32  33
ENDBRANCH   1  32
TORSDOF 21
ENDMDL
