MODEL 1
REMARK VINA RESULT:     -10.1      0.000      0.000
REMARK SMILES CC[C@](C)(NC(=O)CCOc1ccc(Cl)c(Cl)c1)C(=O)NCCCCCCNC(=O)c1ccc(-c2c3nc(c(-c4ccc(S(=O)(=O)[O-])cc4)c4ccc([nH]4)c(-c4ccc(S(=O)(=O)[O-])cc4)c4nc(c(-c5ccc(S(=O)(=O)[O-])cc5)c5ccc2[nH]5)C=C4)C=C3)cc1
REMARK SMILES IDX 23 1 22 2 21 3 19 4 20 5 3 7 4 8 2 9 1 10 5 11 6 12 7 14
REMARK SMILES IDX 8 15 9 16 10 17 11 18 12 19 18 20 13 21 16 22 14 23 17 24
REMARK SMILES IDX 15 25 24 26 25 27 26 28 27 29 28 30 29 31 30 33 31 34 32 35
REMARK SMILES IDX 90 36 33 37 89 38 34 39 35 40 36 41 83 42 37 43 88 44 82 45
REMARK SMILES IDX 84 46 38 47 87 48 81 49 80 50 39 52 69 53 50 54 68 55 51 56
REMARK SMILES IDX 54 57 67 58 85 59 52 60 53 61 66 63 86 64 55 65 40 66 41 67
REMARK SMILES IDX 49 68 42 69 48 70 43 71 44 72 45 73 46 74 47 75 70 76 71 77
REMARK SMILES IDX 79 78 72 79 78 80 73 81 74 82 75 83 76 84 77 85 56 86 57 87
REMARK SMILES IDX 65 88 58 89 64 90 59 91 60 92 61 93 62 94 63 95
REMARK H PARENT 21 6 5 13 28 32 84 51 54 62
REMARK Flexibility Score: inf
ROOT
ATOM      1  C   UNL A   1      39.139  23.270  26.393  1.00  0.00     0.021 C 
ENDROOT
BRANCH   1   2
ATOM      2  C   UNL A   1      37.671  23.046  26.038  1.00  0.00     0.116 C 
BRANCH   2   3
ATOM      3  N   UNL A   1      37.454  23.016  24.605  1.00  0.00    -0.354 N 
ATOM      4  C   UNL A   1      36.330  22.753  23.884  1.00  0.00     0.245 C 
ATOM      5  O   UNL A   1      36.400  22.920  22.664  1.00  0.00    -0.272 OA
ATOM      6  H   UNL A   1      38.250  23.220  24.064  1.00  0.00     0.163 HD
BRANCH   4   7
ATOM      7  C   UNL A   1      34.995  22.380  24.591  1.00  0.00     0.116 C 
ATOM      8  C   UNL A   1      35.231  21.149  25.469  1.00  0.00     0.045 C 
BRANCH   7   9
ATOM      9  C   UNL A   1      33.944  22.098  23.455  1.00  0.00     0.035 C 
ATOM     10  C   UNL A   1      32.913  21.006  23.712  1.00  0.00     0.007 C 
ENDBRANCH   7   9
BRANCH   7  11
ATOM     11  N   UNL A   1      34.494  23.515  25.417  1.00  0.00    -0.342 N 
ATOM     12  C   UNL A   1      34.082  24.773  25.110  1.00  0.00     0.224 C 
ATOM     13  H   UNL A   1      34.452  23.311  26.379  1.00  0.00     0.164 HD
ATOM     14  O   UNL A   1      33.712  25.488  26.046  1.00  0.00    -0.275 OA
BRANCH  12  15
ATOM     15  C   UNL A   1      33.986  25.269  23.686  1.00  0.00     0.141 C 
BRANCH  15  16
ATOM     16  C   UNL A   1      32.670  25.986  23.376  1.00  0.00     0.239 C 
BRANCH  16  17
ATOM     17  O   UNL A   1      32.801  27.383  23.076  1.00  0.00    -0.493 OA
BRANCH  17  18
ATOM     18  C   UNL A   1      32.339  28.295  23.983  1.00  0.00     0.120 A 
ATOM     19  C   UNL A   1      32.986  28.673  25.156  1.00  0.00     0.048 A 
ATOM     20  C   UNL A   1      31.151  28.939  23.627  1.00  0.00     0.068 A 
ATOM     21  C   UNL A   1      32.573  29.810  25.853  1.00  0.00     0.026 A 
ATOM     22  C   UNL A   1      30.705  30.053  24.348  1.00  0.00     0.063 A 
ATOM     23  C   UNL A   1      31.449  30.520  25.436  1.00  0.00     0.059 A 
ATOM     24  Cl  UNL A   1      29.278  30.853  23.793  1.00  0.00    -0.083 Cl
ATOM     25  Cl  UNL A   1      31.058  31.976  26.275  1.00  0.00    -0.083 Cl
ENDBRANCH  17  18
ENDBRANCH  16  17
ENDBRANCH  15  16
ENDBRANCH  12  15
ENDBRANCH   7  11
ENDBRANCH   4   7
ENDBRANCH   2   3
ENDBRANCH   1   2
BRANCH   1  26
ATOM     26  C   UNL A   1      39.895  21.998  26.791  1.00  0.00     0.002 C 
BRANCH  26  27
ATOM     27  C   UNL A   1      40.919  22.192  27.911  1.00  0.00     0.002 C 
BRANCH  27  28
ATOM     28  C   UNL A   1      42.377  22.151  27.452  1.00  0.00     0.021 C 
BRANCH  28  29
ATOM     29  C   UNL A   1      43.060  23.511  27.434  1.00  0.00     0.116 C 
BRANCH  29  30
ATOM     30  N   UNL A   1      42.706  24.262  26.244  1.00  0.00    -0.352 N 
ATOM     31  C   UNL A   1      42.020  25.443  26.164  1.00  0.00     0.251 C 
ATOM     32  H   UNL A   1      42.999  23.875  25.387  1.00  0.00     0.163 HD
ATOM     33  O   UNL A   1      41.562  25.825  25.085  1.00  0.00    -0.269 OA
BRANCH  31  34
ATOM     34  C   UNL A   1      41.823  26.243  27.387  1.00  0.00     0.039 A 
ATOM     35  C   UNL A   1      42.684  27.310  27.645  1.00  0.00     0.014 A 
ATOM     36  C   UNL A   1      40.772  25.949  28.264  1.00  0.00     0.014 A 
ATOM     37  C   UNL A   1      42.466  28.107  28.768  1.00  0.00     0.010 A 
ATOM     38  C   UNL A   1      40.510  26.795  29.336  1.00  0.00     0.010 A 
ATOM     39  C   UNL A   1      41.363  27.872  29.609  1.00  0.00    -0.014 A 
BRANCH  39  40
ATOM     40  C   UNL A   1      41.099  28.757  30.770  1.00  0.00     0.031 A 
ATOM     41  C   UNL A   1      41.951  28.666  32.007  1.00  0.00     0.074 A 
ATOM     42  C   UNL A   1      40.072  29.627  30.715  1.00  0.00     0.049 A 
ATOM     43  N   UNL A   1      41.905  29.398  33.091  1.00  0.00    -0.248 NA
ATOM     44  C   UNL A   1      42.968  27.604  32.043  1.00  0.00     0.031 C 
ATOM     45  C   UNL A   1      39.143  29.768  29.590  1.00  0.00     0.029 A 
ATOM     46  N   UNL A   1      39.645  30.567  31.617  1.00  0.00    -0.354 N 
ATOM     47  C   UNL A   1      42.877  28.879  33.939  1.00  0.00     0.074 A 
ATOM     48  C   UNL A   1      43.456  27.737  33.267  1.00  0.00     0.031 C 
ATOM     49  C   UNL A   1      38.293  30.774  29.846  1.00  0.00     0.029 A 
ATOM     50  C   UNL A   1      38.589  31.323  31.165  1.00  0.00     0.049 A 
ATOM     51  H   UNL A   1      40.056  30.689  32.503  1.00  0.00     0.167 HD
ATOM     52  C   UNL A   1      43.266  29.325  35.157  1.00  0.00     0.031 A 
ATOM     53  C   UNL A   1      37.941  32.353  31.743  1.00  0.00     0.031 A 
ATOM     54  C   UNL A   1      42.683  30.463  35.819  1.00  0.00     0.049 A 
ATOM     55  C   UNL A   1      38.389  32.828  33.096  1.00  0.00     0.074 A 
ATOM     56  C   UNL A   1      43.049  31.040  37.022  1.00  0.00     0.029 A 
ATOM     57  N   UNL A   1      41.603  31.190  35.340  1.00  0.00    -0.354 N 
ATOM     58  N   UNL A   1      39.372  32.383  33.844  1.00  0.00    -0.248 NA
ATOM     59  C   UNL A   1      37.648  33.955  33.676  1.00  0.00     0.031 C 
ATOM     60  C   UNL A   1      42.149  32.074  37.302  1.00  0.00     0.029 A 
ATOM     61  C   UNL A   1      41.263  32.186  36.241  1.00  0.00     0.049 A 
ATOM     62  H   UNL A   1      41.144  31.023  34.486  1.00  0.00     0.167 HD
ATOM     63  C   UNL A   1      39.379  33.190  34.976  1.00  0.00     0.074 A 
ATOM     64  C   UNL A   1      38.319  34.164  34.800  1.00  0.00     0.031 C 
ATOM     65  C   UNL A   1      40.188  33.130  36.063  1.00  0.00     0.031 A 
BRANCH  52  66
ATOM     66  C   UNL A   1      44.360  28.561  35.861  1.00  0.00    -0.014 A 
ATOM     67  C   UNL A   1      45.719  28.859  35.644  1.00  0.00     0.010 A 
ATOM     68  C   UNL A   1      44.024  27.541  36.768  1.00  0.00     0.010 A 
ATOM     69  C   UNL A   1      46.718  28.117  36.277  1.00  0.00     0.020 A 
ATOM     70  C   UNL A   1      45.020  26.816  37.429  1.00  0.00     0.020 A 
ATOM     71  C   UNL A   1      46.361  27.095  37.163  1.00  0.00     0.054 A 
BRANCH  71  72
ATOM     72  S   UNL A   1      47.680  26.149  37.975  1.00  0.00     0.124 S 
ATOM     73  O   UNL A   1      47.062  25.811  39.255  1.00  0.00    -0.237 OA
ATOM     74  O   UNL A   1      47.881  25.029  37.059  1.00  0.00    -0.237 OA
ATOM     75  O   UNL A   1      48.790  27.095  38.050  1.00  0.00    -0.744 OA
ENDBRANCH  71  72
ENDBRANCH  52  66
BRANCH  53  76
ATOM     76  C   UNL A   1      36.826  33.024  31.020  1.00  0.00    -0.014 A 
ATOM     77  C   UNL A   1      35.490  32.754  31.366  1.00  0.00     0.010 A 
ATOM     78  C   UNL A   1      37.095  33.960  30.005  1.00  0.00     0.010 A 
ATOM     79  C   UNL A   1      34.443  33.400  30.701  1.00  0.00     0.020 A 
ATOM     80  C   UNL A   1      36.052  34.629  29.359  1.00  0.00     0.020 A 
ATOM     81  C   UNL A   1      34.731  34.339  29.707  1.00  0.00     0.054 A 
BRANCH  81  82
ATOM     82  S   UNL A   1      33.359  35.215  28.907  1.00  0.00     0.124 S 
ATOM     83  O   UNL A   1      34.059  36.233  28.131  1.00  0.00    -0.237 OA
ATOM     84  O   UNL A   1      32.720  34.155  28.131  1.00  0.00    -0.237 OA
ATOM     85  O   UNL A   1      32.570  35.714  30.031  1.00  0.00    -0.744 OA
ENDBRANCH  81  82
ENDBRANCH  53  76
BRANCH  65  86
ATOM     86  C   UNL A   1      39.961  34.159  37.142  1.00  0.00    -0.014 A 
ATOM     87  C   UNL A   1      40.664  35.377  37.146  1.00  0.00     0.010 A 
ATOM     88  C   UNL A   1      39.019  33.908  38.156  1.00  0.00     0.010 A 
ATOM     89  C   UNL A   1      40.468  36.302  38.174  1.00  0.00     0.020 A 
ATOM     90  C   UNL A   1      38.796  34.844  39.167  1.00  0.00     0.020 A 
ATOM     91  C   UNL A   1      39.538  36.027  39.182  1.00  0.00     0.054 A 
BRANCH  91  92
ATOM     92  S   UNL A   1      39.297  37.246  40.503  1.00  0.00     0.124 S 
ATOM     93  O   UNL A   1      38.952  36.397  41.640  1.00  0.00    -0.237 OA
ATOM     94  O   UNL A   1      40.601  37.900  40.578  1.00  0.00    -0.237 OA
ATOM     95  O   UNL A   1      38.212  38.087  40.002  1.00  0.00    -0.744 OA
ENDBRANCH  91  92
ENDBRANCH  65  86
ENDBRANCH  39  40
ENDBRANCH  31  34
ENDBRANCH  29  30
ENDBRANCH  28  29
ENDBRANCH  27  28
ENDBRANCH  26  27
ENDBRANCH   1  26
TORSDOF 22
ENDMDL
MODEL 2
REMARK VINA RESULT:      -9.5      6.016      8.181
REMARK SMILES CC[C@](C)(NC(=O)CCOc1ccc(Cl)c(Cl)c1)C(=O)NCCCCCCNC(=O)c1ccc(-c2c3nc(c(-c4ccc(S(=O)(=O)[O-])cc4)c4ccc([nH]4)c(-c4ccc(S(=O)(=O)[O-])cc4)c4nc(c(-c5ccc(S(=O)(=O)[O-])cc5)c5ccc2[nH]5)C=C4)C=C3)cc1
REMARK SMILES IDX 23 1 22 2 21 3 19 4 20 5 3 7 4 8 2 9 1 10 5 11 6 12 7 14
REMARK SMILES IDX 8 15 9 16 10 17 11 18 12 19 18 20 13 21 16 22 14 23 17 24
REMARK SMILES IDX 15 25 24 26 25 27 26 28 27 29 28 30 29 31 30 33 31 34 32 35
REMARK SMILES IDX 90 36 33 37 89 38 34 39 35 40 36 41 83 42 37 43 88 44 82 45
REMARK SMILES IDX 84 46 38 47 87 48 81 49 80 50 39 52 69 53 50 54 68 55 51 56
REMARK SMILES IDX 54 57 67 58 85 59 52 60 53 61 66 63 86 64 55 65 40 66 41 67
REMARK SMILES IDX 49 68 42 69 48 70 43 71 44 72 45 73 46 74 47 75 70 76 71 77
REMARK SMILES IDX 79 78 72 79 78 80 73 81 74 82 75 83 76 84 77 85 56 86 57 87
REMARK SMILES IDX 65 88 58 89 64 90 59 91 60 92 61 93 62 94 63 95
REMARK H PARENT 21 6 5 13 28 32 84 51 54 62
REMARK Flexibility Score: inf
ROOT
ATOM      1  C   UNL A   1      37.258  20.687  24.787  1.00  0.00     0.021 C 
ENDROOT
BRANCH   1   2
ATOM      2  C   UNL A   1      35.754  20.583  25.024  1.00  0.00     0.116 C 
BRANCH   2   3
ATOM      3  N   UNL A   1      35.363  21.126  26.309  1.00  0.00    -0.354 N 
ATOM      4  C   UNL A   1      34.174  21.632  26.733  1.00  0.00     0.245 C 
ATOM      5  O   UNL A   1      34.084  21.915  27.931  1.00  0.00    -0.272 OA
ATOM      6  H   UNL A   1      36.076  21.129  26.988  1.00  0.00     0.163 HD
BRANCH   4   7
ATOM      7  C   UNL A   1      32.955  21.728  25.770  1.00  0.00     0.116 C 
ATOM      8  C   UNL A   1      32.744  20.365  25.108  1.00  0.00     0.045 C 
BRANCH   7   9
ATOM      9  C   UNL A   1      33.295  22.846  24.718  1.00  0.00     0.035 C 
ATOM     10  C   UNL A   1      33.138  22.491  23.244  1.00  0.00     0.007 C 
ENDBRANCH   7   9
BRANCH   7  11
ATOM     11  N   UNL A   1      31.726  22.140  26.505  1.00  0.00    -0.342 N 
ATOM     12  C   UNL A   1      31.098  23.335  26.663  1.00  0.00     0.224 C 
ATOM     13  H   UNL A   1      31.279  21.396  26.969  1.00  0.00     0.164 HD
ATOM     14  O   UNL A   1      30.069  23.344  27.347  1.00  0.00    -0.275 OA
BRANCH  12  15
ATOM     15  C   UNL A   1      31.565  24.593  25.970  1.00  0.00     0.141 C 
BRANCH  15  16
ATOM     16  C   UNL A   1      30.466  25.294  25.168  1.00  0.00     0.239 C 
BRANCH  16  17
ATOM     17  O   UNL A   1      30.872  25.766  23.875  1.00  0.00    -0.493 OA
BRANCH  17  18
ATOM     18  C   UNL A   1      30.519  27.031  23.497  1.00  0.00     0.120 A 
ATOM     19  C   UNL A   1      31.374  27.984  22.953  1.00  0.00     0.048 A 
ATOM     20  C   UNL A   1      29.158  27.327  23.610  1.00  0.00     0.068 A 
ATOM     21  C   UNL A   1      30.856  29.127  22.340  1.00  0.00     0.026 A 
ATOM     22  C   UNL A   1      28.637  28.493  23.037  1.00  0.00     0.063 A 
ATOM     23  C   UNL A   1      29.484  29.372  22.356  1.00  0.00     0.059 A 
ATOM     24  Cl  UNL A   1      26.931  28.747  23.137  1.00  0.00    -0.083 Cl
ATOM     25  Cl  UNL A   1      28.901  30.744  21.487  1.00  0.00    -0.083 Cl
ENDBRANCH  17  18
ENDBRANCH  16  17
ENDBRANCH  15  16
ENDBRANCH  12  15
ENDBRANCH   7  11
ENDBRANCH   4   7
ENDBRANCH   2   3
ENDBRANCH   1   2
BRANCH   1  26
ATOM     26  C   UNL A   1      37.905  21.944  25.376  1.00  0.00     0.002 C 
BRANCH  26  27
ATOM     27  C   UNL A   1      39.237  21.699  26.087  1.00  0.00     0.002 C 
BRANCH  27  28
ATOM     28  C   UNL A   1      39.736  20.255  26.022  1.00  0.00     0.021 C 
BRANCH  28  29
ATOM     29  C   UNL A   1      41.001  19.999  26.828  1.00  0.00     0.116 C 
BRANCH  29  30
ATOM     30  N   UNL A   1      42.062  19.472  25.988  1.00  0.00    -0.352 N 
ATOM     31  C   UNL A   1      43.086  20.157  25.394  1.00  0.00     0.251 C 
ATOM     32  H   UNL A   1      42.042  18.500  25.828  1.00  0.00     0.163 HD
ATOM     33  O   UNL A   1      43.751  19.629  24.500  1.00  0.00    -0.269 OA
BRANCH  31  34
ATOM     34  C   UNL A   1      43.374  21.537  25.827  1.00  0.00     0.039 A 
ATOM     35  C   UNL A   1      43.964  21.747  27.074  1.00  0.00     0.014 A 
ATOM     36  C   UNL A   1      43.079  22.618  24.988  1.00  0.00     0.014 A 
ATOM     37  C   UNL A   1      44.293  23.045  27.463  1.00  0.00     0.010 A 
ATOM     38  C   UNL A   1      43.484  23.900  25.345  1.00  0.00     0.010 A 
ATOM     39  C   UNL A   1      44.080  24.129  26.593  1.00  0.00    -0.014 A 
BRANCH  39  40
ATOM     40  C   UNL A   1      44.484  25.501  26.985  1.00  0.00     0.031 A 
ATOM     41  C   UNL A   1      45.888  25.982  26.737  1.00  0.00     0.074 A 
ATOM     42  C   UNL A   1      43.587  26.305  27.588  1.00  0.00     0.049 A 
ATOM     43  N   UNL A   1      46.401  27.165  26.957  1.00  0.00    -0.248 NA
ATOM     44  C   UNL A   1      46.845  25.004  26.194  1.00  0.00     0.031 C 
ATOM     45  C   UNL A   1      42.212  25.931  27.930  1.00  0.00     0.029 A 
ATOM     46  N   UNL A   1      43.690  27.606  28.008  1.00  0.00    -0.354 N 
ATOM     47  C   UNL A   1      47.739  27.072  26.590  1.00  0.00     0.074 A 
ATOM     48  C   UNL A   1      47.971  25.702  26.189  1.00  0.00     0.031 C 
ATOM     49  C   UNL A   1      41.585  26.995  28.455  1.00  0.00     0.029 A 
ATOM     50  C   UNL A   1      42.521  28.112  28.522  1.00  0.00     0.049 A 
ATOM     51  H   UNL A   1      44.523  28.128  27.946  1.00  0.00     0.167 HD
ATOM     52  C   UNL A   1      48.684  28.042  26.572  1.00  0.00     0.031 A 
ATOM     53  C   UNL A   1      42.229  29.344  28.985  1.00  0.00     0.031 A 
ATOM     54  C   UNL A   1      48.445  29.403  26.975  1.00  0.00     0.049 A 
ATOM     55  C   UNL A   1      43.295  30.403  28.955  1.00  0.00     0.074 A 
ATOM     56  C   UNL A   1      49.313  30.480  26.929  1.00  0.00     0.029 A 
ATOM     57  N   UNL A   1      47.254  29.873  27.510  1.00  0.00    -0.354 N 
ATOM     58  N   UNL A   1      44.529  30.320  28.519  1.00  0.00    -0.248 NA
ATOM     59  C   UNL A   1      42.920  31.726  29.469  1.00  0.00     0.031 C 
ATOM     60  C   UNL A   1      48.668  31.585  27.497  1.00  0.00     0.029 A 
ATOM     61  C   UNL A   1      47.375  31.214  27.835  1.00  0.00     0.049 A 
ATOM     62  H   UNL A   1      46.441  29.333  27.640  1.00  0.00     0.167 HD
ATOM     63  C   UNL A   1      45.074  31.588  28.688  1.00  0.00     0.074 A 
ATOM     64  C   UNL A   1      44.026  32.422  29.242  1.00  0.00     0.031 C 
ATOM     65  C   UNL A   1      46.330  32.023  28.411  1.00  0.00     0.031 A 
BRANCH  52  66
ATOM     66  C   UNL A   1      50.070  27.654  26.122  1.00  0.00    -0.014 A 
ATOM     67  C   UNL A   1      50.445  27.714  24.766  1.00  0.00     0.010 A 
ATOM     68  C   UNL A   1      51.021  27.240  27.072  1.00  0.00     0.010 A 
ATOM     69  C   UNL A   1      51.722  27.317  24.364  1.00  0.00     0.020 A 
ATOM     70  C   UNL A   1      52.311  26.872  26.678  1.00  0.00     0.020 A 
ATOM     71  C   UNL A   1      52.647  26.893  25.324  1.00  0.00     0.054 A 
BRANCH  71  72
ATOM     72  S   UNL A   1      54.299  26.386  24.774  1.00  0.00     0.124 S 
ATOM     73  O   UNL A   1      55.101  27.561  25.107  1.00  0.00    -0.237 OA
ATOM     74  O   UNL A   1      54.557  25.199  25.585  1.00  0.00    -0.237 OA
ATOM     75  O   UNL A   1      54.127  26.134  23.345  1.00  0.00    -0.744 OA
ENDBRANCH  71  72
ENDBRANCH  52  66
BRANCH  53  76
ATOM     76  C   UNL A   1      40.856  29.644  29.475  1.00  0.00    -0.014 A 
ATOM     77  C   UNL A   1      40.589  29.694  30.854  1.00  0.00     0.010 A 
ATOM     78  C   UNL A   1      39.817  29.913  28.565  1.00  0.00     0.010 A 
ATOM     79  C   UNL A   1      39.304  29.997  31.316  1.00  0.00     0.020 A 
ATOM     80  C   UNL A   1      38.539  30.244  29.024  1.00  0.00     0.020 A 
ATOM     81  C   UNL A   1      38.289  30.277  30.397  1.00  0.00     0.054 A 
BRANCH  81  82
ATOM     82  S   UNL A   1      36.648  30.736  31.020  1.00  0.00     0.124 S 
ATOM     83  O   UNL A   1      35.856  30.769  29.794  1.00  0.00    -0.237 OA
ATOM     84  O   UNL A   1      36.345  29.642  31.940  1.00  0.00    -0.237 OA
ATOM     85  O   UNL A   1      36.873  32.031  31.657  1.00  0.00    -0.744 OA
ENDBRANCH  81  82
ENDBRANCH  53  76
BRANCH  65  86
ATOM     86  C   UNL A   1      46.629  33.473  28.695  1.00  0.00    -0.014 A 
ATOM     87  C   UNL A   1      46.426  34.463  27.717  1.00  0.00     0.010 A 
ATOM     88  C   UNL A   1      47.104  33.850  29.964  1.00  0.00     0.010 A 
ATOM     89  C   UNL A   1      46.745  35.796  27.985  1.00  0.00     0.020 A 
ATOM     90  C   UNL A   1      47.392  35.187  30.247  1.00  0.00     0.020 A 
ATOM     91  C   UNL A   1      47.231  36.149  29.249  1.00  0.00     0.054 A 
BRANCH  91  92
ATOM     92  S   UNL A   1      47.631  37.888  29.575  1.00  0.00     0.124 S 
ATOM     93  O   UNL A   1      46.313  38.459  29.835  1.00  0.00    -0.237 OA
ATOM     94  O   UNL A   1      48.518  37.800  30.733  1.00  0.00    -0.237 OA
ATOM     95  O   UNL A   1      48.271  38.333  28.340  1.00  0.00    -0.744 OA
ENDBRANCH  91  92
ENDBRANCH  65  86
ENDBRANCH  39  40
ENDBRANCH  31  34
ENDBRANCH  29  30
ENDBRANCH  28  29
ENDBRANCH  27  28
ENDBRANCH  26  27
ENDBRANCH   1  26
TORSDOF 22
ENDMDL
MODEL 3
REMARK VINA RESULT:      -9.2      6.221     10.378
REMARK SMILES CC[C@](C)(NC(=O)CCOc1ccc(Cl)c(Cl)c1)C(=O)NCCCCCCNC(=O)c1ccc(-c2c3nc(c(-c4ccc(S(=O)(=O)[O-])cc4)c4ccc([nH]4)c(-c4ccc(S(=O)(=O)[O-])cc4)c4nc(c(-c5ccc(S(=O)(=O)[O-])cc5)c5ccc2[nH]5)C=C4)C=C3)cc1
REMARK SMILES IDX 23 1 22 2 21 3 19 4 20 5 3 7 4 8 2 9 1 10 5 11 6 12 7 14
REMARK SMILES IDX 8 15 9 16 10 17 11 18 12 19 18 20 13 21 16 22 14 23 17 24
REMARK SMILES IDX 15 25 24 26 25 27 26 28 27 29 28 30 29 31 30 33 31 34 32 35
REMARK SMILES IDX 90 36 33 37 89 38 34 39 35 40 36 41 83 42 37 43 88 44 82 45
REMARK SMILES IDX 84 46 38 47 87 48 81 49 80 50 39 52 69 53 50 54 68 55 51 56
REMARK SMILES IDX 54 57 67 58 85 59 52 60 53 61 66 63 86 64 55 65 40 66 41 67
REMARK SMILES IDX 49 68 42 69 48 70 43 71 44 72 45 73 46 74 47 75 70 76 71 77
REMARK SMILES IDX 79 78 72 79 78 80 73 81 74 82 75 83 76 84 77 85 56 86 57 87
REMARK SMILES IDX 65 88 58 89 64 90 59 91 60 92 61 93 62 94 63 95
REMARK H PARENT 21 6 5 13 28 32 84 51 54 62
REMARK Flexibility Score: inf
ROOT
ATOM      1  C   UNL A   1      37.323  20.250  24.937  1.00  0.00     0.021 C 
ENDROOT
BRANCH   1   2
ATOM      2  C   UNL A   1      35.835  20.588  24.968  1.00  0.00     0.116 C 
BRANCH   2   3
ATOM      3  N   UNL A   1      35.433  21.177  26.230  1.00  0.00    -0.354 N 
ATOM      4  C   UNL A   1      34.206  21.551  26.683  1.00  0.00     0.245 C 
ATOM      5  O   UNL A   1      34.135  21.916  27.860  1.00  0.00    -0.272 OA
ATOM      6  H   UNL A   1      36.170  21.331  26.864  1.00  0.00     0.163 HD
BRANCH   4   7
ATOM      7  C   UNL A   1      32.942  21.403  25.788  1.00  0.00     0.116 C 
ATOM      8  C   UNL A   1      32.808  19.938  25.366  1.00  0.00     0.045 C 
BRANCH   7   9
ATOM      9  C   UNL A   1      33.148  22.354  24.552  1.00  0.00     0.035 C 
ATOM     10  C   UNL A   1      32.942  21.754  23.166  1.00  0.00     0.007 C 
ENDBRANCH   7   9
BRANCH   7  11
ATOM     11  N   UNL A   1      31.719  21.844  26.516  1.00  0.00    -0.342 N 
ATOM     12  C   UNL A   1      31.239  23.067  26.864  1.00  0.00     0.224 C 
ATOM     13  H   UNL A   1      31.143  21.099  26.801  1.00  0.00     0.164 HD
ATOM     14  O   UNL A   1      30.167  23.097  27.476  1.00  0.00    -0.275 OA
BRANCH  12  15
ATOM     15  C   UNL A   1      31.921  24.351  26.456  1.00  0.00     0.141 C 
BRANCH  15  16
ATOM     16  C   UNL A   1      31.142  25.609  26.847  1.00  0.00     0.239 C 
BRANCH  16  17
ATOM     17  O   UNL A   1      29.959  25.851  26.072  1.00  0.00    -0.493 OA
BRANCH  17  18
ATOM     18  C   UNL A   1      30.061  26.608  24.938  1.00  0.00     0.120 A 
ATOM     19  C   UNL A   1      29.077  26.749  23.965  1.00  0.00     0.048 A 
ATOM     20  C   UNL A   1      31.239  27.351  24.823  1.00  0.00     0.068 A 
ATOM     21  C   UNL A   1      29.171  27.762  23.009  1.00  0.00     0.026 A 
ATOM     22  C   UNL A   1      31.360  28.339  23.839  1.00  0.00     0.063 A 
ATOM     23  C   UNL A   1      30.300  28.579  22.960  1.00  0.00     0.059 A 
ATOM     24  Cl  UNL A   1      32.808  29.281  23.816  1.00  0.00    -0.083 Cl
ATOM     25  Cl  UNL A   1      30.304  29.880  21.827  1.00  0.00    -0.083 Cl
ENDBRANCH  17  18
ENDBRANCH  16  17
ENDBRANCH  15  16
ENDBRANCH  12  15
ENDBRANCH   7  11
ENDBRANCH   4   7
ENDBRANCH   2   3
ENDBRANCH   1   2
BRANCH   1  26
ATOM     26  C   UNL A   1      38.245  21.426  25.275  1.00  0.00     0.002 C 
BRANCH  26  27
ATOM     27  C   UNL A   1      39.363  21.092  26.264  1.00  0.00     0.002 C 
BRANCH  27  28
ATOM     28  C   UNL A   1      40.174  19.846  25.909  1.00  0.00     0.021 C 
BRANCH  28  29
ATOM     29  C   UNL A   1      41.582  19.836  26.489  1.00  0.00     0.116 C 
BRANCH  29  30
ATOM     30  N   UNL A   1      42.549  19.367  25.514  1.00  0.00    -0.352 N 
ATOM     31  C   UNL A   1      43.520  20.088  24.874  1.00  0.00     0.251 C 
ATOM     32  H   UNL A   1      42.502  18.410  25.286  1.00  0.00     0.163 HD
ATOM     33  O   UNL A   1      44.088  19.624  23.884  1.00  0.00    -0.269 OA
BRANCH  31  34
ATOM     34  C   UNL A   1      43.866  21.431  25.377  1.00  0.00     0.039 A 
ATOM     35  C   UNL A   1      44.735  21.546  26.461  1.00  0.00     0.014 A 
ATOM     36  C   UNL A   1      43.346  22.573  24.758  1.00  0.00     0.014 A 
ATOM     37  C   UNL A   1      45.113  22.813  26.902  1.00  0.00     0.010 A 
ATOM     38  C   UNL A   1      43.789  23.833  25.147  1.00  0.00     0.010 A 
ATOM     39  C   UNL A   1      44.664  23.966  26.234  1.00  0.00    -0.014 A 
BRANCH  39  40
ATOM     40  C   UNL A   1      45.113  25.311  26.668  1.00  0.00     0.031 A 
ATOM     41  C   UNL A   1      44.239  26.160  27.551  1.00  0.00     0.074 A 
ATOM     42  C   UNL A   1      46.304  25.777  26.242  1.00  0.00     0.049 A 
ATOM     43  N   UNL A   1      44.493  27.331  28.076  1.00  0.00    -0.248 NA
ATOM     44  C   UNL A   1      42.899  25.639  27.866  1.00  0.00     0.031 C 
ATOM     45  C   UNL A   1      47.216  25.068  25.340  1.00  0.00     0.029 A 
ATOM     46  N   UNL A   1      46.960  26.948  26.523  1.00  0.00    -0.354 N 
ATOM     47  C   UNL A   1      43.345  27.690  28.773  1.00  0.00     0.074 A 
ATOM     48  C   UNL A   1      42.374  26.640  28.556  1.00  0.00     0.031 C 
ATOM     49  C   UNL A   1      48.334  25.792  25.187  1.00  0.00     0.029 A 
ATOM     50  C   UNL A   1      48.205  27.032  25.946  1.00  0.00     0.049 A 
ATOM     51  H   UNL A   1      46.576  27.659  27.084  1.00  0.00     0.167 HD
ATOM     52  C   UNL A   1      43.125  28.785  29.539  1.00  0.00     0.031 A 
ATOM     53  C   UNL A   1      49.145  27.993  26.031  1.00  0.00     0.031 A 
ATOM     54  C   UNL A   1      44.096  29.826  29.749  1.00  0.00     0.049 A 
ATOM     55  C   UNL A   1      48.877  29.200  26.886  1.00  0.00     0.074 A 
ATOM     56  C   UNL A   1      44.000  30.943  30.562  1.00  0.00     0.029 A 
ATOM     57  N   UNL A   1      45.337  29.887  29.132  1.00  0.00    -0.354 N 
ATOM     58  N   UNL A   1      47.820  29.478  27.612  1.00  0.00    -0.248 NA
ATOM     59  C   UNL A   1      49.937  30.214  26.943  1.00  0.00     0.031 C 
ATOM     60  C   UNL A   1      45.156  31.712  30.385  1.00  0.00     0.029 A 
ATOM     61  C   UNL A   1      46.002  31.040  29.515  1.00  0.00     0.049 A 
ATOM     62  H   UNL A   1      45.694  29.210  28.513  1.00  0.00     0.167 HD
ATOM     63  C   UNL A   1      48.097  30.693  28.229  1.00  0.00     0.074 A 
ATOM     64  C   UNL A   1      49.429  31.080  27.809  1.00  0.00     0.031 C 
ATOM     65  C   UNL A   1      47.318  31.424  29.066  1.00  0.00     0.031 A 
BRANCH  52  66
ATOM     66  C   UNL A   1      41.769  28.919  30.187  1.00  0.00    -0.014 A 
ATOM     67  C   UNL A   1      41.475  28.287  31.410  1.00  0.00     0.010 A 
ATOM     68  C   UNL A   1      40.779  29.706  29.573  1.00  0.00     0.010 A 
ATOM     69  C   UNL A   1      40.203  28.393  31.977  1.00  0.00     0.020 A 
ATOM     70  C   UNL A   1      39.513  29.842  30.152  1.00  0.00     0.020 A 
ATOM     71  C   UNL A   1      39.227  29.168  31.340  1.00  0.00     0.054 A 
BRANCH  71  72
ATOM     72  S   UNL A   1      37.584  29.292  32.100  1.00  0.00     0.124 S 
ATOM     73  O   UNL A   1      36.706  29.165  30.939  1.00  0.00    -0.237 OA
ATOM     74  O   UNL A   1      37.572  28.160  33.024  1.00  0.00    -0.237 OA
ATOM     75  O   UNL A   1      37.593  30.609  32.732  1.00  0.00    -0.744 OA
ENDBRANCH  71  72
ENDBRANCH  52  66
BRANCH  53  76
ATOM     76  C   UNL A   1      50.439  27.828  25.315  1.00  0.00    -0.014 A 
ATOM     77  C   UNL A   1      51.544  27.253  25.966  1.00  0.00     0.010 A 
ATOM     78  C   UNL A   1      50.564  28.216  23.968  1.00  0.00     0.010 A 
ATOM     79  C   UNL A   1      52.755  27.079  25.288  1.00  0.00     0.020 A 
ATOM     80  C   UNL A   1      51.763  28.017  23.278  1.00  0.00     0.020 A 
ATOM     81  C   UNL A   1      52.853  27.456  23.946  1.00  0.00     0.054 A 
BRANCH  81  82
ATOM     82  S   UNL A   1      54.412  27.157  23.066  1.00  0.00     0.124 S 
ATOM     83  O   UNL A   1      53.959  26.436  21.880  1.00  0.00    -0.237 OA
ATOM     84  O   UNL A   1      54.906  28.512  22.833  1.00  0.00    -0.237 OA
ATOM     85  O   UNL A   1      55.196  26.371  24.016  1.00  0.00    -0.744 OA
ENDBRANCH  81  82
ENDBRANCH  53  76
BRANCH  65  86
ATOM     86  C   UNL A   1      47.899  32.712  29.590  1.00  0.00    -0.014 A 
ATOM     87  C   UNL A   1      48.652  32.741  30.779  1.00  0.00     0.010 A 
ATOM     88  C   UNL A   1      47.703  33.907  28.875  1.00  0.00     0.010 A 
ATOM     89  C   UNL A   1      49.151  33.950  31.269  1.00  0.00     0.020 A 
ATOM     90  C   UNL A   1      48.228  35.112  29.345  1.00  0.00     0.020 A 
ATOM     91  C   UNL A   1      48.931  35.130  30.551  1.00  0.00     0.054 A 
BRANCH  91  92
ATOM     92  S   UNL A   1      49.594  36.686  31.205  1.00  0.00     0.124 S 
ATOM     93  O   UNL A   1      49.652  37.519  30.007  1.00  0.00    -0.237 OA
ATOM     94  O   UNL A   1      48.590  37.073  32.192  1.00  0.00    -0.237 OA
ATOM     95  O   UNL A   1      50.890  36.303  31.761  1.00  0.00    -0.744 OA
ENDBRANCH  91  92
ENDBRANCH  65  86
ENDBRANCH  39  40
ENDBRANCH  31  34
ENDBRANCH  29  30
ENDBRANCH  28  29
ENDBRANCH  27  28
ENDBRANCH  26  27
ENDBRANCH   1  26
TORSDOF 22
ENDMDL
