MODEL 1
REMARK VINA RESULT:      -9.3      0.000      0.000
REMARK SMILES Cc1cc(C(=O)N2CCC[C@@H]2C(C)C)sc1/C=C/C(=O)NCCCCCCNC(=O)c1ccc(-c2c3nc(c(-c4ccc(S(=O)(=O)[O-])cc4)c4ccc([nH]4)c(-c4ccc(S(=O)(=O)[O-])cc4)c4nc(c(-c5ccc(S(=O)(=O)[O-])cc5)c5ccc2[nH]5)C=C4)C=C3)cc1
REMARK SMILES IDX 24 1 23 2 22 3 21 4 19 5 20 6 18 8 17 9 16 10 1 11 2 12 3 13
REMARK SMILES IDX 4 14 15 15 5 16 6 17 7 18 8 19 11 20 9 21 10 22 12 23 13 24
REMARK SMILES IDX 14 25 25 26 26 27 27 28 28 29 29 30 30 32 31 33 32 34 90 35
REMARK SMILES IDX 33 36 89 37 34 38 35 39 36 40 83 41 37 42 88 43 82 44 84 45
REMARK SMILES IDX 38 46 87 47 81 48 80 49 39 51 69 52 50 53 68 54 51 55 54 56
REMARK SMILES IDX 67 57 85 58 52 59 53 60 66 62 86 63 55 64 40 65 41 66 49 67
REMARK SMILES IDX 42 68 48 69 43 70 44 71 45 72 46 73 47 74 70 75 71 76 79 77
REMARK SMILES IDX 72 78 78 79 73 80 74 81 75 82 76 83 77 84 56 85 57 86 65 87
REMARK SMILES IDX 58 88 64 89 59 90 60 91 61 92 62 93 63 94
REMARK H PARENT 21 7 28 31 84 50 54 61
REMARK Flexibility Score: inf
ROOT
ATOM      1  C   UNL A   1      42.106  18.881  26.410  1.00  0.00     0.002 C 
ENDROOT
BRANCH   1   2
ATOM      2  C   UNL A   1      43.554  18.516  26.061  1.00  0.00     0.021 C 
BRANCH   2   3
ATOM      3  C   UNL A   1      44.074  19.215  24.805  1.00  0.00     0.116 C 
BRANCH   3   4
ATOM      4  N   UNL A   1      45.515  19.070  24.703  1.00  0.00    -0.353 N 
ATOM      5  C   UNL A   1      46.485  20.010  24.561  1.00  0.00     0.244 C 
ATOM      6  O   UNL A   1      47.668  19.679  24.582  1.00  0.00    -0.270 OA
ATOM      7  H   UNL A   1      45.842  18.142  24.744  1.00  0.00     0.163 HD
BRANCH   5   8
ATOM      8  C   UNL A   1      46.135  21.441  24.473  1.00  0.00     0.072 C 
ATOM      9  C   UNL A   1      45.978  22.244  25.537  1.00  0.00     0.025 C 
BRANCH   9  10
ATOM     10  C   UNL A   1      45.588  23.611  25.408  1.00  0.00     0.031 A 
ATOM     11  C   UNL A   1      43.034  23.397  25.163  1.00  0.00     0.046 C 
ATOM     12  C   UNL A   1      44.326  24.151  25.188  1.00  0.00    -0.032 A 
ATOM     13  C   UNL A   1      44.391  25.576  24.997  1.00  0.00     0.029 A 
ATOM     14  C   UNL A   1      45.666  26.095  25.126  1.00  0.00     0.093 A 
ATOM     15  S   UNL A   1      46.768  24.852  25.500  1.00  0.00    -0.130 S 
BRANCH  14  16
ATOM     16  C   UNL A   1      46.040  27.511  25.091  1.00  0.00     0.264 C 
ATOM     17  O   UNL A   1      46.287  28.101  24.040  1.00  0.00    -0.268 OA
BRANCH  16  18
ATOM     18  N   UNL A   1      45.966  28.211  26.288  1.00  0.00    -0.335 N 
ATOM     19  C   UNL A   1      44.764  28.927  26.670  1.00  0.00     0.120 C 
ATOM     20  C   UNL A   1      46.748  27.844  27.476  1.00  0.00     0.088 C 
ATOM     21  C   UNL A   1      45.216  29.713  27.874  1.00  0.00     0.024 C 
ATOM     22  C   UNL A   1      46.118  28.715  28.595  1.00  0.00     0.027 C 
BRANCH  20  23
ATOM     23  C   UNL A   1      48.283  28.059  27.307  1.00  0.00     0.005 C 
ATOM     24  C   UNL A   1      48.688  29.526  27.504  1.00  0.00     0.009 C 
ATOM     25  C   UNL A   1      49.110  27.224  28.299  1.00  0.00     0.009 C 
ENDBRANCH  20  23
ENDBRANCH  16  18
ENDBRANCH  14  16
ENDBRANCH   9  10
ENDBRANCH   5   8
ENDBRANCH   3   4
ENDBRANCH   2   3
ENDBRANCH   1   2
BRANCH   1  26
ATOM     26  C   UNL A   1      41.951  19.921  27.528  1.00  0.00     0.002 C 
BRANCH  26  27
ATOM     27  C   UNL A   1      40.631  20.698  27.518  1.00  0.00     0.021 C 
BRANCH  27  28
ATOM     28  C   UNL A   1      40.753  22.158  27.090  1.00  0.00     0.116 C 
BRANCH  28  29
ATOM     29  N   UNL A   1      39.686  22.547  26.184  1.00  0.00    -0.352 N 
ATOM     30  C   UNL A   1      38.930  23.693  26.173  1.00  0.00     0.251 C 
ATOM     31  H   UNL A   1      39.474  21.896  25.477  1.00  0.00     0.163 HD
ATOM     32  O   UNL A   1      37.932  23.761  25.462  1.00  0.00    -0.269 OA
BRANCH  30  33
ATOM     33  C   UNL A   1      39.311  24.840  27.027  1.00  0.00     0.039 A 
ATOM     34  C   UNL A   1      38.762  24.940  28.308  1.00  0.00     0.014 A 
ATOM     35  C   UNL A   1      40.183  25.827  26.556  1.00  0.00     0.014 A 
ATOM     36  C   UNL A   1      39.124  26.005  29.137  1.00  0.00     0.010 A 
ATOM     37  C   UNL A   1      40.584  26.859  27.403  1.00  0.00     0.010 A 
ATOM     38  C   UNL A   1      40.055  26.960  28.699  1.00  0.00    -0.014 A 
BRANCH  38  39
ATOM     39  C   UNL A   1      40.483  28.075  29.580  1.00  0.00     0.031 A 
ATOM     40  C   UNL A   1      39.600  29.279  29.761  1.00  0.00     0.074 A 
ATOM     41  C   UNL A   1      41.695  28.033  30.168  1.00  0.00     0.049 A 
ATOM     42  N   UNL A   1      39.830  30.376  30.437  1.00  0.00    -0.248 NA
ATOM     43  C   UNL A   1      38.299  29.257  29.074  1.00  0.00     0.031 C 
ATOM     44  C   UNL A   1      42.660  26.938  30.042  1.00  0.00     0.029 A 
ATOM     45  N   UNL A   1      42.325  28.940  30.981  1.00  0.00    -0.354 N 
ATOM     46  C   UNL A   1      38.716  31.182  30.240  1.00  0.00     0.074 A 
ATOM     47  C   UNL A   1      37.826  30.463  29.352  1.00  0.00     0.031 C 
ATOM     48  C   UNL A   1      43.752  27.231  30.769  1.00  0.00     0.029 A 
ATOM     49  C   UNL A   1      43.578  28.543  31.385  1.00  0.00     0.049 A 
ATOM     50  H   UNL A   1      41.919  29.795  31.252  1.00  0.00     0.167 HD
ATOM     51  C   UNL A   1      38.448  32.404  30.761  1.00  0.00     0.031 A 
ATOM     52  C   UNL A   1      44.487  29.165  32.159  1.00  0.00     0.031 A 
ATOM     53  C   UNL A   1      39.324  33.112  31.655  1.00  0.00     0.049 A 
ATOM     54  C   UNL A   1      44.165  30.515  32.735  1.00  0.00     0.074 A 
ATOM     55  C   UNL A   1      39.117  34.330  32.280  1.00  0.00     0.029 A 
ATOM     56  N   UNL A   1      40.575  32.666  32.054  1.00  0.00    -0.354 N 
ATOM     57  N   UNL A   1      43.082  31.238  32.579  1.00  0.00    -0.248 NA
ATOM     58  C   UNL A   1      45.184  31.129  33.597  1.00  0.00     0.031 C 
ATOM     59  C   UNL A   1      40.259  34.636  33.029  1.00  0.00     0.029 A 
ATOM     60  C   UNL A   1      41.159  33.591  32.903  1.00  0.00     0.049 A 
ATOM     61  H   UNL A   1      40.987  31.817  31.774  1.00  0.00     0.167 HD
ATOM     62  C   UNL A   1      43.280  32.382  33.342  1.00  0.00     0.074 A 
ATOM     63  C   UNL A   1      44.581  32.252  33.966  1.00  0.00     0.031 C 
ATOM     64  C   UNL A   1      42.456  33.446  33.511  1.00  0.00     0.031 A 
BRANCH  51  65
ATOM     65  C   UNL A   1      37.149  33.053  30.362  1.00  0.00    -0.014 A 
ATOM     66  C   UNL A   1      37.018  33.713  29.128  1.00  0.00     0.010 A 
ATOM     67  C   UNL A   1      36.042  32.989  31.228  1.00  0.00     0.010 A 
ATOM     68  C   UNL A   1      35.819  34.345  28.788  1.00  0.00     0.020 A 
ATOM     69  C   UNL A   1      34.833  33.599  30.880  1.00  0.00     0.020 A 
ATOM     70  C   UNL A   1      34.736  34.292  29.672  1.00  0.00     0.054 A 
BRANCH  70  71
ATOM     71  S   UNL A   1      33.190  35.120  29.210  1.00  0.00     0.124 S 
ATOM     72  O   UNL A   1      33.679  36.393  28.684  1.00  0.00    -0.237 OA
ATOM     73  O   UNL A   1      32.618  34.212  28.220  1.00  0.00    -0.237 OA
ATOM     74  O   UNL A   1      32.456  35.207  30.469  1.00  0.00    -0.744 OA
ENDBRANCH  70  71
ENDBRANCH  51  65
BRANCH  52  75
ATOM     75  C   UNL A   1      45.783  28.499  32.451  1.00  0.00    -0.014 A 
ATOM     76  C   UNL A   1      45.868  27.528  33.464  1.00  0.00     0.010 A 
ATOM     77  C   UNL A   1      46.929  28.807  31.697  1.00  0.00     0.010 A 
ATOM     78  C   UNL A   1      47.080  26.881  33.723  1.00  0.00     0.020 A 
ATOM     79  C   UNL A   1      48.137  28.146  31.939  1.00  0.00     0.020 A 
ATOM     80  C   UNL A   1      48.206  27.192  32.956  1.00  0.00     0.054 A 
BRANCH  80  81
ATOM     81  S   UNL A   1      49.750  26.288  33.258  1.00  0.00     0.124 S 
ATOM     82  O   UNL A   1      50.076  26.691  34.621  1.00  0.00    -0.237 OA
ATOM     83  O   UNL A   1      49.343  24.896  33.089  1.00  0.00    -0.237 OA
ATOM     84  O   UNL A   1      50.647  26.794  32.221  1.00  0.00    -0.744 OA
ENDBRANCH  80  81
ENDBRANCH  52  75
BRANCH  64  85
ATOM     85  C   UNL A   1      42.929  34.543  34.425  1.00  0.00    -0.014 A 
ATOM     86  C   UNL A   1      42.711  34.475  35.812  1.00  0.00     0.010 A 
ATOM     87  C   UNL A   1      43.646  35.631  33.894  1.00  0.00     0.010 A 
ATOM     88  C   UNL A   1      43.177  35.490  36.650  1.00  0.00     0.020 A 
ATOM     89  C   UNL A   1      44.133  36.637  34.731  1.00  0.00     0.020 A 
ATOM     90  C   UNL A   1      43.883  36.567  36.104  1.00  0.00     0.054 A 
BRANCH  90  91
ATOM     91  S   UNL A   1      44.521  37.851  37.214  1.00  0.00     0.124 S 
ATOM     92  O   UNL A   1      45.630  37.162  37.869  1.00  0.00    -0.237 OA
ATOM     93  O   UNL A   1      44.902  38.919  36.292  1.00  0.00    -0.237 OA
ATOM     94  O   UNL A   1      43.382  38.159  38.076  1.00  0.00    -0.744 OA
ENDBRANCH  90  91
ENDBRANCH  64  85
ENDBRANCH  38  39
ENDBRANCH  30  33
ENDBRANCH  28  29
ENDBRANCH  27  28
ENDBRANCH  26  27
ENDBRANCH   1  26
TORSDOF 20
ENDMDL
MODEL 2
REMARK VINA RESULT:      -9.1      3.567      6.688
REMARK SMILES Cc1cc(C(=O)N2CCC[C@@H]2C(C)C)sc1/C=C/C(=O)NCCCCCCNC(=O)c1ccc(-c2c3nc(c(-c4ccc(S(=O)(=O)[O-])cc4)c4ccc([nH]4)c(-c4ccc(S(=O)(=O)[O-])cc4)c4nc(c(-c5ccc(S(=O)(=O)[O-])cc5)c5ccc2[nH]5)C=C4)C=C3)cc1
REMARK SMILES IDX 24 1 23 2 22 3 21 4 19 5 20 6 18 8 17 9 16 10 1 11 2 12 3 13
REMARK SMILES IDX 4 14 15 15 5 16 6 17 7 18 8 19 11 20 9 21 10 22 12 23 13 24
REMARK SMILES IDX 14 25 25 26 26 27 27 28 28 29 29 30 30 32 31 33 32 34 90 35
REMARK SMILES IDX 33 36 89 37 34 38 35 39 36 40 83 41 37 42 88 43 82 44 84 45
REMARK SMILES IDX 38 46 87 47 81 48 80 49 39 51 69 52 50 53 68 54 51 55 54 56
REMARK SMILES IDX 67 57 85 58 52 59 53 60 66 62 86 63 55 64 40 65 41 66 49 67
REMARK SMILES IDX 42 68 48 69 43 70 44 71 45 72 46 73 47 74 70 75 71 76 79 77
REMARK SMILES IDX 72 78 78 79 73 80 74 81 75 82 76 83 77 84 56 85 57 86 65 87
REMARK SMILES IDX 58 88 64 89 59 90 60 91 61 92 62 93 63 94
REMARK H PARENT 21 7 28 31 84 50 54 61
REMARK Flexibility Score: inf
ROOT
ATOM      1  C   UNL A   1      39.128  19.006  25.845  1.00  0.00     0.002 C 
ENDROOT
BRANCH   1   2
ATOM      2  C   UNL A   1      38.107  19.238  24.725  1.00  0.00     0.021 C 
BRANCH   2   3
ATOM      3  C   UNL A   1      37.177  20.423  24.982  1.00  0.00     0.116 C 
BRANCH   3   4
ATOM      4  N   UNL A   1      35.821  19.963  25.221  1.00  0.00    -0.353 N 
ATOM      5  C   UNL A   1      34.632  20.583  25.007  1.00  0.00     0.244 C 
ATOM      6  O   UNL A   1      33.581  19.978  25.197  1.00  0.00    -0.270 OA
ATOM      7  H   UNL A   1      35.752  19.057  25.598  1.00  0.00     0.163 HD
BRANCH   5   8
ATOM      8  C   UNL A   1      34.589  21.952  24.457  1.00  0.00     0.072 C 
ATOM      9  C   UNL A   1      33.542  22.782  24.583  1.00  0.00     0.025 C 
BRANCH   9  10
ATOM     10  C   UNL A   1      33.524  24.080  23.991  1.00  0.00     0.031 A 
ATOM     11  C   UNL A   1      33.073  23.512  21.520  1.00  0.00     0.046 C 
ATOM     12  C   UNL A   1      33.379  24.438  22.655  1.00  0.00    -0.032 A 
ATOM     13  C   UNL A   1      33.542  25.857  22.471  1.00  0.00     0.029 A 
ATOM     14  C   UNL A   1      33.750  26.549  23.650  1.00  0.00     0.093 A 
ATOM     15  S   UNL A   1      33.722  25.474  24.971  1.00  0.00    -0.130 S 
BRANCH  14  16
ATOM     16  C   UNL A   1      33.846  28.002  23.804  1.00  0.00     0.264 C 
ATOM     17  O   UNL A   1      34.541  28.698  23.064  1.00  0.00    -0.268 OA
BRANCH  16  18
ATOM     18  N   UNL A   1      33.005  28.593  24.737  1.00  0.00    -0.335 N 
ATOM     19  C   UNL A   1      33.438  28.828  26.102  1.00  0.00     0.120 C 
ATOM     20  C   UNL A   1      31.935  29.529  24.366  1.00  0.00     0.088 C 
ATOM     21  C   UNL A   1      32.159  29.237  26.788  1.00  0.00     0.024 C 
ATOM     22  C   UNL A   1      31.489  30.113  25.733  1.00  0.00     0.027 C 
BRANCH  20  23
ATOM     23  C   UNL A   1      30.775  28.869  23.560  1.00  0.00     0.005 C 
ATOM     24  C   UNL A   1      30.291  27.563  24.207  1.00  0.00     0.009 C 
ATOM     25  C   UNL A   1      29.550  29.788  23.425  1.00  0.00     0.009 C 
ENDBRANCH  20  23
ENDBRANCH  16  18
ENDBRANCH  14  16
ENDBRANCH   9  10
ENDBRANCH   5   8
ENDBRANCH   3   4
ENDBRANCH   2   3
ENDBRANCH   1   2
BRANCH   1  26
ATOM     26  C   UNL A   1      40.392  19.872  25.760  1.00  0.00     0.002 C 
BRANCH  26  27
ATOM     27  C   UNL A   1      40.839  20.507  27.080  1.00  0.00     0.021 C 
BRANCH  27  28
ATOM     28  C   UNL A   1      40.470  21.980  27.237  1.00  0.00     0.116 C 
BRANCH  28  29
ATOM     29  N   UNL A   1      39.505  22.405  26.237  1.00  0.00    -0.352 N 
ATOM     30  C   UNL A   1      38.860  23.610  26.109  1.00  0.00     0.251 C 
ATOM     31  H   UNL A   1      39.282  21.733  25.553  1.00  0.00     0.163 HD
ATOM     32  O   UNL A   1      37.922  23.721  25.326  1.00  0.00    -0.269 OA
BRANCH  30  33
ATOM     33  C   UNL A   1      39.286  24.769  26.924  1.00  0.00     0.039 A 
ATOM     34  C   UNL A   1      38.851  24.860  28.249  1.00  0.00     0.014 A 
ATOM     35  C   UNL A   1      40.087  25.776  26.376  1.00  0.00     0.014 A 
ATOM     36  C   UNL A   1      39.259  25.937  29.040  1.00  0.00     0.010 A 
ATOM     37  C   UNL A   1      40.537  26.821  27.182  1.00  0.00     0.010 A 
ATOM     38  C   UNL A   1      40.123  26.913  28.520  1.00  0.00    -0.014 A 
BRANCH  38  39
ATOM     39  C   UNL A   1      40.600  28.042  29.357  1.00  0.00     0.031 A 
ATOM     40  C   UNL A   1      39.727  29.247  29.572  1.00  0.00     0.074 A 
ATOM     41  C   UNL A   1      41.844  28.010  29.873  1.00  0.00     0.049 A 
ATOM     42  N   UNL A   1      39.993  30.355  30.216  1.00  0.00    -0.248 NA
ATOM     43  C   UNL A   1      38.387  29.213  28.963  1.00  0.00     0.031 C 
ATOM     44  C   UNL A   1      42.802  26.914  29.707  1.00  0.00     0.029 A 
ATOM     45  N   UNL A   1      42.519  28.930  30.635  1.00  0.00    -0.354 N 
ATOM     46  C   UNL A   1      38.868  31.156  30.074  1.00  0.00     0.074 A 
ATOM     47  C   UNL A   1      37.929  30.423  29.250  1.00  0.00     0.031 C 
ATOM     48  C   UNL A   1      43.934  27.219  30.365  1.00  0.00     0.029 A 
ATOM     49  C   UNL A   1      43.794  28.541  30.970  1.00  0.00     0.049 A 
ATOM     50  H   UNL A   1      42.127  29.789  30.916  1.00  0.00     0.167 HD
ATOM     51  C   UNL A   1      38.628  32.386  30.591  1.00  0.00     0.031 A 
ATOM     52  C   UNL A   1      44.746  29.175  31.680  1.00  0.00     0.031 A 
ATOM     53  C   UNL A   1      39.554  33.108  31.422  1.00  0.00     0.049 A 
ATOM     54  C   UNL A   1      44.455  30.533  32.253  1.00  0.00     0.074 A 
ATOM     55  C   UNL A   1      39.382  34.335  32.039  1.00  0.00     0.029 A 
ATOM     56  N   UNL A   1      40.827  32.670  31.753  1.00  0.00    -0.354 N 
ATOM     57  N   UNL A   1      43.363  31.252  32.151  1.00  0.00    -0.248 NA
ATOM     58  C   UNL A   1      45.522  31.161  33.045  1.00  0.00     0.031 C 
ATOM     59  C   UNL A   1      40.565  34.653  32.715  1.00  0.00     0.029 A 
ATOM     60  C   UNL A   1      41.458  33.608  32.553  1.00  0.00     0.049 A 
ATOM     61  H   UNL A   1      41.224  31.816  31.462  1.00  0.00     0.167 HD
ATOM     62  C   UNL A   1      43.604  32.409  32.884  1.00  0.00     0.074 A 
ATOM     63  C   UNL A   1      44.940  32.289  33.432  1.00  0.00     0.031 C 
ATOM     64  C   UNL A   1      42.790  33.474  33.085  1.00  0.00     0.031 A 
BRANCH  51  65
ATOM     65  C   UNL A   1      37.307  33.027  30.260  1.00  0.00    -0.014 A 
ATOM     66  C   UNL A   1      37.093  33.642  29.014  1.00  0.00     0.010 A 
ATOM     67  C   UNL A   1      36.263  33.001  31.202  1.00  0.00     0.010 A 
ATOM     68  C   UNL A   1      35.875  34.268  28.735  1.00  0.00     0.020 A 
ATOM     69  C   UNL A   1      35.035  33.605  30.917  1.00  0.00     0.020 A 
ATOM     70  C   UNL A   1      34.856  34.254  29.693  1.00  0.00     0.054 A 
BRANCH  70  71
ATOM     71  S   UNL A   1      33.284  35.074  29.309  1.00  0.00     0.124 S 
ATOM     72  O   UNL A   1      33.737  36.376  28.825  1.00  0.00    -0.237 OA
ATOM     73  O   UNL A   1      32.699  34.197  28.298  1.00  0.00    -0.237 OA
ATOM     74  O   UNL A   1      32.584  35.094  30.591  1.00  0.00    -0.744 OA
ENDBRANCH  70  71
ENDBRANCH  51  65
BRANCH  52  75
ATOM     75  C   UNL A   1      46.058  28.515  31.905  1.00  0.00    -0.014 A 
ATOM     76  C   UNL A   1      46.307  27.824  33.103  1.00  0.00     0.010 A 
ATOM     77  C   UNL A   1      47.053  28.546  30.911  1.00  0.00     0.010 A 
ATOM     78  C   UNL A   1      47.531  27.179  33.307  1.00  0.00     0.020 A 
ATOM     79  C   UNL A   1      48.269  27.885  31.102  1.00  0.00     0.020 A 
ATOM     80  C   UNL A   1      48.503  27.211  32.302  1.00  0.00     0.054 A 
BRANCH  80  81
ATOM     81  S   UNL A   1      50.055  26.307  32.556  1.00  0.00     0.124 S 
ATOM     82  O   UNL A   1      49.577  24.992  32.970  1.00  0.00    -0.237 OA
ATOM     83  O   UNL A   1      50.679  26.367  31.236  1.00  0.00    -0.237 OA
ATOM     84  O   UNL A   1      50.735  27.083  33.591  1.00  0.00    -0.744 OA
ENDBRANCH  80  81
ENDBRANCH  52  75
BRANCH  64  85
ATOM     85  C   UNL A   1      43.313  34.585  33.953  1.00  0.00    -0.014 A 
ATOM     86  C   UNL A   1      44.101  35.616  33.414  1.00  0.00     0.010 A 
ATOM     87  C   UNL A   1      42.967  34.624  35.316  1.00  0.00     0.010 A 
ATOM     88  C   UNL A   1      44.558  36.654  34.229  1.00  0.00     0.020 A 
ATOM     89  C   UNL A   1      43.405  35.671  36.130  1.00  0.00     0.020 A 
ATOM     90  C   UNL A   1      44.210  36.673  35.584  1.00  0.00     0.054 A 
BRANCH  90  91
ATOM     91  S   UNL A   1      44.776  38.054  36.615  1.00  0.00     0.124 S 
ATOM     92  O   UNL A   1      44.211  39.205  35.916  1.00  0.00    -0.237 OA
ATOM     93  O   UNL A   1      44.180  37.754  37.915  1.00  0.00    -0.237 OA
ATOM     94  O   UNL A   1      46.232  37.947  36.566  1.00  0.00    -0.744 OA
ENDBRANCH  90  91
ENDBRANCH  64  85
ENDBRANCH  38  39
ENDBRANCH  30  33
ENDBRANCH  28  29
ENDBRANCH  27  28
ENDBRANCH  26  27
ENDBRANCH   1  26
TORSDOF 20
ENDMDL
MODEL 3
REMARK VINA RESULT:      -9.1      4.475      7.668
REMARK SMILES Cc1cc(C(=O)N2CCC[C@@H]2C(C)C)sc1/C=C/C(=O)NCCCCCCNC(=O)c1ccc(-c2c3nc(c(-c4ccc(S(=O)(=O)[O-])cc4)c4ccc([nH]4)c(-c4ccc(S(=O)(=O)[O-])cc4)c4nc(c(-c5ccc(S(=O)(=O)[O-])cc5)c5ccc2[nH]5)C=C4)C=C3)cc1
REMARK SMILES IDX 24 1 23 2 22 3 21 4 19 5 20 6 18 8 17 9 16 10 1 11 2 12 3 13
REMARK SMILES IDX 4 14 15 15 5 16 6 17 7 18 8 19 11 20 9 21 10 22 12 23 13 24
REMARK SMILES IDX 14 25 25 26 26 27 27 28 28 29 29 30 30 32 31 33 32 34 90 35
REMARK SMILES IDX 33 36 89 37 34 38 35 39 36 40 83 41 37 42 88 43 82 44 84 45
REMARK SMILES IDX 38 46 87 47 81 48 80 49 39 51 69 52 50 53 68 54 51 55 54 56
REMARK SMILES IDX 67 57 85 58 52 59 53 60 66 62 86 63 55 64 40 65 41 66 49 67
REMARK SMILES IDX 42 68 48 69 43 70 44 71 45 72 46 73 47 74 70 75 71 76 79 77
REMARK SMILES IDX 72 78 78 79 73 80 74 81 75 82 76 83 77 84 56 85 57 86 65 87
REMARK SMILES IDX 58 88 64 89 59 90 60 91 61 92 62 93 63 94
REMARK H PARENT 21 7 28 31 84 50 54 61
REMARK Flexibility Score: inf
ROOT
ATOM      1  C   UNL A   1      39.925  25.987  27.623  1.00  0.00     0.002 C 
ENDROOT
BRANCH   1   2
ATOM      2  C   UNL A   1      39.942  24.483  27.323  1.00  0.00     0.021 C 
BRANCH   2   3
ATOM      3  C   UNL A   1      38.733  24.007  26.519  1.00  0.00     0.116 C 
BRANCH   3   4
ATOM      4  N   UNL A   1      38.918  22.634  26.087  1.00  0.00    -0.353 N 
ATOM      5  C   UNL A   1      38.035  21.757  25.542  1.00  0.00     0.244 C 
ATOM      6  O   UNL A   1      38.420  20.655  25.162  1.00  0.00    -0.270 OA
ATOM      7  H   UNL A   1      39.828  22.281  26.209  1.00  0.00     0.163 HD
BRANCH   5   8
ATOM      8  C   UNL A   1      36.631  22.151  25.316  1.00  0.00     0.072 C 
ATOM      9  C   UNL A   1      35.632  21.283  25.094  1.00  0.00     0.025 C 
BRANCH   9  10
ATOM     10  C   UNL A   1      34.296  21.711  24.829  1.00  0.00     0.031 A 
ATOM     11  C   UNL A   1      33.014  19.480  24.926  1.00  0.00     0.046 C 
ATOM     12  C   UNL A   1      33.139  20.952  24.692  1.00  0.00    -0.032 A 
ATOM     13  C   UNL A   1      32.019  21.769  24.304  1.00  0.00     0.029 A 
ATOM     14  C   UNL A   1      32.322  23.115  24.205  1.00  0.00     0.093 A 
ATOM     15  S   UNL A   1      33.956  23.377  24.608  1.00  0.00    -0.130 S 
BRANCH  14  16
ATOM     16  C   UNL A   1      31.381  24.205  23.934  1.00  0.00     0.264 C 
ATOM     17  O   UNL A   1      30.423  24.073  23.175  1.00  0.00    -0.268 OA
BRANCH  16  18
ATOM     18  N   UNL A   1      31.527  25.363  24.685  1.00  0.00    -0.335 N 
ATOM     19  C   UNL A   1      31.129  25.414  26.079  1.00  0.00     0.120 C 
ATOM     20  C   UNL A   1      32.561  26.369  24.406  1.00  0.00     0.088 C 
ATOM     21  C   UNL A   1      31.233  26.884  26.398  1.00  0.00     0.024 C 
ATOM     22  C   UNL A   1      32.500  27.291  25.653  1.00  0.00     0.027 C 
BRANCH  20  23
ATOM     23  C   UNL A   1      32.353  27.125  23.059  1.00  0.00     0.005 C 
ATOM     24  C   UNL A   1      32.627  28.630  23.191  1.00  0.00     0.009 C 
ATOM     25  C   UNL A   1      33.261  26.596  21.937  1.00  0.00     0.009 C 
ENDBRANCH  20  23
ENDBRANCH  16  18
ENDBRANCH  14  16
ENDBRANCH   9  10
ENDBRANCH   5   8
ENDBRANCH   3   4
ENDBRANCH   2   3
ENDBRANCH   1   2
BRANCH   1  26
ATOM     26  C   UNL A   1      40.663  26.860  26.600  1.00  0.00     0.002 C 
BRANCH  26  27
ATOM     27  C   UNL A   1      41.478  26.094  25.553  1.00  0.00     0.021 C 
BRANCH  27  28
ATOM     28  C   UNL A   1      42.783  26.769  25.140  1.00  0.00     0.116 C 
BRANCH  28  29
ATOM     29  N   UNL A   1      43.944  26.000  25.552  1.00  0.00    -0.352 N 
ATOM     30  C   UNL A   1      44.653  26.059  26.726  1.00  0.00     0.251 C 
ATOM     31  H   UNL A   1      44.268  25.341  24.896  1.00  0.00     0.163 HD
ATOM     32  O   UNL A   1      45.732  25.481  26.818  1.00  0.00    -0.269 OA
BRANCH  30  33
ATOM     33  C   UNL A   1      44.125  26.829  27.873  1.00  0.00     0.039 A 
ATOM     34  C   UNL A   1      43.382  26.162  28.851  1.00  0.00     0.014 A 
ATOM     35  C   UNL A   1      44.336  28.209  27.969  1.00  0.00     0.014 A 
ATOM     36  C   UNL A   1      42.891  26.869  29.951  1.00  0.00     0.010 A 
ATOM     37  C   UNL A   1      43.892  28.902  29.094  1.00  0.00     0.010 A 
ATOM     38  C   UNL A   1      43.161  28.239  30.093  1.00  0.00    -0.014 A 
BRANCH  38  39
ATOM     39  C   UNL A   1      42.683  28.998  31.276  1.00  0.00     0.031 A 
ATOM     40  C   UNL A   1      41.402  29.782  31.205  1.00  0.00     0.074 A 
ATOM     41  C   UNL A   1      43.435  29.033  32.394  1.00  0.00     0.049 A 
ATOM     42  N   UNL A   1      40.857  30.554  32.110  1.00  0.00    -0.248 NA
ATOM     43  C   UNL A   1      40.646  29.705  29.945  1.00  0.00     0.031 C 
ATOM     44  C   UNL A   1      44.715  28.345  32.576  1.00  0.00     0.029 A 
ATOM     45  N   UNL A   1      43.233  29.682  33.585  1.00  0.00    -0.354 N 
ATOM     46  C   UNL A   1      39.709  31.072  31.524  1.00  0.00     0.074 A 
ATOM     47  C   UNL A   1      39.655  30.555  30.172  1.00  0.00     0.031 C 
ATOM     48  C   UNL A   1      45.174  28.594  33.814  1.00  0.00     0.029 A 
ATOM     49  C   UNL A   1      44.240  29.483  34.500  1.00  0.00     0.049 A 
ATOM     50  H   UNL A   1      42.442  30.239  33.769  1.00  0.00     0.167 HD
ATOM     51  C   UNL A   1      38.776  31.893  32.062  1.00  0.00     0.031 A 
ATOM     52  C   UNL A   1      44.397  29.962  35.748  1.00  0.00     0.031 A 
ATOM     53  C   UNL A   1      38.820  32.395  33.410  1.00  0.00     0.049 A 
ATOM     54  C   UNL A   1      43.344  30.862  36.330  1.00  0.00     0.074 A 
ATOM     55  C   UNL A   1      37.894  33.187  34.066  1.00  0.00     0.029 A 
ATOM     56  N   UNL A   1      39.847  32.153  34.309  1.00  0.00    -0.354 N 
ATOM     57  N   UNL A   1      42.238  31.298  35.776  1.00  0.00    -0.248 NA
ATOM     58  C   UNL A   1      43.557  31.327  37.708  1.00  0.00     0.031 C 
ATOM     59  C   UNL A   1      38.379  33.452  35.352  1.00  0.00     0.029 A 
ATOM     60  C   UNL A   1      39.586  32.793  35.509  1.00  0.00     0.049 A 
ATOM     61  H   UNL A   1      40.645  31.606  34.123  1.00  0.00     0.167 HD
ATOM     62  C   UNL A   1      41.612  32.072  36.746  1.00  0.00     0.074 A 
ATOM     63  C   UNL A   1      42.456  32.036  37.923  1.00  0.00     0.031 C 
ATOM     64  C   UNL A   1      40.440  32.750  36.668  1.00  0.00     0.031 A 
BRANCH  51  65
ATOM     65  C   UNL A   1      37.627  32.304  31.180  1.00  0.00    -0.014 A 
ATOM     66  C   UNL A   1      36.454  31.533  31.111  1.00  0.00     0.010 A 
ATOM     67  C   UNL A   1      37.718  33.485  30.420  1.00  0.00     0.010 A 
ATOM     68  C   UNL A   1      35.412  31.904  30.259  1.00  0.00     0.020 A 
ATOM     69  C   UNL A   1      36.668  33.873  29.584  1.00  0.00     0.020 A 
ATOM     70  C   UNL A   1      35.530  33.068  29.491  1.00  0.00     0.054 A 
BRANCH  70  71
ATOM     71  S   UNL A   1      34.164  33.531  28.390  1.00  0.00     0.124 S 
ATOM     72  O   UNL A   1      33.246  34.192  29.315  1.00  0.00    -0.237 OA
ATOM     73  O   UNL A   1      34.814  34.407  27.419  1.00  0.00    -0.237 OA
ATOM     74  O   UNL A   1      33.702  32.252  27.859  1.00  0.00    -0.744 OA
ENDBRANCH  70  71
ENDBRANCH  51  65
BRANCH  52  75
ATOM     75  C   UNL A   1      45.595  29.576  36.539  1.00  0.00    -0.014 A 
ATOM     76  C   UNL A   1      46.758  30.365  36.493  1.00  0.00     0.010 A 
ATOM     77  C   UNL A   1      45.568  28.440  37.366  1.00  0.00     0.010 A 
ATOM     78  C   UNL A   1      47.877  30.019  37.256  1.00  0.00     0.020 A 
ATOM     79  C   UNL A   1      46.678  28.103  38.147  1.00  0.00     0.020 A 
ATOM     80  C   UNL A   1      47.828  28.892  38.081  1.00  0.00     0.054 A 
BRANCH  80  81
ATOM     81  S   UNL A   1      49.264  28.502  39.120  1.00  0.00     0.124 S 
ATOM     82  O   UNL A   1      48.837  27.273  39.780  1.00  0.00    -0.237 OA
ATOM     83  O   UNL A   1      50.337  28.356  38.139  1.00  0.00    -0.237 OA
ATOM     84  O   UNL A   1      49.382  29.673  39.986  1.00  0.00    -0.744 OA
ENDBRANCH  80  81
ENDBRANCH  52  75
BRANCH  64  85
ATOM     85  C   UNL A   1      39.991  33.491  37.898  1.00  0.00    -0.014 A 
ATOM     86  C   UNL A   1      39.224  32.854  38.888  1.00  0.00     0.010 A 
ATOM     87  C   UNL A   1      40.388  34.828  38.089  1.00  0.00     0.010 A 
ATOM     88  C   UNL A   1      38.836  33.549  40.036  1.00  0.00     0.020 A 
ATOM     89  C   UNL A   1      40.020  35.519  39.245  1.00  0.00     0.020 A 
ATOM     90  C   UNL A   1      39.234  34.879  40.205  1.00  0.00     0.054 A 
BRANCH  90  91
ATOM     91  S   UNL A   1      38.759  35.749  41.724  1.00  0.00     0.124 S 
ATOM     92  O   UNL A   1      39.751  35.259  42.677  1.00  0.00    -0.237 OA
ATOM     93  O   UNL A   1      38.890  37.155  41.348  1.00  0.00    -0.237 OA
ATOM     94  O   UNL A   1      37.388  35.301  41.964  1.00  0.00    -0.744 OA
ENDBRANCH  90  91
ENDBRANCH  64  85
ENDBRANCH  38  39
ENDBRANCH  30  33
ENDBRANCH  28  29
ENDBRANCH  27  28
ENDBRANCH  26  27
ENDBRANCH   1  26
TORSDOF 20
ENDMDL
