MODEL 1
REMARK VINA RESULT:     -11.0      0.000      0.000
REMARK SMILES O=C(NCCCCCCNC(=O)c1cc(Br)ccc1OCc1ccccc1F)c1ccc(-c2c3nc(c(-c4ccc(S(=O)(=O)[O-])cc4)c4ccc([nH]4)c(-c4ccc(S(=O)(=O)[O-])cc4)c4nc(c(-c5ccc(S(=O)(=O)[O-])cc5)c5ccc2[nH]5)C=C4)C=C3)cc1
REMARK SMILES IDX 6 1 5 2 4 3 3 4 1 5 2 6 29 8 30 9 88 10 31 11 87 12 32 13
REMARK SMILES IDX 33 14 34 15 81 16 35 17 86 18 80 19 82 20 36 21 85 22 79 23
REMARK SMILES IDX 78 24 37 26 67 27 48 28 66 29 49 30 52 31 65 32 83 33 50 34
REMARK SMILES IDX 51 35 64 37 84 38 53 39 38 40 39 41 47 42 40 43 46 44 41 45
REMARK SMILES IDX 42 46 43 47 44 48 45 49 68 50 69 51 77 52 70 53 76 54 71 55
REMARK SMILES IDX 72 56 73 57 74 58 75 59 54 60 55 61 63 62 56 63 62 64 57 65
REMARK SMILES IDX 58 66 59 67 60 68 61 69 7 70 8 71 9 72 10 73 11 74 12 76
REMARK SMILES IDX 13 77 14 78 19 79 15 80 18 81 16 82 17 83 20 84 21 85 22 86
REMARK SMILES IDX 23 87 27 88 24 89 26 90 28 91 25 92
REMARK H PARENT 3 7 82 25 52 36 10 75
REMARK Flexibility Score: inf
ROOT
ATOM      1  C   UNL A   1      41.358  22.060  27.988  1.00  0.00     0.002 C 
ENDROOT
BRANCH   1   2
ATOM      2  C   UNL A   1      42.794  22.178  27.472  1.00  0.00     0.021 C 
BRANCH   2   3
ATOM      3  C   UNL A   1      43.276  23.587  27.146  1.00  0.00     0.116 C 
BRANCH   3   4
ATOM      4  N   UNL A   1      42.595  24.191  26.016  1.00  0.00    -0.352 N 
ATOM      5  O   UNL A   1      41.211  25.654  24.991  1.00  0.00    -0.269 OA
ATOM      6  C   UNL A   1      41.802  25.316  26.014  1.00  0.00     0.251 C 
ATOM      7  H   UNL A   1      42.715  23.743  25.148  1.00  0.00     0.163 HD
BRANCH   6   8
ATOM      8  C   UNL A   1      41.626  26.093  27.265  1.00  0.00     0.039 A 
ATOM      9  C   UNL A   1      40.567  25.826  28.138  1.00  0.00     0.014 A 
ATOM     10  C   UNL A   1      42.533  27.115  27.558  1.00  0.00     0.014 A 
ATOM     11  C   UNL A   1      40.350  26.653  29.239  1.00  0.00     0.010 A 
ATOM     12  C   UNL A   1      42.340  27.917  28.688  1.00  0.00     0.010 A 
ATOM     13  C   UNL A   1      41.225  27.715  29.516  1.00  0.00    -0.014 A 
BRANCH  13  14
ATOM     14  C   UNL A   1      40.959  28.596  30.680  1.00  0.00     0.031 A 
ATOM     15  C   UNL A   1      41.856  28.571  31.887  1.00  0.00     0.074 A 
ATOM     16  C   UNL A   1      39.929  29.461  30.632  1.00  0.00     0.049 A 
ATOM     17  N   UNL A   1      41.814  29.323  32.958  1.00  0.00    -0.248 NA
ATOM     18  C   UNL A   1      42.939  27.576  31.892  1.00  0.00     0.031 C 
ATOM     19  C   UNL A   1      38.976  29.579  29.526  1.00  0.00     0.029 A 
ATOM     20  N   UNL A   1      39.528  30.421  31.524  1.00  0.00    -0.354 N 
ATOM     21  C   UNL A   1      42.842  28.876  33.778  1.00  0.00     0.074 A 
ATOM     22  C   UNL A   1      43.494  27.787  33.079  1.00  0.00     0.031 C 
ATOM     23  C   UNL A   1      38.133  30.592  29.783  1.00  0.00     0.029 A 
ATOM     24  C   UNL A   1      38.471  31.176  31.077  1.00  0.00     0.049 A 
ATOM     25  H   UNL A   1      39.956  30.557  32.401  1.00  0.00     0.167 HD
ATOM     26  C   UNL A   1      43.214  29.328  35.000  1.00  0.00     0.031 A 
ATOM     27  C   UNL A   1      37.850  32.232  31.637  1.00  0.00     0.031 A 
ATOM     28  C   UNL A   1      42.590  30.421  35.695  1.00  0.00     0.049 A 
ATOM     29  C   UNL A   1      38.312  32.749  32.965  1.00  0.00     0.074 A 
ATOM     30  C   UNL A   1      42.908  30.952  36.934  1.00  0.00     0.029 A 
ATOM     31  N   UNL A   1      41.524  31.159  35.207  1.00  0.00    -0.354 N 
ATOM     32  N   UNL A   1      39.292  32.315  33.720  1.00  0.00    -0.248 NA
ATOM     33  C   UNL A   1      37.583  33.899  33.517  1.00  0.00     0.031 C 
ATOM     34  C   UNL A   1      42.026  32.009  37.198  1.00  0.00     0.029 A 
ATOM     35  C   UNL A   1      41.170  32.140  36.117  1.00  0.00     0.049 A 
ATOM     36  H   UNL A   1      41.082  31.007  34.339  1.00  0.00     0.167 HD
ATOM     37  C   UNL A   1      39.298  33.139  34.838  1.00  0.00     0.074 A 
ATOM     38  C   UNL A   1      38.235  34.108  34.653  1.00  0.00     0.031 C 
ATOM     39  C   UNL A   1      40.109  33.093  35.922  1.00  0.00     0.031 A 
BRANCH  26  40
ATOM     40  C   UNL A   1      44.350  28.611  35.670  1.00  0.00    -0.014 A 
ATOM     41  C   UNL A   1      45.674  29.057  35.515  1.00  0.00     0.010 A 
ATOM     42  C   UNL A   1      44.090  27.483  36.466  1.00  0.00     0.010 A 
ATOM     43  C   UNL A   1      46.727  28.361  36.114  1.00  0.00     0.020 A 
ATOM     44  C   UNL A   1      45.140  26.789  37.075  1.00  0.00     0.020 A 
ATOM     45  C   UNL A   1      46.453  27.221  36.879  1.00  0.00     0.054 A 
BRANCH  45  46
ATOM     46  S   UNL A   1      47.825  26.315  37.645  1.00  0.00     0.124 S 
ATOM     47  O   UNL A   1      47.924  25.140  36.785  1.00  0.00    -0.237 OA
ATOM     48  O   UNL A   1      48.939  27.256  37.549  1.00  0.00    -0.237 OA
ATOM     49  O   UNL A   1      47.348  26.061  39.002  1.00  0.00    -0.744 OA
ENDBRANCH  45  46
ENDBRANCH  26  40
BRANCH  27  50
ATOM     50  C   UNL A   1      36.742  32.890  30.904  1.00  0.00    -0.014 A 
ATOM     51  C   UNL A   1      35.410  32.646  31.279  1.00  0.00     0.010 A 
ATOM     52  C   UNL A   1      37.016  33.808  29.876  1.00  0.00     0.010 A 
ATOM     53  C   UNL A   1      34.365  33.318  30.640  1.00  0.00     0.020 A 
ATOM     54  C   UNL A   1      35.975  34.489  29.244  1.00  0.00     0.020 A 
ATOM     55  C   UNL A   1      34.654  34.238  29.628  1.00  0.00     0.054 A 
BRANCH  55  56
ATOM     56  S   UNL A   1      33.306  35.183  28.866  1.00  0.00     0.124 S 
ATOM     57  O   UNL A   1      32.694  34.188  27.994  1.00  0.00    -0.237 OA
ATOM     58  O   UNL A   1      32.502  35.597  30.015  1.00  0.00    -0.237 OA
ATOM     59  O   UNL A   1      34.009  36.271  28.188  1.00  0.00    -0.744 OA
ENDBRANCH  55  56
ENDBRANCH  27  50
BRANCH  39  60
ATOM     60  C   UNL A   1      39.872  34.120  36.989  1.00  0.00    -0.014 A 
ATOM     61  C   UNL A   1      39.019  33.841  38.070  1.00  0.00     0.010 A 
ATOM     62  C   UNL A   1      40.517  35.368  36.919  1.00  0.00     0.010 A 
ATOM     63  C   UNL A   1      38.790  34.806  39.055  1.00  0.00     0.020 A 
ATOM     64  C   UNL A   1      40.296  36.331  37.907  1.00  0.00     0.020 A 
ATOM     65  C   UNL A   1      39.421  36.049  38.960  1.00  0.00     0.054 A 
BRANCH  65  66
ATOM     66  S   UNL A   1      39.140  37.292  40.253  1.00  0.00     0.124 S 
ATOM     67  O   UNL A   1      38.262  38.240  39.574  1.00  0.00    -0.237 OA
ATOM     68  O   UNL A   1      38.519  36.520  41.327  1.00  0.00    -0.237 OA
ATOM     69  O   UNL A   1      40.485  37.783  40.546  1.00  0.00    -0.744 OA
ENDBRANCH  65  66
ENDBRANCH  39  60
ENDBRANCH  13  14
ENDBRANCH   6   8
ENDBRANCH   3   4
ENDBRANCH   2   3
ENDBRANCH   1   2
BRANCH   1  70
ATOM     70  C   UNL A   1      40.307  21.572  26.987  1.00  0.00     0.002 C 
BRANCH  70  71
ATOM     71  C   UNL A   1      39.287  22.607  26.504  1.00  0.00     0.021 C 
BRANCH  71  72
ATOM     72  C   UNL A   1      38.302  22.126  25.436  1.00  0.00     0.116 C 
BRANCH  72  73
ATOM     73  N   UNL A   1      37.449  23.184  24.919  1.00  0.00    -0.352 N 
ATOM     74  C   UNL A   1      36.481  22.905  23.978  1.00  0.00     0.255 C 
ATOM     75  H   UNL A   1      37.562  24.106  25.244  1.00  0.00     0.163 HD
ATOM     76  O   UNL A   1      36.761  22.942  22.785  1.00  0.00    -0.269 OA
BRANCH  74  77
ATOM     77  C   UNL A   1      35.099  22.616  24.463  1.00  0.00     0.082 A 
ATOM     78  C   UNL A   1      34.572  21.320  24.326  1.00  0.00     0.033 A 
ATOM     79  C   UNL A   1      34.276  23.623  24.995  1.00  0.00     0.132 A 
ATOM     80  C   UNL A   1      33.232  21.061  24.618  1.00  0.00     0.019 A 
ATOM     81  C   UNL A   1      32.921  23.355  25.245  1.00  0.00     0.048 A 
ATOM     82  Br  UNL A   1      32.540  19.317  24.387  1.00  0.00    -0.051 Br
ATOM     83  C   UNL A   1      32.395  22.079  25.055  1.00  0.00     0.019 A 
BRANCH  79  84
ATOM     84  O   UNL A   1      34.632  24.904  25.324  1.00  0.00    -0.488 OA
BRANCH  84  85
ATOM     85  C   UNL A   1      33.865  25.984  24.760  1.00  0.00     0.268 C 
BRANCH  85  86
ATOM     86  C   UNL A   1      33.277  26.988  25.724  1.00  0.00     0.025 A 
ATOM     87  C   UNL A   1      34.038  28.059  26.213  1.00  0.00     0.010 A 
ATOM     88  C   UNL A   1      31.961  26.846  26.174  1.00  0.00     0.129 A 
ATOM     89  C   UNL A   1      33.479  28.971  27.113  1.00  0.00     0.001 A 
ATOM     90  C   UNL A   1      31.401  27.748  27.073  1.00  0.00     0.039 A 
ATOM     91  F   UNL A   1      31.208  25.824  25.743  1.00  0.00    -0.207 F 
ATOM     92  C   UNL A   1      32.161  28.816  27.542  1.00  0.00     0.003 A 
ENDBRANCH  85  86
ENDBRANCH  84  85
ENDBRANCH  79  84
ENDBRANCH  74  77
ENDBRANCH  72  73
ENDBRANCH  71  72
ENDBRANCH  70  71
ENDBRANCH   1  70
TORSDOF 19
ENDMDL
MODEL 2
REMARK VINA RESULT:     -11.0      1.673      3.330
REMARK SMILES O=C(NCCCCCCNC(=O)c1cc(Br)ccc1OCc1ccccc1F)c1ccc(-c2c3nc(c(-c4ccc(S(=O)(=O)[O-])cc4)c4ccc([nH]4)c(-c4ccc(S(=O)(=O)[O-])cc4)c4nc(c(-c5ccc(S(=O)(=O)[O-])cc5)c5ccc2[nH]5)C=C4)C=C3)cc1
REMARK SMILES IDX 6 1 5 2 4 3 3 4 1 5 2 6 29 8 30 9 88 10 31 11 87 12 32 13
REMARK SMILES IDX 33 14 34 15 81 16 35 17 86 18 80 19 82 20 36 21 85 22 79 23
REMARK SMILES IDX 78 24 37 26 67 27 48 28 66 29 49 30 52 31 65 32 83 33 50 34
REMARK SMILES IDX 51 35 64 37 84 38 53 39 38 40 39 41 47 42 40 43 46 44 41 45
REMARK SMILES IDX 42 46 43 47 44 48 45 49 68 50 69 51 77 52 70 53 76 54 71 55
REMARK SMILES IDX 72 56 73 57 74 58 75 59 54 60 55 61 63 62 56 63 62 64 57 65
REMARK SMILES IDX 58 66 59 67 60 68 61 69 7 70 8 71 9 72 10 73 11 74 12 76
REMARK SMILES IDX 13 77 14 78 19 79 15 80 18 81 16 82 17 83 20 84 21 85 22 86
REMARK SMILES IDX 23 87 27 88 24 89 26 90 28 91 25 92
REMARK H PARENT 3 7 82 25 52 36 10 75
REMARK Flexibility Score: inf
ROOT
ATOM      1  C   UNL A   1      41.048  21.688  27.656  1.00  0.00     0.002 C 
ENDROOT
BRANCH   1   2
ATOM      2  C   UNL A   1      42.535  21.838  27.324  1.00  0.00     0.021 C 
BRANCH   2   3
ATOM      3  C   UNL A   1      43.046  23.265  27.165  1.00  0.00     0.116 C 
BRANCH   3   4
ATOM      4  N   UNL A   1      42.503  23.954  26.008  1.00  0.00    -0.352 N 
ATOM      5  O   UNL A   1      41.340  25.566  24.934  1.00  0.00    -0.269 OA
ATOM      6  C   UNL A   1      41.827  25.153  25.983  1.00  0.00     0.251 C 
ATOM      7  H   UNL A   1      42.634  23.511  25.139  1.00  0.00     0.163 HD
BRANCH   6   8
ATOM      8  C   UNL A   1      41.648  25.921  27.238  1.00  0.00     0.039 A 
ATOM      9  C   UNL A   1      40.595  25.641  28.114  1.00  0.00     0.014 A 
ATOM     10  C   UNL A   1      42.548  26.949  27.535  1.00  0.00     0.014 A 
ATOM     11  C   UNL A   1      40.374  26.461  29.219  1.00  0.00     0.010 A 
ATOM     12  C   UNL A   1      42.352  27.744  28.669  1.00  0.00     0.010 A 
ATOM     13  C   UNL A   1      41.241  27.529  29.499  1.00  0.00    -0.014 A 
BRANCH  13  14
ATOM     14  C   UNL A   1      40.971  28.402  30.669  1.00  0.00     0.031 A 
ATOM     15  C   UNL A   1      41.870  28.375  31.874  1.00  0.00     0.074 A 
ATOM     16  C   UNL A   1      39.936  29.261  30.626  1.00  0.00     0.049 A 
ATOM     17  N   UNL A   1      41.825  29.121  32.950  1.00  0.00    -0.248 NA
ATOM     18  C   UNL A   1      42.959  27.387  31.873  1.00  0.00     0.031 C 
ATOM     19  C   UNL A   1      38.982  29.379  29.523  1.00  0.00     0.029 A 
ATOM     20  N   UNL A   1      39.531  30.214  31.525  1.00  0.00    -0.354 N 
ATOM     21  C   UNL A   1      42.857  28.676  33.766  1.00  0.00     0.074 A 
ATOM     22  C   UNL A   1      43.514  27.594  33.060  1.00  0.00     0.031 C 
ATOM     23  C   UNL A   1      38.132  30.386  29.786  1.00  0.00     0.029 A 
ATOM     24  C   UNL A   1      38.469  30.965  31.083  1.00  0.00     0.049 A 
ATOM     25  H   UNL A   1      39.959  30.347  32.402  1.00  0.00     0.167 HD
ATOM     26  C   UNL A   1      43.228  29.122  34.990  1.00  0.00     0.031 A 
ATOM     27  C   UNL A   1      37.843  32.014  31.649  1.00  0.00     0.031 A 
ATOM     28  C   UNL A   1      42.598  30.208  35.692  1.00  0.00     0.049 A 
ATOM     29  C   UNL A   1      38.303  32.526  32.980  1.00  0.00     0.074 A 
ATOM     30  C   UNL A   1      42.914  30.733  36.933  1.00  0.00     0.029 A 
ATOM     31  N   UNL A   1      41.527  30.942  35.209  1.00  0.00    -0.354 N 
ATOM     32  N   UNL A   1      39.287  32.093  33.732  1.00  0.00    -0.248 NA
ATOM     33  C   UNL A   1      37.568  33.669  33.539  1.00  0.00     0.031 C 
ATOM     34  C   UNL A   1      42.026  31.784  37.204  1.00  0.00     0.029 A 
ATOM     35  C   UNL A   1      41.169  31.917  36.125  1.00  0.00     0.049 A 
ATOM     36  H   UNL A   1      41.085  30.793  34.341  1.00  0.00     0.167 HD
ATOM     37  C   UNL A   1      39.289  32.912  34.854  1.00  0.00     0.074 A 
ATOM     38  C   UNL A   1      38.220  33.875  34.676  1.00  0.00     0.031 C 
ATOM     39  C   UNL A   1      40.102  32.864  35.937  1.00  0.00     0.031 A 
BRANCH  26  40
ATOM     40  C   UNL A   1      44.368  28.408  35.655  1.00  0.00    -0.014 A 
ATOM     41  C   UNL A   1      44.137  27.290  36.475  1.00  0.00     0.010 A 
ATOM     42  C   UNL A   1      45.684  28.858  35.454  1.00  0.00     0.010 A 
ATOM     43  C   UNL A   1      45.203  26.656  37.118  1.00  0.00     0.020 A 
ATOM     44  C   UNL A   1      46.755  28.220  36.088  1.00  0.00     0.020 A 
ATOM     45  C   UNL A   1      46.504  27.135  36.932  1.00  0.00     0.054 A 
BRANCH  45  46
ATOM     46  S   UNL A   1      47.883  26.314  37.778  1.00  0.00     0.124 S 
ATOM     47  O   UNL A   1      48.395  25.434  36.730  1.00  0.00    -0.237 OA
ATOM     48  O   UNL A   1      48.758  27.425  38.144  1.00  0.00    -0.237 OA
ATOM     49  O   UNL A   1      47.238  25.640  38.902  1.00  0.00    -0.744 OA
ENDBRANCH  45  46
ENDBRANCH  26  40
BRANCH  27  50
ATOM     50  C   UNL A   1      36.730  32.670  30.921  1.00  0.00    -0.014 A 
ATOM     51  C   UNL A   1      35.398  32.368  31.255  1.00  0.00     0.010 A 
ATOM     52  C   UNL A   1      36.996  33.642  29.943  1.00  0.00     0.010 A 
ATOM     53  C   UNL A   1      34.346  33.035  30.623  1.00  0.00     0.020 A 
ATOM     54  C   UNL A   1      35.947  34.318  29.318  1.00  0.00     0.020 A 
ATOM     55  C   UNL A   1      34.628  34.008  29.660  1.00  0.00     0.054 A 
BRANCH  55  56
ATOM     56  S   UNL A   1      33.266  34.945  28.910  1.00  0.00     0.124 S 
ATOM     57  O   UNL A   1      32.453  35.280  30.074  1.00  0.00    -0.237 OA
ATOM     58  O   UNL A   1      33.950  36.068  28.272  1.00  0.00    -0.237 OA
ATOM     59  O   UNL A   1      32.676  33.982  27.983  1.00  0.00    -0.744 OA
ENDBRANCH  55  56
ENDBRANCH  27  50
BRANCH  39  60
ATOM     60  C   UNL A   1      39.860  33.884  37.010  1.00  0.00    -0.014 A 
ATOM     61  C   UNL A   1      38.964  33.616  38.059  1.00  0.00     0.010 A 
ATOM     62  C   UNL A   1      40.542  35.112  36.979  1.00  0.00     0.010 A 
ATOM     63  C   UNL A   1      38.731  34.574  39.049  1.00  0.00     0.020 A 
ATOM     64  C   UNL A   1      40.318  36.069  37.972  1.00  0.00     0.020 A 
ATOM     65  C   UNL A   1      39.401  35.799  38.992  1.00  0.00     0.054 A 
BRANCH  65  66
ATOM     66  S   UNL A   1      39.114  37.033  40.292  1.00  0.00     0.124 S 
ATOM     67  O   UNL A   1      38.605  38.166  39.526  1.00  0.00    -0.237 OA
ATOM     68  O   UNL A   1      38.141  36.377  41.165  1.00  0.00    -0.237 OA
ATOM     69  O   UNL A   1      40.439  37.218  40.880  1.00  0.00    -0.744 OA
ENDBRANCH  65  66
ENDBRANCH  39  60
ENDBRANCH  13  14
ENDBRANCH   6   8
ENDBRANCH   3   4
ENDBRANCH   2   3
ENDBRANCH   1   2
BRANCH   1  70
ATOM     70  C   UNL A   1      40.092  21.545  26.468  1.00  0.00     0.002 C 
BRANCH  70  71
ATOM     71  C   UNL A   1      38.922  22.532  26.408  1.00  0.00     0.021 C 
BRANCH  71  72
ATOM     72  C   UNL A   1      37.844  22.226  25.367  1.00  0.00     0.116 C 
BRANCH  72  73
ATOM     73  N   UNL A   1      37.404  23.398  24.628  1.00  0.00    -0.352 N 
ATOM     74  C   UNL A   1      36.293  23.337  23.815  1.00  0.00     0.255 C 
ATOM     75  H   UNL A   1      37.903  24.243  24.711  1.00  0.00     0.163 HD
ATOM     76  O   UNL A   1      36.412  23.000  22.643  1.00  0.00    -0.269 OA
BRANCH  74  77
ATOM     77  C   UNL A   1      34.980  23.743  24.397  1.00  0.00     0.082 A 
ATOM     78  C   UNL A   1      34.764  25.085  24.758  1.00  0.00     0.033 A 
ATOM     79  C   UNL A   1      33.965  22.806  24.658  1.00  0.00     0.132 A 
ATOM     80  C   UNL A   1      33.613  25.460  25.452  1.00  0.00     0.019 A 
ATOM     81  C   UNL A   1      32.832  23.194  25.392  1.00  0.00     0.048 A 
ATOM     82  Br  UNL A   1      33.369  27.265  25.960  1.00  0.00    -0.051 Br
ATOM     83  C   UNL A   1      32.654  24.515  25.792  1.00  0.00     0.019 A 
BRANCH  79  84
ATOM     84  O   UNL A   1      33.925  21.492  24.276  1.00  0.00    -0.488 OA
BRANCH  84  85
ATOM     85  C   UNL A   1      33.978  20.486  25.304  1.00  0.00     0.268 C 
BRANCH  85  86
ATOM     86  C   UNL A   1      33.802  19.050  24.872  1.00  0.00     0.025 A 
ATOM     87  C   UNL A   1      32.533  18.454  24.828  1.00  0.00     0.010 A 
ATOM     88  C   UNL A   1      34.915  18.274  24.535  1.00  0.00     0.129 A 
ATOM     89  C   UNL A   1      32.393  17.119  24.436  1.00  0.00     0.001 A 
ATOM     90  C   UNL A   1      34.780  16.943  24.147  1.00  0.00     0.039 A 
ATOM     91  F   UNL A   1      36.146  18.803  24.581  1.00  0.00    -0.207 F 
ATOM     92  C   UNL A   1      33.516  16.365  24.095  1.00  0.00     0.003 A 
ENDBRANCH  85  86
ENDBRANCH  84  85
ENDBRANCH  79  84
ENDBRANCH  74  77
ENDBRANCH  72  73
ENDBRANCH  71  72
ENDBRANCH  70  71
ENDBRANCH   1  70
TORSDOF 19
ENDMDL
MODEL 3
REMARK VINA RESULT:     -11.0      4.036      5.608
REMARK SMILES O=C(NCCCCCCNC(=O)c1cc(Br)ccc1OCc1ccccc1F)c1ccc(-c2c3nc(c(-c4ccc(S(=O)(=O)[O-])cc4)c4ccc([nH]4)c(-c4ccc(S(=O)(=O)[O-])cc4)c4nc(c(-c5ccc(S(=O)(=O)[O-])cc5)c5ccc2[nH]5)C=C4)C=C3)cc1
REMARK SMILES IDX 6 1 5 2 4 3 3 4 1 5 2 6 29 8 30 9 88 10 31 11 87 12 32 13
REMARK SMILES IDX 33 14 34 15 81 16 35 17 86 18 80 19 82 20 36 21 85 22 79 23
REMARK SMILES IDX 78 24 37 26 67 27 48 28 66 29 49 30 52 31 65 32 83 33 50 34
REMARK SMILES IDX 51 35 64 37 84 38 53 39 38 40 39 41 47 42 40 43 46 44 41 45
REMARK SMILES IDX 42 46 43 47 44 48 45 49 68 50 69 51 77 52 70 53 76 54 71 55
REMARK SMILES IDX 72 56 73 57 74 58 75 59 54 60 55 61 63 62 56 63 62 64 57 65
REMARK SMILES IDX 58 66 59 67 60 68 61 69 7 70 8 71 9 72 10 73 11 74 12 76
REMARK SMILES IDX 13 77 14 78 19 79 15 80 18 81 16 82 17 83 20 84 21 85 22 86
REMARK SMILES IDX 23 87 27 88 24 89 26 90 28 91 25 92
REMARK H PARENT 3 7 82 25 52 36 10 75
REMARK Flexibility Score: inf
ROOT
ATOM      1  C   UNL A   1      35.221  22.176  25.876  1.00  0.00     0.002 C 
ENDROOT
BRANCH   1   2
ATOM      2  C   UNL A   1      35.645  23.594  25.485  1.00  0.00     0.021 C 
BRANCH   2   3
ATOM      3  C   UNL A   1      37.048  23.740  24.907  1.00  0.00     0.116 C 
BRANCH   3   4
ATOM      4  N   UNL A   1      37.967  22.701  25.335  1.00  0.00    -0.352 N 
ATOM      5  O   UNL A   1      39.800  21.874  26.364  1.00  0.00    -0.269 OA
ATOM      6  C   UNL A   1      39.055  22.830  26.168  1.00  0.00     0.251 C 
ATOM      7  H   UNL A   1      37.790  21.797  24.990  1.00  0.00     0.163 HD
BRANCH   6   8
ATOM      8  C   UNL A   1      39.352  24.144  26.790  1.00  0.00     0.039 A 
ATOM      9  C   UNL A   1      40.084  25.118  26.105  1.00  0.00     0.014 A 
ATOM     10  C   UNL A   1      38.897  24.394  28.087  1.00  0.00     0.014 A 
ATOM     11  C   UNL A   1      40.459  26.291  26.758  1.00  0.00     0.010 A 
ATOM     12  C   UNL A   1      39.237  25.591  28.727  1.00  0.00     0.010 A 
ATOM     13  C   UNL A   1      40.052  26.532  28.081  1.00  0.00    -0.014 A 
BRANCH  13  14
ATOM     14  C   UNL A   1      40.484  27.777  28.763  1.00  0.00     0.031 A 
ATOM     15  C   UNL A   1      41.909  27.958  29.206  1.00  0.00     0.074 A 
ATOM     16  C   UNL A   1      39.597  28.774  28.941  1.00  0.00     0.049 A 
ATOM     17  N   UNL A   1      42.474  29.008  29.749  1.00  0.00    -0.248 NA
ATOM     18  C   UNL A   1      42.817  26.816  29.018  1.00  0.00     0.031 C 
ATOM     19  C   UNL A   1      38.183  28.723  28.567  1.00  0.00     0.029 A 
ATOM     20  N   UNL A   1      39.762  30.032  29.459  1.00  0.00    -0.354 N 
ATOM     21  C   UNL A   1      43.793  28.647  29.993  1.00  0.00     0.074 A 
ATOM     22  C   UNL A   1      43.946  27.279  29.538  1.00  0.00     0.031 C 
ATOM     23  C   UNL A   1      37.621  29.917  28.820  1.00  0.00     0.029 A 
ATOM     24  C   UNL A   1      38.628  30.804  29.393  1.00  0.00     0.049 A 
ATOM     25  H   UNL A   1      40.612  30.353  29.841  1.00  0.00     0.167 HD
ATOM     26  C   UNL A   1      44.789  29.381  30.545  1.00  0.00     0.031 A 
ATOM     27  C   UNL A   1      38.422  32.089  29.739  1.00  0.00     0.031 A 
ATOM     28  C   UNL A   1      44.656  30.745  30.981  1.00  0.00     0.049 A 
ATOM     29  C   UNL A   1      39.551  32.900  30.299  1.00  0.00     0.074 A 
ATOM     30  C   UNL A   1      45.616  31.570  31.544  1.00  0.00     0.029 A 
ATOM     31  N   UNL A   1      43.491  31.490  30.895  1.00  0.00    -0.354 N 
ATOM     32  N   UNL A   1      40.793  32.540  30.515  1.00  0.00    -0.248 NA
ATOM     33  C   UNL A   1      39.249  34.292  30.660  1.00  0.00     0.031 C 
ATOM     34  C   UNL A   1      45.026  32.814  31.806  1.00  0.00     0.029 A 
ATOM     35  C   UNL A   1      43.705  32.764  31.393  1.00  0.00     0.049 A 
ATOM     36  H   UNL A   1      42.636  31.162  30.534  1.00  0.00     0.167 HD
ATOM     37  C   UNL A   1      41.423  33.661  31.039  1.00  0.00     0.074 A 
ATOM     38  C   UNL A   1      40.430  34.717  31.092  1.00  0.00     0.031 C 
ATOM     39  C   UNL A   1      42.708  33.801  31.444  1.00  0.00     0.031 A 
BRANCH  26  40
ATOM     40  C   UNL A   1      46.114  28.701  30.723  1.00  0.00    -0.014 A 
ATOM     41  C   UNL A   1      46.410  28.000  31.905  1.00  0.00     0.010 A 
ATOM     42  C   UNL A   1      47.072  28.759  29.697  1.00  0.00     0.010 A 
ATOM     43  C   UNL A   1      47.661  27.401  32.075  1.00  0.00     0.020 A 
ATOM     44  C   UNL A   1      48.322  28.153  29.858  1.00  0.00     0.020 A 
ATOM     45  C   UNL A   1      48.615  27.495  31.055  1.00  0.00     0.054 A 
BRANCH  45  46
ATOM     46  S   UNL A   1      50.241  26.724  31.285  1.00  0.00     0.124 S 
ATOM     47  O   UNL A   1      50.638  27.249  32.589  1.00  0.00    -0.237 OA
ATOM     48  O   UNL A   1      49.939  25.295  31.252  1.00  0.00    -0.237 OA
ATOM     49  O   UNL A   1      51.014  27.219  30.149  1.00  0.00    -0.744 OA
ENDBRANCH  45  46
ENDBRANCH  26  40
BRANCH  27  50
ATOM     50  C   UNL A   1      37.084  32.690  29.522  1.00  0.00    -0.014 A 
ATOM     51  C   UNL A   1      36.190  32.822  30.598  1.00  0.00     0.010 A 
ATOM     52  C   UNL A   1      36.726  33.188  28.258  1.00  0.00     0.010 A 
ATOM     53  C   UNL A   1      34.957  33.452  30.416  1.00  0.00     0.020 A 
ATOM     54  C   UNL A   1      35.498  33.828  28.075  1.00  0.00     0.020 A 
ATOM     55  C   UNL A   1      34.620  33.954  29.155  1.00  0.00     0.054 A 
BRANCH  55  56
ATOM     56  S   UNL A   1      33.062  34.859  28.940  1.00  0.00     0.124 S 
ATOM     57  O   UNL A   1      32.344  34.006  28.000  1.00  0.00    -0.237 OA
ATOM     58  O   UNL A   1      32.517  34.906  30.296  1.00  0.00    -0.237 OA
ATOM     59  O   UNL A   1      33.502  36.150  28.413  1.00  0.00    -0.744 OA
ENDBRANCH  55  56
ENDBRANCH  27  50
BRANCH  39  60
ATOM     60  C   UNL A   1      43.106  35.144  31.981  1.00  0.00    -0.014 A 
ATOM     61  C   UNL A   1      42.926  35.449  33.340  1.00  0.00     0.010 A 
ATOM     62  C   UNL A   1      43.677  36.102  31.125  1.00  0.00     0.010 A 
ATOM     63  C   UNL A   1      43.286  36.706  33.834  1.00  0.00     0.020 A 
ATOM     64  C   UNL A   1      44.046  37.356  31.617  1.00  0.00     0.020 A 
ATOM     65  C   UNL A   1      43.833  37.655  32.966  1.00  0.00     0.054 A 
BRANCH  65  66
ATOM     66  S   UNL A   1      44.320  39.279  33.614  1.00  0.00     0.124 S 
ATOM     67  O   UNL A   1      44.865  38.931  34.923  1.00  0.00    -0.237 OA
ATOM     68  O   UNL A   1      45.297  39.750  32.633  1.00  0.00    -0.237 OA
ATOM     69  O   UNL A   1      43.064  40.025  33.636  1.00  0.00    -0.744 OA
ENDBRANCH  65  66
ENDBRANCH  39  60
ENDBRANCH  13  14
ENDBRANCH   6   8
ENDBRANCH   3   4
ENDBRANCH   2   3
ENDBRANCH   1   2
BRANCH   1  70
ATOM     70  C   UNL A   1      34.577  22.009  27.255  1.00  0.00     0.002 C 
BRANCH  70  71
ATOM     71  C   UNL A   1      33.047  21.945  27.294  1.00  0.00     0.021 C 
BRANCH  71  72
ATOM     72  C   UNL A   1      32.331  23.272  27.556  1.00  0.00     0.116 C 
BRANCH  72  73
ATOM     73  N   UNL A   1      31.354  23.613  26.534  1.00  0.00    -0.352 N 
ATOM     74  C   UNL A   1      31.328  24.876  25.985  1.00  0.00     0.255 C 
ATOM     75  H   UNL A   1      30.708  22.935  26.231  1.00  0.00     0.163 HD
ATOM     76  O   UNL A   1      30.657  25.757  26.511  1.00  0.00    -0.269 OA
BRANCH  74  77
ATOM     77  C   UNL A   1      32.090  25.104  24.722  1.00  0.00     0.082 A 
ATOM     78  C   UNL A   1      32.651  26.369  24.468  1.00  0.00     0.033 A 
ATOM     79  C   UNL A   1      32.210  24.107  23.740  1.00  0.00     0.132 A 
ATOM     80  C   UNL A   1      33.224  26.658  23.228  1.00  0.00     0.019 A 
ATOM     81  C   UNL A   1      32.754  24.427  22.485  1.00  0.00     0.048 A 
ATOM     82  Br  UNL A   1      33.934  28.379  22.901  1.00  0.00    -0.051 Br
ATOM     83  C   UNL A   1      33.258  25.699  22.225  1.00  0.00     0.019 A 
BRANCH  79  84
ATOM     84  O   UNL A   1      31.851  22.789  23.840  1.00  0.00    -0.488 OA
BRANCH  84  85
ATOM     85  C   UNL A   1      32.419  21.860  22.900  1.00  0.00     0.268 C 
BRANCH  85  86
ATOM     86  C   UNL A   1      32.461  20.406  23.309  1.00  0.00     0.025 A 
ATOM     87  C   UNL A   1      32.663  20.031  24.645  1.00  0.00     0.010 A 
ATOM     88  C   UNL A   1      32.330  19.400  22.347  1.00  0.00     0.129 A 
ATOM     89  C   UNL A   1      32.709  18.680  25.001  1.00  0.00     0.001 A 
ATOM     90  C   UNL A   1      32.379  18.053  22.696  1.00  0.00     0.039 A 
ATOM     91  F   UNL A   1      32.154  19.718  21.057  1.00  0.00    -0.207 F 
ATOM     92  C   UNL A   1      32.567  17.692  24.027  1.00  0.00     0.003 A 
ENDBRANCH  85  86
ENDBRANCH  84  85
ENDBRANCH  79  84
ENDBRANCH  74  77
ENDBRANCH  72  73
ENDBRANCH  71  72
ENDBRANCH  70  71
ENDBRANCH   1  70
TORSDOF 19
ENDMDL
