MODEL 1
REMARK VINA RESULT:     -10.7      0.000      0.000
REMARK SMILES Cc1cccc2sc(NC(=O)/C=C/C(=O)NCCCCCCNC(=O)c3ccc(-c4c5nc(c(-c6ccc(S(=O)(=O)[O-])cc6)c6ccc([nH]6)c(-c6ccc(S(=O)(=O)[O-])cc6)c6nc(c(-c7ccc(S(=O)(=O)[O-])cc7)c7ccc4[nH]7)C=C6)C=C5)cc3)nc12
REMARK SMILES IDX 20 1 19 2 18 3 17 4 16 5 14 6 15 7 13 9 12 10 10 11 9 12
REMARK SMILES IDX 11 14 8 15 1 16 2 17 3 18 87 19 4 20 6 21 86 22 5 23 7 24
REMARK SMILES IDX 21 25 22 26 23 27 24 28 25 30 26 31 27 32 85 33 28 34 84 35
REMARK SMILES IDX 29 36 30 37 31 38 78 39 32 40 83 41 77 42 79 43 33 44 82 45
REMARK SMILES IDX 76 46 75 47 34 49 64 50 45 51 63 52 46 53 49 54 62 55 80 56
REMARK SMILES IDX 47 57 48 58 61 60 81 61 50 62 35 63 36 64 44 65 37 66 43 67
REMARK SMILES IDX 38 68 39 69 40 70 41 71 42 72 65 73 66 74 74 75 67 76 73 77
REMARK SMILES IDX 68 78 69 79 70 80 71 81 72 82 51 83 52 84 60 85 53 86 59 87
REMARK SMILES IDX 54 88 55 89 56 90 57 91 58 92
REMARK H PARENT 16 8 9 13 23 29 79 48 49 59
REMARK Flexibility Score: inf
ROOT
ATOM      1  C   UNL A   1      34.857  22.245  26.512  1.00  0.00     0.002 C 
ENDROOT
BRANCH   1   2
ATOM      2  C   UNL A   1      34.484  21.100  25.563  1.00  0.00     0.002 C 
BRANCH   2   3
ATOM      3  C   UNL A   1      33.384  21.436  24.548  1.00  0.00     0.021 C 
BRANCH   3   4
ATOM      4  C   UNL A   1      31.978  21.086  25.023  1.00  0.00     0.116 C 
BRANCH   4   5
ATOM      5  N   UNL A   1      31.639  21.840  26.212  1.00  0.00    -0.353 N 
ATOM      6  C   UNL A   1      31.170  23.103  26.331  1.00  0.00     0.244 C 
ATOM      7  O   UNL A   1      30.805  23.526  27.425  1.00  0.00    -0.270 OA
ATOM      8  H   UNL A   1      31.768  21.360  27.062  1.00  0.00     0.163 HD
BRANCH   6   9
ATOM      9  C   UNL A   1      31.076  23.979  25.149  1.00  0.00     0.077 C 
ATOM     10  C   UNL A   1      30.494  25.185  25.227  1.00  0.00     0.077 C 
BRANCH  10  11
ATOM     11  C   UNL A   1      30.152  25.902  23.989  1.00  0.00     0.250 C 
ATOM     12  N   UNL A   1      30.681  27.127  23.712  1.00  0.00    -0.298 N 
ATOM     13  H   UNL A   1      30.325  27.539  22.892  1.00  0.00     0.172 HD
ATOM     14  O   UNL A   1      29.366  25.373  23.204  1.00  0.00    -0.270 OA
BRANCH  12  15
ATOM     15  C   UNL A   1      31.614  27.896  24.362  1.00  0.00     0.190 A 
ATOM     16  C   UNL A   1      31.256  31.668  26.434  1.00  0.00     0.047 C 
ATOM     17  C   UNL A   1      32.352  30.647  26.515  1.00  0.00    -0.024 A 
ATOM     18  C   UNL A   1      33.417  30.813  27.422  1.00  0.00     0.006 A 
ATOM     19  C   UNL A   1      32.344  29.486  25.707  1.00  0.00     0.087 A 
ATOM     20  C   UNL A   1      34.462  29.894  27.498  1.00  0.00     0.002 A 
ATOM     21  C   UNL A   1      33.448  28.635  25.740  1.00  0.00     0.057 A 
ATOM     22  N   UNL A   1      31.309  29.063  24.877  1.00  0.00    -0.220 NA
ATOM     23  C   UNL A   1      34.512  28.803  26.635  1.00  0.00     0.021 A 
ATOM     24  S   UNL A   1      33.249  27.458  24.517  1.00  0.00    -0.097 S 
ENDBRANCH  12  15
ENDBRANCH  10  11
ENDBRANCH   6   9
ENDBRANCH   4   5
ENDBRANCH   3   4
ENDBRANCH   2   3
ENDBRANCH   1   2
BRANCH   1  25
ATOM     25  C   UNL A   1      35.048  23.604  25.833  1.00  0.00     0.021 C 
BRANCH  25  26
ATOM     26  C   UNL A   1      36.487  24.102  25.836  1.00  0.00     0.116 C 
BRANCH  26  27
ATOM     27  N   UNL A   1      37.429  23.000  25.928  1.00  0.00    -0.352 N 
ATOM     28  C   UNL A   1      38.748  23.036  26.298  1.00  0.00     0.251 C 
ATOM     29  H   UNL A   1      37.074  22.112  25.694  1.00  0.00     0.163 HD
ATOM     30  O   UNL A   1      39.479  22.070  26.082  1.00  0.00    -0.269 OA
BRANCH  28  31
ATOM     31  C   UNL A   1      39.282  24.249  26.948  1.00  0.00     0.039 A 
ATOM     32  C   UNL A   1      40.054  25.140  26.201  1.00  0.00     0.014 A 
ATOM     33  C   UNL A   1      39.008  24.506  28.295  1.00  0.00     0.014 A 
ATOM     34  C   UNL A   1      40.517  26.313  26.797  1.00  0.00     0.010 A 
ATOM     35  C   UNL A   1      39.401  25.713  28.862  1.00  0.00     0.010 A 
ATOM     36  C   UNL A   1      40.172  26.622  28.123  1.00  0.00    -0.014 A 
BRANCH  36  37
ATOM     37  C   UNL A   1      40.621  27.885  28.759  1.00  0.00     0.031 A 
ATOM     38  C   UNL A   1      42.017  27.995  29.311  1.00  0.00     0.074 A 
ATOM     39  C   UNL A   1      39.757  28.911  28.884  1.00  0.00     0.049 A 
ATOM     40  N   UNL A   1      42.580  29.000  29.933  1.00  0.00    -0.248 NA
ATOM     41  C   UNL A   1      42.885  26.815  29.170  1.00  0.00     0.031 C 
ATOM     42  C   UNL A   1      38.366  28.908  28.424  1.00  0.00     0.029 A 
ATOM     43  N   UNL A   1      39.920  30.154  29.440  1.00  0.00    -0.354 N 
ATOM     44  C   UNL A   1      43.858  28.568  30.268  1.00  0.00     0.074 A 
ATOM     45  C   UNL A   1      43.968  27.194  29.833  1.00  0.00     0.031 C 
ATOM     46  C   UNL A   1      37.814  30.103  28.686  1.00  0.00     0.029 A 
ATOM     47  C   UNL A   1      38.793  30.941  29.371  1.00  0.00     0.049 A 
ATOM     48  H   UNL A   1      40.763  30.457  29.848  1.00  0.00     0.167 HD
ATOM     49  C   UNL A   1      44.857  29.259  30.866  1.00  0.00     0.031 A 
ATOM     50  C   UNL A   1      38.571  32.192  29.815  1.00  0.00     0.031 A 
ATOM     51  C   UNL A   1      44.741  30.629  31.293  1.00  0.00     0.049 A 
ATOM     52  C   UNL A   1      39.691  32.935  30.492  1.00  0.00     0.074 A 
ATOM     53  C   UNL A   1      45.709  31.439  31.859  1.00  0.00     0.029 A 
ATOM     54  N   UNL A   1      43.583  31.389  31.206  1.00  0.00    -0.354 N 
ATOM     55  N   UNL A   1      40.916  32.535  30.737  1.00  0.00    -0.248 NA
ATOM     56  C   UNL A   1      39.401  34.303  30.943  1.00  0.00     0.031 C 
ATOM     57  C   UNL A   1      45.121  32.668  32.171  1.00  0.00     0.029 A 
ATOM     58  C   UNL A   1      43.805  32.650  31.737  1.00  0.00     0.049 A 
ATOM     59  H   UNL A   1      42.731  31.079  30.824  1.00  0.00     0.167 HD
ATOM     60  C   UNL A   1      41.551  33.612  31.346  1.00  0.00     0.074 A 
ATOM     61  C   UNL A   1      40.579  34.684  31.416  1.00  0.00     0.031 C 
ATOM     62  C   UNL A   1      42.824  33.705  31.804  1.00  0.00     0.031 A 
BRANCH  49  63
ATOM     63  C   UNL A   1      46.159  28.538  31.103  1.00  0.00    -0.014 A 
ATOM     64  C   UNL A   1      46.435  27.916  32.336  1.00  0.00     0.010 A 
ATOM     65  C   UNL A   1      47.111  28.454  30.070  1.00  0.00     0.010 A 
ATOM     66  C   UNL A   1      47.655  27.269  32.546  1.00  0.00     0.020 A 
ATOM     67  C   UNL A   1      48.319  27.779  30.265  1.00  0.00     0.020 A 
ATOM     68  C   UNL A   1      48.591  27.207  31.510  1.00  0.00     0.054 A 
BRANCH  68  69
ATOM     69  S   UNL A   1      50.161  26.348  31.807  1.00  0.00     0.124 S 
ATOM     70  O   UNL A   1      51.015  26.913  30.765  1.00  0.00    -0.237 OA
ATOM     71  O   UNL A   1      50.490  26.747  33.173  1.00  0.00    -0.237 OA
ATOM     72  O   UNL A   1      49.823  24.937  31.636  1.00  0.00    -0.744 OA
ENDBRANCH  68  69
ENDBRANCH  49  63
BRANCH  50  73
ATOM     73  C   UNL A   1      37.238  32.825  29.614  1.00  0.00    -0.014 A 
ATOM     74  C   UNL A   1      36.377  33.041  30.705  1.00  0.00     0.010 A 
ATOM     75  C   UNL A   1      36.831  33.237  28.332  1.00  0.00     0.010 A 
ATOM     76  C   UNL A   1      35.129  33.641  30.515  1.00  0.00     0.020 A 
ATOM     77  C   UNL A   1      35.597  33.865  28.142  1.00  0.00     0.020 A 
ATOM     78  C   UNL A   1      34.749  34.054  29.235  1.00  0.00     0.054 A 
BRANCH  78  79
ATOM     79  S   UNL A   1      33.150  34.885  29.023  1.00  0.00     0.124 S 
ATOM     80  O   UNL A   1      33.555  36.215  28.581  1.00  0.00    -0.237 OA
ATOM     81  O   UNL A   1      32.496  34.054  28.013  1.00  0.00    -0.237 OA
ATOM     82  O   UNL A   1      32.552  34.821  30.354  1.00  0.00    -0.744 OA
ENDBRANCH  78  79
ENDBRANCH  50  73
BRANCH  62  83
ATOM     83  C   UNL A   1      43.253  35.022  32.395  1.00  0.00    -0.014 A 
ATOM     84  C   UNL A   1      43.928  35.984  31.624  1.00  0.00     0.010 A 
ATOM     85  C   UNL A   1      42.924  35.322  33.730  1.00  0.00     0.010 A 
ATOM     86  C   UNL A   1      44.295  37.210  32.187  1.00  0.00     0.020 A 
ATOM     87  C   UNL A   1      43.260  36.558  34.287  1.00  0.00     0.020 A 
ATOM     88  C   UNL A   1      43.957  37.489  33.514  1.00  0.00     0.054 A 
BRANCH  88  89
ATOM     89  S   UNL A   1      44.406  39.104  34.207  1.00  0.00     0.124 S 
ATOM     90  O   UNL A   1      45.712  39.343  33.600  1.00  0.00    -0.237 OA
ATOM     91  O   UNL A   1      43.325  39.966  33.734  1.00  0.00    -0.237 OA
ATOM     92  O   UNL A   1      44.422  38.871  35.649  1.00  0.00    -0.744 OA
ENDBRANCH  88  89
ENDBRANCH  62  83
ENDBRANCH  36  37
ENDBRANCH  28  31
ENDBRANCH  26  27
ENDBRANCH  25  26
ENDBRANCH   1  25
TORSDOF 18
ENDMDL
MODEL 2
REMARK VINA RESULT:     -10.5      4.733     11.054
REMARK SMILES Cc1cccc2sc(NC(=O)/C=C/C(=O)NCCCCCCNC(=O)c3ccc(-c4c5nc(c(-c6ccc(S(=O)(=O)[O-])cc6)c6ccc([nH]6)c(-c6ccc(S(=O)(=O)[O-])cc6)c6nc(c(-c7ccc(S(=O)(=O)[O-])cc7)c7ccc4[nH]7)C=C6)C=C5)cc3)nc12
REMARK SMILES IDX 20 1 19 2 18 3 17 4 16 5 14 6 15 7 13 9 12 10 10 11 9 12
REMARK SMILES IDX 11 14 8 15 1 16 2 17 3 18 87 19 4 20 6 21 86 22 5 23 7 24
REMARK SMILES IDX 21 25 22 26 23 27 24 28 25 30 26 31 27 32 85 33 28 34 84 35
REMARK SMILES IDX 29 36 30 37 31 38 78 39 32 40 83 41 77 42 79 43 33 44 82 45
REMARK SMILES IDX 76 46 75 47 34 49 64 50 45 51 63 52 46 53 49 54 62 55 80 56
REMARK SMILES IDX 47 57 48 58 61 60 81 61 50 62 35 63 36 64 44 65 37 66 43 67
REMARK SMILES IDX 38 68 39 69 40 70 41 71 42 72 65 73 66 74 74 75 67 76 73 77
REMARK SMILES IDX 68 78 69 79 70 80 71 81 72 82 51 83 52 84 60 85 53 86 59 87
REMARK SMILES IDX 54 88 55 89 56 90 57 91 58 92
REMARK H PARENT 16 8 9 13 23 29 79 48 49 59
REMARK Flexibility Score: inf
ROOT
ATOM      1  C   UNL A   1      37.174  33.566  34.967  1.00  0.00     0.002 C 
ENDROOT
BRANCH   1   2
ATOM      2  C   UNL A   1      35.705  34.005  34.924  1.00  0.00     0.002 C 
BRANCH   2   3
ATOM      3  C   UNL A   1      35.117  34.151  33.514  1.00  0.00     0.021 C 
BRANCH   3   4
ATOM      4  C   UNL A   1      34.686  35.573  33.170  1.00  0.00     0.116 C 
BRANCH   4   5
ATOM      5  N   UNL A   1      33.248  35.710  33.280  1.00  0.00    -0.353 N 
ATOM      6  C   UNL A   1      32.338  36.064  32.344  1.00  0.00     0.244 C 
ATOM      7  O   UNL A   1      31.137  35.988  32.591  1.00  0.00    -0.270 OA
ATOM      8  H   UNL A   1      32.877  35.514  34.171  1.00  0.00     0.163 HD
BRANCH   6   9
ATOM      9  C   UNL A   1      32.776  36.528  31.016  1.00  0.00     0.077 C 
ATOM     10  C   UNL A   1      32.959  35.663  30.007  1.00  0.00     0.077 C 
BRANCH  10  11
ATOM     11  C   UNL A   1      33.671  36.104  28.798  1.00  0.00     0.250 C 
ATOM     12  N   UNL A   1      34.376  35.224  28.033  1.00  0.00    -0.298 N 
ATOM     13  H   UNL A   1      34.867  35.645  27.290  1.00  0.00     0.172 HD
ATOM     14  O   UNL A   1      33.624  37.294  28.493  1.00  0.00    -0.270 OA
BRANCH  12  15
ATOM     15  C   UNL A   1      34.532  33.862  28.101  1.00  0.00     0.190 A 
ATOM     16  C   UNL A   1      31.906  30.631  26.957  1.00  0.00     0.047 C 
ATOM     17  C   UNL A   1      33.382  30.600  27.215  1.00  0.00    -0.024 A 
ATOM     18  C   UNL A   1      34.120  29.417  27.005  1.00  0.00     0.006 A 
ATOM     19  C   UNL A   1      34.083  31.749  27.653  1.00  0.00     0.087 A 
ATOM     20  C   UNL A   1      35.487  29.354  27.264  1.00  0.00     0.002 A 
ATOM     21  C   UNL A   1      35.430  31.628  27.991  1.00  0.00     0.057 A 
ATOM     22  N   UNL A   1      33.570  33.039  27.758  1.00  0.00    -0.220 NA
ATOM     23  C   UNL A   1      36.162  30.451  27.792  1.00  0.00     0.021 A 
ATOM     24  S   UNL A   1      35.939  33.105  28.683  1.00  0.00    -0.097 S 
ENDBRANCH  12  15
ENDBRANCH  10  11
ENDBRANCH   6   9
ENDBRANCH   4   5
ENDBRANCH   3   4
ENDBRANCH   2   3
ENDBRANCH   1   2
BRANCH   1  25
ATOM     25  C   UNL A   1      37.740  33.090  33.627  1.00  0.00     0.021 C 
BRANCH  25  26
ATOM     26  C   UNL A   1      38.070  31.604  33.586  1.00  0.00     0.116 C 
BRANCH  26  27
ATOM     27  N   UNL A   1      36.956  30.828  33.068  1.00  0.00    -0.352 N 
ATOM     28  C   UNL A   1      36.924  30.018  31.963  1.00  0.00     0.251 C 
ATOM     29  H   UNL A   1      36.116  30.891  33.578  1.00  0.00     0.163 HD
ATOM     30  O   UNL A   1      35.847  29.633  31.509  1.00  0.00    -0.269 OA
BRANCH  28  31
ATOM     31  C   UNL A   1      38.192  29.624  31.320  1.00  0.00     0.039 A 
ATOM     32  C   UNL A   1      38.469  30.072  30.027  1.00  0.00     0.014 A 
ATOM     33  C   UNL A   1      39.110  28.820  32.003  1.00  0.00     0.014 A 
ATOM     34  C   UNL A   1      39.690  29.746  29.434  1.00  0.00     0.010 A 
ATOM     35  C   UNL A   1      40.356  28.564  31.443  1.00  0.00     0.010 A 
ATOM     36  C   UNL A   1      40.653  29.012  30.147  1.00  0.00    -0.014 A 
BRANCH  36  37
ATOM     37  C   UNL A   1      41.972  28.692  29.548  1.00  0.00     0.031 A 
ATOM     38  C   UNL A   1      43.049  29.743  29.495  1.00  0.00     0.074 A 
ATOM     39  C   UNL A   1      42.182  27.476  29.010  1.00  0.00     0.049 A 
ATOM     40  N   UNL A   1      44.250  29.666  28.981  1.00  0.00    -0.248 NA
ATOM     41  C   UNL A   1      42.726  31.060  30.069  1.00  0.00     0.031 C 
ATOM     42  C   UNL A   1      41.200  26.389  28.966  1.00  0.00     0.029 A 
ATOM     43  N   UNL A   1      43.287  26.950  28.392  1.00  0.00    -0.354 N 
ATOM     44  C   UNL A   1      44.818  30.923  29.157  1.00  0.00     0.074 A 
ATOM     45  C   UNL A   1      43.811  31.759  29.772  1.00  0.00     0.031 C 
ATOM     46  C   UNL A   1      41.760  25.316  28.385  1.00  0.00     0.029 A 
ATOM     47  C   UNL A   1      43.119  25.650  27.974  1.00  0.00     0.049 A 
ATOM     48  H   UNL A   1      44.122  27.454  28.260  1.00  0.00     0.167 HD
ATOM     49  C   UNL A   1      46.070  31.338  28.854  1.00  0.00     0.031 A 
ATOM     50  C   UNL A   1      43.963  24.822  27.328  1.00  0.00     0.031 A 
ATOM     51  C   UNL A   1      47.068  30.498  28.244  1.00  0.00     0.049 A 
ATOM     52  C   UNL A   1      45.343  25.311  26.985  1.00  0.00     0.074 A 
ATOM     53  C   UNL A   1      48.383  30.804  27.945  1.00  0.00     0.029 A 
ATOM     54  N   UNL A   1      46.858  29.188  27.837  1.00  0.00    -0.354 N 
ATOM     55  N   UNL A   1      45.887  26.481  27.223  1.00  0.00    -0.248 NA
ATOM     56  C   UNL A   1      46.229  24.363  26.295  1.00  0.00     0.031 C 
ATOM     57  C   UNL A   1      48.951  29.700  27.300  1.00  0.00     0.029 A 
ATOM     58  C   UNL A   1      48.011  28.683  27.260  1.00  0.00     0.049 A 
ATOM     59  H   UNL A   1      46.014  28.692  27.941  1.00  0.00     0.167 HD
ATOM     60  C   UNL A   1      47.187  26.400  26.737  1.00  0.00     0.074 A 
ATOM     61  C   UNL A   1      47.352  25.063  26.207  1.00  0.00     0.031 C 
ATOM     62  C   UNL A   1      48.157  27.349  26.731  1.00  0.00     0.031 A 
BRANCH  49  63
ATOM     63  C   UNL A   1      46.425  32.769  29.166  1.00  0.00    -0.014 A 
ATOM     64  C   UNL A   1      46.982  33.129  30.408  1.00  0.00     0.010 A 
ATOM     65  C   UNL A   1      46.228  33.767  28.193  1.00  0.00     0.010 A 
ATOM     66  C   UNL A   1      47.286  34.463  30.689  1.00  0.00     0.020 A 
ATOM     67  C   UNL A   1      46.563  35.098  28.458  1.00  0.00     0.020 A 
ATOM     68  C   UNL A   1      47.072  35.440  29.713  1.00  0.00     0.054 A 
BRANCH  68  69
ATOM     69  S   UNL A   1      47.490  37.162  30.101  1.00  0.00     0.124 S 
ATOM     70  O   UNL A   1      48.169  37.024  31.387  1.00  0.00    -0.237 OA
ATOM     71  O   UNL A   1      48.343  37.544  28.979  1.00  0.00    -0.237 OA
ATOM     72  O   UNL A   1      46.193  37.832  30.151  1.00  0.00    -0.744 OA
ENDBRANCH  68  69
ENDBRANCH  49  63
BRANCH  50  73
ATOM     73  C   UNL A   1      43.527  23.441  26.983  1.00  0.00    -0.014 A 
ATOM     74  C   UNL A   1      43.875  22.869  25.746  1.00  0.00     0.010 A 
ATOM     75  C   UNL A   1      42.779  22.680  27.900  1.00  0.00     0.010 A 
ATOM     76  C   UNL A   1      43.470  21.570  25.427  1.00  0.00     0.020 A 
ATOM     77  C   UNL A   1      42.398  21.369  27.597  1.00  0.00     0.020 A 
ATOM     78  C   UNL A   1      42.738  20.826  26.357  1.00  0.00     0.054 A 
BRANCH  78  79
ATOM     79  S   UNL A   1      42.276  19.121  25.944  1.00  0.00     0.124 S 
ATOM     80  O   UNL A   1      40.818  19.194  25.941  1.00  0.00    -0.237 OA
ATOM     81  O   UNL A   1      42.903  18.934  24.637  1.00  0.00    -0.237 OA
ATOM     82  O   UNL A   1      42.863  18.335  27.027  1.00  0.00    -0.744 OA
ENDBRANCH  78  79
ENDBRANCH  50  73
BRANCH  62  83
ATOM     83  C   UNL A   1      49.497  26.965  26.162  1.00  0.00    -0.014 A 
ATOM     84  C   UNL A   1      50.395  26.159  26.884  1.00  0.00     0.010 A 
ATOM     85  C   UNL A   1      49.838  27.372  24.858  1.00  0.00     0.010 A 
ATOM     86  C   UNL A   1      51.624  25.795  26.325  1.00  0.00     0.020 A 
ATOM     87  C   UNL A   1      51.051  26.985  24.284  1.00  0.00     0.020 A 
ATOM     88  C   UNL A   1      51.942  26.209  25.028  1.00  0.00     0.054 A 
BRANCH  88  89
ATOM     89  S   UNL A   1      53.524  25.686  24.310  1.00  0.00     0.124 S 
ATOM     90  O   UNL A   1      53.319  25.961  22.891  1.00  0.00    -0.237 OA
ATOM     91  O   UNL A   1      54.484  26.555  24.987  1.00  0.00    -0.237 OA
ATOM     92  O   UNL A   1      53.616  24.272  24.665  1.00  0.00    -0.744 OA
ENDBRANCH  88  89
ENDBRANCH  62  83
ENDBRANCH  36  37
ENDBRANCH  28  31
ENDBRANCH  26  27
ENDBRANCH  25  26
ENDBRANCH   1  25
TORSDOF 18
ENDMDL
MODEL 3
REMARK VINA RESULT:     -10.5      4.188      9.676
REMARK SMILES Cc1cccc2sc(NC(=O)/C=C/C(=O)NCCCCCCNC(=O)c3ccc(-c4c5nc(c(-c6ccc(S(=O)(=O)[O-])cc6)c6ccc([nH]6)c(-c6ccc(S(=O)(=O)[O-])cc6)c6nc(c(-c7ccc(S(=O)(=O)[O-])cc7)c7ccc4[nH]7)C=C6)C=C5)cc3)nc12
REMARK SMILES IDX 20 1 19 2 18 3 17 4 16 5 14 6 15 7 13 9 12 10 10 11 9 12
REMARK SMILES IDX 11 14 8 15 1 16 2 17 3 18 87 19 4 20 6 21 86 22 5 23 7 24
REMARK SMILES IDX 21 25 22 26 23 27 24 28 25 30 26 31 27 32 85 33 28 34 84 35
REMARK SMILES IDX 29 36 30 37 31 38 78 39 32 40 83 41 77 42 79 43 33 44 82 45
REMARK SMILES IDX 76 46 75 47 34 49 64 50 45 51 63 52 46 53 49 54 62 55 80 56
REMARK SMILES IDX 47 57 48 58 61 60 81 61 50 62 35 63 36 64 44 65 37 66 43 67
REMARK SMILES IDX 38 68 39 69 40 70 41 71 42 72 65 73 66 74 74 75 67 76 73 77
REMARK SMILES IDX 68 78 69 79 70 80 71 81 72 82 51 83 52 84 60 85 53 86 59 87
REMARK SMILES IDX 54 88 55 89 56 90 57 91 58 92
REMARK H PARENT 16 8 9 13 23 29 79 48 49 59
REMARK Flexibility Score: inf
ROOT
ATOM      1  C   UNL A   1      34.000  27.864  25.927  1.00  0.00     0.002 C 
ENDROOT
BRANCH   1   2
ATOM      2  C   UNL A   1      33.621  28.496  24.582  1.00  0.00     0.002 C 
BRANCH   2   3
ATOM      3  C   UNL A   1      33.776  27.572  23.368  1.00  0.00     0.021 C 
BRANCH   3   4
ATOM      4  C   UNL A   1      33.124  26.204  23.546  1.00  0.00     0.116 C 
BRANCH   4   5
ATOM      5  N   UNL A   1      31.682  26.311  23.450  1.00  0.00    -0.353 N 
ATOM      6  C   UNL A   1      30.726  25.918  24.322  1.00  0.00     0.244 C 
ATOM      7  O   UNL A   1      29.551  26.222  24.129  1.00  0.00    -0.270 OA
ATOM      8  H   UNL A   1      31.349  26.734  22.626  1.00  0.00     0.163 HD
BRANCH   6   9
ATOM      9  C   UNL A   1      31.084  25.138  25.520  1.00  0.00     0.077 C 
ATOM     10  C   UNL A   1      31.191  23.802  25.468  1.00  0.00     0.077 C 
BRANCH  10  11
ATOM     11  C   UNL A   1      31.254  23.033  26.721  1.00  0.00     0.250 C 
ATOM     12  N   UNL A   1      32.279  22.170  26.970  1.00  0.00    -0.298 N 
ATOM     13  H   UNL A   1      32.177  21.661  27.807  1.00  0.00     0.172 HD
ATOM     14  O   UNL A   1      30.351  23.180  27.543  1.00  0.00    -0.270 OA
BRANCH  12  15
ATOM     15  C   UNL A   1      33.425  21.875  26.274  1.00  0.00     0.190 A 
ATOM     16  C   UNL A   1      37.231  23.904  26.062  1.00  0.00     0.047 C 
ATOM     17  C   UNL A   1      36.891  22.494  25.682  1.00  0.00    -0.024 A 
ATOM     18  C   UNL A   1      37.900  21.604  25.260  1.00  0.00     0.006 A 
ATOM     19  C   UNL A   1      35.564  22.006  25.751  1.00  0.00     0.087 A 
ATOM     20  C   UNL A   1      37.607  20.298  24.875  1.00  0.00     0.002 A 
ATOM     21  C   UNL A   1      35.291  20.726  25.272  1.00  0.00     0.057 A 
ATOM     22  N   UNL A   1      34.467  22.671  26.293  1.00  0.00    -0.220 NA
ATOM     23  C   UNL A   1      36.291  19.844  24.845  1.00  0.00     0.021 A 
ATOM     24  S   UNL A   1      33.597  20.504  25.284  1.00  0.00    -0.097 S 
ENDBRANCH  12  15
ENDBRANCH  10  11
ENDBRANCH   6   9
ENDBRANCH   4   5
ENDBRANCH   3   4
ENDBRANCH   2   3
ENDBRANCH   1   2
BRANCH   1  25
ATOM     25  C   UNL A   1      34.026  28.838  27.108  1.00  0.00     0.021 C 
BRANCH  25  26
ATOM     26  C   UNL A   1      35.426  29.211  27.573  1.00  0.00     0.116 C 
BRANCH  26  27
ATOM     27  N   UNL A   1      35.415  29.717  28.936  1.00  0.00    -0.352 N 
ATOM     28  C   UNL A   1      36.418  29.673  29.868  1.00  0.00     0.251 C 
ATOM     29  H   UNL A   1      34.579  30.149  29.225  1.00  0.00     0.163 HD
ATOM     30  O   UNL A   1      36.175  29.910  31.051  1.00  0.00    -0.269 OA
BRANCH  28  31
ATOM     31  C   UNL A   1      37.787  29.327  29.439  1.00  0.00     0.039 A 
ATOM     32  C   UNL A   1      38.178  29.590  28.126  1.00  0.00     0.014 A 
ATOM     33  C   UNL A   1      38.685  28.751  30.343  1.00  0.00     0.014 A 
ATOM     34  C   UNL A   1      39.487  29.312  27.730  1.00  0.00     0.010 A 
ATOM     35  C   UNL A   1      40.009  28.551  29.971  1.00  0.00     0.010 A 
ATOM     36  C   UNL A   1      40.419  28.816  28.655  1.00  0.00    -0.014 A 
BRANCH  36  37
ATOM     37  C   UNL A   1      41.826  28.555  28.263  1.00  0.00     0.031 A 
ATOM     38  C   UNL A   1      42.248  27.169  27.854  1.00  0.00     0.074 A 
ATOM     39  C   UNL A   1      42.731  29.550  28.324  1.00  0.00     0.049 A 
ATOM     40  N   UNL A   1      43.435  26.736  27.512  1.00  0.00    -0.248 NA
ATOM     41  C   UNL A   1      41.208  26.128  27.851  1.00  0.00     0.031 C 
ATOM     42  C   UNL A   1      42.449  30.925  28.745  1.00  0.00     0.029 A 
ATOM     43  N   UNL A   1      44.072  29.560  28.038  1.00  0.00    -0.354 N 
ATOM     44  C   UNL A   1      43.287  25.375  27.271  1.00  0.00     0.074 A 
ATOM     45  C   UNL A   1      41.910  25.043  27.559  1.00  0.00     0.031 C 
ATOM     46  C   UNL A   1      43.575  31.651  28.656  1.00  0.00     0.029 A 
ATOM     47  C   UNL A   1      44.666  30.787  28.217  1.00  0.00     0.049 A 
ATOM     48  H   UNL A   1      44.563  28.764  27.731  1.00  0.00     0.167 HD
ATOM     49  C   UNL A   1      44.208  24.487  26.829  1.00  0.00     0.031 A 
ATOM     50  C   UNL A   1      45.946  31.173  28.053  1.00  0.00     0.031 A 
ATOM     51  C   UNL A   1      45.576  24.827  26.541  1.00  0.00     0.049 A 
ATOM     52  C   UNL A   1      46.956  30.164  27.579  1.00  0.00     0.074 A 
ATOM     53  C   UNL A   1      46.576  24.015  26.037  1.00  0.00     0.029 A 
ATOM     54  N   UNL A   1      46.138  26.080  26.737  1.00  0.00    -0.354 N 
ATOM     55  N   UNL A   1      46.781  28.897  27.286  1.00  0.00    -0.248 NA
ATOM     56  C   UNL A   1      48.335  30.640  27.400  1.00  0.00     0.031 C 
ATOM     57  C   UNL A   1      47.759  24.760  25.987  1.00  0.00     0.029 A 
ATOM     58  C   UNL A   1      47.480  26.056  26.393  1.00  0.00     0.049 A 
ATOM     59  H   UNL A   1      45.655  26.870  27.071  1.00  0.00     0.167 HD
ATOM     60  C   UNL A   1      48.021  28.431  26.864  1.00  0.00     0.074 A 
ATOM     61  C   UNL A   1      48.931  29.557  26.923  1.00  0.00     0.031 C 
ATOM     62  C   UNL A   1      48.374  27.185  26.463  1.00  0.00     0.031 A 
BRANCH  49  63
ATOM     63  C   UNL A   1      43.765  23.058  26.643  1.00  0.00    -0.014 A 
ATOM     64  C   UNL A   1      44.093  22.338  25.478  1.00  0.00     0.010 A 
ATOM     65  C   UNL A   1      43.035  22.414  27.659  1.00  0.00     0.010 A 
ATOM     66  C   UNL A   1      43.658  21.021  25.312  1.00  0.00     0.020 A 
ATOM     67  C   UNL A   1      42.627  21.085  27.512  1.00  0.00     0.020 A 
ATOM     68  C   UNL A   1      42.924  20.404  26.330  1.00  0.00     0.054 A 
BRANCH  68  69
ATOM     69  S   UNL A   1      42.385  18.688  26.093  1.00  0.00     0.124 S 
ATOM     70  O   UNL A   1      43.298  18.226  25.051  1.00  0.00    -0.237 OA
ATOM     71  O   UNL A   1      42.592  18.103  27.415  1.00  0.00    -0.237 OA
ATOM     72  O   UNL A   1      40.988  18.816  25.683  1.00  0.00    -0.744 OA
ENDBRANCH  68  69
ENDBRANCH  49  63
BRANCH  50  73
ATOM     73  C   UNL A   1      46.335  32.584  28.323  1.00  0.00    -0.014 A 
ATOM     74  C   UNL A   1      46.819  32.964  29.587  1.00  0.00     0.010 A 
ATOM     75  C   UNL A   1      46.246  33.555  27.308  1.00  0.00     0.010 A 
ATOM     76  C   UNL A   1      47.191  34.288  29.836  1.00  0.00     0.020 A 
ATOM     77  C   UNL A   1      46.646  34.873  27.544  1.00  0.00     0.020 A 
ATOM     78  C   UNL A   1      47.107  35.234  28.811  1.00  0.00     0.054 A 
BRANCH  78  79
ATOM     79  S   UNL A   1      47.651  36.932  29.140  1.00  0.00     0.124 S 
ATOM     80  O   UNL A   1      47.272  37.106  30.539  1.00  0.00    -0.237 OA
ATOM     81  O   UNL A   1      49.087  36.859  28.878  1.00  0.00    -0.237 OA
ATOM     82  O   UNL A   1      46.890  37.729  28.180  1.00  0.00    -0.744 OA
ENDBRANCH  78  79
ENDBRANCH  50  73
BRANCH  62  83
ATOM     83  C   UNL A   1      49.799  26.976  26.023  1.00  0.00    -0.014 A 
ATOM     84  C   UNL A   1      50.805  26.631  26.941  1.00  0.00     0.010 A 
ATOM     85  C   UNL A   1      50.123  27.073  24.656  1.00  0.00     0.010 A 
ATOM     86  C   UNL A   1      52.117  26.419  26.506  1.00  0.00     0.020 A 
ATOM     87  C   UNL A   1      51.425  26.831  24.213  1.00  0.00     0.020 A 
ATOM     88  C   UNL A   1      52.417  26.519  25.144  1.00  0.00     0.054 A 
BRANCH  88  89
ATOM     89  S   UNL A   1      54.117  26.195  24.600  1.00  0.00     0.124 S 
ATOM     90  O   UNL A   1      54.892  27.037  25.508  1.00  0.00    -0.237 OA
ATOM     91  O   UNL A   1      54.251  24.755  24.810  1.00  0.00    -0.237 OA
ATOM     92  O   UNL A   1      54.121  26.618  23.202  1.00  0.00    -0.744 OA
ENDBRANCH  88  89
ENDBRANCH  62  83
ENDBRANCH  36  37
ENDBRANCH  28  31
ENDBRANCH  26  27
ENDBRANCH  25  26
ENDBRANCH   1  25
TORSDOF 18
ENDMDL
