MODEL 1
REMARK VINA RESULT:     -11.7      0.000      0.000
REMARK SMILES O=C(Cc1cccn1-c1ccccc1F)NCCCCCCNC(=O)c1ccc(-c2c3nc(c(-c4ccc(S(=O)(=O)[O-])cc4)c4ccc([nH]4)c(-c4ccc(S(=O)(=O)[O-])cc4)c4nc(c(-c5ccc(S(=O)(=O)[O-])cc5)c5ccc2[nH]5)C=C4)C=C3)cc1
REMARK SMILES IDX 20 1 19 2 18 3 17 4 16 5 1 6 2 7 3 9 4 10 5 11 8 12 6 13
REMARK SMILES IDX 7 14 9 15 10 16 14 17 11 18 13 19 15 20 12 21 21 22 22 23
REMARK SMILES IDX 23 24 24 25 25 27 26 28 27 29 85 30 28 31 84 32 29 33 30 34
REMARK SMILES IDX 31 35 78 36 32 37 83 38 77 39 79 40 33 41 82 42 76 43 75 44
REMARK SMILES IDX 34 46 64 47 45 48 63 49 46 50 49 51 62 52 80 53 47 54 48 55
REMARK SMILES IDX 61 57 81 58 50 59 35 60 36 61 44 62 37 63 43 64 38 65 39 66
REMARK SMILES IDX 40 67 41 68 42 69 65 70 66 71 74 72 67 73 73 74 68 75 69 76
REMARK SMILES IDX 70 77 71 78 72 79 51 80 52 81 60 82 53 83 59 84 54 85 55 86
REMARK SMILES IDX 56 87 57 88 58 89
REMARK H PARENT 16 8 23 26 79 45 49 56
REMARK Flexibility Score: inf
ROOT
ATOM      1  C   UNL A   1      32.910  27.434  25.638  1.00  0.00     0.002 C 
ENDROOT
BRANCH   1   2
ATOM      2  C   UNL A   1      31.761  27.330  24.631  1.00  0.00     0.002 C 
BRANCH   2   3
ATOM      3  C   UNL A   1      31.538  25.935  24.034  1.00  0.00     0.021 C 
BRANCH   3   4
ATOM      4  C   UNL A   1      32.486  25.556  22.895  1.00  0.00     0.116 C 
BRANCH   4   5
ATOM      5  N   UNL A   1      33.602  24.749  23.344  1.00  0.00    -0.356 N 
ATOM      6  O   UNL A   1      33.002  22.874  22.166  1.00  0.00    -0.275 OA
ATOM      7  C   UNL A   1      33.778  23.446  22.928  1.00  0.00     0.225 C 
ATOM      8  H   UNL A   1      34.255  25.143  23.967  1.00  0.00     0.163 HD
BRANCH   7   9
ATOM      9  C   UNL A   1      35.035  22.779  23.480  1.00  0.00     0.154 C 
BRANCH   9  10
ATOM     10  C   UNL A   1      34.859  22.446  24.935  1.00  0.00     0.032 A 
ATOM     11  C   UNL A   1      35.109  23.276  26.018  1.00  0.00     0.024 A 
ATOM     12  N   UNL A   1      34.304  21.271  25.428  1.00  0.00    -0.318 N 
ATOM     13  C   UNL A   1      34.605  22.651  27.176  1.00  0.00     0.020 A 
ATOM     14  C   UNL A   1      34.058  21.455  26.777  1.00  0.00     0.091 A 
BRANCH  12  15
ATOM     15  C   UNL A   1      34.048  20.048  24.764  1.00  0.00     0.081 A 
ATOM     16  C   UNL A   1      32.753  19.776  24.300  1.00  0.00     0.030 A 
ATOM     17  C   UNL A   1      35.033  19.065  24.675  1.00  0.00     0.147 A 
ATOM     18  C   UNL A   1      32.459  18.526  23.752  1.00  0.00     0.002 A 
ATOM     19  C   UNL A   1      34.736  17.815  24.134  1.00  0.00     0.041 A 
ATOM     20  F   UNL A   1      36.259  19.254  25.178  1.00  0.00    -0.205 F 
ATOM     21  C   UNL A   1      33.447  17.544  23.678  1.00  0.00     0.003 A 
ENDBRANCH  12  15
ENDBRANCH   9  10
ENDBRANCH   7   9
ENDBRANCH   4   5
ENDBRANCH   3   4
ENDBRANCH   2   3
ENDBRANCH   1   2
BRANCH   1  22
ATOM     22  C   UNL A   1      33.506  28.832  25.828  1.00  0.00     0.021 C 
BRANCH  22  23
ATOM     23  C   UNL A   1      34.597  28.889  26.897  1.00  0.00     0.116 C 
BRANCH  23  24
ATOM     24  N   UNL A   1      34.950  30.262  27.241  1.00  0.00    -0.352 N 
ATOM     25  C   UNL A   1      36.021  30.711  27.980  1.00  0.00     0.251 C 
ATOM     26  H   UNL A   1      34.343  30.957  26.900  1.00  0.00     0.163 HD
ATOM     27  O   UNL A   1      36.027  31.844  28.432  1.00  0.00    -0.269 OA
BRANCH  25  28
ATOM     28  C   UNL A   1      37.148  29.797  28.246  1.00  0.00     0.039 A 
ATOM     29  C   UNL A   1      38.193  29.725  27.319  1.00  0.00     0.014 A 
ATOM     30  C   UNL A   1      37.162  29.013  29.405  1.00  0.00     0.014 A 
ATOM     31  C   UNL A   1      39.302  28.935  27.605  1.00  0.00     0.010 A 
ATOM     32  C   UNL A   1      38.278  28.244  29.705  1.00  0.00     0.010 A 
ATOM     33  C   UNL A   1      39.357  28.228  28.816  1.00  0.00    -0.014 A 
BRANCH  33  34
ATOM     34  C   UNL A   1      40.633  27.600  29.226  1.00  0.00     0.031 A 
ATOM     35  C   UNL A   1      40.940  26.338  28.391  1.00  0.00     0.074 A 
ATOM     36  C   UNL A   1      41.306  28.193  30.260  1.00  0.00     0.049 A 
ATOM     37  N   UNL A   1      41.609  25.277  28.714  1.00  0.00    -0.248 NA
ATOM     38  C   UNL A   1      40.345  26.188  27.030  1.00  0.00     0.031 C 
ATOM     39  C   UNL A   1      40.879  29.442  30.935  1.00  0.00     0.029 A 
ATOM     40  N   UNL A   1      42.460  27.896  30.957  1.00  0.00    -0.354 N 
ATOM     41  C   UNL A   1      41.647  24.414  27.591  1.00  0.00     0.074 A 
ATOM     42  C   UNL A   1      40.777  24.993  26.613  1.00  0.00     0.031 C 
ATOM     43  C   UNL A   1      41.697  29.742  31.968  1.00  0.00     0.029 A 
ATOM     44  C   UNL A   1      42.735  28.737  32.070  1.00  0.00     0.049 A 
ATOM     45  H   UNL A   1      43.053  27.152  30.700  1.00  0.00     0.167 HD
ATOM     46  C   UNL A   1      42.484  23.335  27.507  1.00  0.00     0.031 A 
ATOM     47  C   UNL A   1      43.694  28.604  33.038  1.00  0.00     0.031 A 
ATOM     48  C   UNL A   1      43.229  23.220  28.714  1.00  0.00     0.049 A 
ATOM     49  C   UNL A   1      44.510  27.451  32.633  1.00  0.00     0.074 A 
ATOM     50  C   UNL A   1      42.884  22.847  29.985  1.00  0.00     0.029 A 
ATOM     51  N   UNL A   1      44.428  23.892  28.741  1.00  0.00    -0.354 N 
ATOM     52  N   UNL A   1      45.366  27.441  31.658  1.00  0.00    -0.248 NA
ATOM     53  C   UNL A   1      44.310  26.175  33.335  1.00  0.00     0.031 C 
ATOM     54  C   UNL A   1      43.605  23.758  30.783  1.00  0.00     0.029 A 
ATOM     55  C   UNL A   1      44.523  24.454  29.988  1.00  0.00     0.049 A 
ATOM     56  H   UNL A   1      45.086  23.956  28.012  1.00  0.00     0.167 HD
ATOM     57  C   UNL A   1      45.490  26.100  31.399  1.00  0.00     0.074 A 
ATOM     58  C   UNL A   1      45.116  25.404  32.612  1.00  0.00     0.031 C 
ATOM     59  C   UNL A   1      45.318  25.648  30.132  1.00  0.00     0.031 A 
BRANCH  46  60
ATOM     60  C   UNL A   1      42.926  22.449  26.368  1.00  0.00    -0.014 A 
ATOM     61  C   UNL A   1      42.608  21.066  26.475  1.00  0.00     0.010 A 
ATOM     62  C   UNL A   1      43.892  22.814  25.424  1.00  0.00     0.010 A 
ATOM     63  C   UNL A   1      43.323  20.084  25.790  1.00  0.00     0.020 A 
ATOM     64  C   UNL A   1      44.592  21.829  24.697  1.00  0.00     0.020 A 
ATOM     65  C   UNL A   1      44.340  20.472  24.927  1.00  0.00     0.054 A 
BRANCH  65  66
ATOM     66  S   UNL A   1      45.363  19.174  24.179  1.00  0.00     0.124 S 
ATOM     67  O   UNL A   1      44.758  19.024  22.859  1.00  0.00    -0.237 OA
ATOM     68  O   UNL A   1      46.695  19.776  24.189  1.00  0.00    -0.237 OA
ATOM     69  O   UNL A   1      45.195  18.040  25.083  1.00  0.00    -0.744 OA
ENDBRANCH  65  66
ENDBRANCH  46  60
BRANCH  47  70
ATOM     70  C   UNL A   1      44.023  29.180  34.401  1.00  0.00    -0.014 A 
ATOM     71  C   UNL A   1      44.867  30.263  34.670  1.00  0.00     0.010 A 
ATOM     72  C   UNL A   1      43.303  28.673  35.524  1.00  0.00     0.010 A 
ATOM     73  C   UNL A   1      44.853  30.900  35.938  1.00  0.00     0.020 A 
ATOM     74  C   UNL A   1      43.232  29.323  36.756  1.00  0.00     0.020 A 
ATOM     75  C   UNL A   1      43.989  30.463  36.949  1.00  0.00     0.054 A 
BRANCH  75  76
ATOM     76  S   UNL A   1      43.724  31.449  38.452  1.00  0.00     0.124 S 
ATOM     77  O   UNL A   1      42.269  31.552  38.508  1.00  0.00    -0.237 OA
ATOM     78  O   UNL A   1      44.340  30.625  39.490  1.00  0.00    -0.237 OA
ATOM     79  O   UNL A   1      44.429  32.698  38.170  1.00  0.00    -0.744 OA
ENDBRANCH  75  76
ENDBRANCH  47  70
BRANCH  59  80
ATOM     80  C   UNL A   1      45.649  26.637  29.025  1.00  0.00    -0.014 A 
ATOM     81  C   UNL A   1      46.995  26.983  28.809  1.00  0.00     0.010 A 
ATOM     82  C   UNL A   1      44.678  27.282  28.230  1.00  0.00     0.010 A 
ATOM     83  C   UNL A   1      47.367  27.920  27.836  1.00  0.00     0.020 A 
ATOM     84  C   UNL A   1      45.042  28.225  27.248  1.00  0.00     0.020 A 
ATOM     85  C   UNL A   1      46.389  28.534  27.053  1.00  0.00     0.054 A 
BRANCH  85  86
ATOM     86  S   UNL A   1      46.918  29.723  25.783  1.00  0.00     0.124 S 
ATOM     87  O   UNL A   1      48.262  30.091  26.223  1.00  0.00    -0.237 OA
ATOM     88  O   UNL A   1      46.860  28.925  24.561  1.00  0.00    -0.237 OA
ATOM     89  O   UNL A   1      45.929  30.796  25.870  1.00  0.00    -0.744 OA
ENDBRANCH  85  86
ENDBRANCH  59  80
ENDBRANCH  33  34
ENDBRANCH  25  28
ENDBRANCH  23  24
ENDBRANCH  22  23
ENDBRANCH   1  22
TORSDOF 18
ENDMDL
MODEL 2
REMARK VINA RESULT:     -11.7      3.301      9.103
REMARK SMILES O=C(Cc1cccn1-c1ccccc1F)NCCCCCCNC(=O)c1ccc(-c2c3nc(c(-c4ccc(S(=O)(=O)[O-])cc4)c4ccc([nH]4)c(-c4ccc(S(=O)(=O)[O-])cc4)c4nc(c(-c5ccc(S(=O)(=O)[O-])cc5)c5ccc2[nH]5)C=C4)C=C3)cc1
REMARK SMILES IDX 20 1 19 2 18 3 17 4 16 5 1 6 2 7 3 9 4 10 5 11 8 12 6 13
REMARK SMILES IDX 7 14 9 15 10 16 14 17 11 18 13 19 15 20 12 21 21 22 22 23
REMARK SMILES IDX 23 24 24 25 25 27 26 28 27 29 85 30 28 31 84 32 29 33 30 34
REMARK SMILES IDX 31 35 78 36 32 37 83 38 77 39 79 40 33 41 82 42 76 43 75 44
REMARK SMILES IDX 34 46 64 47 45 48 63 49 46 50 49 51 62 52 80 53 47 54 48 55
REMARK SMILES IDX 61 57 81 58 50 59 35 60 36 61 44 62 37 63 43 64 38 65 39 66
REMARK SMILES IDX 40 67 41 68 42 69 65 70 66 71 74 72 67 73 73 74 68 75 69 76
REMARK SMILES IDX 70 77 71 78 72 79 51 80 52 81 60 82 53 83 59 84 54 85 55 86
REMARK SMILES IDX 56 87 57 88 58 89
REMARK H PARENT 16 8 23 26 79 45 49 56
REMARK Flexibility Score: inf
ROOT
ATOM      1  C   UNL A   1      33.620  28.168  24.969  1.00  0.00     0.002 C 
ENDROOT
BRANCH   1   2
ATOM      2  C   UNL A   1      33.641  28.265  23.441  1.00  0.00     0.002 C 
BRANCH   2   3
ATOM      3  C   UNL A   1      32.830  27.191  22.705  1.00  0.00     0.021 C 
BRANCH   3   4
ATOM      4  C   UNL A   1      33.607  25.923  22.346  1.00  0.00     0.116 C 
BRANCH   4   5
ATOM      5  N   UNL A   1      32.995  24.724  22.880  1.00  0.00    -0.356 N 
ATOM      6  O   UNL A   1      34.767  23.346  22.407  1.00  0.00    -0.275 OA
ATOM      7  C   UNL A   1      33.642  23.506  22.875  1.00  0.00     0.225 C 
ATOM      8  H   UNL A   1      32.087  24.780  23.258  1.00  0.00     0.163 HD
BRANCH   7   9
ATOM      9  C   UNL A   1      32.847  22.375  23.519  1.00  0.00     0.154 C 
BRANCH   9  10
ATOM     10  C   UNL A   1      32.689  22.614  24.994  1.00  0.00     0.032 A 
ATOM     11  C   UNL A   1      31.521  22.941  25.667  1.00  0.00     0.024 A 
ATOM     12  N   UNL A   1      33.684  22.434  25.947  1.00  0.00    -0.318 N 
ATOM     13  C   UNL A   1      31.773  22.856  27.051  1.00  0.00     0.020 A 
ATOM     14  C   UNL A   1      33.087  22.479  27.194  1.00  0.00     0.091 A 
BRANCH  12  15
ATOM     15  C   UNL A   1      35.080  22.276  25.774  1.00  0.00     0.081 A 
ATOM     16  C   UNL A   1      35.922  23.387  25.933  1.00  0.00     0.030 A 
ATOM     17  C   UNL A   1      35.612  21.066  25.329  1.00  0.00     0.147 A 
ATOM     18  C   UNL A   1      37.283  23.273  25.648  1.00  0.00     0.002 A 
ATOM     19  C   UNL A   1      36.971  20.957  25.038  1.00  0.00     0.041 A 
ATOM     20  F   UNL A   1      34.831  20.006  25.087  1.00  0.00    -0.205 F 
ATOM     21  C   UNL A   1      37.805  22.062  25.192  1.00  0.00     0.003 A 
ENDBRANCH  12  15
ENDBRANCH   9  10
ENDBRANCH   7   9
ENDBRANCH   4   5
ENDBRANCH   3   4
ENDBRANCH   2   3
ENDBRANCH   1   2
BRANCH   1  22
ATOM     22  C   UNL A   1      33.080  29.394  25.708  1.00  0.00     0.021 C 
BRANCH  22  23
ATOM     23  C   UNL A   1      33.414  29.404  27.200  1.00  0.00     0.116 C 
BRANCH  23  24
ATOM     24  N   UNL A   1      33.474  30.759  27.735  1.00  0.00    -0.352 N 
ATOM     25  C   UNL A   1      34.441  31.320  28.540  1.00  0.00     0.251 C 
ATOM     26  H   UNL A   1      32.727  31.350  27.489  1.00  0.00     0.163 HD
ATOM     27  O   UNL A   1      34.216  32.354  29.146  1.00  0.00    -0.269 OA
BRANCH  25  28
ATOM     28  C   UNL A   1      35.742  30.639  28.686  1.00  0.00     0.039 A 
ATOM     29  C   UNL A   1      36.616  30.611  27.595  1.00  0.00     0.014 A 
ATOM     30  C   UNL A   1      36.086  30.028  29.897  1.00  0.00     0.014 A 
ATOM     31  C   UNL A   1      37.880  30.051  27.750  1.00  0.00     0.010 A 
ATOM     32  C   UNL A   1      37.356  29.493  30.064  1.00  0.00     0.010 A 
ATOM     33  C   UNL A   1      38.259  29.529  28.997  1.00  0.00    -0.014 A 
BRANCH  33  34
ATOM     34  C   UNL A   1      39.677  29.172  29.226  1.00  0.00     0.031 A 
ATOM     35  C   UNL A   1      40.492  30.379  29.739  1.00  0.00     0.074 A 
ATOM     36  C   UNL A   1      40.042  27.885  28.933  1.00  0.00     0.049 A 
ATOM     37  N   UNL A   1      41.750  30.649  29.589  1.00  0.00    -0.248 NA
ATOM     38  C   UNL A   1      39.797  31.495  30.445  1.00  0.00     0.031 C 
ATOM     39  C   UNL A   1      39.107  26.829  28.476  1.00  0.00     0.029 A 
ATOM     40  N   UNL A   1      41.237  27.193  28.951  1.00  0.00    -0.354 N 
ATOM     41  C   UNL A   1      42.034  31.853  30.281  1.00  0.00     0.074 A 
ATOM     42  C   UNL A   1      40.771  32.370  30.715  1.00  0.00     0.031 C 
ATOM     43  C   UNL A   1      39.767  25.684  28.191  1.00  0.00     0.029 A 
ATOM     44  C   UNL A   1      41.183  25.868  28.436  1.00  0.00     0.049 A 
ATOM     45  H   UNL A   1      42.070  27.590  29.297  1.00  0.00     0.167 HD
ATOM     46  C   UNL A   1      43.306  32.282  30.542  1.00  0.00     0.031 A 
ATOM     47  C   UNL A   1      42.209  25.001  28.172  1.00  0.00     0.031 A 
ATOM     48  C   UNL A   1      44.238  31.368  29.974  1.00  0.00     0.049 A 
ATOM     49  C   UNL A   1      43.426  25.667  28.657  1.00  0.00     0.074 A 
ATOM     50  C   UNL A   1      44.600  31.095  28.682  1.00  0.00     0.029 A 
ATOM     51  N   UNL A   1      44.635  30.336  30.791  1.00  0.00    -0.354 N 
ATOM     52  N   UNL A   1      43.756  25.817  29.903  1.00  0.00    -0.248 NA
ATOM     53  C   UNL A   1      44.327  26.277  27.668  1.00  0.00     0.031 C 
ATOM     54  C   UNL A   1      44.722  29.692  28.684  1.00  0.00     0.029 A 
ATOM     55  C   UNL A   1      44.678  29.217  30.000  1.00  0.00     0.049 A 
ATOM     56  H   UNL A   1      44.846  30.390  31.751  1.00  0.00     0.167 HD
ATOM     57  C   UNL A   1      44.657  26.849  29.838  1.00  0.00     0.074 A 
ATOM     58  C   UNL A   1      45.196  26.849  28.495  1.00  0.00     0.031 C 
ATOM     59  C   UNL A   1      44.481  27.936  30.631  1.00  0.00     0.031 A 
BRANCH  46  60
ATOM     60  C   UNL A   1      43.881  33.327  31.466  1.00  0.00    -0.014 A 
ATOM     61  C   UNL A   1      44.089  32.938  32.818  1.00  0.00     0.010 A 
ATOM     62  C   UNL A   1      43.893  34.698  31.183  1.00  0.00     0.010 A 
ATOM     63  C   UNL A   1      44.151  33.867  33.858  1.00  0.00     0.020 A 
ATOM     64  C   UNL A   1      43.997  35.643  32.224  1.00  0.00     0.020 A 
ATOM     65  C   UNL A   1      44.069  35.220  33.555  1.00  0.00     0.054 A 
BRANCH  65  66
ATOM     66  S   UNL A   1      43.984  36.396  34.935  1.00  0.00     0.124 S 
ATOM     67  O   UNL A   1      43.217  35.652  35.929  1.00  0.00    -0.237 OA
ATOM     68  O   UNL A   1      45.394  36.602  35.261  1.00  0.00    -0.237 OA
ATOM     69  O   UNL A   1      43.312  37.556  34.356  1.00  0.00    -0.744 OA
ENDBRANCH  65  66
ENDBRANCH  46  60
BRANCH  47  70
ATOM     70  C   UNL A   1      42.437  23.703  27.423  1.00  0.00    -0.014 A 
ATOM     71  C   UNL A   1      43.537  22.847  27.548  1.00  0.00     0.010 A 
ATOM     72  C   UNL A   1      41.373  23.216  26.607  1.00  0.00     0.010 A 
ATOM     73  C   UNL A   1      43.493  21.526  27.034  1.00  0.00     0.020 A 
ATOM     74  C   UNL A   1      41.290  21.901  26.148  1.00  0.00     0.020 A 
ATOM     75  C   UNL A   1      42.345  21.044  26.394  1.00  0.00     0.054 A 
BRANCH  75  76
ATOM     76  S   UNL A   1      42.147  19.278  26.018  1.00  0.00     0.124 S 
ATOM     77  O   UNL A   1      42.595  18.640  27.252  1.00  0.00    -0.237 OA
ATOM     78  O   UNL A   1      40.718  19.168  25.731  1.00  0.00    -0.237 OA
ATOM     79  O   UNL A   1      43.017  19.076  24.860  1.00  0.00    -0.744 OA
ENDBRANCH  75  76
ENDBRANCH  47  70
BRANCH  59  80
ATOM     80  C   UNL A   1      43.748  27.691  31.940  1.00  0.00    -0.014 A 
ATOM     81  C   UNL A   1      44.400  26.967  32.954  1.00  0.00     0.010 A 
ATOM     82  C   UNL A   1      42.419  28.096  32.185  1.00  0.00     0.010 A 
ATOM     83  C   UNL A   1      43.767  26.667  34.167  1.00  0.00     0.020 A 
ATOM     84  C   UNL A   1      41.774  27.800  33.402  1.00  0.00     0.020 A 
ATOM     85  C   UNL A   1      42.458  27.091  34.391  1.00  0.00     0.054 A 
BRANCH  85  86
ATOM     86  S   UNL A   1      41.684  26.704  35.991  1.00  0.00     0.124 S 
ATOM     87  O   UNL A   1      42.819  26.273  36.804  1.00  0.00    -0.237 OA
ATOM     88  O   UNL A   1      41.096  27.985  36.373  1.00  0.00    -0.237 OA
ATOM     89  O   UNL A   1      40.722  25.651  35.673  1.00  0.00    -0.744 OA
ENDBRANCH  85  86
ENDBRANCH  59  80
ENDBRANCH  33  34
ENDBRANCH  25  28
ENDBRANCH  23  24
ENDBRANCH  22  23
ENDBRANCH   1  22
TORSDOF 18
ENDMDL
MODEL 3
REMARK VINA RESULT:     -11.6      3.377      9.463
REMARK SMILES O=C(Cc1cccn1-c1ccccc1F)NCCCCCCNC(=O)c1ccc(-c2c3nc(c(-c4ccc(S(=O)(=O)[O-])cc4)c4ccc([nH]4)c(-c4ccc(S(=O)(=O)[O-])cc4)c4nc(c(-c5ccc(S(=O)(=O)[O-])cc5)c5ccc2[nH]5)C=C4)C=C3)cc1
REMARK SMILES IDX 20 1 19 2 18 3 17 4 16 5 1 6 2 7 3 9 4 10 5 11 8 12 6 13
REMARK SMILES IDX 7 14 9 15 10 16 14 17 11 18 13 19 15 20 12 21 21 22 22 23
REMARK SMILES IDX 23 24 24 25 25 27 26 28 27 29 85 30 28 31 84 32 29 33 30 34
REMARK SMILES IDX 31 35 78 36 32 37 83 38 77 39 79 40 33 41 82 42 76 43 75 44
REMARK SMILES IDX 34 46 64 47 45 48 63 49 46 50 49 51 62 52 80 53 47 54 48 55
REMARK SMILES IDX 61 57 81 58 50 59 35 60 36 61 44 62 37 63 43 64 38 65 39 66
REMARK SMILES IDX 40 67 41 68 42 69 65 70 66 71 74 72 67 73 73 74 68 75 69 76
REMARK SMILES IDX 70 77 71 78 72 79 51 80 52 81 60 82 53 83 59 84 54 85 55 86
REMARK SMILES IDX 56 87 57 88 58 89
REMARK H PARENT 16 8 23 26 79 45 49 56
REMARK Flexibility Score: inf
ROOT
ATOM      1  C   UNL A   1      36.835  20.670  24.980  1.00  0.00     0.002 C 
ENDROOT
BRANCH   1   2
ATOM      2  C   UNL A   1      37.184  22.113  24.605  1.00  0.00     0.002 C 
BRANCH   2   3
ATOM      3  C   UNL A   1      36.545  23.192  25.490  1.00  0.00     0.021 C 
BRANCH   3   4
ATOM      4  C   UNL A   1      35.015  23.207  25.491  1.00  0.00     0.116 C 
BRANCH   4   5
ATOM      5  N   UNL A   1      34.471  24.487  25.084  1.00  0.00    -0.356 N 
ATOM      6  O   UNL A   1      34.430  24.002  22.842  1.00  0.00    -0.275 OA
ATOM      7  C   UNL A   1      34.209  24.785  23.763  1.00  0.00     0.225 C 
ATOM      8  H   UNL A   1      34.282  25.165  25.772  1.00  0.00     0.163 HD
BRANCH   7   9
ATOM      9  C   UNL A   1      33.600  26.166  23.544  1.00  0.00     0.154 C 
BRANCH   9  10
ATOM     10  C   UNL A   1      32.104  26.111  23.679  1.00  0.00     0.032 A 
ATOM     11  C   UNL A   1      31.234  25.282  22.986  1.00  0.00     0.024 A 
ATOM     12  N   UNL A   1      31.356  26.816  24.614  1.00  0.00    -0.318 N 
ATOM     13  C   UNL A   1      29.957  25.399  23.572  1.00  0.00     0.020 A 
ATOM     14  C   UNL A   1      30.074  26.293  24.608  1.00  0.00     0.091 A 
BRANCH  12  15
ATOM     15  C   UNL A   1      31.732  27.909  25.429  1.00  0.00     0.081 A 
ATOM     16  C   UNL A   1      31.430  29.214  25.011  1.00  0.00     0.030 A 
ATOM     17  C   UNL A   1      32.501  27.713  26.576  1.00  0.00     0.147 A 
ATOM     18  C   UNL A   1      31.899  30.305  25.745  1.00  0.00     0.002 A 
ATOM     19  C   UNL A   1      32.975  28.804  27.303  1.00  0.00     0.041 A 
ATOM     20  F   UNL A   1      32.880  26.489  26.964  1.00  0.00    -0.205 F 
ATOM     21  C   UNL A   1      32.679  30.100  26.884  1.00  0.00     0.003 A 
ENDBRANCH  12  15
ENDBRANCH   9  10
ENDBRANCH   7   9
ENDBRANCH   4   5
ENDBRANCH   3   4
ENDBRANCH   2   3
ENDBRANCH   1   2
BRANCH   1  22
ATOM     22  C   UNL A   1      37.992  19.669  24.924  1.00  0.00     0.021 C 
BRANCH  22  23
ATOM     23  C   UNL A   1      39.232  20.126  25.692  1.00  0.00     0.116 C 
BRANCH  23  24
ATOM     24  N   UNL A   1      40.183  19.038  25.888  1.00  0.00    -0.352 N 
ATOM     25  C   UNL A   1      41.540  19.116  26.104  1.00  0.00     0.251 C 
ATOM     26  H   UNL A   1      39.805  18.130  25.862  1.00  0.00     0.163 HD
ATOM     27  O   UNL A   1      42.247  18.133  25.956  1.00  0.00    -0.269 OA
BRANCH  25  28
ATOM     28  C   UNL A   1      42.137  20.410  26.488  1.00  0.00     0.039 A 
ATOM     29  C   UNL A   1      42.768  21.180  25.506  1.00  0.00     0.014 A 
ATOM     30  C   UNL A   1      42.073  20.849  27.815  1.00  0.00     0.014 A 
ATOM     31  C   UNL A   1      43.252  22.441  25.840  1.00  0.00     0.010 A 
ATOM     32  C   UNL A   1      42.532  22.117  28.145  1.00  0.00     0.010 A 
ATOM     33  C   UNL A   1      43.098  22.921  27.150  1.00  0.00    -0.014 A 
BRANCH  33  34
ATOM     34  C   UNL A   1      43.381  24.346  27.433  1.00  0.00     0.031 A 
ATOM     35  C   UNL A   1      42.081  25.163  27.598  1.00  0.00     0.074 A 
ATOM     36  C   UNL A   1      44.699  24.714  27.475  1.00  0.00     0.049 A 
ATOM     37  N   UNL A   1      41.857  26.415  27.356  1.00  0.00    -0.248 NA
ATOM     38  C   UNL A   1      40.822  24.473  28.006  1.00  0.00     0.031 C 
ATOM     39  C   UNL A   1      45.839  23.777  27.328  1.00  0.00     0.029 A 
ATOM     40  N   UNL A   1      45.361  25.913  27.646  1.00  0.00    -0.354 N 
ATOM     41  C   UNL A   1      40.514  26.704  27.706  1.00  0.00     0.074 A 
ATOM     42  C   UNL A   1      39.904  25.447  28.018  1.00  0.00     0.031 C 
ATOM     43  C   UNL A   1      47.018  24.440  27.335  1.00  0.00     0.029 A 
ATOM     44  C   UNL A   1      46.774  25.859  27.493  1.00  0.00     0.049 A 
ATOM     45  H   UNL A   1      44.886  26.750  27.859  1.00  0.00     0.167 HD
ATOM     46  C   UNL A   1      40.030  27.978  27.819  1.00  0.00     0.031 A 
ATOM     47  C   UNL A   1      47.678  26.885  27.440  1.00  0.00     0.031 A 
ATOM     48  C   UNL A   1      41.058  28.905  27.487  1.00  0.00     0.049 A 
ATOM     49  C   UNL A   1      46.907  28.108  27.709  1.00  0.00     0.074 A 
ATOM     50  C   UNL A   1      41.656  29.242  26.303  1.00  0.00     0.029 A 
ATOM     51  N   UNL A   1      41.843  29.326  28.534  1.00  0.00    -0.354 N 
ATOM     52  N   UNL A   1      46.439  28.461  28.866  1.00  0.00    -0.248 NA
ATOM     53  C   UNL A   1      46.573  28.983  26.577  1.00  0.00     0.031 C 
ATOM     54  C   UNL A   1      43.011  29.375  26.665  1.00  0.00     0.029 A 
ATOM     55  C   UNL A   1      43.128  29.361  28.060  1.00  0.00     0.049 A 
ATOM     56  H   UNL A   1      41.542  29.557  29.443  1.00  0.00     0.167 HD
ATOM     57  C   UNL A   1      45.458  29.353  28.517  1.00  0.00     0.074 A 
ATOM     58  C   UNL A   1      45.805  29.865  27.208  1.00  0.00     0.031 C 
ATOM     59  C   UNL A   1      44.203  29.186  29.005  1.00  0.00     0.031 A 
BRANCH  46  60
ATOM     60  C   UNL A   1      38.780  28.564  28.428  1.00  0.00    -0.014 A 
ATOM     61  C   UNL A   1      38.154  29.619  27.707  1.00  0.00     0.010 A 
ATOM     62  C   UNL A   1      38.408  28.393  29.766  1.00  0.00     0.010 A 
ATOM     63  C   UNL A   1      37.319  30.549  28.326  1.00  0.00     0.020 A 
ATOM     64  C   UNL A   1      37.532  29.305  30.388  1.00  0.00     0.020 A 
ATOM     65  C   UNL A   1      37.039  30.405  29.679  1.00  0.00     0.054 A 
BRANCH  65  66
ATOM     66  S   UNL A   1      36.089  31.718  30.496  1.00  0.00     0.124 S 
ATOM     67  O   UNL A   1      34.946  31.874  29.603  1.00  0.00    -0.237 OA
ATOM     68  O   UNL A   1      35.788  31.125  31.798  1.00  0.00    -0.237 OA
ATOM     69  O   UNL A   1      37.019  32.842  30.535  1.00  0.00    -0.744 OA
ENDBRANCH  65  66
ENDBRANCH  46  60
BRANCH  47  70
ATOM     70  C   UNL A   1      49.125  27.108  27.048  1.00  0.00    -0.014 A 
ATOM     71  C   UNL A   1      50.171  27.497  27.892  1.00  0.00     0.010 A 
ATOM     72  C   UNL A   1      49.511  26.756  25.720  1.00  0.00     0.010 A 
ATOM     73  C   UNL A   1      51.523  27.372  27.482  1.00  0.00     0.020 A 
ATOM     74  C   UNL A   1      50.835  26.570  25.322  1.00  0.00     0.020 A 
ATOM     75  C   UNL A   1      51.845  26.849  26.223  1.00  0.00     0.054 A 
BRANCH  75  76
ATOM     76  S   UNL A   1      53.550  26.384  25.804  1.00  0.00     0.124 S 
ATOM     77  O   UNL A   1      53.896  25.456  26.875  1.00  0.00    -0.237 OA
ATOM     78  O   UNL A   1      53.404  25.792  24.475  1.00  0.00    -0.237 OA
ATOM     79  O   UNL A   1      54.266  27.659  25.826  1.00  0.00    -0.744 OA
ENDBRANCH  75  76
ENDBRANCH  47  70
BRANCH  59  80
ATOM     80  C   UNL A   1      44.102  28.482  30.348  1.00  0.00    -0.014 A 
ATOM     81  C   UNL A   1      44.329  29.227  31.520  1.00  0.00     0.010 A 
ATOM     82  C   UNL A   1      43.850  27.101  30.496  1.00  0.00     0.010 A 
ATOM     83  C   UNL A   1      44.295  28.631  32.788  1.00  0.00     0.020 A 
ATOM     84  C   UNL A   1      43.814  26.494  31.767  1.00  0.00     0.020 A 
ATOM     85  C   UNL A   1      44.031  27.268  32.908  1.00  0.00     0.054 A 
BRANCH  85  86
ATOM     86  S   UNL A   1      43.968  26.542  34.575  1.00  0.00     0.124 S 
ATOM     87  O   UNL A   1      42.536  26.355  34.793  1.00  0.00    -0.237 OA
ATOM     88  O   UNL A   1      44.739  25.311  34.411  1.00  0.00    -0.237 OA
ATOM     89  O   UNL A   1      44.592  27.555  35.424  1.00  0.00    -0.744 OA
ENDBRANCH  85  86
ENDBRANCH  59  80
ENDBRANCH  33  34
ENDBRANCH  25  28
ENDBRANCH  23  24
ENDBRANCH  22  23
ENDBRANCH   1  22
TORSDOF 18
ENDMDL
