MODEL 1
REMARK VINA RESULT:      -9.9      0.000      0.000
REMARK SMILES CCC[NH2+][C@]1(C(=O)NCCCCCCNC(=O)c2ccc(-c3c4nc(c(-c5ccc(S(=O)(=O)[O-])cc5)c5ccc([nH]5)c(-c5ccc(S(=O)(=O)[O-])cc5)c5nc(c(-c6ccc(S(=O)(=O)[O-])cc6)c6ccc3[nH]6)C=C5)C=C4)cc2)CC[C@H](n2nc(C)c(CC)c2C)C1
REMARK SMILES IDX 11 1 10 2 9 3 8 4 6 5 7 6 5 8 78 9 90 10 79 11 80 12 4 13
REMARK SMILES IDX 3 16 2 17 1 18 81 19 82 20 88 21 83 22 85 23 89 24 84 25
REMARK SMILES IDX 86 26 87 27 12 28 13 29 14 30 15 31 16 32 17 34 18 35 19 36
REMARK SMILES IDX 77 37 20 38 76 39 21 40 22 41 23 42 70 43 24 44 75 45 69 46
REMARK SMILES IDX 71 47 25 48 74 49 68 50 67 51 26 53 56 54 37 55 55 56 38 57
REMARK SMILES IDX 41 58 54 59 72 60 39 61 40 62 53 64 73 65 42 66 27 67 28 68
REMARK SMILES IDX 36 69 29 70 35 71 30 72 31 73 32 74 33 75 34 76 57 77 58 78
REMARK SMILES IDX 66 79 59 80 65 81 60 82 61 83 62 84 63 85 64 86 43 87 44 88
REMARK SMILES IDX 52 89 45 90 51 91 46 92 47 93 48 94 49 95 50 96
REMARK H PARENT 8 7 4 14 4 15 15 33 71 52 41 63
REMARK Flexibility Score: inf
ROOT
ATOM      1  C   UNL A   1      36.206  20.761  24.625  1.00  0.00     0.002 C 
ENDROOT
BRANCH   1   2
ATOM      2  C   UNL A   1      35.955  21.933  25.581  1.00  0.00     0.021 C 
BRANCH   2   3
ATOM      3  C   UNL A   1      34.782  21.666  26.529  1.00  0.00     0.116 C 
BRANCH   3   4
ATOM      4  N   UNL A   1      33.769  20.871  25.863  1.00  0.00    -0.351 N 
ATOM      5  C   UNL A   1      32.487  21.120  25.475  1.00  0.00     0.281 C 
ATOM      6  O   UNL A   1      31.868  20.147  25.022  1.00  0.00    -0.268 OA
ATOM      7  H   UNL A   1      34.071  19.960  25.645  1.00  0.00     0.163 HD
BRANCH   5   8
ATOM      8  C   UNL A   1      31.859  22.557  25.389  1.00  0.00     0.177 C 
ATOM      9  C   UNL A   1      30.512  22.575  26.150  1.00  0.00     0.081 C 
ATOM     10  C   UNL A   1      32.596  23.590  26.275  1.00  0.00     0.106 C 
ATOM     11  C   UNL A   1      30.266  24.056  26.518  1.00  0.00     0.034 C 
ATOM     12  C   UNL A   1      31.651  24.757  26.479  1.00  0.00     0.114 C 
BRANCH   8  13
ATOM     13  N   UNL A   1      31.692  22.811  23.917  1.00  0.00    -0.334 N 
ATOM     14  H   UNL A   1      31.025  22.121  23.568  1.00  0.00     0.347 HD
ATOM     15  H   UNL A   1      31.403  23.788  23.867  1.00  0.00     0.347 HD
BRANCH  13  16
ATOM     16  C   UNL A   1      32.874  22.746  23.046  1.00  0.00     0.261 C 
BRANCH  16  17
ATOM     17  C   UNL A   1      33.368  24.119  22.576  1.00  0.00     0.058 C 
ATOM     18  C   UNL A   1      34.496  24.650  23.446  1.00  0.00     0.010 C 
ENDBRANCH  16  17
ENDBRANCH  13  16
ENDBRANCH   8  13
BRANCH  12  19
ATOM     19  N   UNL A   1      31.776  25.884  25.550  1.00  0.00    -0.266 N 
ATOM     20  N   UNL A   1      30.796  25.970  24.616  1.00  0.00    -0.178 NA
ATOM     21  C   UNL A   1      32.701  26.913  25.418  1.00  0.00     0.039 A 
ATOM     22  C   UNL A   1      31.126  27.015  23.855  1.00  0.00     0.063 A 
ATOM     23  C   UNL A   1      32.317  27.633  24.294  1.00  0.00    -0.004 A 
ATOM     24  C   UNL A   1      33.911  27.203  26.243  1.00  0.00     0.066 C 
ATOM     25  C   UNL A   1      30.279  27.378  22.693  1.00  0.00     0.069 C 
BRANCH  23  26
ATOM     26  C   UNL A   1      33.031  28.797  23.680  1.00  0.00     0.036 C 
ATOM     27  C   UNL A   1      33.965  28.367  22.557  1.00  0.00     0.009 C 
ENDBRANCH  23  26
ENDBRANCH  12  19
ENDBRANCH   5   8
ENDBRANCH   3   4
ENDBRANCH   2   3
ENDBRANCH   1   2
BRANCH   1  28
ATOM     28  C   UNL A   1      37.499  19.982  24.903  1.00  0.00     0.002 C 
BRANCH  28  29
ATOM     29  C   UNL A   1      38.712  20.852  25.242  1.00  0.00     0.021 C 
BRANCH  29  30
ATOM     30  C   UNL A   1      39.454  20.412  26.499  1.00  0.00     0.116 C 
BRANCH  30  31
ATOM     31  N   UNL A   1      40.551  19.511  26.179  1.00  0.00    -0.352 N 
ATOM     32  C   UNL A   1      41.873  19.811  25.955  1.00  0.00     0.251 C 
ATOM     33  H   UNL A   1      40.314  18.558  26.114  1.00  0.00     0.163 HD
ATOM     34  O   UNL A   1      42.620  18.985  25.453  1.00  0.00    -0.269 OA
BRANCH  32  35
ATOM     35  C   UNL A   1      42.373  21.152  26.325  1.00  0.00     0.039 A 
ATOM     36  C   UNL A   1      42.684  21.424  27.658  1.00  0.00     0.014 A 
ATOM     37  C   UNL A   1      42.540  22.132  25.342  1.00  0.00     0.014 A 
ATOM     38  C   UNL A   1      43.215  22.669  27.998  1.00  0.00     0.010 A 
ATOM     39  C   UNL A   1      43.141  23.340  25.670  1.00  0.00     0.010 A 
ATOM     40  C   UNL A   1      43.474  23.626  27.002  1.00  0.00    -0.014 A 
BRANCH  40  41
ATOM     41  C   UNL A   1      44.066  24.947  27.326  1.00  0.00     0.031 A 
ATOM     42  C   UNL A   1      43.177  26.057  27.822  1.00  0.00     0.074 A 
ATOM     43  C   UNL A   1      45.375  25.173  27.100  1.00  0.00     0.049 A 
ATOM     44  N   UNL A   1      43.471  27.312  28.045  1.00  0.00    -0.248 NA
ATOM     45  C   UNL A   1      41.766  25.717  28.070  1.00  0.00     0.031 C 
ATOM     46  C   UNL A   1      46.331  24.186  26.591  1.00  0.00     0.029 A 
ATOM     47  N   UNL A   1      46.125  26.311  27.255  1.00  0.00    -0.354 N 
ATOM     48  C   UNL A   1      42.282  27.912  28.441  1.00  0.00     0.074 A 
ATOM     49  C   UNL A   1      41.252  26.899  28.372  1.00  0.00     0.031 C 
ATOM     50  C   UNL A   1      47.541  24.759  26.489  1.00  0.00     0.029 A 
ATOM     51  C   UNL A   1      47.439  26.163  26.878  1.00  0.00     0.049 A 
ATOM     52  H   UNL A   1      45.756  27.156  27.603  1.00  0.00     0.167 HD
ATOM     53  C   UNL A   1      42.070  29.186  28.848  1.00  0.00     0.031 A 
ATOM     54  C   UNL A   1      48.444  27.059  26.832  1.00  0.00     0.031 A 
ATOM     55  C   UNL A   1      43.102  30.185  28.923  1.00  0.00     0.049 A 
ATOM     56  C   UNL A   1      48.181  28.475  27.269  1.00  0.00     0.074 A 
ATOM     57  C   UNL A   1      43.000  31.494  29.359  1.00  0.00     0.029 A 
ATOM     58  N   UNL A   1      44.424  29.986  28.554  1.00  0.00    -0.354 N 
ATOM     59  N   UNL A   1      47.060  29.013  27.688  1.00  0.00    -0.248 NA
ATOM     60  C   UNL A   1      49.319  29.404  27.238  1.00  0.00     0.031 C 
ATOM     61  C   UNL A   1      44.248  32.102  29.204  1.00  0.00     0.029 A 
ATOM     62  C   UNL A   1      45.145  31.153  28.737  1.00  0.00     0.049 A 
ATOM     63  H   UNL A   1      44.795  29.140  28.214  1.00  0.00     0.167 HD
ATOM     64  C   UNL A   1      47.368  30.331  28.005  1.00  0.00     0.074 A 
ATOM     65  C   UNL A   1      48.780  30.507  27.738  1.00  0.00     0.031 C 
ATOM     66  C   UNL A   1      46.555  31.307  28.481  1.00  0.00     0.031 A 
BRANCH  53  67
ATOM     67  C   UNL A   1      40.667  29.567  29.243  1.00  0.00    -0.014 A 
ATOM     68  C   UNL A   1      40.333  29.810  30.588  1.00  0.00     0.010 A 
ATOM     69  C   UNL A   1      39.679  29.724  28.255  1.00  0.00     0.010 A 
ATOM     70  C   UNL A   1      39.027  30.159  30.941  1.00  0.00     0.020 A 
ATOM     71  C   UNL A   1      38.379  30.105  28.601  1.00  0.00     0.020 A 
ATOM     72  C   UNL A   1      38.058  30.302  29.945  1.00  0.00     0.054 A 
BRANCH  72  73
ATOM     73  S   UNL A   1      36.377  30.781  30.433  1.00  0.00     0.124 S 
ATOM     74  O   UNL A   1      36.068  29.786  31.457  1.00  0.00    -0.237 OA
ATOM     75  O   UNL A   1      36.563  32.145  30.920  1.00  0.00    -0.237 OA
ATOM     76  O   UNL A   1      35.609  30.662  29.197  1.00  0.00    -0.744 OA
ENDBRANCH  72  73
ENDBRANCH  53  67
BRANCH  54  77
ATOM     77  C   UNL A   1      49.792  26.641  26.354  1.00  0.00    -0.014 A 
ATOM     78  C   UNL A   1      50.163  26.817  25.009  1.00  0.00     0.010 A 
ATOM     79  C   UNL A   1      50.716  26.070  27.248  1.00  0.00     0.010 A 
ATOM     80  C   UNL A   1      51.423  26.406  24.562  1.00  0.00     0.020 A 
ATOM     81  C   UNL A   1      51.988  25.686  26.811  1.00  0.00     0.020 A 
ATOM     82  C   UNL A   1      52.329  25.845  25.467  1.00  0.00     0.054 A 
BRANCH  82  83
ATOM     83  S   UNL A   1      53.972  25.357  24.874  1.00  0.00     0.124 S 
ATOM     84  O   UNL A   1      54.003  25.952  23.542  1.00  0.00    -0.237 OA
ATOM     85  O   UNL A   1      54.857  25.967  25.862  1.00  0.00    -0.237 OA
ATOM     86  O   UNL A   1      53.928  23.896  24.906  1.00  0.00    -0.744 OA
ENDBRANCH  82  83
ENDBRANCH  54  77
BRANCH  66  87
ATOM     87  C   UNL A   1      47.174  32.642  28.802  1.00  0.00    -0.014 A 
ATOM     88  C   UNL A   1      47.758  32.898  30.054  1.00  0.00     0.010 A 
ATOM     89  C   UNL A   1      47.243  33.625  27.798  1.00  0.00     0.010 A 
ATOM     90  C   UNL A   1      48.382  34.125  30.303  1.00  0.00     0.020 A 
ATOM     91  C   UNL A   1      47.893  34.839  28.031  1.00  0.00     0.020 A 
ATOM     92  C   UNL A   1      48.450  35.085  29.287  1.00  0.00     0.054 A 
BRANCH  92  93
ATOM     93  S   UNL A   1      49.325  36.639  29.614  1.00  0.00     0.124 S 
ATOM     94  O   UNL A   1      48.288  37.634  29.352  1.00  0.00    -0.237 OA
ATOM     95  O   UNL A   1      49.720  36.496  31.013  1.00  0.00    -0.237 OA
ATOM     96  O   UNL A   1      50.428  36.625  28.656  1.00  0.00    -0.744 OA
ENDBRANCH  92  93
ENDBRANCH  66  87
ENDBRANCH  40  41
ENDBRANCH  32  35
ENDBRANCH  30  31
ENDBRANCH  29  30
ENDBRANCH  28  29
ENDBRANCH   1  28
TORSDOF 21
ENDMDL
MODEL 2
REMARK VINA RESULT:      -9.7      6.194     11.785
REMARK SMILES CCC[NH2+][C@]1(C(=O)NCCCCCCNC(=O)c2ccc(-c3c4nc(c(-c5ccc(S(=O)(=O)[O-])cc5)c5ccc([nH]5)c(-c5ccc(S(=O)(=O)[O-])cc5)c5nc(c(-c6ccc(S(=O)(=O)[O-])cc6)c6ccc3[nH]6)C=C5)C=C4)cc2)CC[C@H](n2nc(C)c(CC)c2C)C1
REMARK SMILES IDX 11 1 10 2 9 3 8 4 6 5 7 6 5 8 78 9 90 10 79 11 80 12 4 13
REMARK SMILES IDX 3 16 2 17 1 18 81 19 82 20 88 21 83 22 85 23 89 24 84 25
REMARK SMILES IDX 86 26 87 27 12 28 13 29 14 30 15 31 16 32 17 34 18 35 19 36
REMARK SMILES IDX 77 37 20 38 76 39 21 40 22 41 23 42 70 43 24 44 75 45 69 46
REMARK SMILES IDX 71 47 25 48 74 49 68 50 67 51 26 53 56 54 37 55 55 56 38 57
REMARK SMILES IDX 41 58 54 59 72 60 39 61 40 62 53 64 73 65 42 66 27 67 28 68
REMARK SMILES IDX 36 69 29 70 35 71 30 72 31 73 32 74 33 75 34 76 57 77 58 78
REMARK SMILES IDX 66 79 59 80 65 81 60 82 61 83 62 84 63 85 64 86 43 87 44 88
REMARK SMILES IDX 52 89 45 90 51 91 46 92 47 93 48 94 49 95 50 96
REMARK H PARENT 8 7 4 14 4 15 15 33 71 52 41 63
REMARK Flexibility Score: inf
ROOT
ATOM      1  C   UNL A   1      35.361  30.090  27.753  1.00  0.00     0.002 C 
ENDROOT
BRANCH   1   2
ATOM      2  C   UNL A   1      34.037  29.545  27.206  1.00  0.00     0.021 C 
BRANCH   2   3
ATOM      3  C   UNL A   1      34.242  28.643  25.984  1.00  0.00     0.116 C 
BRANCH   3   4
ATOM      4  N   UNL A   1      33.453  29.124  24.867  1.00  0.00    -0.351 N 
ATOM      5  C   UNL A   1      32.852  28.509  23.811  1.00  0.00     0.281 C 
ATOM      6  O   UNL A   1      32.345  29.266  22.971  1.00  0.00    -0.268 OA
ATOM      7  H   UNL A   1      33.325  30.100  24.873  1.00  0.00     0.163 HD
BRANCH   5   8
ATOM      8  C   UNL A   1      32.606  26.961  23.720  1.00  0.00     0.177 C 
ATOM      9  C   UNL A   1      31.687  26.656  22.512  1.00  0.00     0.081 C 
ATOM     10  C   UNL A   1      33.846  26.182  23.220  1.00  0.00     0.106 C 
ATOM     11  C   UNL A   1      31.963  25.181  22.145  1.00  0.00     0.034 C 
ATOM     12  C   UNL A   1      33.358  24.833  22.730  1.00  0.00     0.114 C 
BRANCH   8  13
ATOM     13  N   UNL A   1      31.969  26.600  25.033  1.00  0.00    -0.334 N 
ATOM     14  H   UNL A   1      32.106  25.597  25.166  1.00  0.00     0.347 HD
ATOM     15  H   UNL A   1      32.428  27.215  25.706  1.00  0.00     0.347 HD
BRANCH  13  16
ATOM     16  C   UNL A   1      30.538  26.869  25.227  1.00  0.00     0.261 C 
BRANCH  16  17
ATOM     17  C   UNL A   1      29.762  25.683  25.810  1.00  0.00     0.058 C 
ATOM     18  C   UNL A   1      30.599  24.414  25.848  1.00  0.00     0.010 C 
ENDBRANCH  16  17
ENDBRANCH  13  16
ENDBRANCH   8  13
BRANCH  12  19
ATOM     19  N   UNL A   1      33.398  23.724  23.687  1.00  0.00    -0.266 N 
ATOM     20  N   UNL A   1      34.012  24.003  24.864  1.00  0.00    -0.178 NA
ATOM     21  C   UNL A   1      32.925  22.417  23.653  1.00  0.00     0.039 A 
ATOM     22  C   UNL A   1      33.984  22.861  25.555  1.00  0.00     0.063 A 
ATOM     23  C   UNL A   1      33.336  21.829  24.842  1.00  0.00    -0.004 A 
ATOM     24  C   UNL A   1      32.179  21.715  22.567  1.00  0.00     0.066 C 
ATOM     25  C   UNL A   1      34.615  22.794  26.895  1.00  0.00     0.069 C 
BRANCH  23  26
ATOM     26  C   UNL A   1      33.144  20.403  25.257  1.00  0.00     0.036 C 
ATOM     27  C   UNL A   1      34.272  19.508  24.764  1.00  0.00     0.009 C 
ENDBRANCH  23  26
ENDBRANCH  12  19
ENDBRANCH   5   8
ENDBRANCH   3   4
ENDBRANCH   2   3
ENDBRANCH   1   2
BRANCH   1  28
ATOM     28  C   UNL A   1      35.322  31.575  28.142  1.00  0.00     0.002 C 
BRANCH  28  29
ATOM     29  C   UNL A   1      33.959  32.248  27.967  1.00  0.00     0.021 C 
BRANCH  29  30
ATOM     30  C   UNL A   1      34.044  33.711  27.547  1.00  0.00     0.116 C 
BRANCH  30  31
ATOM     31  N   UNL A   1      33.228  34.558  28.404  1.00  0.00    -0.352 N 
ATOM     32  C   UNL A   1      33.289  34.715  29.767  1.00  0.00     0.251 C 
ATOM     33  H   UNL A   1      32.539  35.090  27.944  1.00  0.00     0.163 HD
ATOM     34  O   UNL A   1      32.379  35.266  30.368  1.00  0.00    -0.269 OA
BRANCH  32  35
ATOM     35  C   UNL A   1      34.468  34.200  30.493  1.00  0.00     0.039 A 
ATOM     36  C   UNL A   1      34.299  33.208  31.460  1.00  0.00     0.014 A 
ATOM     37  C   UNL A   1      35.742  34.699  30.202  1.00  0.00     0.014 A 
ATOM     38  C   UNL A   1      35.418  32.676  32.101  1.00  0.00     0.010 A 
ATOM     39  C   UNL A   1      36.859  34.114  30.784  1.00  0.00     0.010 A 
ATOM     40  C   UNL A   1      36.709  33.106  31.748  1.00  0.00    -0.014 A 
BRANCH  40  41
ATOM     41  C   UNL A   1      37.921  32.540  32.388  1.00  0.00     0.031 A 
ATOM     42  C   UNL A   1      38.648  31.400  31.723  1.00  0.00     0.074 A 
ATOM     43  C   UNL A   1      38.320  32.989  33.594  1.00  0.00     0.049 A 
ATOM     44  N   UNL A   1      39.649  30.688  32.169  1.00  0.00    -0.248 NA
ATOM     45  C   UNL A   1      38.164  30.991  30.393  1.00  0.00     0.031 C 
ATOM     46  C   UNL A   1      37.679  34.066  34.352  1.00  0.00     0.029 A 
ATOM     47  N   UNL A   1      39.353  32.585  34.401  1.00  0.00    -0.354 N 
ATOM     48  C   UNL A   1      39.902  29.737  31.187  1.00  0.00     0.074 A 
ATOM     49  C   UNL A   1      38.914  29.927  30.149  1.00  0.00     0.031 C 
ATOM     50  C   UNL A   1      38.342  34.245  35.507  1.00  0.00     0.029 A 
ATOM     51  C   UNL A   1      39.421  33.266  35.593  1.00  0.00     0.049 A 
ATOM     52  H   UNL A   1      39.986  31.873  34.150  1.00  0.00     0.167 HD
ATOM     53  C   UNL A   1      40.883  28.805  31.142  1.00  0.00     0.031 A 
ATOM     54  C   UNL A   1      40.248  33.109  36.646  1.00  0.00     0.031 A 
ATOM     55  C   UNL A   1      41.868  28.629  32.176  1.00  0.00     0.049 A 
ATOM     56  C   UNL A   1      41.318  32.052  36.584  1.00  0.00     0.074 A 
ATOM     57  C   UNL A   1      42.927  27.739  32.210  1.00  0.00     0.029 A 
ATOM     58  N   UNL A   1      41.915  29.355  33.356  1.00  0.00    -0.354 N 
ATOM     59  N   UNL A   1      41.574  31.194  35.625  1.00  0.00    -0.248 NA
ATOM     60  C   UNL A   1      42.218  31.948  37.740  1.00  0.00     0.031 C 
ATOM     61  C   UNL A   1      43.584  27.892  33.434  1.00  0.00     0.029 A 
ATOM     62  C   UNL A   1      42.976  28.924  34.133  1.00  0.00     0.049 A 
ATOM     63  H   UNL A   1      41.288  30.072  33.604  1.00  0.00     0.167 HD
ATOM     64  C   UNL A   1      42.686  30.476  36.047  1.00  0.00     0.074 A 
ATOM     65  C   UNL A   1      43.059  31.003  37.342  1.00  0.00     0.031 C 
ATOM     66  C   UNL A   1      43.343  29.472  35.415  1.00  0.00     0.031 A 
BRANCH  53  67
ATOM     67  C   UNL A   1      40.936  27.906  29.935  1.00  0.00    -0.014 A 
ATOM     68  C   UNL A   1      41.924  28.073  28.948  1.00  0.00     0.010 A 
ATOM     69  C   UNL A   1      40.010  26.855  29.803  1.00  0.00     0.010 A 
ATOM     70  C   UNL A   1      41.959  27.235  27.831  1.00  0.00     0.020 A 
ATOM     71  C   UNL A   1      40.063  25.994  28.703  1.00  0.00     0.020 A 
ATOM     72  C   UNL A   1      41.027  26.201  27.715  1.00  0.00     0.054 A 
BRANCH  72  73
ATOM     73  S   UNL A   1      41.114  25.114  26.266  1.00  0.00     0.124 S 
ATOM     74  O   UNL A   1      39.749  24.601  26.193  1.00  0.00    -0.237 OA
ATOM     75  O   UNL A   1      41.496  26.036  25.198  1.00  0.00    -0.237 OA
ATOM     76  O   UNL A   1      42.130  24.131  26.630  1.00  0.00    -0.744 OA
ENDBRANCH  72  73
ENDBRANCH  53  67
BRANCH  54  77
ATOM     77  C   UNL A   1      40.095  33.976  37.848  1.00  0.00    -0.014 A 
ATOM     78  C   UNL A   1      40.863  35.145  37.994  1.00  0.00     0.010 A 
ATOM     79  C   UNL A   1      39.171  33.637  38.854  1.00  0.00     0.010 A 
ATOM     80  C   UNL A   1      40.728  35.945  39.134  1.00  0.00     0.020 A 
ATOM     81  C   UNL A   1      39.011  34.451  39.980  1.00  0.00     0.020 A 
ATOM     82  C   UNL A   1      39.801  35.593  40.119  1.00  0.00     0.054 A 
BRANCH  82  83
ATOM     83  S   UNL A   1      39.613  36.667  41.568  1.00  0.00     0.124 S 
ATOM     84  O   UNL A   1      38.727  35.879  42.418  1.00  0.00    -0.237 OA
ATOM     85  O   UNL A   1      40.989  36.803  42.039  1.00  0.00    -0.237 OA
ATOM     86  O   UNL A   1      39.030  37.888  41.016  1.00  0.00    -0.744 OA
ENDBRANCH  82  83
ENDBRANCH  54  77
BRANCH  66  87
ATOM     87  C   UNL A   1      44.572  28.908  36.080  1.00  0.00    -0.014 A 
ATOM     88  C   UNL A   1      44.498  27.795  36.935  1.00  0.00     0.010 A 
ATOM     89  C   UNL A   1      45.830  29.457  35.774  1.00  0.00     0.010 A 
ATOM     90  C   UNL A   1      45.663  27.255  37.489  1.00  0.00     0.020 A 
ATOM     91  C   UNL A   1      46.998  28.901  36.299  1.00  0.00     0.020 A 
ATOM     92  C   UNL A   1      46.906  27.808  37.162  1.00  0.00     0.054 A 
BRANCH  92  93
ATOM     93  S   UNL A   1      48.406  27.044  37.839  1.00  0.00     0.124 S 
ATOM     94  O   UNL A   1      48.245  25.649  37.436  1.00  0.00    -0.237 OA
ATOM     95  O   UNL A   1      49.472  27.776  37.159  1.00  0.00    -0.237 OA
ATOM     96  O   UNL A   1      48.304  27.293  39.274  1.00  0.00    -0.744 OA
ENDBRANCH  92  93
ENDBRANCH  66  87
ENDBRANCH  40  41
ENDBRANCH  32  35
ENDBRANCH  30  31
ENDBRANCH  29  30
ENDBRANCH  28  29
ENDBRANCH   1  28
TORSDOF 21
ENDMDL
MODEL 3
REMARK VINA RESULT:      -9.4      6.160      9.900
REMARK SMILES CCC[NH2+][C@]1(C(=O)NCCCCCCNC(=O)c2ccc(-c3c4nc(c(-c5ccc(S(=O)(=O)[O-])cc5)c5ccc([nH]5)c(-c5ccc(S(=O)(=O)[O-])cc5)c5nc(c(-c6ccc(S(=O)(=O)[O-])cc6)c6ccc3[nH]6)C=C5)C=C4)cc2)CC[C@H](n2nc(C)c(CC)c2C)C1
REMARK SMILES IDX 11 1 10 2 9 3 8 4 6 5 7 6 5 8 78 9 90 10 79 11 80 12 4 13
REMARK SMILES IDX 3 16 2 17 1 18 81 19 82 20 88 21 83 22 85 23 89 24 84 25
REMARK SMILES IDX 86 26 87 27 12 28 13 29 14 30 15 31 16 32 17 34 18 35 19 36
REMARK SMILES IDX 77 37 20 38 76 39 21 40 22 41 23 42 70 43 24 44 75 45 69 46
REMARK SMILES IDX 71 47 25 48 74 49 68 50 67 51 26 53 56 54 37 55 55 56 38 57
REMARK SMILES IDX 41 58 54 59 72 60 39 61 40 62 53 64 73 65 42 66 27 67 28 68
REMARK SMILES IDX 36 69 29 70 35 71 30 72 31 73 32 74 33 75 34 76 57 77 58 78
REMARK SMILES IDX 66 79 59 80 65 81 60 82 61 83 62 84 63 85 64 86 43 87 44 88
REMARK SMILES IDX 52 89 45 90 51 91 46 92 47 93 48 94 49 95 50 96
REMARK H PARENT 8 7 4 14 4 15 15 33 71 52 41 63
REMARK Flexibility Score: inf
ROOT
ATOM      1  C   UNL A   1      34.453  29.747  27.075  1.00  0.00     0.002 C 
ENDROOT
BRANCH   1   2
ATOM      2  C   UNL A   1      33.008  29.566  26.595  1.00  0.00     0.021 C 
BRANCH   2   3
ATOM      3  C   UNL A   1      32.931  28.825  25.256  1.00  0.00     0.116 C 
BRANCH   3   4
ATOM      4  N   UNL A   1      31.552  28.712  24.823  1.00  0.00    -0.351 N 
ATOM      5  C   UNL A   1      30.909  27.892  23.947  1.00  0.00     0.281 C 
ATOM      6  O   UNL A   1      29.718  28.162  23.739  1.00  0.00    -0.268 OA
ATOM      7  H   UNL A   1      30.955  29.366  25.254  1.00  0.00     0.163 HD
BRANCH   5   8
ATOM      8  C   UNL A   1      31.522  26.564  23.376  1.00  0.00     0.177 C 
ATOM      9  C   UNL A   1      31.592  26.652  21.832  1.00  0.00     0.081 C 
ATOM     10  C   UNL A   1      33.043  26.444  23.632  1.00  0.00     0.106 C 
ATOM     11  C   UNL A   1      32.684  25.644  21.411  1.00  0.00     0.034 C 
ATOM     12  C   UNL A   1      33.580  25.414  22.658  1.00  0.00     0.114 C 
BRANCH   8  13
ATOM     13  N   UNL A   1      30.592  25.482  23.849  1.00  0.00    -0.334 N 
ATOM     14  H   UNL A   1      29.640  25.828  23.719  1.00  0.00     0.347 HD
ATOM     15  H   UNL A   1      30.859  24.668  23.294  1.00  0.00     0.347 HD
BRANCH  13  16
ATOM     16  C   UNL A   1      30.694  25.014  25.237  1.00  0.00     0.261 C 
BRANCH  16  17
ATOM     17  C   UNL A   1      30.719  23.487  25.372  1.00  0.00     0.058 C 
ATOM     18  C   UNL A   1      30.403  23.032  26.788  1.00  0.00     0.010 C 
ENDBRANCH  16  17
ENDBRANCH  13  16
ENDBRANCH   8  13
BRANCH  12  19
ATOM     19  N   UNL A   1      33.676  24.033  23.136  1.00  0.00    -0.266 N 
ATOM     20  N   UNL A   1      32.786  23.171  22.584  1.00  0.00    -0.178 NA
ATOM     21  C   UNL A   1      34.505  23.396  24.052  1.00  0.00     0.039 A 
ATOM     22  C   UNL A   1      33.007  22.001  23.188  1.00  0.00     0.063 A 
ATOM     23  C   UNL A   1      34.056  22.084  24.130  1.00  0.00    -0.004 A 
ATOM     24  C   UNL A   1      35.623  23.963  24.863  1.00  0.00     0.066 C 
ATOM     25  C   UNL A   1      32.170  20.826  22.849  1.00  0.00     0.069 C 
BRANCH  23  26
ATOM     26  C   UNL A   1      34.567  21.007  25.035  1.00  0.00     0.036 C 
ATOM     27  C   UNL A   1      33.904  21.048  26.405  1.00  0.00     0.009 C 
ENDBRANCH  23  26
ENDBRANCH  12  19
ENDBRANCH   5   8
ENDBRANCH   3   4
ENDBRANCH   2   3
ENDBRANCH   1   2
BRANCH   1  28
ATOM     28  C   UNL A   1      34.696  31.026  27.888  1.00  0.00     0.002 C 
BRANCH  28  29
ATOM     29  C   UNL A   1      33.533  32.022  27.878  1.00  0.00     0.021 C 
BRANCH  29  30
ATOM     30  C   UNL A   1      33.968  33.473  27.713  1.00  0.00     0.116 C 
BRANCH  30  31
ATOM     31  N   UNL A   1      33.356  34.328  28.720  1.00  0.00    -0.352 N 
ATOM     32  C   UNL A   1      33.625  34.401  30.065  1.00  0.00     0.251 C 
ATOM     33  H   UNL A   1      32.655  34.937  28.392  1.00  0.00     0.163 HD
ATOM     34  O   UNL A   1      32.859  34.983  30.819  1.00  0.00    -0.269 OA
BRANCH  32  35
ATOM     35  C   UNL A   1      34.850  33.758  30.584  1.00  0.00     0.039 A 
ATOM     36  C   UNL A   1      36.087  34.370  30.376  1.00  0.00     0.014 A 
ATOM     37  C   UNL A   1      34.762  32.552  31.287  1.00  0.00     0.014 A 
ATOM     38  C   UNL A   1      37.237  33.795  30.919  1.00  0.00     0.010 A 
ATOM     39  C   UNL A   1      35.896  32.025  31.892  1.00  0.00     0.010 A 
ATOM     40  C   UNL A   1      37.146  32.634  31.705  1.00  0.00    -0.014 A 
BRANCH  40  41
ATOM     41  C   UNL A   1      38.344  32.016  32.323  1.00  0.00     0.031 A 
ATOM     42  C   UNL A   1      38.728  32.388  33.732  1.00  0.00     0.074 A 
ATOM     43  C   UNL A   1      39.126  31.190  31.601  1.00  0.00     0.049 A 
ATOM     44  N   UNL A   1      39.795  32.057  34.410  1.00  0.00    -0.248 NA
ATOM     45  C   UNL A   1      37.803  33.272  34.460  1.00  0.00     0.031 C 
ATOM     46  C   UNL A   1      38.875  30.779  30.217  1.00  0.00     0.029 A 
ATOM     47  N   UNL A   1      40.300  30.559  31.926  1.00  0.00    -0.354 N 
ATOM     48  C   UNL A   1      39.679  32.706  35.634  1.00  0.00     0.074 A 
ATOM     49  C   UNL A   1      38.468  33.493  35.583  1.00  0.00     0.031 C 
ATOM     50  C   UNL A   1      39.858  29.956  29.819  1.00  0.00     0.029 A 
ATOM     51  C   UNL A   1      40.832  29.818  30.898  1.00  0.00     0.049 A 
ATOM     52  H   UNL A   1      40.722  30.630  32.813  1.00  0.00     0.167 HD
ATOM     53  C   UNL A   1      40.496  32.633  36.712  1.00  0.00     0.031 A 
ATOM     54  C   UNL A   1      41.983  29.120  30.824  1.00  0.00     0.031 A 
ATOM     55  C   UNL A   1      41.694  31.839  36.757  1.00  0.00     0.049 A 
ATOM     56  C   UNL A   1      42.886  29.072  32.027  1.00  0.00     0.074 A 
ATOM     57  C   UNL A   1      42.570  31.667  37.814  1.00  0.00     0.029 A 
ATOM     58  N   UNL A   1      42.184  31.086  35.702  1.00  0.00    -0.354 N 
ATOM     59  N   UNL A   1      42.735  29.651  33.195  1.00  0.00    -0.248 NA
ATOM     60  C   UNL A   1      44.108  28.265  31.910  1.00  0.00     0.031 C 
ATOM     61  C   UNL A   1      43.619  30.851  37.381  1.00  0.00     0.029 A 
ATOM     62  C   UNL A   1      43.360  30.458  36.077  1.00  0.00     0.049 A 
ATOM     63  H   UNL A   1      41.759  31.007  34.818  1.00  0.00     0.167 HD
ATOM     64  C   UNL A   1      43.823  29.250  33.960  1.00  0.00     0.074 A 
ATOM     65  C   UNL A   1      44.620  28.373  33.128  1.00  0.00     0.031 C 
ATOM     66  C   UNL A   1      44.133  29.575  35.240  1.00  0.00     0.031 A 
BRANCH  53  67
ATOM     67  C   UNL A   1      40.116  33.436  37.929  1.00  0.00    -0.014 A 
ATOM     68  C   UNL A   1      40.521  34.776  38.069  1.00  0.00     0.010 A 
ATOM     69  C   UNL A   1      39.310  32.858  38.926  1.00  0.00     0.010 A 
ATOM     70  C   UNL A   1      40.166  35.508  39.205  1.00  0.00     0.020 A 
ATOM     71  C   UNL A   1      38.925  33.598  40.049  1.00  0.00     0.020 A 
ATOM     72  C   UNL A   1      39.371  34.914  40.188  1.00  0.00     0.054 A 
BRANCH  72  73
ATOM     73  S   UNL A   1      38.905  35.898  41.638  1.00  0.00     0.124 S 
ATOM     74  O   UNL A   1      39.918  35.498  42.611  1.00  0.00    -0.237 OA
ATOM     75  O   UNL A   1      39.017  37.268  41.143  1.00  0.00    -0.237 OA
ATOM     76  O   UNL A   1      37.546  35.455  41.937  1.00  0.00    -0.744 OA
ENDBRANCH  72  73
ENDBRANCH  53  67
BRANCH  54  77
ATOM     77  C   UNL A   1      42.345  28.412  29.564  1.00  0.00    -0.014 A 
ATOM     78  C   UNL A   1      41.936  27.085  29.342  1.00  0.00     0.010 A 
ATOM     79  C   UNL A   1      43.099  29.068  28.573  1.00  0.00     0.010 A 
ATOM     80  C   UNL A   1      42.294  26.420  28.166  1.00  0.00     0.020 A 
ATOM     81  C   UNL A   1      43.433  28.417  27.382  1.00  0.00     0.020 A 
ATOM     82  C   UNL A   1      43.040  27.091  27.192  1.00  0.00     0.054 A 
BRANCH  82  83
ATOM     83  S   UNL A   1      43.458  26.222  25.656  1.00  0.00     0.124 S 
ATOM     84  O   UNL A   1      43.935  24.936  26.155  1.00  0.00    -0.237 OA
ATOM     85  O   UNL A   1      42.179  26.194  24.951  1.00  0.00    -0.237 OA
ATOM     86  O   UNL A   1      44.477  27.075  25.047  1.00  0.00    -0.744 OA
ENDBRANCH  82  83
ENDBRANCH  54  77
BRANCH  66  87
ATOM     87  C   UNL A   1      45.354  28.938  35.850  1.00  0.00    -0.014 A 
ATOM     88  C   UNL A   1      46.606  29.576  35.825  1.00  0.00     0.010 A 
ATOM     89  C   UNL A   1      45.220  27.715  36.534  1.00  0.00     0.010 A 
ATOM     90  C   UNL A   1      47.708  28.990  36.455  1.00  0.00     0.020 A 
ATOM     91  C   UNL A   1      46.311  27.143  37.192  1.00  0.00     0.020 A 
ATOM     92  C   UNL A   1      47.551  27.780  37.139  1.00  0.00     0.054 A 
BRANCH  92  93
ATOM     93  S   UNL A   1      48.981  27.078  38.007  1.00  0.00     0.124 S 
ATOM     94  O   UNL A   1      50.086  27.459  37.130  1.00  0.00    -0.237 OA
ATOM     95  O   UNL A   1      48.938  27.760  39.298  1.00  0.00    -0.237 OA
ATOM     96  O   UNL A   1      48.690  25.647  38.054  1.00  0.00    -0.744 OA
ENDBRANCH  92  93
ENDBRANCH  66  87
ENDBRANCH  40  41
ENDBRANCH  32  35
ENDBRANCH  30  31
ENDBRANCH  29  30
ENDBRANCH  28  29
ENDBRANCH   1  28
TORSDOF 21
ENDMDL
