MODEL 1
REMARK VINA RESULT:      -9.7      0.000      0.000
REMARK SMILES C[C@H](Cc1ccco1)[NH2+]Cc1cc(C(=O)NCCCCCCNC(=O)c2ccc(-c3c4nc(c(-c5ccc(S(=O)(=O)[O-])cc5)c5ccc([nH]5)c(-c5ccc(S(=O)(=O)[O-])cc5)c5nc(c(-c6ccc(S(=O)(=O)[O-])cc6)c6ccc3[nH]6)C=C5)C=C4)cc2)cs1
REMARK SMILES IDX 18 1 17 2 16 3 14 4 15 5 13 7 11 8 12 9 87 10 86 11 10 12
REMARK SMILES IDX 9 13 2 16 1 17 3 18 4 19 5 20 8 21 6 22 7 23 19 24 20 25
REMARK SMILES IDX 21 26 22 27 23 28 24 29 25 31 26 32 27 33 85 34 28 35 84 36
REMARK SMILES IDX 29 37 30 38 31 39 78 40 32 41 83 42 77 43 79 44 33 45 82 46
REMARK SMILES IDX 76 47 75 48 34 50 64 51 45 52 63 53 46 54 49 55 62 56 80 57
REMARK SMILES IDX 47 58 48 59 61 61 81 62 50 63 35 64 36 65 44 66 37 67 43 68
REMARK SMILES IDX 38 69 39 70 40 71 41 72 42 73 65 74 66 75 74 76 67 77 73 78
REMARK SMILES IDX 68 79 69 80 70 81 71 82 72 83 51 84 52 85 60 86 53 87 59 88
REMARK SMILES IDX 54 89 55 90 56 91 57 92 58 93
REMARK H PARENT 16 6 9 14 9 15 23 30 79 49 49 60
REMARK Flexibility Score: inf
ROOT
ATOM      1  C   UNL A   1      33.893  28.418  24.264  1.00  0.00     0.021 C 
ENDROOT
BRANCH   1   2
ATOM      2  C   UNL A   1      33.052  28.715  23.019  1.00  0.00     0.116 C 
BRANCH   2   3
ATOM      3  N   UNL A   1      33.389  27.811  21.930  1.00  0.00    -0.352 N 
ATOM      4  C   UNL A   1      33.005  26.514  21.687  1.00  0.00     0.252 C 
ATOM      5  O   UNL A   1      33.263  26.030  20.586  1.00  0.00    -0.269 OA
ATOM      6  H   UNL A   1      33.994  28.192  21.253  1.00  0.00     0.163 HD
BRANCH   4   7
ATOM      7  C   UNL A   1      32.265  25.763  22.699  1.00  0.00     0.051 A 
ATOM      8  C   UNL A   1      31.763  24.148  24.334  1.00  0.00     0.059 A 
ATOM      9  C   UNL A   1      32.576  24.484  23.267  1.00  0.00     0.035 A 
ATOM     10  S   UNL A   1      30.437  25.225  24.450  1.00  0.00    -0.142 S 
ATOM     11  C   UNL A   1      31.063  26.221  23.211  1.00  0.00     0.079 A 
BRANCH   8  12
ATOM     12  C   UNL A   1      31.915  23.011  25.305  1.00  0.00     0.308 C 
BRANCH  12  13
ATOM     13  N   UNL A   1      32.351  21.775  24.652  1.00  0.00    -0.339 N 
ATOM     14  H   UNL A   1      31.534  21.351  24.214  1.00  0.00     0.346 HD
ATOM     15  H   UNL A   1      33.084  22.057  24.000  1.00  0.00     0.346 HD
BRANCH  13  16
ATOM     16  C   UNL A   1      32.974  20.756  25.521  1.00  0.00     0.187 C 
ATOM     17  C   UNL A   1      33.778  21.314  26.701  1.00  0.00     0.075 C 
BRANCH  16  18
ATOM     18  C   UNL A   1      33.749  19.743  24.629  1.00  0.00     0.140 C 
BRANCH  18  19
ATOM     19  C   UNL A   1      33.592  18.292  24.935  1.00  0.00     0.109 A 
ATOM     20  C   UNL A   1      32.630  17.602  25.646  1.00  0.00     0.046 A 
ATOM     21  O   UNL A   1      34.523  17.419  24.451  1.00  0.00    -0.469 OA
ATOM     22  C   UNL A   1      33.021  16.244  25.644  1.00  0.00     0.042 A 
ATOM     23  C   UNL A   1      34.194  16.191  24.931  1.00  0.00     0.195 A 
ENDBRANCH  18  19
ENDBRANCH  16  18
ENDBRANCH  13  16
ENDBRANCH  12  13
ENDBRANCH   8  12
ENDBRANCH   4   7
ENDBRANCH   2   3
ENDBRANCH   1   2
BRANCH   1  24
ATOM     24  C   UNL A   1      33.066  28.312  25.556  1.00  0.00     0.002 C 
BRANCH  24  25
ATOM     25  C   UNL A   1      32.044  29.437  25.779  1.00  0.00     0.002 C 
BRANCH  25  26
ATOM     26  C   UNL A   1      32.179  30.204  27.099  1.00  0.00     0.021 C 
BRANCH  26  27
ATOM     27  C   UNL A   1      33.376  31.143  27.189  1.00  0.00     0.116 C 
BRANCH  27  28
ATOM     28  N   UNL A   1      32.976  32.516  27.453  1.00  0.00    -0.352 N 
ATOM     29  C   UNL A   1      33.461  33.426  28.362  1.00  0.00     0.251 C 
ATOM     30  H   UNL A   1      32.240  32.848  26.890  1.00  0.00     0.163 HD
ATOM     31  O   UNL A   1      32.834  34.464  28.560  1.00  0.00    -0.269 OA
BRANCH  29  32
ATOM     32  C   UNL A   1      34.712  33.170  29.120  1.00  0.00     0.039 A 
ATOM     33  C   UNL A   1      34.667  32.305  30.219  1.00  0.00     0.014 A 
ATOM     34  C   UNL A   1      35.911  33.813  28.799  1.00  0.00     0.014 A 
ATOM     35  C   UNL A   1      35.829  32.038  30.951  1.00  0.00     0.010 A 
ATOM     36  C   UNL A   1      37.082  33.492  29.486  1.00  0.00     0.010 A 
ATOM     37  C   UNL A   1      37.056  32.604  30.572  1.00  0.00    -0.014 A 
BRANCH  37  38
ATOM     38  C   UNL A   1      38.316  32.290  31.299  1.00  0.00     0.031 A 
ATOM     39  C   UNL A   1      39.281  31.276  30.745  1.00  0.00     0.074 A 
ATOM     40  C   UNL A   1      38.566  32.868  32.490  1.00  0.00     0.049 A 
ATOM     41  N   UNL A   1      40.379  30.803  31.279  1.00  0.00    -0.248 NA
ATOM     42  C   UNL A   1      38.959  30.704  29.428  1.00  0.00     0.031 C 
ATOM     43  C   UNL A   1      37.708  33.851  33.155  1.00  0.00     0.029 A 
ATOM     44  N   UNL A   1      39.616  32.703  33.361  1.00  0.00    -0.354 N 
ATOM     45  C   UNL A   1      40.865  29.863  30.378  1.00  0.00     0.074 A 
ATOM     46  C   UNL A   1      39.924  29.807  29.280  1.00  0.00     0.031 C 
ATOM     47  C   UNL A   1      38.277  34.219  34.315  1.00  0.00     0.029 A 
ATOM     48  C   UNL A   1      39.515  33.467  34.499  1.00  0.00     0.049 A 
ATOM     49  H   UNL A   1      40.370  32.095  33.185  1.00  0.00     0.167 HD
ATOM     50  C   UNL A   1      41.999  29.123  30.447  1.00  0.00     0.031 A 
ATOM     51  C   UNL A   1      40.318  33.546  35.578  1.00  0.00     0.031 A 
ATOM     52  C   UNL A   1      42.946  29.186  31.528  1.00  0.00     0.049 A 
ATOM     53  C   UNL A   1      41.556  32.698  35.647  1.00  0.00     0.074 A 
ATOM     54  C   UNL A   1      44.151  28.516  31.657  1.00  0.00     0.029 A 
ATOM     55  N   UNL A   1      42.797  29.964  32.666  1.00  0.00    -0.354 N 
ATOM     56  N   UNL A   1      42.018  31.845  34.765  1.00  0.00    -0.248 NA
ATOM     57  C   UNL A   1      42.378  32.821  36.859  1.00  0.00     0.031 C 
ATOM     58  C   UNL A   1      44.711  28.858  32.895  1.00  0.00     0.029 A 
ATOM     59  C   UNL A   1      43.874  29.771  33.515  1.00  0.00     0.049 A 
ATOM     60  H   UNL A   1      42.038  30.563  32.844  1.00  0.00     0.167 HD
ATOM     61  C   UNL A   1      43.192  31.338  35.310  1.00  0.00     0.074 A 
ATOM     62  C   UNL A   1      43.377  31.989  36.591  1.00  0.00     0.031 C 
ATOM     63  C   UNL A   1      44.040  30.414  34.793  1.00  0.00     0.031 A 
BRANCH  50  64
ATOM     64  C   UNL A   1      42.264  28.165  29.316  1.00  0.00    -0.014 A 
ATOM     65  C   UNL A   1      42.986  28.569  28.179  1.00  0.00     0.010 A 
ATOM     66  C   UNL A   1      41.794  26.842  29.397  1.00  0.00     0.010 A 
ATOM     67  C   UNL A   1      43.185  27.683  27.117  1.00  0.00     0.020 A 
ATOM     68  C   UNL A   1      42.013  25.945  28.347  1.00  0.00     0.020 A 
ATOM     69  C   UNL A   1      42.687  26.380  27.203  1.00  0.00     0.054 A 
BRANCH  69  70
ATOM     70  S   UNL A   1      42.949  25.251  25.808  1.00  0.00     0.124 S 
ATOM     71  O   UNL A   1      42.575  26.089  24.671  1.00  0.00    -0.237 OA
ATOM     72  O   UNL A   1      44.371  24.933  25.910  1.00  0.00    -0.237 OA
ATOM     73  O   UNL A   1      42.044  24.139  26.088  1.00  0.00    -0.744 OA
ENDBRANCH  69  70
ENDBRANCH  50  64
BRANCH  51  74
ATOM     74  C   UNL A   1      39.970  34.476  36.685  1.00  0.00    -0.014 A 
ATOM     75  C   UNL A   1      39.251  34.012  37.800  1.00  0.00     0.010 A 
ATOM     76  C   UNL A   1      40.384  35.819  36.646  1.00  0.00     0.010 A 
ATOM     77  C   UNL A   1      38.950  34.875  38.857  1.00  0.00     0.020 A 
ATOM     78  C   UNL A   1      40.104  36.680  37.710  1.00  0.00     0.020 A 
ATOM     79  C   UNL A   1      39.383  36.203  38.807  1.00  0.00     0.054 A 
BRANCH  79  80
ATOM     80  S   UNL A   1      39.055  37.288  40.225  1.00  0.00     0.124 S 
ATOM     81  O   UNL A   1      40.404  37.624  40.668  1.00  0.00    -0.237 OA
ATOM     82  O   UNL A   1      38.295  38.379  39.621  1.00  0.00    -0.237 OA
ATOM     83  O   UNL A   1      38.289  36.435  41.132  1.00  0.00    -0.744 OA
ENDBRANCH  79  80
ENDBRANCH  51  74
BRANCH  63  84
ATOM     84  C   UNL A   1      45.249  30.054  35.611  1.00  0.00    -0.014 A 
ATOM     85  C   UNL A   1      46.440  30.793  35.499  1.00  0.00     0.010 A 
ATOM     86  C   UNL A   1      45.177  29.003  36.542  1.00  0.00     0.010 A 
ATOM     87  C   UNL A   1      47.546  30.474  36.291  1.00  0.00     0.020 A 
ATOM     88  C   UNL A   1      46.274  28.694  37.351  1.00  0.00     0.020 A 
ATOM     89  C   UNL A   1      47.456  29.426  37.213  1.00  0.00     0.054 A 
BRANCH  89  90
ATOM     90  S   UNL A   1      48.885  29.065  38.270  1.00  0.00     0.124 S 
ATOM     91  O   UNL A   1      49.958  29.778  37.584  1.00  0.00    -0.237 OA
ATOM     92  O   UNL A   1      48.483  29.623  39.559  1.00  0.00    -0.237 OA
ATOM     93  O   UNL A   1      48.982  27.607  38.233  1.00  0.00    -0.744 OA
ENDBRANCH  89  90
ENDBRANCH  63  84
ENDBRANCH  37  38
ENDBRANCH  29  32
ENDBRANCH  27  28
ENDBRANCH  26  27
ENDBRANCH  25  26
ENDBRANCH  24  25
ENDBRANCH   1  24
TORSDOF 21
ENDMDL
MODEL 2
REMARK VINA RESULT:      -9.5      1.175      8.238
REMARK SMILES C[C@H](Cc1ccco1)[NH2+]Cc1cc(C(=O)NCCCCCCNC(=O)c2ccc(-c3c4nc(c(-c5ccc(S(=O)(=O)[O-])cc5)c5ccc([nH]5)c(-c5ccc(S(=O)(=O)[O-])cc5)c5nc(c(-c6ccc(S(=O)(=O)[O-])cc6)c6ccc3[nH]6)C=C5)C=C4)cc2)cs1
REMARK SMILES IDX 18 1 17 2 16 3 14 4 15 5 13 7 11 8 12 9 87 10 86 11 10 12
REMARK SMILES IDX 9 13 2 16 1 17 3 18 4 19 5 20 8 21 6 22 7 23 19 24 20 25
REMARK SMILES IDX 21 26 22 27 23 28 24 29 25 31 26 32 27 33 85 34 28 35 84 36
REMARK SMILES IDX 29 37 30 38 31 39 78 40 32 41 83 42 77 43 79 44 33 45 82 46
REMARK SMILES IDX 76 47 75 48 34 50 64 51 45 52 63 53 46 54 49 55 62 56 80 57
REMARK SMILES IDX 47 58 48 59 61 61 81 62 50 63 35 64 36 65 44 66 37 67 43 68
REMARK SMILES IDX 38 69 39 70 40 71 41 72 42 73 65 74 66 75 74 76 67 77 73 78
REMARK SMILES IDX 68 79 69 80 70 81 71 82 72 83 51 84 52 85 60 86 53 87 59 88
REMARK SMILES IDX 54 89 55 90 56 91 57 92 58 93
REMARK H PARENT 16 6 9 14 9 15 23 30 79 49 49 60
REMARK Flexibility Score: inf
ROOT
ATOM      1  C   UNL A   1      34.129  28.514  24.648  1.00  0.00     0.021 C 
ENDROOT
BRANCH   1   2
ATOM      2  C   UNL A   1      33.802  28.886  23.199  1.00  0.00     0.116 C 
BRANCH   2   3
ATOM      3  N   UNL A   1      33.869  27.721  22.329  1.00  0.00    -0.352 N 
ATOM      4  C   UNL A   1      32.936  26.750  22.055  1.00  0.00     0.252 C 
ATOM      5  O   UNL A   1      33.161  25.978  21.124  1.00  0.00    -0.269 OA
ATOM      6  H   UNL A   1      34.726  27.611  21.857  1.00  0.00     0.163 HD
BRANCH   4   7
ATOM      7  C   UNL A   1      31.695  26.682  22.824  1.00  0.00     0.051 A 
ATOM      8  C   UNL A   1      30.180  26.161  24.545  1.00  0.00     0.059 A 
ATOM      9  C   UNL A   1      31.379  25.837  23.937  1.00  0.00     0.035 A 
ATOM     10  S   UNL A   1      29.296  27.273  23.591  1.00  0.00    -0.142 S 
ATOM     11  C   UNL A   1      30.591  27.448  22.491  1.00  0.00     0.079 A 
BRANCH   8  12
ATOM     12  C   UNL A   1      29.624  25.654  25.847  1.00  0.00     0.308 C 
BRANCH  12  13
ATOM     13  N   UNL A   1      30.588  24.835  26.584  1.00  0.00    -0.339 N 
ATOM     14  H   UNL A   1      31.522  25.178  26.360  1.00  0.00     0.346 HD
ATOM     15  H   UNL A   1      30.327  24.927  27.566  1.00  0.00     0.346 HD
BRANCH  13  16
ATOM     16  C   UNL A   1      30.566  23.384  26.309  1.00  0.00     0.187 C 
ATOM     17  C   UNL A   1      29.568  22.580  27.150  1.00  0.00     0.075 C 
BRANCH  16  18
ATOM     18  C   UNL A   1      32.025  22.846  26.342  1.00  0.00     0.140 C 
BRANCH  18  19
ATOM     19  C   UNL A   1      32.365  21.712  25.435  1.00  0.00     0.109 A 
ATOM     20  C   UNL A   1      32.729  20.405  25.694  1.00  0.00     0.046 A 
ATOM     21  O   UNL A   1      32.320  21.920  24.087  1.00  0.00    -0.469 OA
ATOM     22  C   UNL A   1      32.973  19.797  24.443  1.00  0.00     0.042 A 
ATOM     23  C   UNL A   1      32.740  20.768  23.500  1.00  0.00     0.195 A 
ENDBRANCH  18  19
ENDBRANCH  16  18
ENDBRANCH  13  16
ENDBRANCH  12  13
ENDBRANCH   8  12
ENDBRANCH   4   7
ENDBRANCH   2   3
ENDBRANCH   1   2
BRANCH   1  24
ATOM     24  C   UNL A   1      32.939  28.668  25.608  1.00  0.00     0.002 C 
BRANCH  24  25
ATOM     25  C   UNL A   1      32.257  30.045  25.597  1.00  0.00     0.002 C 
BRANCH  25  26
ATOM     26  C   UNL A   1      32.169  30.751  26.955  1.00  0.00     0.021 C 
BRANCH  26  27
ATOM     27  C   UNL A   1      33.391  31.576  27.343  1.00  0.00     0.116 C 
BRANCH  27  28
ATOM     28  N   UNL A   1      33.030  32.912  27.789  1.00  0.00    -0.352 N 
ATOM     29  C   UNL A   1      33.544  33.679  28.808  1.00  0.00     0.251 C 
ATOM     30  H   UNL A   1      32.302  33.336  27.280  1.00  0.00     0.163 HD
ATOM     31  O   UNL A   1      32.946  34.699  29.146  1.00  0.00    -0.269 OA
BRANCH  29  32
ATOM     32  C   UNL A   1      34.788  33.291  29.517  1.00  0.00     0.039 A 
ATOM     33  C   UNL A   1      34.707  32.357  30.556  1.00  0.00     0.014 A 
ATOM     34  C   UNL A   1      36.021  33.874  29.212  1.00  0.00     0.014 A 
ATOM     35  C   UNL A   1      35.862  31.964  31.241  1.00  0.00     0.010 A 
ATOM     36  C   UNL A   1      37.182  33.430  29.848  1.00  0.00     0.010 A 
ATOM     37  C   UNL A   1      37.117  32.474  30.872  1.00  0.00    -0.014 A 
BRANCH  37  38
ATOM     38  C   UNL A   1      38.366  32.028  31.546  1.00  0.00     0.031 A 
ATOM     39  C   UNL A   1      38.771  32.622  32.869  1.00  0.00     0.074 A 
ATOM     40  C   UNL A   1      39.174  31.135  30.941  1.00  0.00     0.049 A 
ATOM     41  N   UNL A   1      39.867  32.432  33.559  1.00  0.00    -0.248 NA
ATOM     42  C   UNL A   1      37.830  33.572  33.485  1.00  0.00     0.031 C 
ATOM     43  C   UNL A   1      38.916  30.495  29.649  1.00  0.00     0.029 A 
ATOM     44  N   UNL A   1      40.385  30.617  31.332  1.00  0.00    -0.354 N 
ATOM     45  C   UNL A   1      39.759  33.252  34.676  1.00  0.00     0.074 A 
ATOM     46  C   UNL A   1      38.509  33.969  34.553  1.00  0.00     0.031 C 
ATOM     47  C   UNL A   1      39.924  29.654  29.367  1.00  0.00     0.029 A 
ATOM     48  C   UNL A   1      40.920  29.726  30.432  1.00  0.00     0.049 A 
ATOM     49  H   UNL A   1      40.827  30.860  32.177  1.00  0.00     0.167 HD
ATOM     50  C   UNL A   1      40.614  33.387  35.720  1.00  0.00     0.031 A 
ATOM     51  C   UNL A   1      42.088  29.053  30.450  1.00  0.00     0.031 A 
ATOM     52  C   UNL A   1      41.851  32.665  35.856  1.00  0.00     0.049 A 
ATOM     53  C   UNL A   1      43.033  29.238  31.603  1.00  0.00     0.074 A 
ATOM     54  C   UNL A   1      42.754  32.695  36.905  1.00  0.00     0.029 A 
ATOM     55  N   UNL A   1      42.360  31.784  34.915  1.00  0.00    -0.354 N 
ATOM     56  N   UNL A   1      42.893  29.988  32.669  1.00  0.00    -0.248 NA
ATOM     57  C   UNL A   1      44.296  28.487  31.553  1.00  0.00     0.031 C 
ATOM     58  C   UNL A   1      43.831  31.862  36.578  1.00  0.00     0.029 A 
ATOM     59  C   UNL A   1      43.578  31.283  35.345  1.00  0.00     0.049 A 
ATOM     60  H   UNL A   1      41.922  31.550  34.066  1.00  0.00     0.167 HD
ATOM     61  C   UNL A   1      44.044  29.791  33.423  1.00  0.00     0.074 A 
ATOM     62  C   UNL A   1      44.864  28.840  32.699  1.00  0.00     0.031 C 
ATOM     63  C   UNL A   1      44.390  30.349  34.609  1.00  0.00     0.031 A 
BRANCH  50  64
ATOM     64  C   UNL A   1      40.237  34.373  36.793  1.00  0.00    -0.014 A 
ATOM     65  C   UNL A   1      40.664  35.712  36.729  1.00  0.00     0.010 A 
ATOM     66  C   UNL A   1      39.438  33.959  37.873  1.00  0.00     0.010 A 
ATOM     67  C   UNL A   1      40.345  36.605  37.755  1.00  0.00     0.020 A 
ATOM     68  C   UNL A   1      39.096  34.856  38.890  1.00  0.00     0.020 A 
ATOM     69  C   UNL A   1      39.572  36.168  38.835  1.00  0.00     0.054 A 
BRANCH  69  70
ATOM     70  S   UNL A   1      39.179  37.344  40.160  1.00  0.00     0.124 S 
ATOM     71  O   UNL A   1      38.439  38.374  39.435  1.00  0.00    -0.237 OA
ATOM     72  O   UNL A   1      38.388  36.537  41.085  1.00  0.00    -0.237 OA
ATOM     73  O   UNL A   1      40.490  37.752  40.659  1.00  0.00    -0.744 OA
ENDBRANCH  69  70
ENDBRANCH  50  64
BRANCH  51  74
ATOM     74  C   UNL A   1      42.422  28.133  29.332  1.00  0.00    -0.014 A 
ATOM     75  C   UNL A   1      42.059  26.777  29.397  1.00  0.00     0.010 A 
ATOM     76  C   UNL A   1      43.076  28.614  28.184  1.00  0.00     0.010 A 
ATOM     77  C   UNL A   1      42.343  25.916  28.334  1.00  0.00     0.020 A 
ATOM     78  C   UNL A   1      43.344  27.761  27.109  1.00  0.00     0.020 A 
ATOM     79  C   UNL A   1      42.980  26.416  27.194  1.00  0.00     0.054 A 
BRANCH  79  80
ATOM     80  S   UNL A   1      43.268  25.302  25.789  1.00  0.00     0.124 S 
ATOM     81  O   UNL A   1      42.694  26.058  24.681  1.00  0.00    -0.237 OA
ATOM     82  O   UNL A   1      44.722  25.170  25.782  1.00  0.00    -0.237 OA
ATOM     83  O   UNL A   1      42.543  24.090  26.166  1.00  0.00    -0.744 OA
ENDBRANCH  79  80
ENDBRANCH  51  74
BRANCH  63  84
ATOM     84  C   UNL A   1      45.710  29.944  35.204  1.00  0.00    -0.014 A 
ATOM     85  C   UNL A   1      46.874  30.691  34.949  1.00  0.00     0.010 A 
ATOM     86  C   UNL A   1      45.777  28.840  36.072  1.00  0.00     0.010 A 
ATOM     87  C   UNL A   1      48.088  30.328  35.538  1.00  0.00     0.020 A 
ATOM     88  C   UNL A   1      46.985  28.486  36.680  1.00  0.00     0.020 A 
ATOM     89  C   UNL A   1      48.137  29.227  36.400  1.00  0.00     0.054 A 
BRANCH  89  90
ATOM     90  S   UNL A   1      49.711  28.807  37.197  1.00  0.00     0.124 S 
ATOM     91  O   UNL A   1      50.669  29.553  36.387  1.00  0.00    -0.237 OA
ATOM     92  O   UNL A   1      49.524  29.297  38.560  1.00  0.00    -0.237 OA
ATOM     93  O   UNL A   1      49.785  27.353  37.070  1.00  0.00    -0.744 OA
ENDBRANCH  89  90
ENDBRANCH  63  84
ENDBRANCH  37  38
ENDBRANCH  29  32
ENDBRANCH  27  28
ENDBRANCH  26  27
ENDBRANCH  25  26
ENDBRANCH  24  25
ENDBRANCH   1  24
TORSDOF 21
ENDMDL
MODEL 3
REMARK VINA RESULT:      -9.4      5.317      8.555
REMARK SMILES C[C@H](Cc1ccco1)[NH2+]Cc1cc(C(=O)NCCCCCCNC(=O)c2ccc(-c3c4nc(c(-c5ccc(S(=O)(=O)[O-])cc5)c5ccc([nH]5)c(-c5ccc(S(=O)(=O)[O-])cc5)c5nc(c(-c6ccc(S(=O)(=O)[O-])cc6)c6ccc3[nH]6)C=C5)C=C4)cc2)cs1
REMARK SMILES IDX 18 1 17 2 16 3 14 4 15 5 13 7 11 8 12 9 87 10 86 11 10 12
REMARK SMILES IDX 9 13 2 16 1 17 3 18 4 19 5 20 8 21 6 22 7 23 19 24 20 25
REMARK SMILES IDX 21 26 22 27 23 28 24 29 25 31 26 32 27 33 85 34 28 35 84 36
REMARK SMILES IDX 29 37 30 38 31 39 78 40 32 41 83 42 77 43 79 44 33 45 82 46
REMARK SMILES IDX 76 47 75 48 34 50 64 51 45 52 63 53 46 54 49 55 62 56 80 57
REMARK SMILES IDX 47 58 48 59 61 61 81 62 50 63 35 64 36 65 44 66 37 67 43 68
REMARK SMILES IDX 38 69 39 70 40 71 41 72 42 73 65 74 66 75 74 76 67 77 73 78
REMARK SMILES IDX 68 79 69 80 70 81 71 82 72 83 51 84 52 85 60 86 53 87 59 88
REMARK SMILES IDX 54 89 55 90 56 91 57 92 58 93
REMARK H PARENT 16 6 9 14 9 15 23 30 79 49 49 60
REMARK Flexibility Score: inf
ROOT
ATOM      1  C   UNL A   1      34.791  35.739  31.266  1.00  0.00     0.021 C 
ENDROOT
BRANCH   1   2
ATOM      2  C   UNL A   1      33.777  35.943  32.395  1.00  0.00     0.116 C 
BRANCH   2   3
ATOM      3  N   UNL A   1      33.061  34.710  32.688  1.00  0.00    -0.352 N 
ATOM      4  C   UNL A   1      33.468  33.567  33.331  1.00  0.00     0.252 C 
ATOM      5  O   UNL A   1      32.612  32.737  33.635  1.00  0.00    -0.269 OA
ATOM      6  H   UNL A   1      32.128  34.693  32.372  1.00  0.00     0.163 HD
BRANCH   4   7
ATOM      7  C   UNL A   1      34.874  33.379  33.683  1.00  0.00     0.051 A 
ATOM      8  C   UNL A   1      37.128  32.724  33.533  1.00  0.00     0.059 A 
ATOM      9  C   UNL A   1      35.841  32.519  33.068  1.00  0.00     0.035 A 
ATOM     10  S   UNL A   1      37.119  33.726  34.921  1.00  0.00    -0.142 S 
ATOM     11  C   UNL A   1      35.444  34.022  34.769  1.00  0.00     0.079 A 
BRANCH   8  12
ATOM     12  C   UNL A   1      38.418  32.178  32.989  1.00  0.00     0.308 C 
BRANCH  12  13
ATOM     13  N   UNL A   1      38.450  30.714  32.993  1.00  0.00    -0.339 N 
ATOM     14  H   UNL A   1      37.602  30.387  33.455  1.00  0.00     0.346 HD
ATOM     15  H   UNL A   1      38.530  30.443  32.012  1.00  0.00     0.346 HD
BRANCH  13  16
ATOM     16  C   UNL A   1      39.602  30.083  33.668  1.00  0.00     0.187 C 
ATOM     17  C   UNL A   1      40.721  31.047  34.077  1.00  0.00     0.075 C 
BRANCH  16  18
ATOM     18  C   UNL A   1      40.072  28.865  32.821  1.00  0.00     0.140 C 
BRANCH  18  19
ATOM     19  C   UNL A   1      41.256  28.100  33.309  1.00  0.00     0.109 A 
ATOM     20  C   UNL A   1      42.529  27.953  32.795  1.00  0.00     0.046 A 
ATOM     21  O   UNL A   1      41.144  27.400  34.475  1.00  0.00    -0.469 OA
ATOM     22  C   UNL A   1      43.216  27.074  33.662  1.00  0.00     0.042 A 
ATOM     23  C   UNL A   1      42.321  26.742  34.649  1.00  0.00     0.195 A 
ENDBRANCH  18  19
ENDBRANCH  16  18
ENDBRANCH  13  16
ENDBRANCH  12  13
ENDBRANCH   8  12
ENDBRANCH   4   7
ENDBRANCH   2   3
ENDBRANCH   1   2
BRANCH   1  24
ATOM     24  C   UNL A   1      34.323  34.750  30.187  1.00  0.00     0.002 C 
BRANCH  24  25
ATOM     25  C   UNL A   1      35.444  34.040  29.413  1.00  0.00     0.002 C 
BRANCH  25  26
ATOM     26  C   UNL A   1      35.203  32.558  29.109  1.00  0.00     0.021 C 
BRANCH  26  27
ATOM     27  C   UNL A   1      34.414  32.270  27.837  1.00  0.00     0.116 C 
BRANCH  27  28
ATOM     28  N   UNL A   1      33.837  30.936  27.840  1.00  0.00    -0.352 N 
ATOM     29  C   UNL A   1      34.444  29.703  27.869  1.00  0.00     0.251 C 
ATOM     30  H   UNL A   1      32.853  30.911  27.820  1.00  0.00     0.163 HD
ATOM     31  O   UNL A   1      33.768  28.699  27.653  1.00  0.00    -0.269 OA
BRANCH  29  32
ATOM     32  C   UNL A   1      35.898  29.563  28.135  1.00  0.00     0.039 A 
ATOM     33  C   UNL A   1      36.315  29.218  29.426  1.00  0.00     0.014 A 
ATOM     34  C   UNL A   1      36.855  29.822  27.150  1.00  0.00     0.014 A 
ATOM     35  C   UNL A   1      37.677  29.072  29.710  1.00  0.00     0.010 A 
ATOM     36  C   UNL A   1      38.208  29.607  27.415  1.00  0.00     0.010 A 
ATOM     37  C   UNL A   1      38.636  29.234  28.698  1.00  0.00    -0.014 A 
BRANCH  37  38
ATOM     38  C   UNL A   1      40.087  29.028  28.960  1.00  0.00     0.031 A 
ATOM     39  C   UNL A   1      40.738  27.709  28.638  1.00  0.00     0.074 A 
ATOM     40  C   UNL A   1      40.809  30.002  29.548  1.00  0.00     0.049 A 
ATOM     41  N   UNL A   1      41.961  27.310  28.881  1.00  0.00    -0.248 NA
ATOM     42  C   UNL A   1      39.898  26.699  27.974  1.00  0.00     0.031 C 
ATOM     43  C   UNL A   1      40.301  31.321  29.933  1.00  0.00     0.029 A 
ATOM     44  N   UNL A   1      42.127  30.029  29.932  1.00  0.00    -0.354 N 
ATOM     45  C   UNL A   1      42.031  26.000  28.424  1.00  0.00     0.074 A 
ATOM     46  C   UNL A   1      40.718  25.658  27.922  1.00  0.00     0.031 C 
ATOM     47  C   UNL A   1      41.301  32.035  30.477  1.00  0.00     0.029 A 
ATOM     48  C   UNL A   1      42.507  31.213  30.519  1.00  0.00     0.049 A 
ATOM     49  H   UNL A   1      42.742  29.272  29.799  1.00  0.00     0.167 HD
ATOM     50  C   UNL A   1      43.094  25.158  28.408  1.00  0.00     0.031 A 
ATOM     51  C   UNL A   1      43.687  31.593  31.047  1.00  0.00     0.031 A 
ATOM     52  C   UNL A   1      44.406  25.497  28.891  1.00  0.00     0.049 A 
ATOM     53  C   UNL A   1      44.845  30.636  31.044  1.00  0.00     0.074 A 
ATOM     54  C   UNL A   1      45.558  24.730  28.863  1.00  0.00     0.029 A 
ATOM     55  N   UNL A   1      44.742  26.702  29.489  1.00  0.00    -0.354 N 
ATOM     56  N   UNL A   1      44.901  29.415  30.569  1.00  0.00    -0.248 NA
ATOM     57  C   UNL A   1      46.098  31.107  31.650  1.00  0.00     0.031 C 
ATOM     58  C   UNL A   1      46.582  25.456  29.484  1.00  0.00     0.029 A 
ATOM     59  C   UNL A   1      46.076  26.690  29.860  1.00  0.00     0.049 A 
ATOM     60  H   UNL A   1      44.123  27.453  29.630  1.00  0.00     0.167 HD
ATOM     61  C   UNL A   1      46.198  28.976  30.809  1.00  0.00     0.074 A 
ATOM     62  C   UNL A   1      46.898  30.067  31.457  1.00  0.00     0.031 C 
ATOM     63  C   UNL A   1      46.757  27.776  30.517  1.00  0.00     0.031 A 
BRANCH  50  64
ATOM     64  C   UNL A   1      42.867  23.776  27.857  1.00  0.00    -0.014 A 
ATOM     65  C   UNL A   1      43.246  23.448  26.543  1.00  0.00     0.010 A 
ATOM     66  C   UNL A   1      42.278  22.789  28.668  1.00  0.00     0.010 A 
ATOM     67  C   UNL A   1      42.989  22.174  26.030  1.00  0.00     0.020 A 
ATOM     68  C   UNL A   1      42.041  21.505  28.165  1.00  0.00     0.020 A 
ATOM     69  C   UNL A   1      42.377  21.215  26.841  1.00  0.00     0.054 A 
BRANCH  69  70
ATOM     70  S   UNL A   1      42.043  19.571  26.150  1.00  0.00     0.124 S 
ATOM     71  O   UNL A   1      40.591  19.603  25.990  1.00  0.00    -0.237 OA
ATOM     72  O   UNL A   1      42.811  19.579  24.908  1.00  0.00    -0.237 OA
ATOM     73  O   UNL A   1      42.537  18.657  27.177  1.00  0.00    -0.744 OA
ENDBRANCH  69  70
ENDBRANCH  50  64
BRANCH  51  74
ATOM     74  C   UNL A   1      43.829  32.956  31.623  1.00  0.00    -0.014 A 
ATOM     75  C   UNL A   1      44.213  34.033  30.805  1.00  0.00     0.010 A 
ATOM     76  C   UNL A   1      43.549  33.190  32.980  1.00  0.00     0.010 A 
ATOM     77  C   UNL A   1      44.316  35.322  31.336  1.00  0.00     0.020 A 
ATOM     78  C   UNL A   1      43.631  34.481  33.510  1.00  0.00     0.020 A 
ATOM     79  C   UNL A   1      44.019  35.538  32.685  1.00  0.00     0.054 A 
BRANCH  79  80
ATOM     80  S   UNL A   1      44.079  37.231  33.337  1.00  0.00     0.124 S 
ATOM     81  O   UNL A   1      45.342  37.230  34.067  1.00  0.00    -0.237 OA
ATOM     82  O   UNL A   1      44.049  38.041  32.121  1.00  0.00    -0.237 OA
ATOM     83  O   UNL A   1      42.875  37.318  34.161  1.00  0.00    -0.744 OA
ENDBRANCH  79  80
ENDBRANCH  51  74
BRANCH  63  84
ATOM     84  C   UNL A   1      48.200  27.577  30.892  1.00  0.00    -0.014 A 
ATOM     85  C   UNL A   1      49.231  27.943  30.008  1.00  0.00     0.010 A 
ATOM     86  C   UNL A   1      48.529  27.074  32.163  1.00  0.00     0.010 A 
ATOM     87  C   UNL A   1      50.568  27.790  30.382  1.00  0.00     0.020 A 
ATOM     88  C   UNL A   1      49.866  26.939  32.549  1.00  0.00     0.020 A 
ATOM     89  C   UNL A   1      50.878  27.288  31.651  1.00  0.00     0.054 A 
BRANCH  89  90
ATOM     90  S   UNL A   1      52.621  27.150  32.136  1.00  0.00     0.124 S 
ATOM     91  O   UNL A   1      53.300  27.783  31.010  1.00  0.00    -0.237 OA
ATOM     92  O   UNL A   1      52.665  27.891  33.394  1.00  0.00    -0.237 OA
ATOM     93  O   UNL A   1      52.831  25.710  32.262  1.00  0.00    -0.744 OA
ENDBRANCH  89  90
ENDBRANCH  63  84
ENDBRANCH  37  38
ENDBRANCH  29  32
ENDBRANCH  27  28
ENDBRANCH  26  27
ENDBRANCH  25  26
ENDBRANCH  24  25
ENDBRANCH   1  24
TORSDOF 21
ENDMDL
