MODEL 1
REMARK VINA RESULT:     -10.8      0.000      0.000
REMARK SMILES [NH3+]Cc1ccc(C(=O)N2[C@@H](C(=O)NCCCCCCNC(=O)c3ccc(-c4c5nc(c(-c6ccc(S(=O)(=O)[O-])cc6)c6ccc([nH]6)c(-c6ccc(S(=O)(=O)[O-])cc6)c6nc(c(-c7ccc(S(=O)(=O)[O-])cc7)c7ccc4[nH]7)C=C6)C=C5)cc3)C[C@H]3CCCC[C@@H]32)o1
REMARK SMILES IDX 16 1 15 2 14 3 13 4 11 5 12 6 10 8 9 9 89 10 83 11 84 12
REMARK SMILES IDX 88 13 85 14 87 15 86 16 7 17 8 18 6 19 3 20 4 21 90 22 5 23
REMARK SMILES IDX 2 24 1 25 17 29 18 30 19 31 20 32 21 33 22 35 23 36 24 37
REMARK SMILES IDX 82 38 25 39 81 40 26 41 27 42 28 43 75 44 29 45 80 46 74 47
REMARK SMILES IDX 76 48 30 49 79 50 73 51 72 52 31 54 61 55 42 56 60 57 43 58
REMARK SMILES IDX 46 59 59 60 77 61 44 62 45 63 58 65 78 66 47 67 32 68 33 69
REMARK SMILES IDX 41 70 34 71 40 72 35 73 36 74 37 75 38 76 39 77 62 78 63 79
REMARK SMILES IDX 71 80 64 81 70 82 65 83 66 84 67 85 68 86 69 87 48 88 49 89
REMARK SMILES IDX 57 90 50 91 56 92 51 93 52 94 53 95 54 96 55 97
REMARK H PARENT 13 7 1 26 1 27 1 28 20 34 76 53 46 64
REMARK Flexibility Score: inf
ROOT
ATOM      1  C   UNL A   1      33.411  24.103  24.250  1.00  0.00     0.002 C 
ENDROOT
BRANCH   1   2
ATOM      2  C   UNL A   1      32.405  22.954  24.189  1.00  0.00     0.021 C 
BRANCH   2   3
ATOM      3  C   UNL A   1      30.989  23.248  24.665  1.00  0.00     0.116 C 
BRANCH   3   4
ATOM      4  N   UNL A   1      30.873  24.289  25.668  1.00  0.00    -0.354 N 
ATOM      5  C   UNL A   1      30.454  25.591  25.520  1.00  0.00     0.242 C 
ATOM      6  O   UNL A   1      30.357  26.267  26.548  1.00  0.00    -0.273 OA
ATOM      7  H   UNL A   1      31.130  24.027  26.583  1.00  0.00     0.163 HD
BRANCH   5   8
ATOM      8  C   UNL A   1      30.256  26.213  24.100  1.00  0.00     0.175 C 
ATOM      9  N   UNL A   1      30.833  27.580  23.995  1.00  0.00    -0.321 N 
ATOM     10  C   UNL A   1      29.775  28.573  24.034  1.00  0.00     0.089 C 
ATOM     11  C   UNL A   1      28.770  26.443  23.753  1.00  0.00     0.041 C 
ATOM     12  C   UNL A   1      28.724  27.850  23.195  1.00  0.00     0.014 C 
ATOM     13  C   UNL A   1      29.992  29.959  23.428  1.00  0.00     0.025 C 
ATOM     14  C   UNL A   1      27.376  28.540  23.248  1.00  0.00     0.006 C 
ATOM     15  C   UNL A   1      28.662  30.731  23.378  1.00  0.00     0.002 C 
ATOM     16  C   UNL A   1      27.528  29.956  22.695  1.00  0.00     0.000 C 
BRANCH   9  17
ATOM     17  C   UNL A   1      32.161  27.942  23.815  1.00  0.00     0.290 C 
ATOM     18  O   UNL A   1      32.707  27.778  22.725  1.00  0.00    -0.265 OA
BRANCH  17  19
ATOM     19  C   UNL A   1      32.922  28.289  25.013  1.00  0.00     0.192 A 
ATOM     20  C   UNL A   1      33.534  29.681  26.630  1.00  0.00     0.159 A 
ATOM     21  C   UNL A   1      34.448  28.653  26.639  1.00  0.00     0.052 A 
ATOM     22  O   UNL A   1      32.594  29.457  25.665  1.00  0.00    -0.450 OA
ATOM     23  C   UNL A   1      34.073  27.779  25.590  1.00  0.00     0.057 A 
BRANCH  20  24
ATOM     24  C   UNL A   1      33.440  30.953  27.396  1.00  0.00     0.335 C 
BRANCH  24  25
ATOM     25  N   UNL A   1      32.253  31.725  27.041  1.00  0.00    -0.351 N 
ATOM     26  H   UNL A   1      32.224  32.580  27.595  1.00  0.00     0.344 HD
ATOM     27  H   UNL A   1      31.418  31.170  27.228  1.00  0.00     0.344 HD
ATOM     28  H   UNL A   1      32.287  31.963  26.049  1.00  0.00     0.344 HD
ENDBRANCH  24  25
ENDBRANCH  20  24
ENDBRANCH  17  19
ENDBRANCH   9  17
ENDBRANCH   5   8
ENDBRANCH   3   4
ENDBRANCH   2   3
ENDBRANCH   1   2
BRANCH   1  29
ATOM     29  C   UNL A   1      34.183  24.298  25.558  1.00  0.00     0.002 C 
BRANCH  29  30
ATOM     30  C   UNL A   1      35.360  23.358  25.835  1.00  0.00     0.021 C 
BRANCH  30  31
ATOM     31  C   UNL A   1      36.715  23.761  25.260  1.00  0.00     0.116 C 
BRANCH  31  32
ATOM     32  N   UNL A   1      37.755  22.776  25.491  1.00  0.00    -0.352 N 
ATOM     33  C   UNL A   1      38.975  22.917  26.107  1.00  0.00     0.251 C 
ATOM     34  H   UNL A   1      37.557  21.872  25.157  1.00  0.00     0.163 HD
ATOM     35  O   UNL A   1      39.763  21.975  26.108  1.00  0.00    -0.269 OA
BRANCH  33  36
ATOM     36  C   UNL A   1      39.360  24.200  26.741  1.00  0.00     0.039 A 
ATOM     37  C   UNL A   1      38.963  24.438  28.060  1.00  0.00     0.014 A 
ATOM     38  C   UNL A   1      40.079  25.176  26.044  1.00  0.00     0.014 A 
ATOM     39  C   UNL A   1      39.335  25.624  28.699  1.00  0.00     0.010 A 
ATOM     40  C   UNL A   1      40.505  26.329  26.703  1.00  0.00     0.010 A 
ATOM     41  C   UNL A   1      40.135  26.568  28.035  1.00  0.00    -0.014 A 
BRANCH  41  42
ATOM     42  C   UNL A   1      40.595  27.804  28.721  1.00  0.00     0.031 A 
ATOM     43  C   UNL A   1      41.973  27.876  29.320  1.00  0.00     0.074 A 
ATOM     44  C   UNL A   1      39.745  28.841  28.865  1.00  0.00     0.049 A 
ATOM     45  N   UNL A   1      42.529  28.849  29.995  1.00  0.00    -0.248 NA
ATOM     46  C   UNL A   1      42.828  26.690  29.159  1.00  0.00     0.031 C 
ATOM     47  C   UNL A   1      38.366  28.880  28.374  1.00  0.00     0.029 A 
ATOM     48  N   UNL A   1      39.914  30.058  29.478  1.00  0.00    -0.354 N 
ATOM     49  C   UNL A   1      43.787  28.385  30.362  1.00  0.00     0.074 A 
ATOM     50  C   UNL A   1      43.895  27.029  29.868  1.00  0.00     0.031 C 
ATOM     51  C   UNL A   1      37.821  30.065  28.689  1.00  0.00     0.029 A 
ATOM     52  C   UNL A   1      38.796  30.857  29.433  1.00  0.00     0.049 A 
ATOM     53  H   UNL A   1      40.756  30.332  29.908  1.00  0.00     0.167 HD
ATOM     54  C   UNL A   1      44.769  29.032  31.036  1.00  0.00     0.031 A 
ATOM     55  C   UNL A   1      38.574  32.086  29.938  1.00  0.00     0.031 A 
ATOM     56  C   UNL A   1      44.663  30.384  31.516  1.00  0.00     0.049 A 
ATOM     57  C   UNL A   1      39.681  32.794  30.667  1.00  0.00     0.074 A 
ATOM     58  C   UNL A   1      45.627  31.153  32.146  1.00  0.00     0.029 A 
ATOM     59  N   UNL A   1      43.523  31.170  31.427  1.00  0.00    -0.354 N 
ATOM     60  N   UNL A   1      40.891  32.368  30.935  1.00  0.00    -0.248 NA
ATOM     61  C   UNL A   1      39.398  34.154  31.146  1.00  0.00     0.031 C 
ATOM     62  C   UNL A   1      45.054  32.385  32.483  1.00  0.00     0.029 A 
ATOM     63  C   UNL A   1      43.750  32.404  32.013  1.00  0.00     0.049 A 
ATOM     64  H   UNL A   1      42.677  30.891  31.008  1.00  0.00     0.167 HD
ATOM     65  C   UNL A   1      41.522  33.414  31.600  1.00  0.00     0.074 A 
ATOM     66  C   UNL A   1      40.563  34.497  31.679  1.00  0.00     0.031 C 
ATOM     67  C   UNL A   1      42.783  33.470  32.097  1.00  0.00     0.031 A 
BRANCH  54  68
ATOM     68  C   UNL A   1      46.038  28.268  31.309  1.00  0.00    -0.014 A 
ATOM     69  C   UNL A   1      47.124  28.312  30.415  1.00  0.00     0.010 A 
ATOM     70  C   UNL A   1      46.150  27.497  32.480  1.00  0.00     0.010 A 
ATOM     71  C   UNL A   1      48.272  27.551  30.656  1.00  0.00     0.020 A 
ATOM     72  C   UNL A   1      47.307  26.758  32.740  1.00  0.00     0.020 A 
ATOM     73  C   UNL A   1      48.351  26.770  31.813  1.00  0.00     0.054 A 
BRANCH  73  74
ATOM     74  S   UNL A   1      49.843  25.778  32.094  1.00  0.00     0.124 S 
ATOM     75  O   UNL A   1      50.843  26.810  32.356  1.00  0.00    -0.237 OA
ATOM     76  O   UNL A   1      49.473  24.957  33.245  1.00  0.00    -0.237 OA
ATOM     77  O   UNL A   1      50.015  25.048  30.841  1.00  0.00    -0.744 OA
ENDBRANCH  73  74
ENDBRANCH  54  68
BRANCH  55  78
ATOM     78  C   UNL A   1      37.245  32.724  29.745  1.00  0.00    -0.014 A 
ATOM     79  C   UNL A   1      36.368  32.889  30.832  1.00  0.00     0.010 A 
ATOM     80  C   UNL A   1      36.875  33.226  28.484  1.00  0.00     0.010 A 
ATOM     81  C   UNL A   1      35.146  33.546  30.661  1.00  0.00     0.020 A 
ATOM     82  C   UNL A   1      35.665  33.904  28.315  1.00  0.00     0.020 A 
ATOM     83  C   UNL A   1      34.806  34.058  29.405  1.00  0.00     0.054 A 
BRANCH  83  84
ATOM     84  S   UNL A   1      33.261  34.992  29.228  1.00  0.00     0.124 S 
ATOM     85  O   UNL A   1      32.690  34.894  30.567  1.00  0.00    -0.237 OA
ATOM     86  O   UNL A   1      33.735  36.316  28.835  1.00  0.00    -0.237 OA
ATOM     87  O   UNL A   1      32.540  34.263  28.184  1.00  0.00    -0.744 OA
ENDBRANCH  83  84
ENDBRANCH  55  78
BRANCH  67  88
ATOM     88  C   UNL A   1      43.210  34.754  32.756  1.00  0.00    -0.014 A 
ATOM     89  C   UNL A   1      43.793  35.795  32.011  1.00  0.00     0.010 A 
ATOM     90  C   UNL A   1      42.972  34.943  34.130  1.00  0.00     0.010 A 
ATOM     91  C   UNL A   1      44.155  36.992  32.634  1.00  0.00     0.020 A 
ATOM     92  C   UNL A   1      43.309  36.148  34.751  1.00  0.00     0.020 A 
ATOM     93  C   UNL A   1      43.911  37.160  34.002  1.00  0.00     0.054 A 
BRANCH  93  94
ATOM     94  S   UNL A   1      44.347  38.740  34.780  1.00  0.00     0.124 S 
ATOM     95  O   UNL A   1      43.977  38.504  36.173  1.00  0.00    -0.237 OA
ATOM     96  O   UNL A   1      45.781  38.841  34.521  1.00  0.00    -0.237 OA
ATOM     97  O   UNL A   1      43.521  39.714  34.071  1.00  0.00    -0.744 OA
ENDBRANCH  93  94
ENDBRANCH  67  88
ENDBRANCH  41  42
ENDBRANCH  33  36
ENDBRANCH  31  32
ENDBRANCH  30  31
ENDBRANCH  29  30
ENDBRANCH   1  29
TORSDOF 20
ENDMDL
MODEL 2
REMARK VINA RESULT:     -10.5      3.377      8.749
REMARK SMILES [NH3+]Cc1ccc(C(=O)N2[C@@H](C(=O)NCCCCCCNC(=O)c3ccc(-c4c5nc(c(-c6ccc(S(=O)(=O)[O-])cc6)c6ccc([nH]6)c(-c6ccc(S(=O)(=O)[O-])cc6)c6nc(c(-c7ccc(S(=O)(=O)[O-])cc7)c7ccc4[nH]7)C=C6)C=C5)cc3)C[C@H]3CCCC[C@@H]32)o1
REMARK SMILES IDX 16 1 15 2 14 3 13 4 11 5 12 6 10 8 9 9 89 10 83 11 84 12
REMARK SMILES IDX 88 13 85 14 87 15 86 16 7 17 8 18 6 19 3 20 4 21 90 22 5 23
REMARK SMILES IDX 2 24 1 25 17 29 18 30 19 31 20 32 21 33 22 35 23 36 24 37
REMARK SMILES IDX 82 38 25 39 81 40 26 41 27 42 28 43 75 44 29 45 80 46 74 47
REMARK SMILES IDX 76 48 30 49 79 50 73 51 72 52 31 54 61 55 42 56 60 57 43 58
REMARK SMILES IDX 46 59 59 60 77 61 44 62 45 63 58 65 78 66 47 67 32 68 33 69
REMARK SMILES IDX 41 70 34 71 40 72 35 73 36 74 37 75 38 76 39 77 62 78 63 79
REMARK SMILES IDX 71 80 64 81 70 82 65 83 66 84 67 85 68 86 69 87 48 88 49 89
REMARK SMILES IDX 57 90 50 91 56 92 51 93 52 94 53 95 54 96 55 97
REMARK H PARENT 13 7 1 26 1 27 1 28 20 34 76 53 46 64
REMARK Flexibility Score: inf
ROOT
ATOM      1  C   UNL A   1      34.933  23.907  25.594  1.00  0.00     0.002 C 
ENDROOT
BRANCH   1   2
ATOM      2  C   UNL A   1      33.628  23.151  25.845  1.00  0.00     0.021 C 
BRANCH   2   3
ATOM      3  C   UNL A   1      32.354  23.764  25.281  1.00  0.00     0.116 C 
BRANCH   3   4
ATOM      4  N   UNL A   1      31.652  24.669  26.171  1.00  0.00    -0.354 N 
ATOM      5  C   UNL A   1      30.813  25.713  25.858  1.00  0.00     0.242 C 
ATOM      6  O   UNL A   1      30.261  26.288  26.800  1.00  0.00    -0.273 OA
ATOM      7  H   UNL A   1      31.795  24.513  27.133  1.00  0.00     0.163 HD
BRANCH   5   8
ATOM      8  C   UNL A   1      30.691  26.232  24.388  1.00  0.00     0.175 C 
ATOM      9  N   UNL A   1      31.171  27.632  24.239  1.00  0.00    -0.321 N 
ATOM     10  C   UNL A   1      30.043  28.537  24.128  1.00  0.00     0.089 C 
ATOM     11  C   UNL A   1      29.227  26.322  23.909  1.00  0.00     0.041 C 
ATOM     12  C   UNL A   1      29.123  27.684  23.257  1.00  0.00     0.014 C 
ATOM     13  C   UNL A   1      30.207  29.897  23.450  1.00  0.00     0.025 C 
ATOM     14  C   UNL A   1      27.729  28.266  23.156  1.00  0.00     0.006 C 
ATOM     15  C   UNL A   1      28.832  30.557  23.243  1.00  0.00     0.002 C 
ATOM     16  C   UNL A   1      27.821  29.654  22.525  1.00  0.00     0.000 C 
BRANCH   9  17
ATOM     17  C   UNL A   1      32.479  28.086  24.143  1.00  0.00     0.290 C 
ATOM     18  O   UNL A   1      33.100  27.972  23.087  1.00  0.00    -0.265 OA
BRANCH  17  19
ATOM     19  C   UNL A   1      33.141  28.472  25.387  1.00  0.00     0.192 A 
ATOM     20  C   UNL A   1      33.713  29.946  26.945  1.00  0.00     0.159 A 
ATOM     21  C   UNL A   1      34.516  28.846  27.141  1.00  0.00     0.052 A 
ATOM     22  O   UNL A   1      32.861  29.718  25.902  1.00  0.00    -0.450 OA
ATOM     23  C   UNL A   1      34.170  27.917  26.130  1.00  0.00     0.057 A 
BRANCH  20  24
ATOM     24  C   UNL A   1      33.664  31.285  27.592  1.00  0.00     0.335 C 
BRANCH  24  25
ATOM     25  N   UNL A   1      34.431  31.326  28.834  1.00  0.00    -0.351 N 
ATOM     26  H   UNL A   1      33.923  30.826  29.564  1.00  0.00     0.344 HD
ATOM     27  H   UNL A   1      34.567  32.296  29.117  1.00  0.00     0.344 HD
ATOM     28  H   UNL A   1      35.339  30.884  28.687  1.00  0.00     0.344 HD
ENDBRANCH  24  25
ENDBRANCH  20  24
ENDBRANCH  17  19
ENDBRANCH   9  17
ENDBRANCH   5   8
ENDBRANCH   3   4
ENDBRANCH   2   3
ENDBRANCH   1   2
BRANCH   1  29
ATOM     29  C   UNL A   1      36.171  23.461  26.378  1.00  0.00     0.002 C 
BRANCH  29  30
ATOM     30  C   UNL A   1      37.542  23.714  25.743  1.00  0.00     0.021 C 
BRANCH  30  31
ATOM     31  C   UNL A   1      38.569  24.457  26.593  1.00  0.00     0.116 C 
BRANCH  31  32
ATOM     32  N   UNL A   1      39.781  24.790  25.869  1.00  0.00    -0.352 N 
ATOM     33  C   UNL A   1      40.741  25.732  26.153  1.00  0.00     0.251 C 
ATOM     34  H   UNL A   1      39.940  24.263  25.053  1.00  0.00     0.163 HD
ATOM     35  O   UNL A   1      41.647  25.932  25.348  1.00  0.00    -0.269 OA
BRANCH  33  36
ATOM     36  C   UNL A   1      40.676  26.527  27.402  1.00  0.00     0.039 A 
ATOM     37  C   UNL A   1      41.485  27.662  27.514  1.00  0.00     0.014 A 
ATOM     38  C   UNL A   1      39.851  26.153  28.466  1.00  0.00     0.014 A 
ATOM     39  C   UNL A   1      41.424  28.452  28.664  1.00  0.00     0.010 A 
ATOM     40  C   UNL A   1      39.743  26.977  29.587  1.00  0.00     0.010 A 
ATOM     41  C   UNL A   1      40.531  28.133  29.700  1.00  0.00    -0.014 A 
BRANCH  41  42
ATOM     42  C   UNL A   1      40.406  28.998  30.901  1.00  0.00     0.031 A 
ATOM     43  C   UNL A   1      39.359  30.077  30.959  1.00  0.00     0.074 A 
ATOM     44  C   UNL A   1      41.282  28.858  31.917  1.00  0.00     0.049 A 
ATOM     45  N   UNL A   1      39.133  30.957  31.901  1.00  0.00    -0.248 NA
ATOM     46  C   UNL A   1      38.466  30.197  29.796  1.00  0.00     0.031 C 
ATOM     47  C   UNL A   1      42.375  27.884  31.964  1.00  0.00     0.029 A 
ATOM     48  N   UNL A   1      41.399  29.545  33.100  1.00  0.00    -0.354 N 
ATOM     49  C   UNL A   1      38.091  31.751  31.435  1.00  0.00     0.074 A 
ATOM     50  C   UNL A   1      37.758  31.272  30.111  1.00  0.00     0.031 C 
ATOM     51  C   UNL A   1      43.039  28.024  33.121  1.00  0.00     0.029 A 
ATOM     52  C   UNL A   1      42.444  29.118  33.884  1.00  0.00     0.049 A 
ATOM     53  H   UNL A   1      40.792  30.274  33.361  1.00  0.00     0.167 HD
ATOM     54  C   UNL A   1      37.458  32.776  32.057  1.00  0.00     0.031 A 
ATOM     55  C   UNL A   1      42.882  29.558  35.080  1.00  0.00     0.031 A 
ATOM     56  C   UNL A   1      37.783  33.242  33.379  1.00  0.00     0.049 A 
ATOM     57  C   UNL A   1      42.157  30.683  35.762  1.00  0.00     0.074 A 
ATOM     58  C   UNL A   1      37.155  34.225  34.124  1.00  0.00     0.029 A 
ATOM     59  N   UNL A   1      38.832  32.764  34.152  1.00  0.00    -0.354 N 
ATOM     60  N   UNL A   1      41.123  31.370  35.338  1.00  0.00    -0.248 NA
ATOM     61  C   UNL A   1      42.646  31.082  37.088  1.00  0.00     0.031 C 
ATOM     62  C   UNL A   1      37.855  34.377  35.327  1.00  0.00     0.029 A 
ATOM     63  C   UNL A   1      38.885  33.450  35.354  1.00  0.00     0.049 A 
ATOM     64  H   UNL A   1      39.447  32.044  33.885  1.00  0.00     0.167 HD
ATOM     65  C   UNL A   1      40.826  32.272  36.354  1.00  0.00     0.074 A 
ATOM     66  C   UNL A   1      41.780  32.032  37.417  1.00  0.00     0.031 C 
ATOM     67  C   UNL A   1      39.848  33.211  36.400  1.00  0.00     0.031 A 
BRANCH  54  68
ATOM     68  C   UNL A   1      36.360  33.473  31.296  1.00  0.00    -0.014 A 
ATOM     69  C   UNL A   1      36.560  33.932  29.981  1.00  0.00     0.010 A 
ATOM     70  C   UNL A   1      35.106  33.667  31.903  1.00  0.00     0.010 A 
ATOM     71  C   UNL A   1      35.550  34.627  29.312  1.00  0.00     0.020 A 
ATOM     72  C   UNL A   1      34.083  34.336  31.227  1.00  0.00     0.020 A 
ATOM     73  C   UNL A   1      34.320  34.834  29.944  1.00  0.00     0.054 A 
BRANCH  73  74
ATOM     74  S   UNL A   1      33.030  35.754  29.061  1.00  0.00     0.124 S 
ATOM     75  O   UNL A   1      32.421  34.707  28.245  1.00  0.00    -0.237 OA
ATOM     76  O   UNL A   1      32.198  36.267  30.147  1.00  0.00    -0.237 OA
ATOM     77  O   UNL A   1      33.775  36.768  28.319  1.00  0.00    -0.744 OA
ENDBRANCH  73  74
ENDBRANCH  54  68
BRANCH  55  78
ATOM     78  C   UNL A   1      44.062  28.906  35.709  1.00  0.00    -0.014 A 
ATOM     79  C   UNL A   1      45.357  29.406  35.486  1.00  0.00     0.010 A 
ATOM     80  C   UNL A   1      43.888  27.819  36.585  1.00  0.00     0.010 A 
ATOM     81  C   UNL A   1      46.457  28.831  36.129  1.00  0.00     0.020 A 
ATOM     82  C   UNL A   1      44.983  27.258  37.248  1.00  0.00     0.020 A 
ATOM     83  C   UNL A   1      46.262  27.766  37.013  1.00  0.00     0.054 A 
BRANCH  83  84
ATOM     84  S   UNL A   1      47.691  27.099  37.910  1.00  0.00     0.124 S 
ATOM     85  O   UNL A   1      48.810  27.697  37.190  1.00  0.00    -0.237 OA
ATOM     86  O   UNL A   1      47.472  27.595  39.267  1.00  0.00    -0.237 OA
ATOM     87  O   UNL A   1      47.546  25.652  37.754  1.00  0.00    -0.744 OA
ENDBRANCH  83  84
ENDBRANCH  55  78
BRANCH  67  88
ATOM     88  C   UNL A   1      39.746  34.042  37.651  1.00  0.00    -0.014 A 
ATOM     89  C   UNL A   1      39.058  33.569  38.783  1.00  0.00     0.010 A 
ATOM     90  C   UNL A   1      40.395  35.288  37.713  1.00  0.00     0.010 A 
ATOM     91  C   UNL A   1      38.999  34.341  39.946  1.00  0.00     0.020 A 
ATOM     92  C   UNL A   1      40.360  36.051  38.883  1.00  0.00     0.020 A 
ATOM     93  C   UNL A   1      39.651  35.579  39.988  1.00  0.00     0.054 A 
BRANCH  93  94
ATOM     94  S   UNL A   1      39.600  36.543  41.524  1.00  0.00     0.124 S 
ATOM     95  O   UNL A   1      38.536  35.873  42.267  1.00  0.00    -0.237 OA
ATOM     96  O   UNL A   1      40.948  36.363  42.060  1.00  0.00    -0.237 OA
ATOM     97  O   UNL A   1      39.291  37.897  41.073  1.00  0.00    -0.744 OA
ENDBRANCH  93  94
ENDBRANCH  67  88
ENDBRANCH  41  42
ENDBRANCH  33  36
ENDBRANCH  31  32
ENDBRANCH  30  31
ENDBRANCH  29  30
ENDBRANCH   1  29
TORSDOF 20
ENDMDL
MODEL 3
REMARK VINA RESULT:     -10.4      1.334      2.670
REMARK SMILES [NH3+]Cc1ccc(C(=O)N2[C@@H](C(=O)NCCCCCCNC(=O)c3ccc(-c4c5nc(c(-c6ccc(S(=O)(=O)[O-])cc6)c6ccc([nH]6)c(-c6ccc(S(=O)(=O)[O-])cc6)c6nc(c(-c7ccc(S(=O)(=O)[O-])cc7)c7ccc4[nH]7)C=C6)C=C5)cc3)C[C@H]3CCCC[C@@H]32)o1
REMARK SMILES IDX 16 1 15 2 14 3 13 4 11 5 12 6 10 8 9 9 89 10 83 11 84 12
REMARK SMILES IDX 88 13 85 14 87 15 86 16 7 17 8 18 6 19 3 20 4 21 90 22 5 23
REMARK SMILES IDX 2 24 1 25 17 29 18 30 19 31 20 32 21 33 22 35 23 36 24 37
REMARK SMILES IDX 82 38 25 39 81 40 26 41 27 42 28 43 75 44 29 45 80 46 74 47
REMARK SMILES IDX 76 48 30 49 79 50 73 51 72 52 31 54 61 55 42 56 60 57 43 58
REMARK SMILES IDX 46 59 59 60 77 61 44 62 45 63 58 65 78 66 47 67 32 68 33 69
REMARK SMILES IDX 41 70 34 71 40 72 35 73 36 74 37 75 38 76 39 77 62 78 63 79
REMARK SMILES IDX 71 80 64 81 70 82 65 83 66 84 67 85 68 86 69 87 48 88 49 89
REMARK SMILES IDX 57 90 50 91 56 92 51 93 52 94 53 95 54 96 55 97
REMARK H PARENT 13 7 1 26 1 27 1 28 20 34 76 53 46 64
REMARK Flexibility Score: inf
ROOT
ATOM      1  C   UNL A   1      33.823  22.387  23.208  1.00  0.00     0.002 C 
ENDROOT
BRANCH   1   2
ATOM      2  C   UNL A   1      32.463  22.452  23.904  1.00  0.00     0.021 C 
BRANCH   2   3
ATOM      3  C   UNL A   1      31.441  23.426  23.336  1.00  0.00     0.116 C 
BRANCH   3   4
ATOM      4  N   UNL A   1      31.939  24.322  22.310  1.00  0.00    -0.354 N 
ATOM      5  C   UNL A   1      31.806  25.688  22.215  1.00  0.00     0.242 C 
ATOM      6  O   UNL A   1      32.398  26.243  21.285  1.00  0.00    -0.273 OA
ATOM      7  H   UNL A   1      32.442  23.893  21.580  1.00  0.00     0.163 HD
BRANCH   5   8
ATOM      8  C   UNL A   1      30.830  26.467  23.155  1.00  0.00     0.175 C 
ATOM      9  N   UNL A   1      31.229  27.888  23.335  1.00  0.00    -0.321 N 
ATOM     10  C   UNL A   1      31.843  28.073  24.637  1.00  0.00     0.089 C 
ATOM     11  C   UNL A   1      30.839  25.926  24.601  1.00  0.00     0.041 C 
ATOM     12  C   UNL A   1      30.944  27.162  25.468  1.00  0.00     0.014 C 
ATOM     13  C   UNL A   1      31.856  29.452  25.296  1.00  0.00     0.025 C 
ATOM     14  C   UNL A   1      31.483  26.945  26.867  1.00  0.00     0.006 C 
ATOM     15  C   UNL A   1      32.337  29.340  26.754  1.00  0.00     0.002 C 
ATOM     16  C   UNL A   1      31.567  28.297  27.575  1.00  0.00     0.000 C 
BRANCH   9  17
ATOM     17  C   UNL A   1      31.024  28.955  22.471  1.00  0.00     0.290 C 
ATOM     18  O   UNL A   1      31.969  29.443  21.853  1.00  0.00    -0.265 OA
BRANCH  17  19
ATOM     19  C   UNL A   1      29.716  29.603  22.516  1.00  0.00     0.192 A 
ATOM     20  C   UNL A   1      28.290  31.216  21.973  1.00  0.00     0.159 A 
ATOM     21  C   UNL A   1      27.725  30.540  23.030  1.00  0.00     0.052 A 
ATOM     22  O   UNL A   1      29.483  30.640  21.640  1.00  0.00    -0.450 OA
ATOM     23  C   UNL A   1      28.646  29.529  23.393  1.00  0.00     0.057 A 
BRANCH  20  24
ATOM     24  C   UNL A   1      27.883  32.434  21.223  1.00  0.00     0.335 C 
BRANCH  24  25
ATOM     25  N   UNL A   1      27.993  32.254  19.778  1.00  0.00    -0.351 N 
ATOM     26  H   UNL A   1      27.222  31.673  19.448  1.00  0.00     0.344 HD
ATOM     27  H   UNL A   1      28.879  31.800  19.559  1.00  0.00     0.344 HD
ATOM     28  H   UNL A   1      27.955  33.164  19.319  1.00  0.00     0.344 HD
ENDBRANCH  24  25
ENDBRANCH  20  24
ENDBRANCH  17  19
ENDBRANCH   9  17
ENDBRANCH   5   8
ENDBRANCH   3   4
ENDBRANCH   2   3
ENDBRANCH   1   2
BRANCH   1  29
ATOM     29  C   UNL A   1      34.918  23.335  23.706  1.00  0.00     0.002 C 
BRANCH  29  30
ATOM     30  C   UNL A   1      35.566  23.023  25.058  1.00  0.00     0.021 C 
BRANCH  30  31
ATOM     31  C   UNL A   1      36.913  23.679  25.346  1.00  0.00     0.116 C 
BRANCH  31  32
ATOM     32  N   UNL A   1      37.963  22.727  25.655  1.00  0.00    -0.352 N 
ATOM     33  C   UNL A   1      39.164  22.922  26.295  1.00  0.00     0.251 C 
ATOM     34  H   UNL A   1      37.789  21.804  25.363  1.00  0.00     0.163 HD
ATOM     35  O   UNL A   1      39.968  21.997  26.365  1.00  0.00    -0.269 OA
BRANCH  33  36
ATOM     36  C   UNL A   1      39.508  24.243  26.871  1.00  0.00     0.039 A 
ATOM     37  C   UNL A   1      39.109  24.525  28.181  1.00  0.00     0.014 A 
ATOM     38  C   UNL A   1      40.193  25.211  26.129  1.00  0.00     0.014 A 
ATOM     39  C   UNL A   1      39.446  25.748  28.767  1.00  0.00     0.010 A 
ATOM     40  C   UNL A   1      40.584  26.405  26.735  1.00  0.00     0.010 A 
ATOM     41  C   UNL A   1      40.211  26.689  28.059  1.00  0.00    -0.014 A 
BRANCH  41  42
ATOM     42  C   UNL A   1      40.633  27.966  28.689  1.00  0.00     0.031 A 
ATOM     43  C   UNL A   1      42.012  28.111  29.272  1.00  0.00     0.074 A 
ATOM     44  C   UNL A   1      39.750  28.979  28.796  1.00  0.00     0.049 A 
ATOM     45  N   UNL A   1      42.539  29.129  29.901  1.00  0.00    -0.248 NA
ATOM     46  C   UNL A   1      42.907  26.949  29.153  1.00  0.00     0.031 C 
ATOM     47  C   UNL A   1      38.366  28.950  28.316  1.00  0.00     0.029 A 
ATOM     48  N   UNL A   1      39.881  30.226  29.357  1.00  0.00    -0.354 N 
ATOM     49  C   UNL A   1      43.815  28.725  30.276  1.00  0.00     0.074 A 
ATOM     50  C   UNL A   1      43.966  27.354  29.838  1.00  0.00     0.031 C 
ATOM     51  C   UNL A   1      37.783  30.129  28.587  1.00  0.00     0.029 A 
ATOM     52  C   UNL A   1      38.736  30.984  29.289  1.00  0.00     0.049 A 
ATOM     53  H   UNL A   1      40.716  30.546  29.768  1.00  0.00     0.167 HD
ATOM     54  C   UNL A   1      44.780  29.432  30.914  1.00  0.00     0.031 A 
ATOM     55  C   UNL A   1      38.475  32.225  29.744  1.00  0.00     0.031 A 
ATOM     56  C   UNL A   1      44.631  30.799  31.339  1.00  0.00     0.049 A 
ATOM     57  C   UNL A   1      39.562  33.000  30.433  1.00  0.00     0.074 A 
ATOM     58  C   UNL A   1      45.572  31.626  31.928  1.00  0.00     0.029 A 
ATOM     59  N   UNL A   1      43.463  31.541  31.226  1.00  0.00    -0.354 N 
ATOM     60  N   UNL A   1      40.789  32.627  30.708  1.00  0.00    -0.248 NA
ATOM     61  C   UNL A   1      39.236  34.368  30.858  1.00  0.00     0.031 C 
ATOM     62  C   UNL A   1      44.959  32.850  32.218  1.00  0.00     0.029 A 
ATOM     63  C   UNL A   1      43.652  32.806  31.759  1.00  0.00     0.049 A 
ATOM     64  H   UNL A   1      42.625  31.216  30.827  1.00  0.00     0.167 HD
ATOM     65  C   UNL A   1      41.388  33.720  31.324  1.00  0.00     0.074 A 
ATOM     66  C   UNL A   1      40.393  34.773  31.366  1.00  0.00     0.031 C 
ATOM     67  C   UNL A   1      42.650  33.840  31.807  1.00  0.00     0.031 A 
BRANCH  54  68
ATOM     68  C   UNL A   1      46.076  28.724  31.208  1.00  0.00    -0.014 A 
ATOM     69  C   UNL A   1      46.273  28.031  32.417  1.00  0.00     0.010 A 
ATOM     70  C   UNL A   1      47.114  28.746  30.258  1.00  0.00     0.010 A 
ATOM     71  C   UNL A   1      47.502  27.428  32.696  1.00  0.00     0.020 A 
ATOM     72  C   UNL A   1      48.334  28.119  30.521  1.00  0.00     0.020 A 
ATOM     73  C   UNL A   1      48.529  27.486  31.750  1.00  0.00     0.054 A 
BRANCH  73  74
ATOM     74  S   UNL A   1      50.121  26.710  32.143  1.00  0.00     0.124 S 
ATOM     75  O   UNL A   1      50.154  25.597  31.197  1.00  0.00    -0.237 OA
ATOM     76  O   UNL A   1      51.077  27.784  31.882  1.00  0.00    -0.237 OA
ATOM     77  O   UNL A   1      49.984  26.330  33.547  1.00  0.00    -0.744 OA
ENDBRANCH  73  74
ENDBRANCH  54  68
BRANCH  55  78
ATOM     78  C   UNL A   1      37.123  32.809  29.537  1.00  0.00    -0.014 A 
ATOM     79  C   UNL A   1      36.173  32.794  30.573  1.00  0.00     0.010 A 
ATOM     80  C   UNL A   1      36.802  33.438  28.320  1.00  0.00     0.010 A 
ATOM     81  C   UNL A   1      34.926  33.400  30.396  1.00  0.00     0.020 A 
ATOM     82  C   UNL A   1      35.565  34.065  28.149  1.00  0.00     0.020 A 
ATOM     83  C   UNL A   1      34.633  34.040  29.188  1.00  0.00     0.054 A 
BRANCH  83  84
ATOM     84  S   UNL A   1      33.046  34.903  29.016  1.00  0.00     0.124 S 
ATOM     85  O   UNL A   1      33.466  36.225  28.564  1.00  0.00    -0.237 OA
ATOM     86  O   UNL A   1      32.348  34.086  28.026  1.00  0.00    -0.237 OA
ATOM     87  O   UNL A   1      32.481  34.850  30.363  1.00  0.00    -0.744 OA
ENDBRANCH  83  84
ENDBRANCH  55  78
BRANCH  67  88
ATOM     88  C   UNL A   1      43.037  35.165  32.409  1.00  0.00    -0.014 A 
ATOM     89  C   UNL A   1      43.755  36.118  31.665  1.00  0.00     0.010 A 
ATOM     90  C   UNL A   1      42.627  35.480  33.716  1.00  0.00     0.010 A 
ATOM     91  C   UNL A   1      44.080  37.355  32.230  1.00  0.00     0.020 A 
ATOM     92  C   UNL A   1      42.927  36.725  34.275  1.00  0.00     0.020 A 
ATOM     93  C   UNL A   1      43.664  37.650  33.533  1.00  0.00     0.054 A 
BRANCH  93  94
ATOM     94  S   UNL A   1      44.056  39.279  34.228  1.00  0.00     0.124 S 
ATOM     95  O   UNL A   1      42.852  40.042  33.910  1.00  0.00    -0.237 OA
ATOM     96  O   UNL A   1      44.255  38.984  35.646  1.00  0.00    -0.237 OA
ATOM     97  O   UNL A   1      45.260  39.682  33.507  1.00  0.00    -0.744 OA
ENDBRANCH  93  94
ENDBRANCH  67  88
ENDBRANCH  41  42
ENDBRANCH  33  36
ENDBRANCH  31  32
ENDBRANCH  30  31
ENDBRANCH  29  30
ENDBRANCH   1  29
TORSDOF 20
ENDMDL
