MODEL 1
REMARK VINA RESULT:      -8.5      0.000      0.000
REMARK SMILES CN1C(=O)C[C@H](C(=O)Nc2ccc(C(=O)NCCCCCCNC(=O)c3ccc(-c4c5nc(c(-c6ccc(S(=O)(=O)[O-])cc6)c6ccc([nH]6)c(-c6ccc(S(=O)(=O)[O-])cc6)c6nc(c(-c7ccc(S(=O)(=O)[O-])cc7)c7ccc4[nH]7)C=C6)C=C5)cc3)cc2)S/C1=[NH+]\c1cccc(C(F)(F)F)c1
REMARK SMILES IDX 19 1 18 2 17 3 16 4 14 5 15 6 13 8 10 9 11 10 87 11 12 12
REMARK SMILES IDX 86 13 9 14 7 15 8 16 6 18 1 19 2 20 3 21 89 22 4 23 5 24
REMARK SMILES IDX 88 25 90 26 91 28 92 29 100 30 93 31 95 32 94 33 96 34 97 35
REMARK SMILES IDX 98 36 99 37 20 38 21 39 22 40 23 41 24 42 25 44 26 45 27 46
REMARK SMILES IDX 85 47 28 48 84 49 29 50 30 51 31 52 78 53 32 54 83 55 77 56
REMARK SMILES IDX 79 57 33 58 82 59 76 60 75 61 34 63 64 64 45 65 63 66 46 67
REMARK SMILES IDX 49 68 62 69 80 70 47 71 48 72 61 74 81 75 50 76 35 77 36 78
REMARK SMILES IDX 44 79 37 80 43 81 38 82 39 83 40 84 41 85 42 86 65 87 66 88
REMARK SMILES IDX 74 89 67 90 73 91 68 92 69 93 70 94 71 95 72 96 51 97 52 98
REMARK SMILES IDX 60 99 53 100 59 101 54 102 55 103 56 104 57 105 58 106
REMARK H PARENT 16 7 9 17 90 27 23 43 79 62 49 73
REMARK Flexibility Score: inf
ROOT
ATOM      1  C   UNL A   1      43.574  22.626  28.666  1.00  0.00     0.002 C 
ENDROOT
BRANCH   1   2
ATOM      2  C   UNL A   1      44.499  23.539  27.852  1.00  0.00     0.021 C 
BRANCH   2   3
ATOM      3  C   UNL A   1      43.821  24.247  26.673  1.00  0.00     0.116 C 
BRANCH   3   4
ATOM      4  N   UNL A   1      44.814  24.726  25.716  1.00  0.00    -0.352 N 
ATOM      5  C   UNL A   1      45.339  25.963  25.431  1.00  0.00     0.251 C 
ATOM      6  O   UNL A   1      46.273  26.021  24.629  1.00  0.00    -0.269 OA
ATOM      7  H   UNL A   1      45.186  24.009  25.154  1.00  0.00     0.163 HD
BRANCH   5   8
ATOM      8  C   UNL A   1      44.871  27.227  26.060  1.00  0.00     0.039 A 
ATOM      9  C   UNL A   1      44.043  29.576  27.406  1.00  0.00     0.041 A 
ATOM     10  C   UNL A   1      45.343  29.110  27.563  1.00  0.00     0.027 A 
ATOM     11  C   UNL A   1      43.245  28.964  26.447  1.00  0.00     0.027 A 
ATOM     12  C   UNL A   1      45.746  27.929  26.912  1.00  0.00     0.016 A 
ATOM     13  C   UNL A   1      43.644  27.807  25.775  1.00  0.00     0.016 A 
BRANCH   9  14
ATOM     14  N   UNL A   1      43.604  30.720  28.092  1.00  0.00    -0.325 N 
ATOM     15  C   UNL A   1      44.111  32.006  28.072  1.00  0.00     0.238 C 
ATOM     16  O   UNL A   1      43.863  32.749  29.025  1.00  0.00    -0.273 OA
ATOM     17  H   UNL A   1      42.819  30.587  28.671  1.00  0.00     0.169 HD
BRANCH  15  18
ATOM     18  C   UNL A   1      44.767  32.545  26.789  1.00  0.00     0.160 C 
ATOM     19  C   UNL A   1      44.675  36.934  27.386  1.00  0.00     0.301 C 
ATOM     20  N   UNL A   1      44.711  35.497  27.165  1.00  0.00    -0.194 N 
ATOM     21  C   UNL A   1      43.786  34.935  26.293  1.00  0.00     0.311 C 
ATOM     22  C   UNL A   1      45.646  34.786  27.896  1.00  0.00     0.319 C 
ATOM     23  O   UNL A   1      42.910  35.608  25.739  1.00  0.00    -0.247 OA
ATOM     24  C   UNL A   1      43.831  33.442  25.988  1.00  0.00     0.153 C 
ATOM     25  S   UNL A   1      46.297  33.426  27.040  1.00  0.00    -0.024 SA
ATOM     26  N   UNL A   1      45.995  35.191  29.076  1.00  0.00    -0.235 N 
ATOM     27  H   UNL A   1      45.679  36.070  29.386  1.00  0.00     0.313 HD
BRANCH  26  28
ATOM     28  C   UNL A   1      46.802  34.427  29.926  1.00  0.00     0.126 A 
ATOM     29  C   UNL A   1      47.130  34.959  31.180  1.00  0.00     0.052 A 
ATOM     30  C   UNL A   1      47.305  33.174  29.571  1.00  0.00     0.064 A 
ATOM     31  C   UNL A   1      47.906  34.237  32.086  1.00  0.00     0.005 A 
ATOM     32  C   UNL A   1      48.057  32.419  30.487  1.00  0.00     0.060 A 
ATOM     33  C   UNL A   1      48.360  32.966  31.745  1.00  0.00     0.013 A 
BRANCH  32  34
ATOM     34  C   UNL A   1      48.504  31.023  30.148  1.00  0.00     0.416 C 
ATOM     35  F   UNL A   1      47.745  30.428  29.195  1.00  0.00    -0.166 F 
ATOM     36  F   UNL A   1      49.784  31.000  29.677  1.00  0.00    -0.166 F 
ATOM     37  F   UNL A   1      48.502  30.182  31.220  1.00  0.00    -0.166 F 
ENDBRANCH  32  34
ENDBRANCH  26  28
ENDBRANCH  15  18
ENDBRANCH   9  14
ENDBRANCH   5   8
ENDBRANCH   3   4
ENDBRANCH   2   3
ENDBRANCH   1   2
BRANCH   1  38
ATOM     38  C   UNL A   1      42.073  22.878  28.480  1.00  0.00     0.002 C 
BRANCH  38  39
ATOM     39  C   UNL A   1      41.279  21.756  27.800  1.00  0.00     0.021 C 
BRANCH  39  40
ATOM     40  C   UNL A   1      41.188  21.840  26.276  1.00  0.00     0.116 C 
BRANCH  40  41
ATOM     41  N   UNL A   1      39.819  21.999  25.814  1.00  0.00    -0.352 N 
ATOM     42  C   UNL A   1      38.898  22.983  26.083  1.00  0.00     0.251 C 
ATOM     43  H   UNL A   1      39.500  21.289  25.211  1.00  0.00     0.163 HD
ATOM     44  O   UNL A   1      37.727  22.819  25.755  1.00  0.00    -0.269 OA
BRANCH  42  45
ATOM     45  C   UNL A   1      39.301  24.231  26.773  1.00  0.00     0.039 A 
ATOM     46  C   UNL A   1      38.848  24.454  28.077  1.00  0.00     0.014 A 
ATOM     47  C   UNL A   1      40.074  25.201  26.129  1.00  0.00     0.014 A 
ATOM     48  C   UNL A   1      39.216  25.620  28.754  1.00  0.00     0.010 A 
ATOM     49  C   UNL A   1      40.491  26.335  26.827  1.00  0.00     0.010 A 
ATOM     50  C   UNL A   1      40.065  26.558  28.145  1.00  0.00    -0.014 A 
BRANCH  50  51
ATOM     51  C   UNL A   1      40.519  27.771  28.875  1.00  0.00     0.031 A 
ATOM     52  C   UNL A   1      41.871  27.801  29.538  1.00  0.00     0.074 A 
ATOM     53  C   UNL A   1      39.691  28.829  28.990  1.00  0.00     0.049 A 
ATOM     54  N   UNL A   1      42.412  28.745  30.265  1.00  0.00    -0.248 NA
ATOM     55  C   UNL A   1      42.716  26.606  29.382  1.00  0.00     0.031 C 
ATOM     56  C   UNL A   1      38.343  28.915  28.424  1.00  0.00     0.029 A 
ATOM     57  N   UNL A   1      39.857  30.032  29.630  1.00  0.00    -0.354 N 
ATOM     58  C   UNL A   1      43.651  28.255  30.666  1.00  0.00     0.074 A 
ATOM     59  C   UNL A   1      43.762  26.913  30.136  1.00  0.00     0.031 C 
ATOM     60  C   UNL A   1      37.814  30.111  28.725  1.00  0.00     0.029 A 
ATOM     61  C   UNL A   1      38.766  30.864  29.536  1.00  0.00     0.049 A 
ATOM     62  H   UNL A   1      40.681  30.277  30.111  1.00  0.00     0.167 HD
ATOM     63  C   UNL A   1      44.613  28.870  31.395  1.00  0.00     0.031 A 
ATOM     64  C   UNL A   1      38.549  32.090  30.051  1.00  0.00     0.031 A 
ATOM     65  C   UNL A   1      44.505  30.209  31.910  1.00  0.00     0.049 A 
ATOM     66  C   UNL A   1      39.631  32.749  30.862  1.00  0.00     0.074 A 
ATOM     67  C   UNL A   1      45.449  30.938  32.613  1.00  0.00     0.029 A 
ATOM     68  N   UNL A   1      43.389  31.021  31.781  1.00  0.00    -0.354 N 
ATOM     69  N   UNL A   1      40.818  32.291  31.178  1.00  0.00    -0.248 NA
ATOM     70  C   UNL A   1      39.346  34.096  31.377  1.00  0.00     0.031 C 
ATOM     71  C   UNL A   1      44.885  32.174  32.952  1.00  0.00     0.029 A 
ATOM     72  C   UNL A   1      43.611  32.235  32.410  1.00  0.00     0.049 A 
ATOM     73  H   UNL A   1      42.560  30.772  31.312  1.00  0.00     0.167 HD
ATOM     74  C   UNL A   1      41.433  33.304  31.905  1.00  0.00     0.074 A 
ATOM     75  C   UNL A   1      40.492  34.404  31.970  1.00  0.00     0.031 C 
ATOM     76  C   UNL A   1      42.667  33.322  32.467  1.00  0.00     0.031 A 
BRANCH  63  77
ATOM     77  C   UNL A   1      45.872  28.095  31.685  1.00  0.00    -0.014 A 
ATOM     78  C   UNL A   1      46.247  27.789  33.006  1.00  0.00     0.010 A 
ATOM     79  C   UNL A   1      46.663  27.621  30.623  1.00  0.00     0.010 A 
ATOM     80  C   UNL A   1      47.411  27.057  33.260  1.00  0.00     0.020 A 
ATOM     81  C   UNL A   1      47.813  26.866  30.872  1.00  0.00     0.020 A 
ATOM     82  C   UNL A   1      48.188  26.602  32.191  1.00  0.00     0.054 A 
BRANCH  82  83
ATOM     83  S   UNL A   1      49.678  25.632  32.550  1.00  0.00     0.124 S 
ATOM     84  O   UNL A   1      50.435  26.547  33.400  1.00  0.00    -0.237 OA
ATOM     85  O   UNL A   1      49.138  24.452  33.221  1.00  0.00    -0.237 OA
ATOM     86  O   UNL A   1      50.258  25.385  31.232  1.00  0.00    -0.744 OA
ENDBRANCH  82  83
ENDBRANCH  63  77
BRANCH  64  87
ATOM     87  C   UNL A   1      37.253  32.780  29.805  1.00  0.00    -0.014 A 
ATOM     88  C   UNL A   1      37.057  33.536  28.637  1.00  0.00     0.010 A 
ATOM     89  C   UNL A   1      36.205  32.678  30.739  1.00  0.00     0.010 A 
ATOM     90  C   UNL A   1      35.843  34.194  28.415  1.00  0.00     0.020 A 
ATOM     91  C   UNL A   1      34.981  33.312  30.507  1.00  0.00     0.020 A 
ATOM     92  C   UNL A   1      34.813  34.077  29.351  1.00  0.00     0.054 A 
BRANCH  92  93
ATOM     93  S   UNL A   1      33.229  34.899  29.021  1.00  0.00     0.124 S 
ATOM     94  O   UNL A   1      32.630  34.950  30.350  1.00  0.00    -0.237 OA
ATOM     95  O   UNL A   1      33.650  36.183  28.464  1.00  0.00    -0.237 OA
ATOM     96  O   UNL A   1      32.572  34.004  28.070  1.00  0.00    -0.744 OA
ENDBRANCH  92  93
ENDBRANCH  64  87
BRANCH  76  97
ATOM     97  C   UNL A   1      43.089  34.582  33.174  1.00  0.00    -0.014 A 
ATOM     98  C   UNL A   1      42.884  34.749  34.555  1.00  0.00     0.010 A 
ATOM     99  C   UNL A   1      43.750  35.593  32.452  1.00  0.00     0.010 A 
ATOM    100  C   UNL A   1      43.304  35.917  35.195  1.00  0.00     0.020 A 
ATOM    101  C   UNL A   1      44.197  36.750  33.093  1.00  0.00     0.020 A 
ATOM    102  C   UNL A   1      43.958  36.912  34.460  1.00  0.00     0.054 A 
BRANCH 102 103
ATOM    103  S   UNL A   1      44.535  38.399  35.322  1.00  0.00     0.124 S 
ATOM    104  O   UNL A   1      45.982  38.204  35.330  1.00  0.00    -0.237 OA
ATOM    105  O   UNL A   1      44.051  39.477  34.463  1.00  0.00    -0.237 OA
ATOM    106  O   UNL A   1      43.888  38.314  36.630  1.00  0.00    -0.744 OA
ENDBRANCH 102 103
ENDBRANCH  76  97
ENDBRANCH  50  51
ENDBRANCH  42  45
ENDBRANCH  40  41
ENDBRANCH  39  40
ENDBRANCH  38  39
ENDBRANCH   1  38
TORSDOF 20
ENDMDL
MODEL 2
REMARK VINA RESULT:      -8.4      6.428     13.401
REMARK SMILES CN1C(=O)C[C@H](C(=O)Nc2ccc(C(=O)NCCCCCCNC(=O)c3ccc(-c4c5nc(c(-c6ccc(S(=O)(=O)[O-])cc6)c6ccc([nH]6)c(-c6ccc(S(=O)(=O)[O-])cc6)c6nc(c(-c7ccc(S(=O)(=O)[O-])cc7)c7ccc4[nH]7)C=C6)C=C5)cc3)cc2)S/C1=[NH+]\c1cccc(C(F)(F)F)c1
REMARK SMILES IDX 19 1 18 2 17 3 16 4 14 5 15 6 13 8 10 9 11 10 87 11 12 12
REMARK SMILES IDX 86 13 9 14 7 15 8 16 6 18 1 19 2 20 3 21 89 22 4 23 5 24
REMARK SMILES IDX 88 25 90 26 91 28 92 29 100 30 93 31 95 32 94 33 96 34 97 35
REMARK SMILES IDX 98 36 99 37 20 38 21 39 22 40 23 41 24 42 25 44 26 45 27 46
REMARK SMILES IDX 85 47 28 48 84 49 29 50 30 51 31 52 78 53 32 54 83 55 77 56
REMARK SMILES IDX 79 57 33 58 82 59 76 60 75 61 34 63 64 64 45 65 63 66 46 67
REMARK SMILES IDX 49 68 62 69 80 70 47 71 48 72 61 74 81 75 50 76 35 77 36 78
REMARK SMILES IDX 44 79 37 80 43 81 38 82 39 83 40 84 41 85 42 86 65 87 66 88
REMARK SMILES IDX 74 89 67 90 73 91 68 92 69 93 70 94 71 95 72 96 51 97 52 98
REMARK SMILES IDX 60 99 53 100 59 101 54 102 55 103 56 104 57 105 58 106
REMARK H PARENT 16 7 9 17 90 27 23 43 79 62 49 73
REMARK Flexibility Score: inf
ROOT
ATOM      1  C   UNL A   1      34.579  29.854  27.228  1.00  0.00     0.002 C 
ENDROOT
BRANCH   1   2
ATOM      2  C   UNL A   1      33.641  29.703  26.025  1.00  0.00     0.021 C 
BRANCH   2   3
ATOM      3  C   UNL A   1      32.154  29.598  26.383  1.00  0.00     0.116 C 
BRANCH   3   4
ATOM      4  N   UNL A   1      31.324  30.163  25.324  1.00  0.00    -0.352 N 
ATOM      5  C   UNL A   1      30.752  29.646  24.187  1.00  0.00     0.251 C 
ATOM      6  O   UNL A   1      29.988  30.370  23.547  1.00  0.00    -0.269 OA
ATOM      7  H   UNL A   1      31.134  31.121  25.452  1.00  0.00     0.163 HD
BRANCH   5   8
ATOM      8  C   UNL A   1      30.973  28.255  23.708  1.00  0.00     0.039 A 
ATOM      9  C   UNL A   1      31.360  25.555  22.953  1.00  0.00     0.041 A 
ATOM     10  C   UNL A   1      30.231  25.915  23.678  1.00  0.00     0.027 A 
ATOM     11  C   UNL A   1      32.175  26.572  22.471  1.00  0.00     0.027 A 
ATOM     12  C   UNL A   1      30.052  27.254  24.073  1.00  0.00     0.016 A 
ATOM     13  C   UNL A   1      31.991  27.908  22.833  1.00  0.00     0.016 A 
BRANCH   9  14
ATOM     14  N   UNL A   1      31.588  24.214  22.599  1.00  0.00    -0.325 N 
ATOM     15  C   UNL A   1      32.772  23.502  22.574  1.00  0.00     0.238 C 
ATOM     16  O   UNL A   1      32.837  22.497  21.862  1.00  0.00    -0.273 OA
ATOM     17  H   UNL A   1      30.787  23.709  22.331  1.00  0.00     0.169 HD
BRANCH  15  18
ATOM     18  C   UNL A   1      33.883  23.836  23.585  1.00  0.00     0.160 C 
ATOM     19  C   UNL A   1      31.973  22.973  27.489  1.00  0.00     0.301 C 
ATOM     20  N   UNL A   1      32.620  23.269  26.220  1.00  0.00    -0.194 N 
ATOM     21  C   UNL A   1      32.757  24.597  25.838  1.00  0.00     0.311 C 
ATOM     22  C   UNL A   1      33.003  22.180  25.457  1.00  0.00     0.319 C 
ATOM     23  O   UNL A   1      32.308  25.528  26.516  1.00  0.00    -0.247 OA
ATOM     24  C   UNL A   1      33.483  24.951  24.545  1.00  0.00     0.153 C 
ATOM     25  S   UNL A   1      34.457  22.452  24.554  1.00  0.00    -0.024 SA
ATOM     26  N   UNL A   1      32.326  21.077  25.510  1.00  0.00    -0.235 N 
ATOM     27  H   UNL A   1      31.617  20.990  26.187  1.00  0.00     0.313 HD
BRANCH  26  28
ATOM     28  C   UNL A   1      32.562  20.006  24.641  1.00  0.00     0.126 A 
ATOM     29  C   UNL A   1      32.021  20.070  23.350  1.00  0.00     0.052 A 
ATOM     30  C   UNL A   1      33.294  18.877  25.012  1.00  0.00     0.064 A 
ATOM     31  C   UNL A   1      32.245  19.049  22.426  1.00  0.00     0.005 A 
ATOM     32  C   UNL A   1      33.559  17.858  24.081  1.00  0.00     0.060 A 
ATOM     33  C   UNL A   1      33.020  17.950  22.788  1.00  0.00     0.013 A 
BRANCH  32  34
ATOM     34  C   UNL A   1      34.442  16.694  24.445  1.00  0.00     0.416 C 
ATOM     35  F   UNL A   1      33.887  15.860  25.360  1.00  0.00    -0.166 F 
ATOM     36  F   UNL A   1      34.735  15.920  23.360  1.00  0.00    -0.166 F 
ATOM     37  F   UNL A   1      35.648  17.072  24.952  1.00  0.00    -0.166 F 
ENDBRANCH  32  34
ENDBRANCH  26  28
ENDBRANCH  15  18
ENDBRANCH   9  14
ENDBRANCH   5   8
ENDBRANCH   3   4
ENDBRANCH   2   3
ENDBRANCH   1   2
BRANCH   1  38
ATOM     38  C   UNL A   1      34.471  31.184  27.984  1.00  0.00     0.002 C 
BRANCH  38  39
ATOM     39  C   UNL A   1      35.657  32.144  27.836  1.00  0.00     0.021 C 
BRANCH  39  40
ATOM     40  C   UNL A   1      36.543  32.297  29.073  1.00  0.00     0.116 C 
BRANCH  40  41
ATOM     41  N   UNL A   1      36.170  31.374  30.133  1.00  0.00    -0.352 N 
ATOM     42  C   UNL A   1      36.765  30.208  30.548  1.00  0.00     0.251 C 
ATOM     43  H   UNL A   1      35.361  31.627  30.636  1.00  0.00     0.163 HD
ATOM     44  O   UNL A   1      36.171  29.472  31.329  1.00  0.00    -0.269 OA
BRANCH  42  45
ATOM     45  C   UNL A   1      38.108  29.825  30.054  1.00  0.00     0.039 A 
ATOM     46  C   UNL A   1      38.304  29.689  28.676  1.00  0.00     0.014 A 
ATOM     47  C   UNL A   1      39.157  29.550  30.936  1.00  0.00     0.014 A 
ATOM     48  C   UNL A   1      39.562  29.333  28.181  1.00  0.00     0.010 A 
ATOM     49  C   UNL A   1      40.427  29.255  30.439  1.00  0.00     0.010 A 
ATOM     50  C   UNL A   1      40.643  29.142  29.057  1.00  0.00    -0.014 A 
BRANCH  50  51
ATOM     51  C   UNL A   1      42.002  28.828  28.542  1.00  0.00     0.031 A 
ATOM     52  C   UNL A   1      42.342  27.434  28.087  1.00  0.00     0.074 A 
ATOM     53  C   UNL A   1      42.950  29.787  28.537  1.00  0.00     0.049 A 
ATOM     54  N   UNL A   1      43.487  26.961  27.664  1.00  0.00    -0.248 NA
ATOM     55  C   UNL A   1      41.262  26.435  28.134  1.00  0.00     0.031 C 
ATOM     56  C   UNL A   1      42.760  31.169  28.983  1.00  0.00     0.029 A 
ATOM     57  N   UNL A   1      44.267  29.743  28.151  1.00  0.00    -0.354 N 
ATOM     58  C   UNL A   1      43.271  25.610  27.410  1.00  0.00     0.074 A 
ATOM     59  C   UNL A   1      41.897  25.331  27.766  1.00  0.00     0.031 C 
ATOM     60  C   UNL A   1      43.909  31.844  28.827  1.00  0.00     0.029 A 
ATOM     61  C   UNL A   1      44.929  30.938  28.307  1.00  0.00     0.049 A 
ATOM     62  H   UNL A   1      44.697  28.932  27.795  1.00  0.00     0.167 HD
ATOM     63  C   UNL A   1      44.132  24.691  26.912  1.00  0.00     0.031 A 
ATOM     64  C   UNL A   1      46.213  31.269  28.070  1.00  0.00     0.031 A 
ATOM     65  C   UNL A   1      45.495  24.974  26.546  1.00  0.00     0.049 A 
ATOM     66  C   UNL A   1      47.151  30.228  27.522  1.00  0.00     0.074 A 
ATOM     67  C   UNL A   1      46.428  24.121  25.981  1.00  0.00     0.029 A 
ATOM     68  N   UNL A   1      46.122  26.200  26.708  1.00  0.00    -0.354 N 
ATOM     69  N   UNL A   1      46.909  28.973  27.232  1.00  0.00    -0.248 NA
ATOM     70  C   UNL A   1      48.534  30.654  27.260  1.00  0.00     0.031 C 
ATOM     71  C   UNL A   1      47.634  24.818  25.848  1.00  0.00     0.029 A 
ATOM     72  C   UNL A   1      47.435  26.121  26.276  1.00  0.00     0.049 A 
ATOM     73  H   UNL A   1      45.696  27.007  27.077  1.00  0.00     0.167 HD
ATOM     74  C   UNL A   1      48.102  28.465  26.727  1.00  0.00     0.074 A 
ATOM     75  C   UNL A   1      49.058  29.553  26.738  1.00  0.00     0.031 C 
ATOM     76  C   UNL A   1      48.377  27.211  26.291  1.00  0.00     0.031 A 
BRANCH  63  77
ATOM     77  C   UNL A   1      43.626  23.283  26.736  1.00  0.00    -0.014 A 
ATOM     78  C   UNL A   1      43.656  22.653  25.478  1.00  0.00     0.010 A 
ATOM     79  C   UNL A   1      43.163  22.561  27.851  1.00  0.00     0.010 A 
ATOM     80  C   UNL A   1      43.197  21.340  25.332  1.00  0.00     0.020 A 
ATOM     81  C   UNL A   1      42.727  21.240  27.714  1.00  0.00     0.020 A 
ATOM     82  C   UNL A   1      42.731  20.643  26.452  1.00  0.00     0.054 A 
BRANCH  82  83
ATOM     83  S   UNL A   1      42.166  18.933  26.238  1.00  0.00     0.124 S 
ATOM     84  O   UNL A   1      42.302  18.400  27.591  1.00  0.00    -0.237 OA
ATOM     85  O   UNL A   1      40.795  19.104  25.765  1.00  0.00    -0.237 OA
ATOM     86  O   UNL A   1      43.096  18.380  25.256  1.00  0.00    -0.744 OA
ENDBRANCH  82  83
ENDBRANCH  63  77
BRANCH  64  87
ATOM     87  C   UNL A   1      46.686  32.654  28.339  1.00  0.00    -0.014 A 
ATOM     88  C   UNL A   1      47.185  33.006  29.606  1.00  0.00     0.010 A 
ATOM     89  C   UNL A   1      46.646  33.629  27.325  1.00  0.00     0.010 A 
ATOM     90  C   UNL A   1      47.617  34.311  29.859  1.00  0.00     0.020 A 
ATOM     91  C   UNL A   1      47.102  34.928  27.568  1.00  0.00     0.020 A 
ATOM     92  C   UNL A   1      47.573  35.264  28.838  1.00  0.00     0.054 A 
BRANCH  92  93
ATOM     93  S   UNL A   1      48.183  36.940  29.175  1.00  0.00     0.124 S 
ATOM     94  O   UNL A   1      47.826  37.117  30.578  1.00  0.00    -0.237 OA
ATOM     95  O   UNL A   1      49.612  36.818  28.895  1.00  0.00    -0.237 OA
ATOM     96  O   UNL A   1      47.441  37.769  28.228  1.00  0.00    -0.744 OA
ENDBRANCH  92  93
ENDBRANCH  64  87
BRANCH  76  97
ATOM     97  C   UNL A   1      49.761  26.951  25.758  1.00  0.00    -0.014 A 
ATOM     98  C   UNL A   1      50.075  27.172  24.405  1.00  0.00     0.010 A 
ATOM     99  C   UNL A   1      50.775  26.530  26.637  1.00  0.00     0.010 A 
ATOM    100  C   UNL A   1      51.371  26.946  23.936  1.00  0.00     0.020 A 
ATOM    101  C   UNL A   1      52.078  26.330  26.178  1.00  0.00     0.020 A 
ATOM    102  C   UNL A   1      52.366  26.526  24.826  1.00  0.00     0.054 A 
BRANCH 102 103
ATOM    103  S   UNL A   1      54.051  26.284  24.202  1.00  0.00     0.124 S 
ATOM    104  O   UNL A   1      53.833  26.202  22.760  1.00  0.00    -0.237 OA
ATOM    105  O   UNL A   1      54.741  27.485  24.666  1.00  0.00    -0.237 OA
ATOM    106  O   UNL A   1      54.481  25.040  24.839  1.00  0.00    -0.744 OA
ENDBRANCH 102 103
ENDBRANCH  76  97
ENDBRANCH  50  51
ENDBRANCH  42  45
ENDBRANCH  40  41
ENDBRANCH  39  40
ENDBRANCH  38  39
ENDBRANCH   1  38
TORSDOF 20
ENDMDL
MODEL 3
REMARK VINA RESULT:      -7.8      4.204      9.481
REMARK SMILES CN1C(=O)C[C@H](C(=O)Nc2ccc(C(=O)NCCCCCCNC(=O)c3ccc(-c4c5nc(c(-c6ccc(S(=O)(=O)[O-])cc6)c6ccc([nH]6)c(-c6ccc(S(=O)(=O)[O-])cc6)c6nc(c(-c7ccc(S(=O)(=O)[O-])cc7)c7ccc4[nH]7)C=C6)C=C5)cc3)cc2)S/C1=[NH+]\c1cccc(C(F)(F)F)c1
REMARK SMILES IDX 19 1 18 2 17 3 16 4 14 5 15 6 13 8 10 9 11 10 87 11 12 12
REMARK SMILES IDX 86 13 9 14 7 15 8 16 6 18 1 19 2 20 3 21 89 22 4 23 5 24
REMARK SMILES IDX 88 25 90 26 91 28 92 29 100 30 93 31 95 32 94 33 96 34 97 35
REMARK SMILES IDX 98 36 99 37 20 38 21 39 22 40 23 41 24 42 25 44 26 45 27 46
REMARK SMILES IDX 85 47 28 48 84 49 29 50 30 51 31 52 78 53 32 54 83 55 77 56
REMARK SMILES IDX 79 57 33 58 82 59 76 60 75 61 34 63 64 64 45 65 63 66 46 67
REMARK SMILES IDX 49 68 62 69 80 70 47 71 48 72 61 74 81 75 50 76 35 77 36 78
REMARK SMILES IDX 44 79 37 80 43 81 38 82 39 83 40 84 41 85 42 86 65 87 66 88
REMARK SMILES IDX 74 89 67 90 73 91 68 92 69 93 70 94 71 95 72 96 51 97 52 98
REMARK SMILES IDX 60 99 53 100 59 101 54 102 55 103 56 104 57 105 58 106
REMARK H PARENT 16 7 9 17 90 27 23 43 79 62 49 73
REMARK Flexibility Score: inf
ROOT
ATOM      1  C   UNL A   1      45.310  23.875  26.404  1.00  0.00     0.002 C 
ENDROOT
BRANCH   1   2
ATOM      2  C   UNL A   1      44.318  24.700  25.574  1.00  0.00     0.021 C 
BRANCH   2   3
ATOM      3  C   UNL A   1      43.384  23.870  24.686  1.00  0.00     0.116 C 
BRANCH   3   4
ATOM      4  N   UNL A   1      42.389  23.170  25.492  1.00  0.00    -0.352 N 
ATOM      5  C   UNL A   1      41.503  23.567  26.464  1.00  0.00     0.251 C 
ATOM      6  O   UNL A   1      40.691  22.737  26.877  1.00  0.00    -0.269 OA
ATOM      7  H   UNL A   1      42.343  22.205  25.298  1.00  0.00     0.163 HD
BRANCH   5   8
ATOM      8  C   UNL A   1      41.443  24.947  27.017  1.00  0.00     0.039 A 
ATOM      9  C   UNL A   1      41.293  27.504  28.220  1.00  0.00     0.041 A 
ATOM     10  C   UNL A   1      42.049  26.502  28.817  1.00  0.00     0.027 A 
ATOM     11  C   UNL A   1      40.777  27.262  26.953  1.00  0.00     0.027 A 
ATOM     12  C   UNL A   1      42.103  25.225  28.229  1.00  0.00     0.016 A 
ATOM     13  C   UNL A   1      40.848  26.005  26.348  1.00  0.00     0.016 A 
BRANCH   9  14
ATOM     14  N   UNL A   1      41.178  28.769  28.820  1.00  0.00    -0.325 N 
ATOM     15  C   UNL A   1      40.076  29.370  29.399  1.00  0.00     0.238 C 
ATOM     16  O   UNL A   1      40.059  30.600  29.492  1.00  0.00    -0.273 OA
ATOM     17  H   UNL A   1      42.004  29.306  28.831  1.00  0.00     0.169 HD
BRANCH  15  18
ATOM     18  C   UNL A   1      39.020  28.502  30.105  1.00  0.00     0.160 C 
ATOM     19  C   UNL A   1      39.034  30.080  34.245  1.00  0.00     0.301 C 
ATOM     20  N   UNL A   1      39.016  29.541  32.894  1.00  0.00    -0.194 N 
ATOM     21  C   UNL A   1      39.652  28.330  32.653  1.00  0.00     0.311 C 
ATOM     22  C   UNL A   1      38.402  30.320  31.931  1.00  0.00     0.319 C 
ATOM     23  O   UNL A   1      40.269  27.722  33.536  1.00  0.00    -0.247 OA
ATOM     24  C   UNL A   1      39.602  27.702  31.265  1.00  0.00     0.153 C 
ATOM     25  S   UNL A   1      37.596  29.392  30.708  1.00  0.00    -0.024 SA
ATOM     26  N   UNL A   1      38.417  31.611  32.030  1.00  0.00    -0.235 N 
ATOM     27  H   UNL A   1      38.762  32.018  32.858  1.00  0.00     0.313 HD
BRANCH  26  28
ATOM     28  C   UNL A   1      37.964  32.451  31.007  1.00  0.00     0.126 A 
ATOM     29  C   UNL A   1      38.858  33.393  30.480  1.00  0.00     0.052 A 
ATOM     30  C   UNL A   1      36.662  32.401  30.506  1.00  0.00     0.064 A 
ATOM     31  C   UNL A   1      38.478  34.239  29.438  1.00  0.00     0.005 A 
ATOM     32  C   UNL A   1      36.276  33.222  29.432  1.00  0.00     0.060 A 
ATOM     33  C   UNL A   1      37.194  34.148  28.909  1.00  0.00     0.013 A 
BRANCH  32  34
ATOM     34  C   UNL A   1      34.909  33.091  28.817  1.00  0.00     0.416 C 
ATOM     35  F   UNL A   1      34.304  34.283  28.584  1.00  0.00    -0.166 F 
ATOM     36  F   UNL A   1      34.952  32.451  27.613  1.00  0.00    -0.166 F 
ATOM     37  F   UNL A   1      34.044  32.365  29.578  1.00  0.00    -0.166 F 
ENDBRANCH  32  34
ENDBRANCH  26  28
ENDBRANCH  15  18
ENDBRANCH   9  14
ENDBRANCH   5   8
ENDBRANCH   3   4
ENDBRANCH   2   3
ENDBRANCH   1   2
BRANCH   1  38
ATOM     38  C   UNL A   1      46.786  24.254  26.229  1.00  0.00     0.002 C 
BRANCH  38  39
ATOM     39  C   UNL A   1      47.231  24.597  24.802  1.00  0.00     0.021 C 
BRANCH  39  40
ATOM     40  C   UNL A   1      48.384  25.595  24.691  1.00  0.00     0.116 C 
BRANCH  40  41
ATOM     41  N   UNL A   1      48.122  26.630  23.704  1.00  0.00    -0.352 N 
ATOM     42  C   UNL A   1      47.305  27.731  23.765  1.00  0.00     0.251 C 
ATOM     43  H   UNL A   1      48.611  26.524  22.855  1.00  0.00     0.163 HD
ATOM     44  O   UNL A   1      47.070  28.366  22.741  1.00  0.00    -0.269 OA
BRANCH  42  45
ATOM     45  C   UNL A   1      46.694  28.153  25.047  1.00  0.00     0.039 A 
ATOM     46  C   UNL A   1      47.489  28.825  25.981  1.00  0.00     0.014 A 
ATOM     47  C   UNL A   1      45.366  27.846  25.357  1.00  0.00     0.014 A 
ATOM     48  C   UNL A   1      46.939  29.239  27.197  1.00  0.00     0.010 A 
ATOM     49  C   UNL A   1      44.801  28.313  26.544  1.00  0.00     0.010 A 
ATOM     50  C   UNL A   1      45.581  29.012  27.478  1.00  0.00    -0.014 A 
BRANCH  50  51
ATOM     51  C   UNL A   1      44.964  29.504  28.738  1.00  0.00     0.031 A 
ATOM     52  C   UNL A   1      44.430  30.909  28.828  1.00  0.00     0.074 A 
ATOM     53  C   UNL A   1      44.934  28.703  29.823  1.00  0.00     0.049 A 
ATOM     54  N   UNL A   1      43.912  31.530  29.857  1.00  0.00    -0.248 NA
ATOM     55  C   UNL A   1      44.508  31.731  27.610  1.00  0.00     0.031 C 
ATOM     56  C   UNL A   1      45.449  27.333  29.878  1.00  0.00     0.029 A 
ATOM     57  N   UNL A   1      44.459  28.928  31.091  1.00  0.00    -0.354 N 
ATOM     58  C   UNL A   1      43.618  32.816  29.418  1.00  0.00     0.074 A 
ATOM     59  C   UNL A   1      44.054  32.899  28.041  1.00  0.00     0.031 C 
ATOM     60  C   UNL A   1      45.244  26.835  31.107  1.00  0.00     0.029 A 
ATOM     61  C   UNL A   1      44.620  27.858  31.940  1.00  0.00     0.049 A 
ATOM     62  H   UNL A   1      44.042  29.776  31.366  1.00  0.00     0.167 HD
ATOM     63  C   UNL A   1      43.025  33.830  30.093  1.00  0.00     0.031 A 
ATOM     64  C   UNL A   1      44.311  27.717  33.243  1.00  0.00     0.031 A 
ATOM     65  C   UNL A   1      42.581  33.742  31.459  1.00  0.00     0.049 A 
ATOM     66  C   UNL A   1      43.659  28.860  33.972  1.00  0.00     0.074 A 
ATOM     67  C   UNL A   1      41.920  34.697  32.212  1.00  0.00     0.029 A 
ATOM     68  N   UNL A   1      42.751  32.636  32.279  1.00  0.00    -0.354 N 
ATOM     69  N   UNL A   1      43.335  30.047  33.520  1.00  0.00    -0.248 NA
ATOM     70  C   UNL A   1      43.322  28.639  35.386  1.00  0.00     0.031 C 
ATOM     71  C   UNL A   1      41.735  34.188  33.502  1.00  0.00     0.029 A 
ATOM     72  C   UNL A   1      42.229  32.893  33.535  1.00  0.00     0.049 A 
ATOM     73  H   UNL A   1      43.180  31.793  32.008  1.00  0.00     0.167 HD
ATOM     74  C   UNL A   1      42.730  30.705  34.586  1.00  0.00     0.074 A 
ATOM     75  C   UNL A   1      42.721  29.779  35.700  1.00  0.00     0.031 C 
ATOM     76  C   UNL A   1      42.226  31.963  34.635  1.00  0.00     0.031 A 
BRANCH  63  77
ATOM     77  C   UNL A   1      42.826  35.133  29.363  1.00  0.00    -0.014 A 
ATOM     78  C   UNL A   1      41.721  35.328  28.515  1.00  0.00     0.010 A 
ATOM     79  C   UNL A   1      43.725  36.195  29.569  1.00  0.00     0.010 A 
ATOM     80  C   UNL A   1      41.541  36.547  27.855  1.00  0.00     0.020 A 
ATOM     81  C   UNL A   1      43.534  37.425  28.931  1.00  0.00     0.020 A 
ATOM     82  C   UNL A   1      42.451  37.588  28.065  1.00  0.00     0.054 A 
BRANCH  82  83
ATOM     83  S   UNL A   1      42.177  39.167  27.217  1.00  0.00     0.124 S 
ATOM     84  O   UNL A   1      41.747  40.028  28.317  1.00  0.00    -0.237 OA
ATOM     85  O   UNL A   1      43.496  39.468  26.664  1.00  0.00    -0.237 OA
ATOM     86  O   UNL A   1      41.146  38.858  26.230  1.00  0.00    -0.744 OA
ENDBRANCH  82  83
ENDBRANCH  63  77
BRANCH  64  87
ATOM     87  C   UNL A   1      44.605  26.436  33.942  1.00  0.00    -0.014 A 
ATOM     88  C   UNL A   1      43.602  25.466  34.110  1.00  0.00     0.010 A 
ATOM     89  C   UNL A   1      45.896  26.178  34.439  1.00  0.00     0.010 A 
ATOM     90  C   UNL A   1      43.879  24.269  34.778  1.00  0.00     0.020 A 
ATOM     91  C   UNL A   1      46.183  24.972  35.084  1.00  0.00     0.020 A 
ATOM     92  C   UNL A   1      45.168  24.030  35.260  1.00  0.00     0.054 A 
BRANCH  92  93
ATOM     93  S   UNL A   1      45.518  22.450  36.082  1.00  0.00     0.124 S 
ATOM     94  O   UNL A   1      45.277  22.777  37.483  1.00  0.00    -0.237 OA
ATOM     95  O   UNL A   1      44.545  21.551  35.464  1.00  0.00    -0.237 OA
ATOM     96  O   UNL A   1      46.910  22.183  35.729  1.00  0.00    -0.744 OA
ENDBRANCH  92  93
ENDBRANCH  64  87
BRANCH  76  97
ATOM     97  C   UNL A   1      41.590  32.405  35.927  1.00  0.00    -0.014 A 
ATOM     98  C   UNL A   1      40.193  32.424  36.083  1.00  0.00     0.010 A 
ATOM     99  C   UNL A   1      42.407  32.754  37.017  1.00  0.00     0.010 A 
ATOM    100  C   UNL A   1      39.625  32.815  37.298  1.00  0.00     0.020 A 
ATOM    101  C   UNL A   1      41.844  33.119  38.242  1.00  0.00     0.020 A 
ATOM    102  C   UNL A   1      40.454  33.161  38.371  1.00  0.00     0.054 A 
BRANCH 102 103
ATOM    103  S   UNL A   1      39.693  33.621  39.950  1.00  0.00     0.124 S 
ATOM    104  O   UNL A   1      39.223  32.331  40.449  1.00  0.00    -0.237 OA
ATOM    105  O   UNL A   1      40.810  34.210  40.686  1.00  0.00    -0.237 OA
ATOM    106  O   UNL A   1      38.641  34.562  39.568  1.00  0.00    -0.744 OA
ENDBRANCH 102 103
ENDBRANCH  76  97
ENDBRANCH  50  51
ENDBRANCH  42  45
ENDBRANCH  40  41
ENDBRANCH  39  40
ENDBRANCH  38  39
ENDBRANCH   1  38
TORSDOF 20
ENDMDL
