MODEL 1
REMARK VINA RESULT:     -13.3      0.000      0.000
REMARK SMILES C[C@]1(C(=O)NCCCCCCNC(=O)c2ccc(-c3c4nc(c(-c5ccc(S(=O)(=O)[O-])cc5)c5ccc([nH]5)c(-c5ccc(S(=O)(=O)[O-])cc5)c5nc(c(-c6ccc(S(=O)(=O)[O-])cc6)c6ccc3[nH]6)C=C5)C=C4)cc2)[NH2+]C2(C(=O)c3ccccc3C2=O)[C@@H]2C(=O)N(c3ccccc3)C(=O)[C@H]21
REMARK SMILES IDX 9 1 8 2 7 3 6 4 5 5 3 6 4 7 2 9 1 10 75 11 99 12 76 13 87 16
REMARK SMILES IDX 97 17 77 18 85 19 88 20 90 21 98 22 78 23 79 24 84 25 86 26
REMARK SMILES IDX 89 27 80 28 83 29 81 30 82 31 91 32 92 33 96 34 93 35 95 36
REMARK SMILES IDX 94 37 10 38 11 39 12 40 13 41 14 43 15 44 16 45 74 46 17 47
REMARK SMILES IDX 73 48 18 49 19 50 20 51 67 52 21 53 72 54 66 55 68 56 22 57
REMARK SMILES IDX 71 58 65 59 64 60 23 62 53 63 34 64 52 65 35 66 38 67 51 68
REMARK SMILES IDX 69 69 36 70 37 71 50 73 70 74 39 75 24 76 25 77 33 78 26 79
REMARK SMILES IDX 32 80 27 81 28 82 29 83 30 84 31 85 54 86 55 87 63 88 56 89
REMARK SMILES IDX 62 90 57 91 58 92 59 93 60 94 61 95 40 96 41 97 49 98 42 99
REMARK SMILES IDX 48 100 43 101 44 102 45 103 46 104 47 105
REMARK H PARENT 5 8 75 14 75 15 12 42 68 61 38 72
REMARK Flexibility Score: inf
ROOT
ATOM      1  C   UNL A   1      42.064  21.260  27.033  1.00  0.00     0.002 C 
ENDROOT
BRANCH   1   2
ATOM      2  C   UNL A   1      40.640  20.937  26.561  1.00  0.00     0.002 C 
BRANCH   2   3
ATOM      3  C   UNL A   1      39.664  22.102  26.430  1.00  0.00     0.021 C 
BRANCH   3   4
ATOM      4  C   UNL A   1      38.318  21.795  25.790  1.00  0.00     0.116 C 
BRANCH   4   5
ATOM      5  N   UNL A   1      37.995  22.440  24.552  1.00  0.00    -0.351 N 
ATOM      6  C   UNL A   1      36.890  23.152  24.184  1.00  0.00     0.281 C 
ATOM      7  O   UNL A   1      36.905  23.502  22.993  1.00  0.00    -0.268 OA
ATOM      8  H   UNL A   1      38.682  22.355  23.852  1.00  0.00     0.163 HD
BRANCH   6   9
ATOM      9  C   UNL A   1      35.648  23.544  25.112  1.00  0.00     0.186 C 
ATOM     10  C   UNL A   1      36.264  23.845  26.507  1.00  0.00     0.091 C 
ATOM     11  N   UNL A   1      34.903  24.786  24.648  1.00  0.00    -0.314 N 
ATOM     12  C   UNL A   1      34.515  22.577  25.318  1.00  0.00     0.170 C 
ATOM     13  C   UNL A   1      33.467  24.403  24.279  1.00  0.00     0.236 C 
ATOM     14  H   UNL A   1      35.372  25.180  23.833  1.00  0.00     0.348 HD
ATOM     15  H   UNL A   1      34.891  25.478  25.397  1.00  0.00     0.348 HD
ATOM     16  C   UNL A   1      33.501  22.905  24.245  1.00  0.00     0.177 C 
ATOM     17  C   UNL A   1      34.581  21.099  25.209  1.00  0.00     0.244 C 
ATOM     18  C   UNL A   1      32.419  25.022  25.208  1.00  0.00     0.232 C 
ATOM     19  C   UNL A   1      33.135  25.078  22.932  1.00  0.00     0.232 C 
ATOM     20  C   UNL A   1      32.495  21.839  24.525  1.00  0.00     0.245 C 
ATOM     21  N   UNL A   1      33.275  20.734  24.882  1.00  0.00    -0.250 N 
ATOM     22  O   UNL A   1      35.570  20.418  25.401  1.00  0.00    -0.273 OA
ATOM     23  O   UNL A   1      32.343  24.867  26.414  1.00  0.00    -0.286 OA
ATOM     24  C   UNL A   1      31.547  25.908  24.415  1.00  0.00     0.036 A 
ATOM     25  C   UNL A   1      31.995  25.953  23.105  1.00  0.00     0.036 A 
ATOM     26  O   UNL A   1      33.681  24.984  21.848  1.00  0.00    -0.286 OA
ATOM     27  O   UNL A   1      31.303  21.933  24.287  1.00  0.00    -0.273 OA
ATOM     28  C   UNL A   1      30.446  26.653  24.796  1.00  0.00     0.013 A 
ATOM     29  C   UNL A   1      31.411  26.744  22.129  1.00  0.00     0.013 A 
ATOM     30  C   UNL A   1      29.822  27.449  23.820  1.00  0.00     0.001 A 
ATOM     31  C   UNL A   1      30.306  27.501  22.499  1.00  0.00     0.001 A 
BRANCH  21  32
ATOM     32  C   UNL A   1      32.929  19.386  24.680  1.00  0.00     0.052 A 
ATOM     33  C   UNL A   1      32.753  18.534  25.776  1.00  0.00     0.027 A 
ATOM     34  C   UNL A   1      32.933  18.855  23.385  1.00  0.00     0.027 A 
ATOM     35  C   UNL A   1      32.572  17.164  25.581  1.00  0.00     0.002 A 
ATOM     36  C   UNL A   1      32.806  17.476  23.198  1.00  0.00     0.002 A 
ATOM     37  C   UNL A   1      32.619  16.634  24.293  1.00  0.00     0.000 A 
ENDBRANCH  21  32
ENDBRANCH   6   9
ENDBRANCH   4   5
ENDBRANCH   3   4
ENDBRANCH   2   3
ENDBRANCH   1   2
BRANCH   1  38
ATOM     38  C   UNL A   1      42.299  22.593  27.751  1.00  0.00     0.021 C 
BRANCH  38  39
ATOM     39  C   UNL A   1      43.189  23.614  27.048  1.00  0.00     0.116 C 
BRANCH  39  40
ATOM     40  N   UNL A   1      42.509  24.356  25.997  1.00  0.00    -0.352 N 
ATOM     41  C   UNL A   1      41.766  25.510  26.050  1.00  0.00     0.251 C 
ATOM     42  H   UNL A   1      42.597  23.965  25.098  1.00  0.00     0.163 HD
ATOM     43  O   UNL A   1      41.201  25.913  25.036  1.00  0.00    -0.269 OA
BRANCH  41  44
ATOM     44  C   UNL A   1      41.603  26.249  27.323  1.00  0.00     0.039 A 
ATOM     45  C   UNL A   1      40.603  25.915  28.236  1.00  0.00     0.014 A 
ATOM     46  C   UNL A   1      42.481  27.301  27.607  1.00  0.00     0.014 A 
ATOM     47  C   UNL A   1      40.371  26.734  29.340  1.00  0.00     0.010 A 
ATOM     48  C   UNL A   1      42.297  28.074  28.760  1.00  0.00     0.010 A 
ATOM     49  C   UNL A   1      41.208  27.830  29.609  1.00  0.00    -0.014 A 
BRANCH  49  50
ATOM     50  C   UNL A   1      40.921  28.711  30.774  1.00  0.00     0.031 A 
ATOM     51  C   UNL A   1      41.793  28.669  32.002  1.00  0.00     0.074 A 
ATOM     52  C   UNL A   1      39.902  29.593  30.703  1.00  0.00     0.049 A 
ATOM     53  N   UNL A   1      41.708  29.386  33.094  1.00  0.00    -0.248 NA
ATOM     54  C   UNL A   1      42.904  27.701  32.011  1.00  0.00     0.031 C 
ATOM     55  C   UNL A   1      38.999  29.741  29.560  1.00  0.00     0.029 A 
ATOM     56  N   UNL A   1      39.471  30.546  31.593  1.00  0.00    -0.354 N 
ATOM     57  C   UNL A   1      42.739  28.952  33.919  1.00  0.00     0.074 A 
ATOM     58  C   UNL A   1      43.419  27.886  33.220  1.00  0.00     0.031 C 
ATOM     59  C   UNL A   1      38.161  30.761  29.793  1.00  0.00     0.029 A 
ATOM     60  C   UNL A   1      38.417  31.297  31.127  1.00  0.00     0.049 A 
ATOM     61  H   UNL A   1      39.878  30.679  32.479  1.00  0.00     0.167 HD
ATOM     62  C   UNL A   1      43.094  29.413  35.142  1.00  0.00     0.031 A 
ATOM     63  C   UNL A   1      37.722  32.299  31.704  1.00  0.00     0.031 A 
ATOM     64  C   UNL A   1      42.424  30.489  35.825  1.00  0.00     0.049 A 
ATOM     65  C   UNL A   1      38.107  32.759  33.081  1.00  0.00     0.074 A 
ATOM     66  C   UNL A   1      42.732  31.040  37.057  1.00  0.00     0.029 A 
ATOM     67  N   UNL A   1      41.323  31.180  35.343  1.00  0.00    -0.354 N 
ATOM     68  N   UNL A   1      39.096  32.346  33.837  1.00  0.00    -0.248 NA
ATOM     69  C   UNL A   1      37.288  33.819  33.686  1.00  0.00     0.031 C 
ATOM     70  C   UNL A   1      41.779  32.016  37.350  1.00  0.00     0.029 A 
ATOM     71  C   UNL A   1      40.920  32.129  36.268  1.00  0.00     0.049 A 
ATOM     72  H   UNL A   1      40.891  31.019  34.473  1.00  0.00     0.167 HD
ATOM     73  C   UNL A   1      39.024  33.100  35.002  1.00  0.00     0.074 A 
ATOM     74  C   UNL A   1      37.911  34.012  34.843  1.00  0.00     0.031 C 
ATOM     75  C   UNL A   1      39.810  33.033  36.104  1.00  0.00     0.031 A 
BRANCH  62  76
ATOM     76  C   UNL A   1      44.269  28.777  35.840  1.00  0.00    -0.014 A 
ATOM     77  C   UNL A   1      44.056  27.704  36.727  1.00  0.00     0.010 A 
ATOM     78  C   UNL A   1      45.559  29.330  35.736  1.00  0.00     0.010 A 
ATOM     79  C   UNL A   1      45.097  27.222  37.525  1.00  0.00     0.020 A 
ATOM     80  C   UNL A   1      46.609  28.832  36.513  1.00  0.00     0.020 A 
ATOM     81  C   UNL A   1      46.365  27.800  37.423  1.00  0.00     0.054 A 
BRANCH  81  82
ATOM     82  S   UNL A   1      47.692  27.193  38.501  1.00  0.00     0.124 S 
ATOM     83  O   UNL A   1      47.050  27.197  39.812  1.00  0.00    -0.237 OA
ATOM     84  O   UNL A   1      47.981  25.875  37.942  1.00  0.00    -0.237 OA
ATOM     85  O   UNL A   1      48.756  28.181  38.322  1.00  0.00    -0.744 OA
ENDBRANCH  81  82
ENDBRANCH  62  76
BRANCH  63  86
ATOM     86  C   UNL A   1      36.603  32.931  30.952  1.00  0.00    -0.014 A 
ATOM     87  C   UNL A   1      36.869  33.746  29.834  1.00  0.00     0.010 A 
ATOM     88  C   UNL A   1      35.277  32.801  31.399  1.00  0.00     0.010 A 
ATOM     89  C   UNL A   1      35.845  34.470  29.221  1.00  0.00     0.020 A 
ATOM     90  C   UNL A   1      34.242  33.498  30.766  1.00  0.00     0.020 A 
ATOM     91  C   UNL A   1      34.539  34.354  29.702  1.00  0.00     0.054 A 
BRANCH  91  92
ATOM     92  S   UNL A   1      33.234  35.350  28.932  1.00  0.00     0.124 S 
ATOM     93  O   UNL A   1      32.493  35.824  30.099  1.00  0.00    -0.237 OA
ATOM     94  O   UNL A   1      33.993  36.370  28.212  1.00  0.00    -0.237 OA
ATOM     95  O   UNL A   1      32.526  34.392  28.088  1.00  0.00    -0.744 OA
ENDBRANCH  91  92
ENDBRANCH  63  86
BRANCH  75  96
ATOM     96  C   UNL A   1      39.511  33.963  37.251  1.00  0.00    -0.014 A 
ATOM     97  C   UNL A   1      39.919  35.308  37.183  1.00  0.00     0.010 A 
ATOM     98  C   UNL A   1      38.961  33.474  38.449  1.00  0.00     0.010 A 
ATOM     99  C   UNL A   1      39.824  36.136  38.305  1.00  0.00     0.020 A 
ATOM    100  C   UNL A   1      38.837  34.307  39.564  1.00  0.00     0.020 A 
ATOM    101  C   UNL A   1      39.296  35.625  39.493  1.00  0.00     0.054 A 
BRANCH 101 102
ATOM    102  S   UNL A   1      39.224  36.701  40.951  1.00  0.00     0.124 S 
ATOM    103  O   UNL A   1      40.629  36.792  41.335  1.00  0.00    -0.237 OA
ATOM    104  O   UNL A   1      38.636  37.927  40.417  1.00  0.00    -0.237 OA
ATOM    105  O   UNL A   1      38.369  35.964  41.879  1.00  0.00    -0.744 OA
ENDBRANCH 101 102
ENDBRANCH  75  96
ENDBRANCH  49  50
ENDBRANCH  41  44
ENDBRANCH  39  40
ENDBRANCH  38  39
ENDBRANCH   1  38
TORSDOF 17
ENDMDL
MODEL 2
REMARK VINA RESULT:     -12.8      0.637      7.651
REMARK SMILES C[C@]1(C(=O)NCCCCCCNC(=O)c2ccc(-c3c4nc(c(-c5ccc(S(=O)(=O)[O-])cc5)c5ccc([nH]5)c(-c5ccc(S(=O)(=O)[O-])cc5)c5nc(c(-c6ccc(S(=O)(=O)[O-])cc6)c6ccc3[nH]6)C=C5)C=C4)cc2)[NH2+]C2(C(=O)c3ccccc3C2=O)[C@@H]2C(=O)N(c3ccccc3)C(=O)[C@H]21
REMARK SMILES IDX 9 1 8 2 7 3 6 4 5 5 3 6 4 7 2 9 1 10 75 11 99 12 76 13 87 16
REMARK SMILES IDX 97 17 77 18 85 19 88 20 90 21 98 22 78 23 79 24 84 25 86 26
REMARK SMILES IDX 89 27 80 28 83 29 81 30 82 31 91 32 92 33 96 34 93 35 95 36
REMARK SMILES IDX 94 37 10 38 11 39 12 40 13 41 14 43 15 44 16 45 74 46 17 47
REMARK SMILES IDX 73 48 18 49 19 50 20 51 67 52 21 53 72 54 66 55 68 56 22 57
REMARK SMILES IDX 71 58 65 59 64 60 23 62 53 63 34 64 52 65 35 66 38 67 51 68
REMARK SMILES IDX 69 69 36 70 37 71 50 73 70 74 39 75 24 76 25 77 33 78 26 79
REMARK SMILES IDX 32 80 27 81 28 82 29 83 30 84 31 85 54 86 55 87 63 88 56 89
REMARK SMILES IDX 62 90 57 91 58 92 59 93 60 94 61 95 40 96 41 97 49 98 42 99
REMARK SMILES IDX 48 100 43 101 44 102 45 103 46 104 47 105
REMARK H PARENT 5 8 75 14 75 15 12 42 68 61 38 72
REMARK Flexibility Score: inf
ROOT
ATOM      1  C   UNL A   1      42.351  21.153  26.735  1.00  0.00     0.002 C 
ENDROOT
BRANCH   1   2
ATOM      2  C   UNL A   1      40.908  20.802  26.348  1.00  0.00     0.002 C 
BRANCH   2   3
ATOM      3  C   UNL A   1      39.921  21.957  26.205  1.00  0.00     0.021 C 
BRANCH   3   4
ATOM      4  C   UNL A   1      38.544  21.612  25.658  1.00  0.00     0.116 C 
BRANCH   4   5
ATOM      5  N   UNL A   1      38.111  22.262  24.457  1.00  0.00    -0.351 N 
ATOM      6  C   UNL A   1      36.942  22.904  24.167  1.00  0.00     0.281 C 
ATOM      7  O   UNL A   1      36.868  23.282  22.987  1.00  0.00    -0.268 OA
ATOM      8  H   UNL A   1      38.764  22.242  23.720  1.00  0.00     0.163 HD
BRANCH   6   9
ATOM      9  C   UNL A   1      35.727  23.186  25.169  1.00  0.00     0.186 C 
ATOM     10  C   UNL A   1      36.395  23.492  26.539  1.00  0.00     0.091 C 
ATOM     11  N   UNL A   1      34.877  24.385  24.781  1.00  0.00    -0.314 N 
ATOM     12  C   UNL A   1      34.674  22.138  25.404  1.00  0.00     0.170 C 
ATOM     13  C   UNL A   1      33.453  23.915  24.474  1.00  0.00     0.236 C 
ATOM     14  H   UNL A   1      35.275  24.832  23.954  1.00  0.00     0.348 HD
ATOM     15  H   UNL A   1      34.859  25.056  25.549  1.00  0.00     0.348 HD
ATOM     16  C   UNL A   1      33.585  22.425  24.395  1.00  0.00     0.177 C 
ATOM     17  C   UNL A   1      34.833  20.672  25.248  1.00  0.00     0.244 C 
ATOM     18  C   UNL A   1      32.417  24.437  25.474  1.00  0.00     0.232 C 
ATOM     19  C   UNL A   1      33.005  24.601  23.167  1.00  0.00     0.232 C 
ATOM     20  C   UNL A   1      32.669  21.286  24.694  1.00  0.00     0.245 C 
ATOM     21  N   UNL A   1      33.538  20.227  24.978  1.00  0.00    -0.250 N 
ATOM     22  O   UNL A   1      35.874  20.055  25.369  1.00  0.00    -0.273 OA
ATOM     23  O   UNL A   1      32.415  24.246  26.677  1.00  0.00    -0.286 OA
ATOM     24  C   UNL A   1      31.446  25.282  24.753  1.00  0.00     0.036 A 
ATOM     25  C   UNL A   1      31.820  25.391  23.424  1.00  0.00     0.036 A 
ATOM     26  O   UNL A   1      33.497  24.572  22.054  1.00  0.00    -0.286 OA
ATOM     27  O   UNL A   1      31.462  21.304  24.521  1.00  0.00    -0.273 OA
ATOM     28  C   UNL A   1      30.320  25.940  25.212  1.00  0.00     0.013 A 
ATOM     29  C   UNL A   1      31.133  26.166  22.503  1.00  0.00     0.013 A 
ATOM     30  C   UNL A   1      29.593  26.716  24.293  1.00  0.00     0.001 A 
ATOM     31  C   UNL A   1      30.002  26.836  22.952  1.00  0.00     0.001 A 
BRANCH  21  32
ATOM     32  C   UNL A   1      33.273  18.865  24.754  1.00  0.00     0.052 A 
ATOM     33  C   UNL A   1      32.669  18.094  25.754  1.00  0.00     0.027 A 
ATOM     34  C   UNL A   1      33.769  18.240  23.604  1.00  0.00     0.027 A 
ATOM     35  C   UNL A   1      32.552  16.711  25.602  1.00  0.00     0.002 A 
ATOM     36  C   UNL A   1      33.699  16.851  23.482  1.00  0.00     0.002 A 
ATOM     37  C   UNL A   1      33.086  16.089  24.476  1.00  0.00     0.000 A 
ENDBRANCH  21  32
ENDBRANCH   6   9
ENDBRANCH   4   5
ENDBRANCH   3   4
ENDBRANCH   2   3
ENDBRANCH   1   2
BRANCH   1  38
ATOM     38  C   UNL A   1      42.583  22.400  27.594  1.00  0.00     0.021 C 
BRANCH  38  39
ATOM     39  C   UNL A   1      43.419  23.521  26.982  1.00  0.00     0.116 C 
BRANCH  39  40
ATOM     40  N   UNL A   1      42.718  24.279  25.957  1.00  0.00    -0.352 N 
ATOM     41  C   UNL A   1      42.019  25.459  26.033  1.00  0.00     0.251 C 
ATOM     42  H   UNL A   1      42.751  23.879  25.058  1.00  0.00     0.163 HD
ATOM     43  O   UNL A   1      41.423  25.874  25.043  1.00  0.00    -0.269 OA
BRANCH  41  44
ATOM     44  C   UNL A   1      41.940  26.211  27.306  1.00  0.00     0.039 A 
ATOM     45  C   UNL A   1      40.981  25.908  28.273  1.00  0.00     0.014 A 
ATOM     46  C   UNL A   1      42.856  27.244  27.535  1.00  0.00     0.014 A 
ATOM     47  C   UNL A   1      40.827  26.742  29.380  1.00  0.00     0.010 A 
ATOM     48  C   UNL A   1      42.751  28.030  28.689  1.00  0.00     0.010 A 
ATOM     49  C   UNL A   1      41.702  27.819  29.595  1.00  0.00    -0.014 A 
BRANCH  49  50
ATOM     50  C   UNL A   1      41.497  28.717  30.765  1.00  0.00     0.031 A 
ATOM     51  C   UNL A   1      40.374  29.722  30.775  1.00  0.00     0.074 A 
ATOM     52  C   UNL A   1      42.293  28.588  31.846  1.00  0.00     0.049 A 
ATOM     53  N   UNL A   1      40.032  30.561  31.720  1.00  0.00    -0.248 NA
ATOM     54  C   UNL A   1      39.526  29.801  29.574  1.00  0.00     0.031 C 
ATOM     55  C   UNL A   1      43.401  27.637  31.964  1.00  0.00     0.029 A 
ATOM     56  N   UNL A   1      42.278  29.232  33.059  1.00  0.00    -0.354 N 
ATOM     57  C   UNL A   1      38.942  31.270  31.228  1.00  0.00     0.074 A 
ATOM     58  C   UNL A   1      38.698  30.790  29.887  1.00  0.00     0.031 C 
ATOM     59  C   UNL A   1      43.921  27.721  33.196  1.00  0.00     0.029 A 
ATOM     60  C   UNL A   1      43.234  28.775  33.938  1.00  0.00     0.049 A 
ATOM     61  H   UNL A   1      41.644  29.953  33.279  1.00  0.00     0.167 HD
ATOM     62  C   UNL A   1      38.205  32.222  31.845  1.00  0.00     0.031 A 
ATOM     63  C   UNL A   1      43.536  29.161  35.193  1.00  0.00     0.031 A 
ATOM     64  C   UNL A   1      38.442  32.683  33.190  1.00  0.00     0.049 A 
ATOM     65  C   UNL A   1      42.732  30.253  35.839  1.00  0.00     0.074 A 
ATOM     66  C   UNL A   1      37.728  33.627  33.907  1.00  0.00     0.029 A 
ATOM     67  N   UNL A   1      39.459  32.236  34.020  1.00  0.00    -0.354 N 
ATOM     68  N   UNL A   1      41.695  30.899  35.361  1.00  0.00    -0.248 NA
ATOM     69  C   UNL A   1      43.133  30.672  37.189  1.00  0.00     0.031 C 
ATOM     70  C   UNL A   1      38.352  33.801  35.143  1.00  0.00     0.029 A 
ATOM     71  C   UNL A   1      39.409  32.910  35.229  1.00  0.00     0.049 A 
ATOM     72  H   UNL A   1      40.118  31.544  33.784  1.00  0.00     0.167 HD
ATOM     73  C   UNL A   1      41.315  31.793  36.354  1.00  0.00     0.074 A 
ATOM     74  C   UNL A   1      42.215  31.590  37.470  1.00  0.00     0.031 C 
ATOM     75  C   UNL A   1      40.311  32.704  36.335  1.00  0.00     0.031 A 
BRANCH  62  76
ATOM     76  C   UNL A   1      37.053  32.844  31.096  1.00  0.00    -0.014 A 
ATOM     77  C   UNL A   1      35.745  32.370  31.312  1.00  0.00     0.010 A 
ATOM     78  C   UNL A   1      37.278  33.788  30.078  1.00  0.00     0.010 A 
ATOM     79  C   UNL A   1      34.691  32.795  30.500  1.00  0.00     0.020 A 
ATOM     80  C   UNL A   1      36.220  34.238  29.281  1.00  0.00     0.020 A 
ATOM     81  C   UNL A   1      34.939  33.717  29.479  1.00  0.00     0.054 A 
BRANCH  81  82
ATOM     82  S   UNL A   1      33.567  34.223  28.404  1.00  0.00     0.124 S 
ATOM     83  O   UNL A   1      34.195  35.233  27.558  1.00  0.00    -0.237 OA
ATOM     84  O   UNL A   1      33.207  32.974  27.736  1.00  0.00    -0.237 OA
ATOM     85  O   UNL A   1      32.565  34.726  29.342  1.00  0.00    -0.744 OA
ENDBRANCH  81  82
ENDBRANCH  62  76
BRANCH  63  86
ATOM     86  C   UNL A   1      44.650  28.480  35.912  1.00  0.00    -0.014 A 
ATOM     87  C   UNL A   1      44.402  27.317  36.666  1.00  0.00     0.010 A 
ATOM     88  C   UNL A   1      45.939  29.038  35.925  1.00  0.00     0.010 A 
ATOM     89  C   UNL A   1      45.400  26.764  37.470  1.00  0.00     0.020 A 
ATOM     90  C   UNL A   1      46.953  28.467  36.703  1.00  0.00     0.020 A 
ATOM     91  C   UNL A   1      46.666  27.353  37.496  1.00  0.00     0.054 A 
BRANCH  91  92
ATOM     92  S   UNL A   1      47.931  26.656  38.594  1.00  0.00     0.124 S 
ATOM     93  O   UNL A   1      48.783  25.940  37.648  1.00  0.00    -0.237 OA
ATOM     94  O   UNL A   1      48.522  27.848  39.196  1.00  0.00    -0.237 OA
ATOM     95  O   UNL A   1      47.163  25.815  39.507  1.00  0.00    -0.744 OA
ENDBRANCH  91  92
ENDBRANCH  63  86
BRANCH  75  96
ATOM     96  C   UNL A   1      40.112  33.572  37.550  1.00  0.00    -0.014 A 
ATOM     97  C   UNL A   1      39.198  33.181  38.546  1.00  0.00     0.010 A 
ATOM     98  C   UNL A   1      40.716  34.839  37.634  1.00  0.00     0.010 A 
ATOM     99  C   UNL A   1      38.858  34.056  39.580  1.00  0.00     0.020 A 
ATOM    100  C   UNL A   1      40.401  35.707  38.684  1.00  0.00     0.020 A 
ATOM    101  C   UNL A   1      39.452  35.320  39.634  1.00  0.00     0.054 A 
BRANCH 101 102
ATOM    102  S   UNL A   1      38.962  36.459  40.957  1.00  0.00     0.124 S 
ATOM    103  O   UNL A   1      38.509  37.625  40.206  1.00  0.00    -0.237 OA
ATOM    104  O   UNL A   1      37.918  35.712  41.655  1.00  0.00    -0.237 OA
ATOM    105  O   UNL A   1      40.195  36.648  41.720  1.00  0.00    -0.744 OA
ENDBRANCH 101 102
ENDBRANCH  75  96
ENDBRANCH  49  50
ENDBRANCH  41  44
ENDBRANCH  39  40
ENDBRANCH  38  39
ENDBRANCH   1  38
TORSDOF 17
ENDMDL
MODEL 3
REMARK VINA RESULT:     -11.5      4.795      8.301
REMARK SMILES C[C@]1(C(=O)NCCCCCCNC(=O)c2ccc(-c3c4nc(c(-c5ccc(S(=O)(=O)[O-])cc5)c5ccc([nH]5)c(-c5ccc(S(=O)(=O)[O-])cc5)c5nc(c(-c6ccc(S(=O)(=O)[O-])cc6)c6ccc3[nH]6)C=C5)C=C4)cc2)[NH2+]C2(C(=O)c3ccccc3C2=O)[C@@H]2C(=O)N(c3ccccc3)C(=O)[C@H]21
REMARK SMILES IDX 9 1 8 2 7 3 6 4 5 5 3 6 4 7 2 9 1 10 75 11 99 12 76 13 87 16
REMARK SMILES IDX 97 17 77 18 85 19 88 20 90 21 98 22 78 23 79 24 84 25 86 26
REMARK SMILES IDX 89 27 80 28 83 29 81 30 82 31 91 32 92 33 96 34 93 35 95 36
REMARK SMILES IDX 94 37 10 38 11 39 12 40 13 41 14 43 15 44 16 45 74 46 17 47
REMARK SMILES IDX 73 48 18 49 19 50 20 51 67 52 21 53 72 54 66 55 68 56 22 57
REMARK SMILES IDX 71 58 65 59 64 60 23 62 53 63 34 64 52 65 35 66 38 67 51 68
REMARK SMILES IDX 69 69 36 70 37 71 50 73 70 74 39 75 24 76 25 77 33 78 26 79
REMARK SMILES IDX 32 80 27 81 28 82 29 83 30 84 31 85 54 86 55 87 63 88 56 89
REMARK SMILES IDX 62 90 57 91 58 92 59 93 60 94 61 95 40 96 41 97 49 98 42 99
REMARK SMILES IDX 48 100 43 101 44 102 45 103 46 104 47 105
REMARK H PARENT 5 8 75 14 75 15 12 42 68 61 38 72
REMARK Flexibility Score: inf
ROOT
ATOM      1  C   UNL A   1      43.489  22.383  27.440  1.00  0.00     0.002 C 
ENDROOT
BRANCH   1   2
ATOM      2  C   UNL A   1      44.523  23.332  26.819  1.00  0.00     0.002 C 
BRANCH   2   3
ATOM      3  C   UNL A   1      44.501  24.787  27.280  1.00  0.00     0.021 C 
BRANCH   3   4
ATOM      4  C   UNL A   1      45.112  25.810  26.333  1.00  0.00     0.116 C 
BRANCH   4   5
ATOM      5  N   UNL A   1      46.350  25.482  25.690  1.00  0.00    -0.351 N 
ATOM      6  C   UNL A   1      47.579  26.068  25.781  1.00  0.00     0.281 C 
ATOM      7  O   UNL A   1      48.418  25.572  25.012  1.00  0.00    -0.268 OA
ATOM      8  H   UNL A   1      46.306  24.709  25.083  1.00  0.00     0.163 HD
BRANCH   6   9
ATOM      9  C   UNL A   1      47.998  27.277  26.742  1.00  0.00     0.186 C 
ATOM     10  C   UNL A   1      49.550  27.333  26.667  1.00  0.00     0.091 C 
ATOM     11  N   UNL A   1      47.456  28.627  26.302  1.00  0.00    -0.314 N 
ATOM     12  C   UNL A   1      47.617  27.261  28.196  1.00  0.00     0.170 C 
ATOM     13  C   UNL A   1      46.512  29.166  27.380  1.00  0.00     0.236 C 
ATOM     14  H   UNL A   1      46.947  28.521  25.425  1.00  0.00     0.348 HD
ATOM     15  H   UNL A   1      48.229  29.279  26.166  1.00  0.00     0.348 HD
ATOM     16  C   UNL A   1      46.291  27.984  28.275  1.00  0.00     0.177 C 
ATOM     17  C   UNL A   1      47.343  26.065  29.028  1.00  0.00     0.244 C 
ATOM     18  C   UNL A   1      47.039  30.429  28.068  1.00  0.00     0.232 C 
ATOM     19  C   UNL A   1      45.247  29.694  26.673  1.00  0.00     0.232 C 
ATOM     20  C   UNL A   1      46.013  27.826  29.733  1.00  0.00     0.245 C 
ATOM     21  N   UNL A   1      46.490  26.543  30.023  1.00  0.00    -0.250 N 
ATOM     22  O   UNL A   1      47.808  24.955  28.848  1.00  0.00    -0.273 OA
ATOM     23  O   UNL A   1      48.088  30.534  28.677  1.00  0.00    -0.286 OA
ATOM     24  C   UNL A   1      46.098  31.536  27.810  1.00  0.00     0.036 A 
ATOM     25  C   UNL A   1      45.083  31.100  26.975  1.00  0.00     0.036 A 
ATOM     26  O   UNL A   1      44.455  29.124  25.944  1.00  0.00    -0.286 OA
ATOM     27  O   UNL A   1      45.348  28.601  30.399  1.00  0.00    -0.273 OA
ATOM     28  C   UNL A   1      46.121  32.847  28.245  1.00  0.00     0.013 A 
ATOM     29  C   UNL A   1      44.074  31.928  26.510  1.00  0.00     0.013 A 
ATOM     30  C   UNL A   1      45.098  33.704  27.804  1.00  0.00     0.001 A 
ATOM     31  C   UNL A   1      44.087  33.250  26.936  1.00  0.00     0.001 A 
BRANCH  21  32
ATOM     32  C   UNL A   1      45.988  25.687  31.020  1.00  0.00     0.052 A 
ATOM     33  C   UNL A   1      44.931  24.817  30.731  1.00  0.00     0.027 A 
ATOM     34  C   UNL A   1      46.426  25.829  32.342  1.00  0.00     0.027 A 
ATOM     35  C   UNL A   1      44.323  24.086  31.752  1.00  0.00     0.002 A 
ATOM     36  C   UNL A   1      45.778  25.137  33.367  1.00  0.00     0.002 A 
ATOM     37  C   UNL A   1      44.733  24.262  33.072  1.00  0.00     0.000 A 
ENDBRANCH  21  32
ENDBRANCH   6   9
ENDBRANCH   4   5
ENDBRANCH   3   4
ENDBRANCH   2   3
ENDBRANCH   1   2
BRANCH   1  38
ATOM     38  C   UNL A   1      42.241  22.997  28.082  1.00  0.00     0.021 C 
BRANCH  38  39
ATOM     39  C   UNL A   1      40.985  23.081  27.219  1.00  0.00     0.116 C 
BRANCH  39  40
ATOM     40  N   UNL A   1      41.094  24.026  26.118  1.00  0.00    -0.352 N 
ATOM     41  C   UNL A   1      41.074  25.399  26.110  1.00  0.00     0.251 C 
ATOM     42  H   UNL A   1      41.201  23.612  25.231  1.00  0.00     0.163 HD
ATOM     43  O   UNL A   1      41.091  25.998  25.037  1.00  0.00    -0.269 OA
BRANCH  41  44
ATOM     44  C   UNL A   1      40.987  26.164  27.375  1.00  0.00     0.039 A 
ATOM     45  C   UNL A   1      39.962  25.937  28.294  1.00  0.00     0.014 A 
ATOM     46  C   UNL A   1      41.962  27.130  27.646  1.00  0.00     0.014 A 
ATOM     47  C   UNL A   1      39.814  26.786  29.389  1.00  0.00     0.010 A 
ATOM     48  C   UNL A   1      41.858  27.929  28.791  1.00  0.00     0.010 A 
ATOM     49  C   UNL A   1      40.753  27.799  29.645  1.00  0.00    -0.014 A 
BRANCH  49  50
ATOM     50  C   UNL A   1      40.556  28.716  30.801  1.00  0.00     0.031 A 
ATOM     51  C   UNL A   1      41.482  28.663  31.990  1.00  0.00     0.074 A 
ATOM     52  C   UNL A   1      39.573  29.638  30.756  1.00  0.00     0.049 A 
ATOM     53  N   UNL A   1      41.476  29.406  33.067  1.00  0.00    -0.248 NA
ATOM     54  C   UNL A   1      42.550  27.650  31.971  1.00  0.00     0.031 C 
ATOM     55  C   UNL A   1      38.625  29.800  29.651  1.00  0.00     0.029 A 
ATOM     56  N   UNL A   1      39.222  30.627  31.642  1.00  0.00    -0.354 N 
ATOM     57  C   UNL A   1      42.525  28.946  33.856  1.00  0.00     0.074 A 
ATOM     58  C   UNL A   1      43.127  27.837  33.151  1.00  0.00     0.031 C 
ATOM     59  C   UNL A   1      37.842  30.860  29.898  1.00  0.00     0.029 A 
ATOM     60  C   UNL A   1      38.180  31.413  31.206  1.00  0.00     0.049 A 
ATOM     61  H   UNL A   1      39.675  30.762  32.506  1.00  0.00     0.167 HD
ATOM     62  C   UNL A   1      42.954  29.417  35.050  1.00  0.00     0.031 A 
ATOM     63  C   UNL A   1      37.554  32.455  31.790  1.00  0.00     0.031 A 
ATOM     64  C   UNL A   1      42.360  30.535  35.738  1.00  0.00     0.049 A 
ATOM     65  C   UNL A   1      38.020  32.927  33.138  1.00  0.00     0.074 A 
ATOM     66  C   UNL A   1      42.747  31.098  36.942  1.00  0.00     0.029 A 
ATOM     67  N   UNL A   1      41.268  31.261  35.290  1.00  0.00    -0.354 N 
ATOM     68  N   UNL A   1      39.025  32.488  33.858  1.00  0.00    -0.248 NA
ATOM     69  C   UNL A   1      37.274  34.034  33.755  1.00  0.00     0.031 C 
ATOM     70  C   UNL A   1      41.849  32.120  37.255  1.00  0.00     0.029 A 
ATOM     71  C   UNL A   1      40.948  32.246  36.210  1.00  0.00     0.049 A 
ATOM     72  H   UNL A   1      40.791  31.100  34.444  1.00  0.00     0.167 HD
ATOM     73  C   UNL A   1      39.037  33.269  35.008  1.00  0.00     0.074 A 
ATOM     74  C   UNL A   1      37.956  34.224  34.878  1.00  0.00     0.031 C 
ATOM     75  C   UNL A   1      39.869  33.192  36.076  1.00  0.00     0.031 A 
BRANCH  62  76
ATOM     76  C   UNL A   1      44.132  28.747  35.710  1.00  0.00    -0.014 A 
ATOM     77  C   UNL A   1      45.439  29.172  35.402  1.00  0.00     0.010 A 
ATOM     78  C   UNL A   1      43.958  27.607  36.517  1.00  0.00     0.010 A 
ATOM     79  C   UNL A   1      46.547  28.450  35.852  1.00  0.00     0.020 A 
ATOM     80  C   UNL A   1      45.065  26.898  36.992  1.00  0.00     0.020 A 
ATOM     81  C   UNL A   1      46.352  27.308  36.633  1.00  0.00     0.054 A 
BRANCH  81  82
ATOM     82  S   UNL A   1      47.801  26.356  37.169  1.00  0.00     0.124 S 
ATOM     83  O   UNL A   1      48.026  25.471  36.031  1.00  0.00    -0.237 OA
ATOM     84  O   UNL A   1      48.809  27.394  37.372  1.00  0.00    -0.237 OA
ATOM     85  O   UNL A   1      47.344  25.699  38.393  1.00  0.00    -0.744 OA
ENDBRANCH  81  82
ENDBRANCH  62  76
BRANCH  63  86
ATOM     86  C   UNL A   1      36.429  33.118  31.075  1.00  0.00    -0.014 A 
ATOM     87  C   UNL A   1      36.643  33.725  29.822  1.00  0.00     0.010 A 
ATOM     88  C   UNL A   1      35.165  33.229  31.678  1.00  0.00     0.010 A 
ATOM     89  C   UNL A   1      35.640  34.485  29.218  1.00  0.00     0.020 A 
ATOM     90  C   UNL A   1      34.145  33.962  31.060  1.00  0.00     0.020 A 
ATOM     91  C   UNL A   1      34.401  34.612  29.850  1.00  0.00     0.054 A 
BRANCH  91  92
ATOM     92  S   UNL A   1      33.132  35.655  29.080  1.00  0.00     0.124 S 
ATOM     93  O   UNL A   1      33.946  36.617  28.341  1.00  0.00    -0.237 OA
ATOM     94  O   UNL A   1      32.388  34.700  28.262  1.00  0.00    -0.237 OA
ATOM     95  O   UNL A   1      32.399  36.199  30.220  1.00  0.00    -0.744 OA
ENDBRANCH  91  92
ENDBRANCH  63  86
BRANCH  75  96
ATOM     96  C   UNL A   1      39.661  34.158  37.212  1.00  0.00    -0.014 A 
ATOM     97  C   UNL A   1      40.361  35.379  37.228  1.00  0.00     0.010 A 
ATOM     98  C   UNL A   1      38.891  33.796  38.332  1.00  0.00     0.010 A 
ATOM     99  C   UNL A   1      40.331  36.200  38.358  1.00  0.00     0.020 A 
ATOM    100  C   UNL A   1      38.835  34.628  39.453  1.00  0.00     0.020 A 
ATOM    101  C   UNL A   1      39.579  35.812  39.469  1.00  0.00     0.054 A 
BRANCH 101 102
ATOM    102  S   UNL A   1      39.590  36.868  40.944  1.00  0.00     0.124 S 
ATOM    103  O   UNL A   1      40.918  36.615  41.492  1.00  0.00    -0.237 OA
ATOM    104  O   UNL A   1      39.381  38.202  40.386  1.00  0.00    -0.237 OA
ATOM    105  O   UNL A   1      38.477  36.354  41.741  1.00  0.00    -0.744 OA
ENDBRANCH 101 102
ENDBRANCH  75  96
ENDBRANCH  49  50
ENDBRANCH  41  44
ENDBRANCH  39  40
ENDBRANCH  38  39
ENDBRANCH   1  38
TORSDOF 17
ENDMDL
