MODEL 1
REMARK VINA RESULT:     -11.6      0.000      0.000
REMARK SMILES Cc1c(Cl)cccc1NC(=O)C[C@](C)(C(=O)NCCCCCCNC(=O)c1ccc(-c2c3nc(c(-c4ccc(S(=O)(=O)[O-])cc4)c4ccc([nH]4)c(-c4ccc(S(=O)(=O)[O-])cc4)c4nc(c(-c5ccc(S(=O)(=O)[O-])cc5)c5ccc2[nH]5)C=C4)C=C3)cc1)c1ccccc1
REMARK SMILES IDX 20 1 19 2 18 3 17 4 15 5 16 6 13 8 14 9 12 10 10 11 9 12
REMARK SMILES IDX 11 14 8 15 1 16 2 17 3 18 4 19 5 20 7 21 6 22 87 23 88 24
REMARK SMILES IDX 92 25 89 26 91 27 90 28 21 29 22 30 23 31 24 32 25 33 26 35
REMARK SMILES IDX 27 36 28 37 86 38 29 39 85 40 30 41 31 42 32 43 79 44 33 45
REMARK SMILES IDX 84 46 78 47 80 48 34 49 83 50 77 51 76 52 35 54 65 55 46 56
REMARK SMILES IDX 64 57 47 58 50 59 63 60 81 61 48 62 49 63 62 65 82 66 51 67
REMARK SMILES IDX 36 68 37 69 45 70 38 71 44 72 39 73 40 74 41 75 42 76 43 77
REMARK SMILES IDX 66 78 67 79 75 80 68 81 74 82 69 83 70 84 71 85 72 86 73 87
REMARK SMILES IDX 52 88 53 89 61 90 54 91 60 92 55 93 56 94 57 95 58 96 59 97
REMARK H PARENT 17 7 9 13 24 34 80 53 50 64
REMARK Flexibility Score: inf
ROOT
ATOM      1  C   UNL A   1      39.913  23.553  26.633  1.00  0.00     0.002 C 
ENDROOT
BRANCH   1   2
ATOM      2  C   UNL A   1      38.602  24.297  26.904  1.00  0.00     0.021 C 
BRANCH   2   3
ATOM      3  C   UNL A   1      37.311  23.753  25.941  1.00  0.00     0.116 C 
BRANCH   3   4
ATOM      4  N   UNL A   1      35.608  22.629  26.390  1.00  0.00    -0.355 N 
ATOM      5  C   UNL A   1      34.211  22.353  26.369  1.00  0.00     0.230 C 
ATOM      6  O   UNL A   1      34.020  21.274  26.963  1.00  0.00    -0.274 OA
ATOM      7  H   UNL A   1      35.974  21.870  26.897  1.00  0.00     0.163 HD
BRANCH   5   8
ATOM      8  C   UNL A   1      32.953  23.195  25.803  1.00  0.00     0.080 C 
ATOM      9  C   UNL A   1      31.968  22.174  25.118  1.00  0.00     0.027 C 
BRANCH   8  10
ATOM     10  C   UNL A   1      32.221  24.127  26.830  1.00  0.00     0.121 C 
BRANCH  10  11
ATOM     11  C   UNL A   1      30.707  24.166  26.859  1.00  0.00     0.225 C 
ATOM     12  N   UNL A   1      30.030  25.269  26.426  1.00  0.00    -0.326 N 
ATOM     13  H   UNL A   1      29.137  25.450  26.799  1.00  0.00     0.169 HD
ATOM     14  O   UNL A   1      30.053  23.223  27.312  1.00  0.00    -0.275 OA
BRANCH  12  15
ATOM     15  C   UNL A   1      30.547  26.149  25.478  1.00  0.00     0.045 A 
ATOM     16  C   UNL A   1      31.888  27.683  27.512  1.00  0.00     0.048 C 
ATOM     17  C   UNL A   1      31.165  27.698  26.192  1.00  0.00    -0.009 A 
ATOM     18  C   UNL A   1      31.282  29.163  25.157  1.00  0.00     0.046 A 
ATOM     19  Cl  UNL A   1      31.843  30.652  25.818  1.00  0.00    -0.084 Cl
ATOM     20  C   UNL A   1      30.676  29.140  23.459  1.00  0.00     0.021 A 
ATOM     21  C   UNL A   1      30.043  26.065  23.718  1.00  0.00     0.026 A 
ATOM     22  C   UNL A   1      30.106  27.583  22.715  1.00  0.00     0.004 A 
ENDBRANCH  12  15
ENDBRANCH  10  11
ENDBRANCH   8  10
BRANCH   8  23
ATOM     23  C   UNL A   1      33.277  24.159  24.588  1.00  0.00    -0.032 A 
ATOM     24  C   UNL A   1      33.740  25.474  24.879  1.00  0.00     0.005 A 
ATOM     25  C   UNL A   1      33.118  23.837  23.238  1.00  0.00     0.005 A 
ATOM     26  C   UNL A   1      33.879  26.450  23.898  1.00  0.00     0.000 A 
ATOM     27  C   UNL A   1      33.268  24.817  22.246  1.00  0.00     0.000 A 
ATOM     28  C   UNL A   1      33.619  26.125  22.577  1.00  0.00     0.000 A 
ENDBRANCH   8  23
ENDBRANCH   5   8
ENDBRANCH   3   4
ENDBRANCH   2   3
ENDBRANCH   1   2
BRANCH   1  29
ATOM     29  C   UNL A   1      40.483  22.829  27.866  1.00  0.00     0.002 C 
BRANCH  29  30
ATOM     30  C   UNL A   1      40.763  21.352  27.592  1.00  0.00     0.021 C 
BRANCH  30  31
ATOM     31  C   UNL A   1      40.732  21.064  26.103  1.00  0.00     0.116 C 
BRANCH  31  32
ATOM     32  N   UNL A   1      41.743  20.058  25.758  1.00  0.00    -0.352 N 
ATOM     33  C   UNL A   1      43.038  20.254  25.396  1.00  0.00     0.251 C 
ATOM     34  H   UNL A   1      41.444  19.120  25.793  1.00  0.00     0.163 HD
ATOM     35  O   UNL A   1      43.717  19.376  24.888  1.00  0.00    -0.269 OA
BRANCH  33  36
ATOM     36  C   UNL A   1      43.553  21.583  25.683  1.00  0.00     0.039 A 
ATOM     37  C   UNL A   1      43.231  22.631  24.832  1.00  0.00     0.014 A 
ATOM     38  C   UNL A   1      44.158  21.771  26.931  1.00  0.00     0.014 A 
ATOM     39  C   UNL A   1      43.544  23.914  25.246  1.00  0.00     0.010 A 
ATOM     40  C   UNL A   1      44.323  23.054  27.397  1.00  0.00     0.010 A 
ATOM     41  C   UNL A   1      44.078  24.125  26.530  1.00  0.00    -0.014 A 
BRANCH  41  42
ATOM     42  C   UNL A   1      44.491  25.469  26.952  1.00  0.00     0.031 A 
ATOM     43  C   UNL A   1      45.911  25.891  26.708  1.00  0.00     0.074 A 
ATOM     44  C   UNL A   1      43.593  26.278  27.540  1.00  0.00     0.049 A 
ATOM     45  N   UNL A   1      46.479  27.037  26.968  1.00  0.00    -0.248 NA
ATOM     46  C   UNL A   1      46.827  24.887  26.131  1.00  0.00     0.031 C 
ATOM     47  C   UNL A   1      42.205  25.922  27.854  1.00  0.00     0.029 A 
ATOM     48  N   UNL A   1      43.709  27.574  27.954  1.00  0.00    -0.354 N 
ATOM     49  C   UNL A   1      47.808  26.880  26.597  1.00  0.00     0.074 A 
ATOM     50  C   UNL A   1      47.989  25.511  26.188  1.00  0.00     0.031 C 
ATOM     51  C   UNL A   1      41.580  27.003  28.348  1.00  0.00     0.029 A 
ATOM     52  C   UNL A   1      42.536  28.101  28.433  1.00  0.00     0.049 A 
ATOM     53  H   UNL A   1      44.552  28.081  27.914  1.00  0.00     0.167 HD
ATOM     54  C   UNL A   1      48.783  27.815  26.559  1.00  0.00     0.031 A 
ATOM     55  C   UNL A   1      42.269  29.341  28.879  1.00  0.00     0.031 A 
ATOM     56  C   UNL A   1      48.573  29.176  26.959  1.00  0.00     0.049 A 
ATOM     57  C   UNL A   1      43.377  30.357  28.851  1.00  0.00     0.074 A 
ATOM     58  C   UNL A   1      49.467  30.228  26.931  1.00  0.00     0.029 A 
ATOM     59  N   UNL A   1      47.377  29.672  27.462  1.00  0.00    -0.354 N 
ATOM     60  N   UNL A   1      44.615  30.217  28.437  1.00  0.00    -0.248 NA
ATOM     61  C   UNL A   1      43.047  31.701  29.336  1.00  0.00     0.031 C 
ATOM     62  C   UNL A   1      48.834  31.343  27.489  1.00  0.00     0.029 A 
ATOM     63  C   UNL A   1      47.520  31.008  27.780  1.00  0.00     0.049 A 
ATOM     64  H   UNL A   1      46.551  29.147  27.575  1.00  0.00     0.167 HD
ATOM     65  C   UNL A   1      45.205  31.467  28.579  1.00  0.00     0.074 A 
ATOM     66  C   UNL A   1      44.179  32.350  29.100  1.00  0.00     0.031 C 
ATOM     67  C   UNL A   1      46.476  31.855  28.303  1.00  0.00     0.031 A 
BRANCH  54  68
ATOM     68  C   UNL A   1      50.143  27.379  26.085  1.00  0.00    -0.014 A 
ATOM     69  C   UNL A   1      51.149  26.991  26.990  1.00  0.00     0.010 A 
ATOM     70  C   UNL A   1      50.420  27.356  24.707  1.00  0.00     0.010 A 
ATOM     71  C   UNL A   1      52.418  26.633  26.530  1.00  0.00     0.020 A 
ATOM     72  C   UNL A   1      51.677  26.961  24.240  1.00  0.00     0.020 A 
ATOM     73  C   UNL A   1      52.672  26.618  25.156  1.00  0.00     0.054 A 
BRANCH  73  74
ATOM     74  S   UNL A   1      54.319  26.119  24.586  1.00  0.00     0.124 S 
ATOM     75  O   UNL A   1      54.287  24.674  24.797  1.00  0.00    -0.237 OA
ATOM     76  O   UNL A   1      54.314  26.550  23.190  1.00  0.00    -0.237 OA
ATOM     77  O   UNL A   1      55.227  26.856  25.461  1.00  0.00    -0.744 OA
ENDBRANCH  73  74
ENDBRANCH  54  68
BRANCH  55  78
ATOM     78  C   UNL A   1      40.903  29.683  29.356  1.00  0.00    -0.014 A 
ATOM     79  C   UNL A   1      39.834  29.809  28.452  1.00  0.00     0.010 A 
ATOM     80  C   UNL A   1      40.659  29.861  30.731  1.00  0.00     0.010 A 
ATOM     81  C   UNL A   1      38.554  30.132  28.909  1.00  0.00     0.020 A 
ATOM     82  C   UNL A   1      39.374  30.149  31.196  1.00  0.00     0.020 A 
ATOM     83  C   UNL A   1      38.331  30.295  30.280  1.00  0.00     0.054 A 
BRANCH  83  84
ATOM     84  S   UNL A   1      36.652  30.670  30.854  1.00  0.00     0.124 S 
ATOM     85  O   UNL A   1      35.951  30.920  29.598  1.00  0.00    -0.237 OA
ATOM     86  O   UNL A   1      36.281  29.443  31.554  1.00  0.00    -0.237 OA
ATOM     87  O   UNL A   1      36.836  31.838  31.712  1.00  0.00    -0.744 OA
ENDBRANCH  83  84
ENDBRANCH  55  78
BRANCH  67  88
ATOM     88  C   UNL A   1      46.811  33.307  28.517  1.00  0.00    -0.014 A 
ATOM     89  C   UNL A   1      46.619  34.263  27.505  1.00  0.00     0.010 A 
ATOM     90  C   UNL A   1      47.280  33.723  29.777  1.00  0.00     0.010 A 
ATOM     91  C   UNL A   1      46.936  35.602  27.735  1.00  0.00     0.020 A 
ATOM     92  C   UNL A   1      47.558  35.067  30.024  1.00  0.00     0.020 A 
ATOM     93  C   UNL A   1      47.402  35.995  28.994  1.00  0.00     0.054 A 
BRANCH  93  94
ATOM     94  S   UNL A   1      47.775  37.746  29.274  1.00  0.00     0.124 S 
ATOM     95  O   UNL A   1      46.453  38.296  29.556  1.00  0.00    -0.237 OA
ATOM     96  O   UNL A   1      48.692  37.697  30.410  1.00  0.00    -0.237 OA
ATOM     97  O   UNL A   1      48.376  38.179  28.015  1.00  0.00    -0.744 OA
ENDBRANCH  93  94
ENDBRANCH  67  88
ENDBRANCH  41  42
ENDBRANCH  33  36
ENDBRANCH  31  32
ENDBRANCH  30  31
ENDBRANCH  29  30
ENDBRANCH   1  29
TORSDOF 20
ENDMDL
MODEL 2
REMARK VINA RESULT:     -11.6      1.055      7.996
REMARK SMILES Cc1c(Cl)cccc1NC(=O)C[C@](C)(C(=O)NCCCCCCNC(=O)c1ccc(-c2c3nc(c(-c4ccc(S(=O)(=O)[O-])cc4)c4ccc([nH]4)c(-c4ccc(S(=O)(=O)[O-])cc4)c4nc(c(-c5ccc(S(=O)(=O)[O-])cc5)c5ccc2[nH]5)C=C4)C=C3)cc1)c1ccccc1
REMARK SMILES IDX 20 1 19 2 18 3 17 4 15 5 16 6 13 8 14 9 12 10 10 11 9 12
REMARK SMILES IDX 11 14 8 15 1 16 2 17 3 18 4 19 5 20 7 21 6 22 87 23 88 24
REMARK SMILES IDX 92 25 89 26 91 27 90 28 21 29 22 30 23 31 24 32 25 33 26 35
REMARK SMILES IDX 27 36 28 37 86 38 29 39 85 40 30 41 31 42 32 43 79 44 33 45
REMARK SMILES IDX 84 46 78 47 80 48 34 49 83 50 77 51 76 52 35 54 65 55 46 56
REMARK SMILES IDX 64 57 47 58 50 59 63 60 81 61 48 62 49 63 62 65 82 66 51 67
REMARK SMILES IDX 36 68 37 69 45 70 38 71 44 72 39 73 40 74 41 75 42 76 43 77
REMARK SMILES IDX 66 78 67 79 75 80 68 81 74 82 69 83 70 84 71 85 72 86 73 87
REMARK SMILES IDX 52 88 53 89 61 90 54 91 60 92 55 93 56 94 57 95 58 96 59 97
REMARK H PARENT 17 7 9 13 24 34 80 53 50 64
REMARK Flexibility Score: inf
ROOT
ATOM      1  C   UNL A   1      39.812  23.567  26.600  1.00  0.00     0.002 C 
ENDROOT
BRANCH   1   2
ATOM      2  C   UNL A   1      38.378  24.080  26.766  1.00  0.00     0.021 C 
BRANCH   2   3
ATOM      3  C   UNL A   1      37.376  23.708  25.445  1.00  0.00     0.116 C 
BRANCH   3   4
ATOM      4  N   UNL A   1      35.637  22.560  25.290  1.00  0.00    -0.355 N 
ATOM      5  C   UNL A   1      34.236  22.370  25.117  1.00  0.00     0.230 C 
ATOM      6  O   UNL A   1      34.004  21.145  25.138  1.00  0.00    -0.274 OA
ATOM      7  H   UNL A   1      35.971  21.640  25.393  1.00  0.00     0.163 HD
BRANCH   5   8
ATOM      8  C   UNL A   1      33.014  23.418  24.983  1.00  0.00     0.080 C 
ATOM      9  C   UNL A   1      31.802  22.653  24.328  1.00  0.00     0.027 C 
BRANCH   8  10
ATOM     10  C   UNL A   1      32.600  24.176  26.292  1.00  0.00     0.121 C 
BRANCH  10  11
ATOM     11  C   UNL A   1      31.141  24.232  26.696  1.00  0.00     0.225 C 
ATOM     12  N   UNL A   1      30.408  25.367  26.504  1.00  0.00    -0.326 N 
ATOM     13  H   UNL A   1      29.639  25.536  27.095  1.00  0.00     0.169 HD
ATOM     14  O   UNL A   1      30.594  23.271  27.244  1.00  0.00    -0.275 OA
BRANCH  12  15
ATOM     15  C   UNL A   1      30.700  26.296  25.507  1.00  0.00     0.045 A 
ATOM     16  C   UNL A   1      32.379  27.806  27.292  1.00  0.00     0.048 C 
ATOM     17  C   UNL A   1      31.406  27.840  26.145  1.00  0.00    -0.009 A 
ATOM     18  C   UNL A   1      31.273  29.342  25.166  1.00  0.00     0.046 A 
ATOM     19  Cl  UNL A   1      31.914  30.827  25.760  1.00  0.00    -0.084 Cl
ATOM     20  C   UNL A   1      30.338  29.354  23.624  1.00  0.00     0.021 A 
ATOM     21  C   UNL A   1      29.855  26.253  23.882  1.00  0.00     0.026 A 
ATOM     22  C   UNL A   1      29.673  27.804  22.948  1.00  0.00     0.004 A 
ENDBRANCH  12  15
ENDBRANCH  10  11
ENDBRANCH   8  10
BRANCH   8  23
ATOM     23  C   UNL A   1      33.234  24.582  23.930  1.00  0.00    -0.032 A 
ATOM     24  C   UNL A   1      33.865  25.779  24.377  1.00  0.00     0.005 A 
ATOM     25  C   UNL A   1      32.833  24.549  22.593  1.00  0.00     0.005 A 
ATOM     26  C   UNL A   1      33.943  26.920  23.586  1.00  0.00     0.000 A 
ATOM     27  C   UNL A   1      32.920  25.695  21.791  1.00  0.00     0.000 A 
ATOM     28  C   UNL A   1      33.446  26.885  22.293  1.00  0.00     0.000 A 
ENDBRANCH   8  23
ENDBRANCH   5   8
ENDBRANCH   3   4
ENDBRANCH   2   3
ENDBRANCH   1   2
BRANCH   1  29
ATOM     29  C   UNL A   1      40.390  22.917  27.869  1.00  0.00     0.002 C 
BRANCH  29  30
ATOM     30  C   UNL A   1      40.919  21.507  27.608  1.00  0.00     0.021 C 
BRANCH  30  31
ATOM     31  C   UNL A   1      40.811  21.155  26.136  1.00  0.00     0.116 C 
BRANCH  31  32
ATOM     32  N   UNL A   1      41.762  20.090  25.796  1.00  0.00    -0.352 N 
ATOM     33  C   UNL A   1      43.049  20.211  25.379  1.00  0.00     0.251 C 
ATOM     34  H   UNL A   1      41.423  19.169  25.881  1.00  0.00     0.163 HD
ATOM     35  O   UNL A   1      43.669  19.283  24.884  1.00  0.00    -0.269 OA
BRANCH  33  36
ATOM     36  C   UNL A   1      43.634  21.525  25.593  1.00  0.00     0.039 A 
ATOM     37  C   UNL A   1      43.259  22.574  24.764  1.00  0.00     0.014 A 
ATOM     38  C   UNL A   1      44.371  21.707  26.768  1.00  0.00     0.014 A 
ATOM     39  C   UNL A   1      43.654  23.850  25.125  1.00  0.00     0.010 A 
ATOM     40  C   UNL A   1      44.626  22.988  27.195  1.00  0.00     0.010 A 
ATOM     41  C   UNL A   1      44.326  24.058  26.343  1.00  0.00    -0.014 A 
BRANCH  41  42
ATOM     42  C   UNL A   1      44.823  25.392  26.700  1.00  0.00     0.031 A 
ATOM     43  C   UNL A   1      43.962  26.271  27.560  1.00  0.00     0.074 A 
ATOM     44  C   UNL A   1      46.026  25.786  26.249  1.00  0.00     0.049 A 
ATOM     45  N   UNL A   1      44.215  27.465  28.020  1.00  0.00    -0.248 NA
ATOM     46  C   UNL A   1      42.625  25.761  27.924  1.00  0.00     0.031 C 
ATOM     47  C   UNL A   1      46.903  25.006  25.370  1.00  0.00     0.029 A 
ATOM     48  N   UNL A   1      46.729  26.932  26.493  1.00  0.00    -0.354 N 
ATOM     49  C   UNL A   1      43.071  27.844  28.711  1.00  0.00     0.074 A 
ATOM     50  C   UNL A   1      42.090  26.805  28.531  1.00  0.00     0.031 C 
ATOM     51  C   UNL A   1      48.058  25.671  25.205  1.00  0.00     0.029 A 
ATOM     52  C   UNL A   1      47.977  26.938  25.922  1.00  0.00     0.049 A 
ATOM     53  H   UNL A   1      46.375  27.681  27.025  1.00  0.00     0.167 HD
ATOM     54  C   UNL A   1      42.876  28.945  29.466  1.00  0.00     0.031 A 
ATOM     55  C   UNL A   1      48.947  27.867  25.986  1.00  0.00     0.031 A 
ATOM     56  C   UNL A   1      43.875  29.959  29.641  1.00  0.00     0.049 A 
ATOM     57  C   UNL A   1      48.696  29.097  26.813  1.00  0.00     0.074 A 
ATOM     58  C   UNL A   1      43.815  31.103  30.411  1.00  0.00     0.029 A 
ATOM     59  N   UNL A   1      45.122  29.946  29.029  1.00  0.00    -0.354 N 
ATOM     60  N   UNL A   1      47.634  29.416  27.517  1.00  0.00    -0.248 NA
ATOM     61  C   UNL A   1      49.780  30.084  26.869  1.00  0.00     0.031 C 
ATOM     62  C   UNL A   1      44.997  31.820  30.206  1.00  0.00     0.029 A 
ATOM     63  C   UNL A   1      45.828  31.080  29.379  1.00  0.00     0.049 A 
ATOM     64  H   UNL A   1      45.452  29.234  28.434  1.00  0.00     0.167 HD
ATOM     65  C   UNL A   1      47.935  30.628  28.128  1.00  0.00     0.074 A 
ATOM     66  C   UNL A   1      49.285  30.969  27.722  1.00  0.00     0.031 C 
ATOM     67  C   UNL A   1      47.171  31.389  28.951  1.00  0.00     0.031 A 
BRANCH  54  68
ATOM     68  C   UNL A   1      41.536  29.098  30.135  1.00  0.00    -0.014 A 
ATOM     69  C   UNL A   1      41.289  28.570  31.417  1.00  0.00     0.010 A 
ATOM     70  C   UNL A   1      40.504  29.781  29.468  1.00  0.00     0.010 A 
ATOM     71  C   UNL A   1      40.025  28.685  32.000  1.00  0.00     0.020 A 
ATOM     72  C   UNL A   1      39.249  29.932  30.065  1.00  0.00     0.020 A 
ATOM     73  C   UNL A   1      39.013  29.368  31.320  1.00  0.00     0.054 A 
BRANCH  73  74
ATOM     74  S   UNL A   1      37.392  29.528  32.113  1.00  0.00     0.124 S 
ATOM     75  O   UNL A   1      37.430  30.903  32.604  1.00  0.00    -0.237 OA
ATOM     76  O   UNL A   1      36.471  29.282  31.006  1.00  0.00    -0.237 OA
ATOM     77  O   UNL A   1      37.408  28.497  33.148  1.00  0.00    -0.744 OA
ENDBRANCH  73  74
ENDBRANCH  54  68
BRANCH  55  78
ATOM     78  C   UNL A   1      50.234  27.650  25.274  1.00  0.00    -0.014 A 
ATOM     79  C   UNL A   1      51.345  27.109  25.942  1.00  0.00     0.010 A 
ATOM     80  C   UNL A   1      50.345  27.964  23.906  1.00  0.00     0.010 A 
ATOM     81  C   UNL A   1      52.552  26.910  25.264  1.00  0.00     0.020 A 
ATOM     82  C   UNL A   1      51.538  27.734  23.216  1.00  0.00     0.020 A 
ATOM     83  C   UNL A   1      52.638  27.220  23.904  1.00  0.00     0.054 A 
BRANCH  83  84
ATOM     84  S   UNL A   1      54.200  26.911  23.035  1.00  0.00     0.124 S 
ATOM     85  O   UNL A   1      53.738  26.329  21.779  1.00  0.00    -0.237 OA
ATOM     86  O   UNL A   1      54.774  28.250  22.941  1.00  0.00    -0.237 OA
ATOM     87  O   UNL A   1      54.911  25.996  23.925  1.00  0.00    -0.744 OA
ENDBRANCH  83  84
ENDBRANCH  55  78
BRANCH  67  88
ATOM     88  C   UNL A   1      47.796  32.643  29.501  1.00  0.00    -0.014 A 
ATOM     89  C   UNL A   1      48.564  32.626  30.678  1.00  0.00     0.010 A 
ATOM     90  C   UNL A   1      47.649  33.850  28.792  1.00  0.00     0.010 A 
ATOM     91  C   UNL A   1      49.134  33.804  31.162  1.00  0.00     0.020 A 
ATOM     92  C   UNL A   1      48.253  35.021  29.251  1.00  0.00     0.020 A 
ATOM     93  C   UNL A   1      48.976  34.993  30.444  1.00  0.00     0.054 A 
BRANCH  93  94
ATOM     94  S   UNL A   1      49.754  36.502  31.079  1.00  0.00     0.124 S 
ATOM     95  O   UNL A   1      50.855  36.692  30.140  1.00  0.00    -0.237 OA
ATOM     96  O   UNL A   1      48.672  37.479  30.987  1.00  0.00    -0.237 OA
ATOM     97  O   UNL A   1      50.148  36.143  32.439  1.00  0.00    -0.744 OA
ENDBRANCH  93  94
ENDBRANCH  67  88
ENDBRANCH  41  42
ENDBRANCH  33  36
ENDBRANCH  31  32
ENDBRANCH  30  31
ENDBRANCH  29  30
ENDBRANCH   1  29
TORSDOF 20
ENDMDL
MODEL 3
REMARK VINA RESULT:     -11.4      6.420     10.471
REMARK SMILES Cc1c(Cl)cccc1NC(=O)C[C@](C)(C(=O)NCCCCCCNC(=O)c1ccc(-c2c3nc(c(-c4ccc(S(=O)(=O)[O-])cc4)c4ccc([nH]4)c(-c4ccc(S(=O)(=O)[O-])cc4)c4nc(c(-c5ccc(S(=O)(=O)[O-])cc5)c5ccc2[nH]5)C=C4)C=C3)cc1)c1ccccc1
REMARK SMILES IDX 20 1 19 2 18 3 17 4 15 5 16 6 13 8 14 9 12 10 10 11 9 12
REMARK SMILES IDX 11 14 8 15 1 16 2 17 3 18 4 19 5 20 7 21 6 22 87 23 88 24
REMARK SMILES IDX 92 25 89 26 91 27 90 28 21 29 22 30 23 31 24 32 25 33 26 35
REMARK SMILES IDX 27 36 28 37 86 38 29 39 85 40 30 41 31 42 32 43 79 44 33 45
REMARK SMILES IDX 84 46 78 47 80 48 34 49 83 50 77 51 76 52 35 54 65 55 46 56
REMARK SMILES IDX 64 57 47 58 50 59 63 60 81 61 48 62 49 63 62 65 82 66 51 67
REMARK SMILES IDX 36 68 37 69 45 70 38 71 44 72 39 73 40 74 41 75 42 76 43 77
REMARK SMILES IDX 66 78 67 79 75 80 68 81 74 82 69 83 70 84 71 85 72 86 73 87
REMARK SMILES IDX 52 88 53 89 61 90 54 91 60 92 55 93 56 94 57 95 58 96 59 97
REMARK H PARENT 17 7 9 13 24 34 80 53 50 64
REMARK Flexibility Score: inf
ROOT
ATOM      1  C   UNL A   1      35.543  31.190  27.998  1.00  0.00     0.002 C 
ENDROOT
BRANCH   1   2
ATOM      2  C   UNL A   1      34.091  30.892  27.612  1.00  0.00     0.021 C 
BRANCH   2   3
ATOM      3  C   UNL A   1      33.922  29.480  26.680  1.00  0.00     0.116 C 
BRANCH   3   4
ATOM      4  N   UNL A   1      33.454  29.183  24.665  1.00  0.00    -0.355 N 
ATOM      5  C   UNL A   1      32.593  28.834  23.587  1.00  0.00     0.230 C 
ATOM      6  O   UNL A   1      33.225  28.980  22.522  1.00  0.00    -0.274 OA
ATOM      7  H   UNL A   1      34.295  29.412  24.209  1.00  0.00     0.163 HD
BRANCH   5   8
ATOM      8  C   UNL A   1      31.083  28.261  23.554  1.00  0.00     0.080 C 
ATOM      9  C   UNL A   1      30.873  27.554  22.162  1.00  0.00     0.027 C 
BRANCH   8  10
ATOM     10  C   UNL A   1      30.660  27.345  24.755  1.00  0.00     0.121 C 
BRANCH  10  11
ATOM     11  C   UNL A   1      29.841  26.097  24.493  1.00  0.00     0.225 C 
ATOM     12  N   UNL A   1      30.436  24.870  24.449  1.00  0.00    -0.326 N 
ATOM     13  H   UNL A   1      30.015  24.161  23.911  1.00  0.00     0.169 HD
ATOM     14  O   UNL A   1      28.629  26.165  24.272  1.00  0.00    -0.275 OA
BRANCH  12  15
ATOM     15  C   UNL A   1      31.613  24.576  25.134  1.00  0.00     0.045 A 
ATOM     16  C   UNL A   1      33.203  25.097  22.792  1.00  0.00     0.048 C 
ATOM     17  C   UNL A   1      33.028  24.275  24.040  1.00  0.00    -0.009 A 
ATOM     18  C   UNL A   1      34.418  23.305  24.640  1.00  0.00     0.046 A 
ATOM     19  Cl  UNL A   1      35.763  22.985  23.613  1.00  0.00    -0.084 Cl
ATOM     20  C   UNL A   1      34.362  22.527  26.266  1.00  0.00     0.021 A 
ATOM     21  C   UNL A   1      31.587  23.903  26.838  1.00  0.00     0.026 A 
ATOM     22  C   UNL A   1      32.976  22.865  27.392  1.00  0.00     0.004 A 
ENDBRANCH  12  15
ENDBRANCH  10  11
ENDBRANCH   8  10
BRANCH   8  23
ATOM     23  C   UNL A   1      29.943  29.361  23.504  1.00  0.00    -0.032 A 
ATOM     24  C   UNL A   1      28.794  29.100  22.704  1.00  0.00     0.005 A 
ATOM     25  C   UNL A   1      29.981  30.594  24.160  1.00  0.00     0.005 A 
ATOM     26  C   UNL A   1      27.827  30.067  22.450  1.00  0.00     0.000 A 
ATOM     27  C   UNL A   1      29.002  31.566  23.913  1.00  0.00     0.000 A 
ATOM     28  C   UNL A   1      27.944  31.314  23.040  1.00  0.00     0.000 A 
ENDBRANCH   8  23
ENDBRANCH   5   8
ENDBRANCH   3   4
ENDBRANCH   2   3
ENDBRANCH   1   2
BRANCH   1  29
ATOM     29  C   UNL A   1      35.870  32.692  28.071  1.00  0.00     0.002 C 
BRANCH  29  30
ATOM     30  C   UNL A   1      34.614  33.562  28.033  1.00  0.00     0.021 C 
BRANCH  30  31
ATOM     31  C   UNL A   1      34.885  34.925  28.644  1.00  0.00     0.116 C 
BRANCH  31  32
ATOM     32  N   UNL A   1      33.744  35.351  29.461  1.00  0.00    -0.352 N 
ATOM     33  C   UNL A   1      33.434  34.988  30.733  1.00  0.00     0.251 C 
ATOM     34  H   UNL A   1      33.121  35.983  29.031  1.00  0.00     0.163 HD
ATOM     35  O   UNL A   1      32.338  35.198  31.228  1.00  0.00    -0.269 OA
BRANCH  33  36
ATOM     36  C   UNL A   1      34.520  34.352  31.462  1.00  0.00     0.039 A 
ATOM     37  C   UNL A   1      34.584  32.966  31.503  1.00  0.00     0.014 A 
ATOM     38  C   UNL A   1      35.565  35.178  31.890  1.00  0.00     0.014 A 
ATOM     39  C   UNL A   1      35.738  32.391  32.007  1.00  0.00     0.010 A 
ATOM     40  C   UNL A   1      36.760  34.599  32.244  1.00  0.00     0.010 A 
ATOM     41  C   UNL A   1      36.828  33.206  32.366  1.00  0.00    -0.014 A 
BRANCH  41  42
ATOM     42  C   UNL A   1      38.025  32.619  32.978  1.00  0.00     0.031 A 
ATOM     43  C   UNL A   1      38.930  31.781  32.121  1.00  0.00     0.074 A 
ATOM     44  C   UNL A   1      38.276  32.844  34.279  1.00  0.00     0.049 A 
ATOM     45  N   UNL A   1      40.051  31.196  32.444  1.00  0.00    -0.248 NA
ATOM     46  C   UNL A   1      38.507  31.535  30.728  1.00  0.00     0.031 C 
ATOM     47  C   UNL A   1      37.419  33.611  35.190  1.00  0.00     0.029 A 
ATOM     48  N   UNL A   1      39.340  32.474  35.051  1.00  0.00    -0.354 N 
ATOM     49  C   UNL A   1      40.450  30.512  31.303  1.00  0.00     0.074 A 
ATOM     50  C   UNL A   1      39.414  30.669  30.315  1.00  0.00     0.031 C 
ATOM     51  C   UNL A   1      38.029  33.709  36.382  1.00  0.00     0.029 A 
ATOM     52  C   UNL A   1      39.286  32.972  36.329  1.00  0.00     0.049 A 
ATOM     53  H   UNL A   1      40.073  31.903  34.724  1.00  0.00     0.167 HD
ATOM     54  C   UNL A   1      41.606  29.848  31.087  1.00  0.00     0.031 A 
ATOM     55  C   UNL A   1      40.168  32.850  37.336  1.00  0.00     0.031 A 
ATOM     56  C   UNL A   1      42.629  29.718  32.084  1.00  0.00     0.049 A 
ATOM     57  C   UNL A   1      41.435  32.083  37.080  1.00  0.00     0.074 A 
ATOM     58  C   UNL A   1      43.861  29.103  31.977  1.00  0.00     0.029 A 
ATOM     59  N   UNL A   1      42.533  30.216  33.377  1.00  0.00    -0.354 N 
ATOM     60  N   UNL A   1      41.835  31.494  35.976  1.00  0.00    -0.248 NA
ATOM     61  C   UNL A   1      42.378  31.979  38.198  1.00  0.00     0.031 C 
ATOM     62  C   UNL A   1      44.479  29.164  33.230  1.00  0.00     0.029 A 
ATOM     63  C   UNL A   1      43.671  29.893  34.090  1.00  0.00     0.049 A 
ATOM     64  H   UNL A   1      41.766  30.722  33.732  1.00  0.00     0.167 HD
ATOM     65  C   UNL A   1      43.093  30.977  36.257  1.00  0.00     0.074 A 
ATOM     66  C   UNL A   1      43.391  31.342  37.629  1.00  0.00     0.031 C 
ATOM     67  C   UNL A   1      43.931  30.269  35.458  1.00  0.00     0.031 A 
BRANCH  54  68
ATOM     68  C   UNL A   1      41.798  29.214  29.735  1.00  0.00    -0.014 A 
ATOM     69  C   UNL A   1      42.391  29.918  28.670  1.00  0.00     0.010 A 
ATOM     70  C   UNL A   1      41.379  27.888  29.527  1.00  0.00     0.010 A 
ATOM     71  C   UNL A   1      42.519  29.325  27.412  1.00  0.00     0.020 A 
ATOM     72  C   UNL A   1      41.540  27.278  28.280  1.00  0.00     0.020 A 
ATOM     73  C   UNL A   1      42.095  28.007  27.227  1.00  0.00     0.054 A 
BRANCH  73  74
ATOM     74  S   UNL A   1      42.301  27.253  25.592  1.00  0.00     0.124 S 
ATOM     75  O   UNL A   1      43.598  26.593  25.725  1.00  0.00    -0.237 OA
ATOM     76  O   UNL A   1      41.148  26.360  25.506  1.00  0.00    -0.237 OA
ATOM     77  O   UNL A   1      42.274  28.392  24.678  1.00  0.00    -0.744 OA
ENDBRANCH  73  74
ENDBRANCH  54  68
BRANCH  55  78
ATOM     78  C   UNL A   1      39.889  33.486  38.651  1.00  0.00    -0.014 A 
ATOM     79  C   UNL A   1      40.327  34.793  38.926  1.00  0.00     0.010 A 
ATOM     80  C   UNL A   1      39.156  32.791  39.631  1.00  0.00     0.010 A 
ATOM     81  C   UNL A   1      40.061  35.382  40.166  1.00  0.00     0.020 A 
ATOM     82  C   UNL A   1      38.858  33.389  40.857  1.00  0.00     0.020 A 
ATOM     83  C   UNL A   1      39.324  34.678  41.121  1.00  0.00     0.054 A 
BRANCH  83  84
ATOM     84  S   UNL A   1      38.952  35.480  42.705  1.00  0.00     0.124 S 
ATOM     85  O   UNL A   1      39.371  36.855  42.453  1.00  0.00    -0.237 OA
ATOM     86  O   UNL A   1      37.513  35.269  42.832  1.00  0.00    -0.237 OA
ATOM     87  O   UNL A   1      39.772  34.741  43.663  1.00  0.00    -0.744 OA
ENDBRANCH  83  84
ENDBRANCH  55  78
BRANCH  67  88
ATOM     88  C   UNL A   1      45.266  29.882  36.036  1.00  0.00    -0.014 A 
ATOM     89  C   UNL A   1      46.319  30.807  36.135  1.00  0.00     0.010 A 
ATOM     90  C   UNL A   1      45.445  28.578  36.533  1.00  0.00     0.010 A 
ATOM     91  C   UNL A   1      47.545  30.419  36.679  1.00  0.00     0.020 A 
ATOM     92  C   UNL A   1      46.655  28.200  37.115  1.00  0.00     0.020 A 
ATOM     93  C   UNL A   1      47.703  29.119  37.166  1.00  0.00     0.054 A 
BRANCH  93  94
ATOM     94  S   UNL A   1      49.295  28.652  37.896  1.00  0.00     0.124 S 
ATOM     95  O   UNL A   1      49.598  27.410  37.192  1.00  0.00    -0.237 OA
ATOM     96  O   UNL A   1      50.145  29.791  37.558  1.00  0.00    -0.237 OA
ATOM     97  O   UNL A   1      48.995  28.506  39.319  1.00  0.00    -0.744 OA
ENDBRANCH  93  94
ENDBRANCH  67  88
ENDBRANCH  41  42
ENDBRANCH  33  36
ENDBRANCH  31  32
ENDBRANCH  30  31
ENDBRANCH  29  30
ENDBRANCH   1  29
TORSDOF 20
ENDMDL
