MODEL 1
REMARK VINA RESULT:     -10.8      0.000      0.000
REMARK SMILES CS(=O)(=O)c1ccc(/C=C(/C(=O)NCCCCCCNC(=O)c2ccc(-c3c4nc(c(-c5ccc(S(=O)(=O)[O-])cc5)c5ccc([nH]5)c(-c5ccc(S(=O)(=O)[O-])cc5)c5nc(c(-c6ccc(S(=O)(=O)[O-])cc6)c6ccc3[nH]6)C=C5)C=C4)cc2)c2ccc(-c3ccc(S(C)(=O)=O)cc3)cc2)cc1
REMARK SMILES IDX 16 1 15 2 14 3 13 4 11 5 12 6 10 8 9 9 8 10 5 11 6 12 100 13
REMARK SMILES IDX 7 14 99 15 2 16 1 17 3 18 4 19 83 20 84 21 98 22 85 23 97 24
REMARK SMILES IDX 86 25 87 26 88 27 96 28 89 29 95 30 90 31 91 32 92 33 93 34
REMARK SMILES IDX 94 35 17 36 18 37 19 38 20 39 21 40 22 42 23 43 24 44 82 45
REMARK SMILES IDX 25 46 81 47 26 48 27 49 28 50 75 51 29 52 80 53 74 54 76 55
REMARK SMILES IDX 30 56 79 57 73 58 72 59 31 61 61 62 42 63 60 64 43 65 46 66
REMARK SMILES IDX 59 67 77 68 44 69 45 70 58 72 78 73 47 74 32 75 33 76 41 77
REMARK SMILES IDX 34 78 40 79 35 80 36 81 37 82 38 83 39 84 62 85 63 86 71 87
REMARK SMILES IDX 64 88 70 89 65 90 66 91 67 92 68 93 69 94 48 95 49 96 57 97
REMARK SMILES IDX 50 98 56 99 51 100 52 101 53 102 54 103 55 104
REMARK H PARENT 13 7 20 41 76 60 46 71
REMARK Flexibility Score: inf
ROOT
ATOM      1  C   UNL A   1      32.179  28.096  27.165  1.00  0.00     0.002 C 
ENDROOT
BRANCH   1   2
ATOM      2  C   UNL A   1      31.672  27.985  25.718  1.00  0.00     0.021 C 
BRANCH   2   3
ATOM      3  C   UNL A   1      31.341  26.552  25.292  1.00  0.00     0.116 C 
BRANCH   3   4
ATOM      4  N   UNL A   1      31.344  26.461  23.845  1.00  0.00    -0.352 N 
ATOM      5  C   UNL A   1      31.812  25.556  22.951  1.00  0.00     0.251 C 
ATOM      6  O   UNL A   1      31.713  25.876  21.762  1.00  0.00    -0.269 OA
ATOM      7  H   UNL A   1      30.906  27.231  23.414  1.00  0.00     0.163 HD
BRANCH   5   8
ATOM      8  C   UNL A   1      32.338  24.188  23.328  1.00  0.00     0.047 C 
ATOM      9  C   UNL A   1      31.555  23.086  23.393  1.00  0.00     0.022 C 
BRANCH   9  10
ATOM     10  C   UNL A   1      31.938  21.674  23.628  1.00  0.00    -0.025 A 
ATOM     11  C   UNL A   1      32.780  19.006  23.889  1.00  0.00     0.067 A 
ATOM     12  C   UNL A   1      32.643  19.806  25.023  1.00  0.00     0.021 A 
ATOM     13  C   UNL A   1      32.443  19.500  22.630  1.00  0.00     0.021 A 
ATOM     14  C   UNL A   1      32.205  21.129  24.889  1.00  0.00     0.009 A 
ATOM     15  C   UNL A   1      32.028  20.831  22.506  1.00  0.00     0.009 A 
BRANCH  11  16
ATOM     16  S   UNL A   1      33.346  17.329  24.065  1.00  0.00     0.175 S 
ATOM     17  C   UNL A   1      32.351  16.693  25.389  1.00  0.00     0.163 C 
ATOM     18  O   UNL A   1      34.719  17.366  24.518  1.00  0.00    -0.224 OA
ATOM     19  O   UNL A   1      32.978  16.623  22.848  1.00  0.00    -0.224 OA
ENDBRANCH  11  16
ENDBRANCH   9  10
BRANCH   8  20
ATOM     20  C   UNL A   1      33.734  24.141  23.830  1.00  0.00    -0.013 A 
ATOM     21  C   UNL A   1      33.954  24.448  25.180  1.00  0.00     0.009 A 
ATOM     22  C   UNL A   1      34.812  23.712  23.052  1.00  0.00     0.009 A 
ATOM     23  C   UNL A   1      35.207  24.267  25.758  1.00  0.00     0.009 A 
ATOM     24  C   UNL A   1      36.069  23.512  23.643  1.00  0.00     0.009 A 
ATOM     25  C   UNL A   1      36.278  23.752  25.014  1.00  0.00    -0.018 A 
BRANCH  25  26
ATOM     26  C   UNL A   1      37.548  23.420  25.683  1.00  0.00    -0.018 A 
ATOM     27  C   UNL A   1      38.129  22.148  25.502  1.00  0.00     0.010 A 
ATOM     28  C   UNL A   1      38.224  24.344  26.498  1.00  0.00     0.010 A 
ATOM     29  C   UNL A   1      39.329  21.800  26.122  1.00  0.00     0.021 A 
ATOM     30  C   UNL A   1      39.429  24.004  27.125  1.00  0.00     0.021 A 
ATOM     31  C   UNL A   1      39.965  22.729  26.942  1.00  0.00     0.067 A 
BRANCH  31  32
ATOM     32  S   UNL A   1      41.485  22.270  27.735  1.00  0.00     0.175 S 
ATOM     33  C   UNL A   1      42.632  22.140  26.388  1.00  0.00     0.163 C 
ATOM     34  O   UNL A   1      41.887  23.387  28.569  1.00  0.00    -0.224 OA
ATOM     35  O   UNL A   1      41.313  20.944  28.296  1.00  0.00    -0.224 OA
ENDBRANCH  31  32
ENDBRANCH  25  26
ENDBRANCH   8  20
ENDBRANCH   5   8
ENDBRANCH   3   4
ENDBRANCH   2   3
ENDBRANCH   1   2
BRANCH   1  36
ATOM     36  C   UNL A   1      33.635  28.549  27.311  1.00  0.00     0.002 C 
BRANCH  36  37
ATOM     37  C   UNL A   1      33.884  30.032  27.021  1.00  0.00     0.021 C 
BRANCH  37  38
ATOM     38  C   UNL A   1      34.870  30.708  27.969  1.00  0.00     0.116 C 
BRANCH  38  39
ATOM     39  N   UNL A   1      34.878  32.150  27.801  1.00  0.00    -0.352 N 
ATOM     40  C   UNL A   1      35.590  33.100  28.488  1.00  0.00     0.251 C 
ATOM     41  H   UNL A   1      34.288  32.496  27.093  1.00  0.00     0.163 HD
ATOM     42  O   UNL A   1      35.308  34.287  28.351  1.00  0.00    -0.269 OA
BRANCH  40  43
ATOM     43  C   UNL A   1      36.685  32.700  29.400  1.00  0.00     0.039 A 
ATOM     44  C   UNL A   1      37.891  33.405  29.352  1.00  0.00     0.014 A 
ATOM     45  C   UNL A   1      36.547  31.609  30.265  1.00  0.00     0.014 A 
ATOM     46  C   UNL A   1      38.946  33.035  30.189  1.00  0.00     0.010 A 
ATOM     47  C   UNL A   1      37.579  31.279  31.142  1.00  0.00     0.010 A 
ATOM     48  C   UNL A   1      38.795  31.977  31.099  1.00  0.00    -0.014 A 
BRANCH  48  49
ATOM     49  C   UNL A   1      39.916  31.571  31.985  1.00  0.00     0.031 A 
ATOM     50  C   UNL A   1      40.067  32.193  33.347  1.00  0.00     0.074 A 
ATOM     51  C   UNL A   1      40.815  30.667  31.551  1.00  0.00     0.049 A 
ATOM     52  N   UNL A   1      40.979  31.968  34.259  1.00  0.00    -0.248 NA
ATOM     53  C   UNL A   1      39.079  33.215  33.727  1.00  0.00     0.031 C 
ATOM     54  C   UNL A   1      40.805  30.025  30.235  1.00  0.00     0.029 A 
ATOM     55  N   UNL A   1      41.913  30.130  32.175  1.00  0.00    -0.354 N 
ATOM     56  C   UNL A   1      40.685  32.831  35.310  1.00  0.00     0.074 A 
ATOM     57  C   UNL A   1      39.539  33.614  34.903  1.00  0.00     0.031 C 
ATOM     58  C   UNL A   1      41.831  29.161  30.160  1.00  0.00     0.029 A 
ATOM     59  C   UNL A   1      42.584  29.205  31.411  1.00  0.00     0.049 A 
ATOM     60  H   UNL A   1      42.193  30.383  33.083  1.00  0.00     0.167 HD
ATOM     61  C   UNL A   1      41.300  32.948  36.511  1.00  0.00     0.031 A 
ATOM     62  C   UNL A   1      43.676  28.469  31.688  1.00  0.00     0.031 A 
ATOM     63  C   UNL A   1      42.430  32.158  36.922  1.00  0.00     0.049 A 
ATOM     64  C   UNL A   1      44.322  28.593  33.040  1.00  0.00     0.074 A 
ATOM     65  C   UNL A   1      43.091  32.165  38.138  1.00  0.00     0.029 A 
ATOM     66  N   UNL A   1      43.063  31.215  36.127  1.00  0.00    -0.354 N 
ATOM     67  N   UNL A   1      43.993  29.373  34.042  1.00  0.00    -0.248 NA
ATOM     68  C   UNL A   1      45.476  27.722  33.303  1.00  0.00     0.031 C 
ATOM     69  C   UNL A   1      44.148  31.249  38.066  1.00  0.00     0.029 A 
ATOM     70  C   UNL A   1      44.115  30.640  36.822  1.00  0.00     0.049 A 
ATOM     71  H   UNL A   1      42.804  30.986  35.206  1.00  0.00     0.167 HD
ATOM     72  C   UNL A   1      44.886  29.070  35.064  1.00  0.00     0.074 A 
ATOM     73  C   UNL A   1      45.756  28.025  34.564  1.00  0.00     0.031 C 
ATOM     74  C   UNL A   1      44.977  29.608  36.306  1.00  0.00     0.031 A 
BRANCH  61  75
ATOM     75  C   UNL A   1      40.755  33.977  37.466  1.00  0.00    -0.014 A 
ATOM     76  C   UNL A   1      39.898  33.607  38.519  1.00  0.00     0.010 A 
ATOM     77  C   UNL A   1      41.117  35.329  37.321  1.00  0.00     0.010 A 
ATOM     78  C   UNL A   1      39.372  34.575  39.378  1.00  0.00     0.020 A 
ATOM     79  C   UNL A   1      40.614  36.298  38.195  1.00  0.00     0.020 A 
ATOM     80  C   UNL A   1      39.728  35.917  39.206  1.00  0.00     0.054 A 
BRANCH  80  81
ATOM     81  S   UNL A   1      39.037  37.155  40.337  1.00  0.00     0.124 S 
ATOM     82  O   UNL A   1      40.239  37.668  40.989  1.00  0.00    -0.237 OA
ATOM     83  O   UNL A   1      38.370  38.086  39.429  1.00  0.00    -0.237 OA
ATOM     84  O   UNL A   1      38.144  36.381  41.194  1.00  0.00    -0.744 OA
ENDBRANCH  80  81
ENDBRANCH  61  75
BRANCH  62  85
ATOM     85  C   UNL A   1      44.205  27.517  30.674  1.00  0.00    -0.014 A 
ATOM     86  C   UNL A   1      43.823  26.165  30.700  1.00  0.00     0.010 A 
ATOM     87  C   UNL A   1      45.077  27.965  29.666  1.00  0.00     0.010 A 
ATOM     88  C   UNL A   1      44.316  25.273  29.744  1.00  0.00     0.020 A 
ATOM     89  C   UNL A   1      45.554  27.081  28.695  1.00  0.00     0.020 A 
ATOM     90  C   UNL A   1      45.178  25.737  28.746  1.00  0.00     0.054 A 
BRANCH  90  91
ATOM     91  S   UNL A   1      45.758  24.576  27.479  1.00  0.00     0.124 S 
ATOM     92  O   UNL A   1      47.165  24.943  27.351  1.00  0.00    -0.237 OA
ATOM     93  O   UNL A   1      45.494  23.276  28.091  1.00  0.00    -0.237 OA
ATOM     94  O   UNL A   1      44.920  24.889  26.323  1.00  0.00    -0.744 OA
ENDBRANCH  90  91
ENDBRANCH  62  85
BRANCH  74  95
ATOM     95  C   UNL A   1      46.038  29.051  37.215  1.00  0.00    -0.014 A 
ATOM     96  C   UNL A   1      45.776  27.950  38.049  1.00  0.00     0.010 A 
ATOM     97  C   UNL A   1      47.321  29.627  37.218  1.00  0.00     0.010 A 
ATOM     98  C   UNL A   1      46.767  27.464  38.906  1.00  0.00     0.020 A 
ATOM     99  C   UNL A   1      48.322  29.128  38.056  1.00  0.00     0.020 A 
ATOM    100  C   UNL A   1      48.031  28.063  38.910  1.00  0.00     0.054 A 
BRANCH 100 101
ATOM    101  S   UNL A   1      49.308  27.409  40.020  1.00  0.00     0.124 S 
ATOM    102  O   UNL A   1      48.510  26.665  40.992  1.00  0.00    -0.237 OA
ATOM    103  O   UNL A   1      50.130  26.595  39.128  1.00  0.00    -0.237 OA
ATOM    104  O   UNL A   1      49.962  28.610  40.538  1.00  0.00    -0.744 OA
ENDBRANCH 100 101
ENDBRANCH  74  95
ENDBRANCH  48  49
ENDBRANCH  40  43
ENDBRANCH  38  39
ENDBRANCH  37  38
ENDBRANCH  36  37
ENDBRANCH   1  36
TORSDOF 21
ENDMDL
MODEL 2
REMARK VINA RESULT:     -10.7      4.824      6.832
REMARK SMILES CS(=O)(=O)c1ccc(/C=C(/C(=O)NCCCCCCNC(=O)c2ccc(-c3c4nc(c(-c5ccc(S(=O)(=O)[O-])cc5)c5ccc([nH]5)c(-c5ccc(S(=O)(=O)[O-])cc5)c5nc(c(-c6ccc(S(=O)(=O)[O-])cc6)c6ccc3[nH]6)C=C5)C=C4)cc2)c2ccc(-c3ccc(S(C)(=O)=O)cc3)cc2)cc1
REMARK SMILES IDX 16 1 15 2 14 3 13 4 11 5 12 6 10 8 9 9 8 10 5 11 6 12 100 13
REMARK SMILES IDX 7 14 99 15 2 16 1 17 3 18 4 19 83 20 84 21 98 22 85 23 97 24
REMARK SMILES IDX 86 25 87 26 88 27 96 28 89 29 95 30 90 31 91 32 92 33 93 34
REMARK SMILES IDX 94 35 17 36 18 37 19 38 20 39 21 40 22 42 23 43 24 44 82 45
REMARK SMILES IDX 25 46 81 47 26 48 27 49 28 50 75 51 29 52 80 53 74 54 76 55
REMARK SMILES IDX 30 56 79 57 73 58 72 59 31 61 61 62 42 63 60 64 43 65 46 66
REMARK SMILES IDX 59 67 77 68 44 69 45 70 58 72 78 73 47 74 32 75 33 76 41 77
REMARK SMILES IDX 34 78 40 79 35 80 36 81 37 82 38 83 39 84 62 85 63 86 71 87
REMARK SMILES IDX 64 88 70 89 65 90 66 91 67 92 68 93 69 94 48 95 49 96 57 97
REMARK SMILES IDX 50 98 56 99 51 100 52 101 53 102 54 103 55 104
REMARK H PARENT 13 7 20 41 76 60 46 71
REMARK Flexibility Score: inf
ROOT
ATOM      1  C   UNL A   1      31.792  28.435  26.911  1.00  0.00     0.002 C 
ENDROOT
BRANCH   1   2
ATOM      2  C   UNL A   1      31.112  28.085  25.576  1.00  0.00     0.021 C 
BRANCH   2   3
ATOM      3  C   UNL A   1      31.319  26.630  25.147  1.00  0.00     0.116 C 
BRANCH   3   4
ATOM      4  N   UNL A   1      31.429  26.559  23.703  1.00  0.00    -0.352 N 
ATOM      5  C   UNL A   1      31.944  25.656  22.832  1.00  0.00     0.251 C 
ATOM      6  O   UNL A   1      31.943  25.995  21.645  1.00  0.00    -0.269 OA
ATOM      7  H   UNL A   1      31.042  27.345  23.252  1.00  0.00     0.163 HD
BRANCH   5   8
ATOM      8  C   UNL A   1      32.411  24.272  23.227  1.00  0.00     0.047 C 
ATOM      9  C   UNL A   1      31.583  23.204  23.297  1.00  0.00     0.022 C 
BRANCH   9  10
ATOM     10  C   UNL A   1      31.905  21.780  23.549  1.00  0.00    -0.025 A 
ATOM     11  C   UNL A   1      32.632  19.080  23.841  1.00  0.00     0.067 A 
ATOM     12  C   UNL A   1      32.546  19.903  24.964  1.00  0.00     0.021 A 
ATOM     13  C   UNL A   1      32.299  19.571  22.578  1.00  0.00     0.021 A 
ATOM     14  C   UNL A   1      32.166  21.242  24.815  1.00  0.00     0.009 A 
ATOM     15  C   UNL A   1      31.943  20.917  22.439  1.00  0.00     0.009 A 
BRANCH  11  16
ATOM     16  S   UNL A   1      33.124  17.383  24.035  1.00  0.00     0.175 S 
ATOM     17  C   UNL A   1      34.831  17.498  24.504  1.00  0.00     0.163 C 
ATOM     18  O   UNL A   1      33.060  16.749  22.737  1.00  0.00    -0.224 OA
ATOM     19  O   UNL A   1      32.383  16.848  25.167  1.00  0.00    -0.224 OA
ENDBRANCH  11  16
ENDBRANCH   9  10
BRANCH   8  20
ATOM     20  C   UNL A   1      33.801  24.172  23.739  1.00  0.00    -0.013 A 
ATOM     21  C   UNL A   1      34.035  24.539  25.071  1.00  0.00     0.009 A 
ATOM     22  C   UNL A   1      34.855  23.641  22.990  1.00  0.00     0.009 A 
ATOM     23  C   UNL A   1      35.274  24.318  25.665  1.00  0.00     0.009 A 
ATOM     24  C   UNL A   1      36.097  23.402  23.598  1.00  0.00     0.009 A 
ATOM     25  C   UNL A   1      36.316  23.703  24.956  1.00  0.00    -0.018 A 
BRANCH  25  26
ATOM     26  C   UNL A   1      37.563  23.336  25.649  1.00  0.00    -0.018 A 
ATOM     27  C   UNL A   1      38.131  22.061  25.450  1.00  0.00     0.010 A 
ATOM     28  C   UNL A   1      38.230  24.228  26.505  1.00  0.00     0.010 A 
ATOM     29  C   UNL A   1      39.309  21.679  26.091  1.00  0.00     0.021 A 
ATOM     30  C   UNL A   1      39.413  23.856  27.153  1.00  0.00     0.021 A 
ATOM     31  C   UNL A   1      39.936  22.578  26.951  1.00  0.00     0.067 A 
BRANCH  31  32
ATOM     32  S   UNL A   1      41.428  22.077  27.772  1.00  0.00     0.175 S 
ATOM     33  C   UNL A   1      42.603  21.941  26.448  1.00  0.00     0.163 C 
ATOM     34  O   UNL A   1      41.834  23.173  28.630  1.00  0.00    -0.224 OA
ATOM     35  O   UNL A   1      41.216  20.747  28.310  1.00  0.00    -0.224 OA
ENDBRANCH  31  32
ENDBRANCH  25  26
ENDBRANCH   8  20
ENDBRANCH   5   8
ENDBRANCH   3   4
ENDBRANCH   2   3
ENDBRANCH   1   2
BRANCH   1  36
ATOM     36  C   UNL A   1      33.283  28.092  26.990  1.00  0.00     0.002 C 
BRANCH  36  37
ATOM     37  C   UNL A   1      34.232  29.251  26.676  1.00  0.00     0.021 C 
BRANCH  37  38
ATOM     38  C   UNL A   1      34.774  29.979  27.902  1.00  0.00     0.116 C 
BRANCH  38  39
ATOM     39  N   UNL A   1      34.051  31.211  28.162  1.00  0.00    -0.352 N 
ATOM     40  C   UNL A   1      34.449  32.319  28.866  1.00  0.00     0.251 C 
ATOM     41  H   UNL A   1      33.145  31.257  27.779  1.00  0.00     0.163 HD
ATOM     42  O   UNL A   1      33.624  33.179  29.162  1.00  0.00    -0.269 OA
BRANCH  40  43
ATOM     43  C   UNL A   1      35.862  32.476  29.279  1.00  0.00     0.039 A 
ATOM     44  C   UNL A   1      36.839  31.716  28.630  1.00  0.00     0.014 A 
ATOM     45  C   UNL A   1      36.221  33.328  30.328  1.00  0.00     0.014 A 
ATOM     46  C   UNL A   1      38.178  31.832  29.013  1.00  0.00     0.010 A 
ATOM     47  C   UNL A   1      37.564  33.487  30.669  1.00  0.00     0.010 A 
ATOM     48  C   UNL A   1      38.552  32.728  30.027  1.00  0.00    -0.014 A 
BRANCH  48  49
ATOM     49  C   UNL A   1      39.971  32.849  30.448  1.00  0.00     0.031 A 
ATOM     50  C   UNL A   1      40.574  31.833  31.381  1.00  0.00     0.074 A 
ATOM     51  C   UNL A   1      40.709  33.890  30.015  1.00  0.00     0.049 A 
ATOM     52  N   UNL A   1      41.790  31.772  31.859  1.00  0.00    -0.248 NA
ATOM     53  C   UNL A   1      39.688  30.758  31.856  1.00  0.00     0.031 C 
ATOM     54  C   UNL A   1      40.229  34.965  29.144  1.00  0.00     0.029 A 
ATOM     55  N   UNL A   1      42.022  34.211  30.249  1.00  0.00    -0.354 N 
ATOM     56  C   UNL A   1      41.812  30.667  32.703  1.00  0.00     0.074 A 
ATOM     57  C   UNL A   1      40.475  30.114  32.705  1.00  0.00     0.031 C 
ATOM     58  C   UNL A   1      41.242  35.813  28.895  1.00  0.00     0.029 A 
ATOM     59  C   UNL A   1      42.432  35.355  29.606  1.00  0.00     0.049 A 
ATOM     60  H   UNL A   1      42.614  33.674  30.823  1.00  0.00     0.167 HD
ATOM     61  C   UNL A   1      42.853  30.146  33.396  1.00  0.00     0.031 A 
ATOM     62  C   UNL A   1      43.633  35.963  29.585  1.00  0.00     0.031 A 
ATOM     63  C   UNL A   1      44.186  30.686  33.380  1.00  0.00     0.049 A 
ATOM     64  C   UNL A   1      44.781  35.349  30.337  1.00  0.00     0.074 A 
ATOM     65  C   UNL A   1      45.321  30.202  34.008  1.00  0.00     0.029 A 
ATOM     66  N   UNL A   1      44.565  31.831  32.697  1.00  0.00    -0.354 N 
ATOM     67  N   UNL A   1      44.795  34.270  31.082  1.00  0.00    -0.248 NA
ATOM     68  C   UNL A   1      46.080  36.028  30.228  1.00  0.00     0.031 C 
ATOM     69  C   UNL A   1      46.380  31.074  33.731  1.00  0.00     0.029 A 
ATOM     70  C   UNL A   1      45.914  32.076  32.895  1.00  0.00     0.049 A 
ATOM     71  H   UNL A   1      43.965  32.389  32.150  1.00  0.00     0.167 HD
ATOM     72  C   UNL A   1      46.109  34.126  31.512  1.00  0.00     0.074 A 
ATOM     73  C   UNL A   1      46.862  35.219  30.931  1.00  0.00     0.031 C 
ATOM     74  C   UNL A   1      46.645  33.174  32.316  1.00  0.00     0.031 A 
BRANCH  61  75
ATOM     75  C   UNL A   1      42.580  28.925  34.234  1.00  0.00    -0.014 A 
ATOM     76  C   UNL A   1      42.707  27.632  33.694  1.00  0.00     0.010 A 
ATOM     77  C   UNL A   1      42.209  29.069  35.584  1.00  0.00     0.010 A 
ATOM     78  C   UNL A   1      42.418  26.508  34.472  1.00  0.00     0.020 A 
ATOM     79  C   UNL A   1      41.945  27.946  36.373  1.00  0.00     0.020 A 
ATOM     80  C   UNL A   1      42.032  26.673  35.806  1.00  0.00     0.054 A 
BRANCH  80  81
ATOM     81  S   UNL A   1      41.668  25.198  36.798  1.00  0.00     0.124 S 
ATOM     82  O   UNL A   1      41.537  24.170  35.768  1.00  0.00    -0.237 OA
ATOM     83  O   UNL A   1      42.848  25.084  37.652  1.00  0.00    -0.237 OA
ATOM     84  O   UNL A   1      40.432  25.545  37.493  1.00  0.00    -0.744 OA
ENDBRANCH  80  81
ENDBRANCH  61  75
BRANCH  62  85
ATOM     85  C   UNL A   1      43.820  37.206  28.789  1.00  0.00    -0.014 A 
ATOM     86  C   UNL A   1      43.693  37.181  27.390  1.00  0.00     0.010 A 
ATOM     87  C   UNL A   1      44.104  38.425  29.432  1.00  0.00     0.010 A 
ATOM     88  C   UNL A   1      43.864  38.351  26.644  1.00  0.00     0.020 A 
ATOM     89  C   UNL A   1      44.252  39.600  28.691  1.00  0.00     0.020 A 
ATOM     90  C   UNL A   1      44.141  39.554  27.299  1.00  0.00     0.054 A 
BRANCH  90  91
ATOM     91  S   UNL A   1      44.298  41.072  26.318  1.00  0.00     0.124 S 
ATOM     92  O   UNL A   1      43.285  40.873  25.287  1.00  0.00    -0.237 OA
ATOM     93  O   UNL A   1      44.009  42.116  27.298  1.00  0.00    -0.237 OA
ATOM     94  O   UNL A   1      45.683  41.034  25.853  1.00  0.00    -0.744 OA
ENDBRANCH  90  91
ENDBRANCH  62  85
BRANCH  74  95
ATOM     95  C   UNL A   1      48.122  33.262  32.587  1.00  0.00    -0.014 A 
ATOM     96  C   UNL A   1      48.617  33.965  33.699  1.00  0.00     0.010 A 
ATOM     97  C   UNL A   1      49.026  32.613  31.726  1.00  0.00     0.010 A 
ATOM     98  C   UNL A   1      49.993  34.058  33.919  1.00  0.00     0.020 A 
ATOM     99  C   UNL A   1      50.402  32.683  31.957  1.00  0.00     0.020 A 
ATOM    100  C   UNL A   1      50.878  33.423  33.041  1.00  0.00     0.054 A 
BRANCH 100 101
ATOM    101  S   UNL A   1      52.660  33.545  33.351  1.00  0.00     0.124 S 
ATOM    102  O   UNL A   1      53.044  34.654  32.481  1.00  0.00    -0.237 OA
ATOM    103  O   UNL A   1      52.723  33.819  34.784  1.00  0.00    -0.237 OA
ATOM    104  O   UNL A   1      53.170  32.234  32.952  1.00  0.00    -0.744 OA
ENDBRANCH 100 101
ENDBRANCH  74  95
ENDBRANCH  48  49
ENDBRANCH  40  43
ENDBRANCH  38  39
ENDBRANCH  37  38
ENDBRANCH  36  37
ENDBRANCH   1  36
TORSDOF 21
ENDMDL
MODEL 3
REMARK VINA RESULT:     -10.5      2.681      7.522
REMARK SMILES CS(=O)(=O)c1ccc(/C=C(/C(=O)NCCCCCCNC(=O)c2ccc(-c3c4nc(c(-c5ccc(S(=O)(=O)[O-])cc5)c5ccc([nH]5)c(-c5ccc(S(=O)(=O)[O-])cc5)c5nc(c(-c6ccc(S(=O)(=O)[O-])cc6)c6ccc3[nH]6)C=C5)C=C4)cc2)c2ccc(-c3ccc(S(C)(=O)=O)cc3)cc2)cc1
REMARK SMILES IDX 16 1 15 2 14 3 13 4 11 5 12 6 10 8 9 9 8 10 5 11 6 12 100 13
REMARK SMILES IDX 7 14 99 15 2 16 1 17 3 18 4 19 83 20 84 21 98 22 85 23 97 24
REMARK SMILES IDX 86 25 87 26 88 27 96 28 89 29 95 30 90 31 91 32 92 33 93 34
REMARK SMILES IDX 94 35 17 36 18 37 19 38 20 39 21 40 22 42 23 43 24 44 82 45
REMARK SMILES IDX 25 46 81 47 26 48 27 49 28 50 75 51 29 52 80 53 74 54 76 55
REMARK SMILES IDX 30 56 79 57 73 58 72 59 31 61 61 62 42 63 60 64 43 65 46 66
REMARK SMILES IDX 59 67 77 68 44 69 45 70 58 72 78 73 47 74 32 75 33 76 41 77
REMARK SMILES IDX 34 78 40 79 35 80 36 81 37 82 38 83 39 84 62 85 63 86 71 87
REMARK SMILES IDX 64 88 70 89 65 90 66 91 67 92 68 93 69 94 48 95 49 96 57 97
REMARK SMILES IDX 50 98 56 99 51 100 52 101 53 102 54 103 55 104
REMARK H PARENT 13 7 20 41 76 60 46 71
REMARK Flexibility Score: inf
ROOT
ATOM      1  C   UNL A   1      32.189  27.949  27.461  1.00  0.00     0.002 C 
ENDROOT
BRANCH   1   2
ATOM      2  C   UNL A   1      31.190  27.281  26.503  1.00  0.00     0.021 C 
BRANCH   2   3
ATOM      3  C   UNL A   1      31.678  25.942  25.943  1.00  0.00     0.116 C 
BRANCH   3   4
ATOM      4  N   UNL A   1      31.557  25.944  24.499  1.00  0.00    -0.352 N 
ATOM      5  C   UNL A   1      31.981  25.121  23.508  1.00  0.00     0.251 C 
ATOM      6  O   UNL A   1      31.764  25.511  22.357  1.00  0.00    -0.269 OA
ATOM      7  H   UNL A   1      31.051  26.718  24.160  1.00  0.00     0.163 HD
BRANCH   5   8
ATOM      8  C   UNL A   1      32.595  23.758  23.746  1.00  0.00     0.047 C 
ATOM      9  C   UNL A   1      31.875  22.613  23.750  1.00  0.00     0.022 C 
BRANCH   9  10
ATOM     10  C   UNL A   1      32.342  21.209  23.848  1.00  0.00    -0.025 A 
ATOM     11  C   UNL A   1      33.155  18.548  24.242  1.00  0.00     0.067 A 
ATOM     12  C   UNL A   1      32.630  18.940  23.011  1.00  0.00     0.021 A 
ATOM     13  C   UNL A   1      33.338  19.482  25.262  1.00  0.00     0.021 A 
ATOM     14  C   UNL A   1      32.244  20.271  22.814  1.00  0.00     0.009 A 
ATOM     15  C   UNL A   1      32.926  20.805  25.062  1.00  0.00     0.009 A 
BRANCH  11  16
ATOM     16  S   UNL A   1      33.636  16.855  24.489  1.00  0.00     0.175 S 
ATOM     17  C   UNL A   1      32.330  16.196  25.493  1.00  0.00     0.163 C 
ATOM     18  O   UNL A   1      34.850  16.845  25.275  1.00  0.00    -0.224 OA
ATOM     19  O   UNL A   1      33.579  16.199  23.192  1.00  0.00    -0.224 OA
ENDBRANCH  11  16
ENDBRANCH   9  10
BRANCH   8  20
ATOM     20  C   UNL A   1      34.014  23.748  24.182  1.00  0.00    -0.013 A 
ATOM     21  C   UNL A   1      34.285  24.011  25.532  1.00  0.00     0.009 A 
ATOM     22  C   UNL A   1      35.071  23.394  23.339  1.00  0.00     0.009 A 
ATOM     23  C   UNL A   1      35.570  23.859  26.045  1.00  0.00     0.009 A 
ATOM     24  C   UNL A   1      36.361  23.222  23.864  1.00  0.00     0.009 A 
ATOM     25  C   UNL A   1      36.624  23.417  25.233  1.00  0.00    -0.018 A 
BRANCH  25  26
ATOM     26  C   UNL A   1      37.936  23.112  25.830  1.00  0.00    -0.018 A 
ATOM     27  C   UNL A   1      38.590  24.077  26.622  1.00  0.00     0.010 A 
ATOM     28  C   UNL A   1      38.565  21.869  25.651  1.00  0.00     0.010 A 
ATOM     29  C   UNL A   1      39.834  23.823  27.202  1.00  0.00     0.021 A 
ATOM     30  C   UNL A   1      39.812  21.604  26.227  1.00  0.00     0.021 A 
ATOM     31  C   UNL A   1      40.443  22.589  26.988  1.00  0.00     0.067 A 
BRANCH  31  32
ATOM     32  S   UNL A   1      42.031  22.281  27.720  1.00  0.00     0.175 S 
ATOM     33  C   UNL A   1      43.170  22.928  26.523  1.00  0.00     0.163 C 
ATOM     34  O   UNL A   1      42.116  23.096  28.917  1.00  0.00    -0.224 OA
ATOM     35  O   UNL A   1      42.224  20.846  27.780  1.00  0.00    -0.224 OA
ENDBRANCH  31  32
ENDBRANCH  25  26
ENDBRANCH   8  20
ENDBRANCH   5   8
ENDBRANCH   3   4
ENDBRANCH   2   3
ENDBRANCH   1   2
BRANCH   1  36
ATOM     36  C   UNL A   1      33.586  28.189  26.878  1.00  0.00     0.002 C 
BRANCH  36  37
ATOM     37  C   UNL A   1      33.888  29.639  26.492  1.00  0.00     0.021 C 
BRANCH  37  38
ATOM     38  C   UNL A   1      34.502  30.479  27.608  1.00  0.00     0.116 C 
BRANCH  38  39
ATOM     39  N   UNL A   1      33.895  31.796  27.689  1.00  0.00    -0.352 N 
ATOM     40  C   UNL A   1      34.109  32.795  28.603  1.00  0.00     0.251 C 
ATOM     41  H   UNL A   1      33.235  32.000  26.987  1.00  0.00     0.163 HD
ATOM     42  O   UNL A   1      33.349  33.759  28.638  1.00  0.00    -0.269 OA
BRANCH  40  43
ATOM     43  C   UNL A   1      35.242  32.712  29.552  1.00  0.00     0.039 A 
ATOM     44  C   UNL A   1      36.013  33.854  29.780  1.00  0.00     0.014 A 
ATOM     45  C   UNL A   1      35.576  31.506  30.179  1.00  0.00     0.014 A 
ATOM     46  C   UNL A   1      37.100  33.797  30.656  1.00  0.00     0.010 A 
ATOM     47  C   UNL A   1      36.622  31.465  31.099  1.00  0.00     0.010 A 
ATOM     48  C   UNL A   1      37.406  32.605  31.332  1.00  0.00    -0.014 A 
BRANCH  48  49
ATOM     49  C   UNL A   1      38.565  32.532  32.257  1.00  0.00     0.031 A 
ATOM     50  C   UNL A   1      39.962  32.412  31.711  1.00  0.00     0.074 A 
ATOM     51  C   UNL A   1      38.358  32.543  33.588  1.00  0.00     0.049 A 
ATOM     52  N   UNL A   1      41.097  32.336  32.360  1.00  0.00    -0.248 NA
ATOM     53  C   UNL A   1      40.103  32.349  30.248  1.00  0.00     0.031 C 
ATOM     54  C   UNL A   1      37.050  32.610  34.243  1.00  0.00     0.029 A 
ATOM     55  N   UNL A   1      39.250  32.499  34.631  1.00  0.00    -0.354 N 
ATOM     56  C   UNL A   1      42.081  32.197  31.386  1.00  0.00     0.074 A 
ATOM     57  C   UNL A   1      41.406  32.155  30.108  1.00  0.00     0.031 C 
ATOM     58  C   UNL A   1      37.226  32.631  35.575  1.00  0.00     0.029 A 
ATOM     59  C   UNL A   1      38.654  32.554  35.868  1.00  0.00     0.049 A 
ATOM     60  H   UNL A   1      40.223  32.434  34.503  1.00  0.00     0.167 HD
ATOM     61  C   UNL A   1      43.425  32.131  31.540  1.00  0.00     0.031 A 
ATOM     62  C   UNL A   1      39.196  32.552  37.100  1.00  0.00     0.031 A 
ATOM     63  C   UNL A   1      44.098  32.189  32.810  1.00  0.00     0.049 A 
ATOM     64  C   UNL A   1      40.692  32.509  37.244  1.00  0.00     0.074 A 
ATOM     65  C   UNL A   1      45.458  32.182  33.068  1.00  0.00     0.029 A 
ATOM     66  N   UNL A   1      43.459  32.271  34.038  1.00  0.00    -0.354 N 
ATOM     67  N   UNL A   1      41.608  32.438  36.309  1.00  0.00    -0.248 NA
ATOM     68  C   UNL A   1      41.225  32.567  38.613  1.00  0.00     0.031 C 
ATOM     69  C   UNL A   1      45.641  32.225  34.455  1.00  0.00     0.029 A 
ATOM     70  C   UNL A   1      44.396  32.304  35.058  1.00  0.00     0.049 A 
ATOM     71  H   UNL A   1      42.483  32.301  34.167  1.00  0.00     0.167 HD
ATOM     72  C   UNL A   1      42.829  32.466  36.974  1.00  0.00     0.074 A 
ATOM     73  C   UNL A   1      42.533  32.577  38.388  1.00  0.00     0.031 C 
ATOM     74  C   UNL A   1      44.083  32.406  36.461  1.00  0.00     0.031 A 
BRANCH  61  75
ATOM     75  C   UNL A   1      44.255  31.985  30.292  1.00  0.00    -0.014 A 
ATOM     76  C   UNL A   1      44.595  30.714  29.792  1.00  0.00     0.010 A 
ATOM     77  C   UNL A   1      44.686  33.131  29.599  1.00  0.00     0.010 A 
ATOM     78  C   UNL A   1      45.393  30.592  28.652  1.00  0.00     0.020 A 
ATOM     79  C   UNL A   1      45.463  33.012  28.442  1.00  0.00     0.020 A 
ATOM     80  C   UNL A   1      45.828  31.744  27.988  1.00  0.00     0.054 A 
BRANCH  80  81
ATOM     81  S   UNL A   1      46.859  31.559  26.506  1.00  0.00     0.124 S 
ATOM     82  O   UNL A   1      47.087  32.951  26.126  1.00  0.00    -0.237 OA
ATOM     83  O   UNL A   1      48.029  30.847  27.013  1.00  0.00    -0.237 OA
ATOM     84  O   UNL A   1      46.016  30.793  25.592  1.00  0.00    -0.744 OA
ENDBRANCH  80  81
ENDBRANCH  61  75
BRANCH  62  85
ATOM     85  C   UNL A   1      38.316  32.630  38.297  1.00  0.00    -0.014 A 
ATOM     86  C   UNL A   1      38.358  33.756  39.138  1.00  0.00     0.010 A 
ATOM     87  C   UNL A   1      37.418  31.588  38.588  1.00  0.00     0.010 A 
ATOM     88  C   UNL A   1      37.527  33.831  40.259  1.00  0.00     0.020 A 
ATOM     89  C   UNL A   1      36.570  31.671  39.695  1.00  0.00     0.020 A 
ATOM     90  C   UNL A   1      36.637  32.788  40.530  1.00  0.00     0.054 A 
BRANCH  90  91
ATOM     91  S   UNL A   1      35.523  32.933  41.956  1.00  0.00     0.124 S 
ATOM     92  O   UNL A   1      34.713  34.091  41.592  1.00  0.00    -0.237 OA
ATOM     93  O   UNL A   1      34.830  31.647  41.951  1.00  0.00    -0.237 OA
ATOM     94  O   UNL A   1      36.436  33.132  43.080  1.00  0.00    -0.744 OA
ENDBRANCH  90  91
ENDBRANCH  62  85
BRANCH  74  95
ATOM     95  C   UNL A   1      45.225  32.488  37.436  1.00  0.00    -0.014 A 
ATOM     96  C   UNL A   1      45.631  31.364  38.177  1.00  0.00     0.010 A 
ATOM     97  C   UNL A   1      45.914  33.703  37.598  1.00  0.00     0.010 A 
ATOM     98  C   UNL A   1      46.676  31.467  39.098  1.00  0.00     0.020 A 
ATOM     99  C   UNL A   1      46.976  33.804  38.500  1.00  0.00     0.020 A 
ATOM    100  C   UNL A   1      47.337  32.689  39.260  1.00  0.00     0.054 A 
BRANCH 100 101
ATOM    101  S   UNL A   1      48.700  32.799  40.451  1.00  0.00     0.124 S 
ATOM    102  O   UNL A   1      49.099  31.400  40.583  1.00  0.00    -0.237 OA
ATOM    103  O   UNL A   1      49.659  33.664  39.770  1.00  0.00    -0.237 OA
ATOM    104  O   UNL A   1      48.075  33.384  41.636  1.00  0.00    -0.744 OA
ENDBRANCH 100 101
ENDBRANCH  74  95
ENDBRANCH  48  49
ENDBRANCH  40  43
ENDBRANCH  38  39
ENDBRANCH  37  38
ENDBRANCH  36  37
ENDBRANCH   1  36
TORSDOF 21
ENDMDL
