MODEL 1
REMARK VINA RESULT:     -12.3      0.000      0.000
REMARK SMILES O=C(NCCCCCCNC(=O)c1ccc(-c2c3nc(c(-c4ccc(S(=O)(=O)[O-])cc4)c4ccc([nH]4)c(-c4ccc(S(=O)(=O)[O-])cc4)c4nc(c(-c5ccc(S(=O)(=O)[O-])cc5)c5ccc2[nH]5)C=C4)C=C3)cc1)C1=Cc2cc(Cl)cc(-c3ccc(O)cc3)c2O[C@@H]1C(F)(F)F
REMARK SMILES IDX 7 1 6 2 5 3 4 4 3 5 1 6 2 7 73 9 74 10 90 11 75 12 89 13
REMARK SMILES IDX 76 14 88 15 77 16 80 17 78 18 79 19 91 20 92 21 93 22 94 23
REMARK SMILES IDX 81 24 82 25 87 26 83 27 86 28 84 29 85 30 8 32 9 33 10 34
REMARK SMILES IDX 11 35 12 37 13 38 14 39 72 40 15 41 71 42 16 43 17 44 18 45
REMARK SMILES IDX 65 46 19 47 70 48 64 49 66 50 20 51 69 52 63 53 62 54 21 56
REMARK SMILES IDX 51 57 32 58 50 59 33 60 36 61 49 62 67 63 34 64 35 65 48 67
REMARK SMILES IDX 68 68 37 69 22 70 23 71 31 72 24 73 30 74 25 75 26 76 27 77
REMARK SMILES IDX 28 78 29 79 52 80 53 81 61 82 54 83 60 84 55 85 56 86 57 87
REMARK SMILES IDX 58 88 59 89 38 90 39 91 47 92 40 93 46 94 41 95 42 96 43 97
REMARK SMILES IDX 44 98 45 99
REMARK H PARENT 3 8 85 31 10 36 66 55 36 66
REMARK Flexibility Score: inf
ROOT
ATOM      1  C   UNL A   1      32.046  28.484  24.763  1.00  0.00     0.002 C 
ENDROOT
BRANCH   1   2
ATOM      2  C   UNL A   1      31.099  27.282  24.729  1.00  0.00     0.002 C 
BRANCH   2   3
ATOM      3  C   UNL A   1      30.624  26.733  26.075  1.00  0.00     0.021 C 
BRANCH   3   4
ATOM      4  C   UNL A   1      30.144  25.284  26.110  1.00  0.00     0.116 C 
BRANCH   4   5
ATOM      5  N   UNL A   1      30.909  24.381  26.951  1.00  0.00    -0.352 N 
ATOM      6  O   UNL A   1      32.690  23.216  27.662  1.00  0.00    -0.270 OA
ATOM      7  C   UNL A   1      32.148  23.837  26.746  1.00  0.00     0.251 C 
ATOM      8  H   UNL A   1      30.472  24.122  27.795  1.00  0.00     0.163 HD
BRANCH   7   9
ATOM      9  C   UNL A   1      32.921  24.025  25.477  1.00  0.00     0.067 C 
ATOM     10  C   UNL A   1      34.222  24.362  25.450  1.00  0.00     0.025 C 
ATOM     11  C   UNL A   1      32.403  23.154  24.354  1.00  0.00     0.314 C 
ATOM     12  C   UNL A   1      35.075  23.193  25.090  1.00  0.00     0.019 A 
ATOM     13  O   UNL A   1      33.158  21.914  24.288  1.00  0.00    -0.475 OA
ATOM     14  C   UNL A   1      36.417  23.233  25.483  1.00  0.00     0.032 A 
ATOM     15  C   UNL A   1      34.478  21.980  24.678  1.00  0.00     0.135 A 
ATOM     16  C   UNL A   1      37.136  22.047  25.559  1.00  0.00     0.042 A 
ATOM     17  C   UNL A   1      35.189  20.772  24.807  1.00  0.00     0.026 A 
ATOM     18  Cl  UNL A   1      38.722  22.061  26.225  1.00  0.00    -0.084 Cl
ATOM     19  C   UNL A   1      36.532  20.832  25.238  1.00  0.00     0.033 A 
BRANCH  11  20
ATOM     20  C   UNL A   1      32.364  23.900  23.007  1.00  0.00     0.429 C 
ATOM     21  F   UNL A   1      32.808  23.123  21.992  1.00  0.00    -0.167 F 
ATOM     22  F   UNL A   1      31.100  24.275  22.689  1.00  0.00    -0.167 F 
ATOM     23  F   UNL A   1      33.116  25.027  23.007  1.00  0.00    -0.167 F 
ENDBRANCH  11  20
BRANCH  17  24
ATOM     24  C   UNL A   1      34.533  19.454  24.758  1.00  0.00    -0.014 A 
ATOM     25  C   UNL A   1      35.322  18.322  24.487  1.00  0.00     0.012 A 
ATOM     26  C   UNL A   1      33.158  19.268  24.919  1.00  0.00     0.012 A 
ATOM     27  C   UNL A   1      34.771  17.053  24.333  1.00  0.00     0.047 A 
ATOM     28  C   UNL A   1      32.592  17.992  24.771  1.00  0.00     0.047 A 
ATOM     29  C   UNL A   1      33.404  16.899  24.466  1.00  0.00     0.115 A 
BRANCH  29  30
ATOM     30  O   UNL A   1      32.892  15.649  24.285  1.00  0.00    -0.508 OA
ATOM     31  H   UNL A   1      33.453  14.901  24.343  1.00  0.00     0.293 HD
ENDBRANCH  29  30
ENDBRANCH  17  24
ENDBRANCH   7   9
ENDBRANCH   4   5
ENDBRANCH   3   4
ENDBRANCH   2   3
ENDBRANCH   1   2
BRANCH   1  32
ATOM     32  C   UNL A   1      33.529  28.189  25.023  1.00  0.00     0.021 C 
BRANCH  32  33
ATOM     33  C   UNL A   1      33.988  28.292  26.469  1.00  0.00     0.116 C 
BRANCH  33  34
ATOM     34  N   UNL A   1      33.765  29.620  27.017  1.00  0.00    -0.352 N 
ATOM     35  C   UNL A   1      34.547  30.385  27.849  1.00  0.00     0.251 C 
ATOM     36  H   UNL A   1      32.916  30.040  26.750  1.00  0.00     0.163 HD
ATOM     37  O   UNL A   1      34.067  31.399  28.347  1.00  0.00    -0.269 OA
BRANCH  35  38
ATOM     38  C   UNL A   1      35.946  30.002  28.160  1.00  0.00     0.039 A 
ATOM     39  C   UNL A   1      36.242  29.512  29.436  1.00  0.00     0.014 A 
ATOM     40  C   UNL A   1      36.977  30.170  27.232  1.00  0.00     0.014 A 
ATOM     41  C   UNL A   1      37.553  29.158  29.766  1.00  0.00     0.010 A 
ATOM     42  C   UNL A   1      38.266  29.732  27.529  1.00  0.00     0.010 A 
ATOM     43  C   UNL A   1      38.573  29.241  28.806  1.00  0.00    -0.014 A 
BRANCH  43  44
ATOM     44  C   UNL A   1      39.971  28.847  29.125  1.00  0.00     0.031 A 
ATOM     45  C   UNL A   1      40.899  29.829  29.793  1.00  0.00     0.074 A 
ATOM     46  C   UNL A   1      40.420  27.630  28.765  1.00  0.00     0.049 A 
ATOM     47  N   UNL A   1      42.161  29.690  30.106  1.00  0.00    -0.248 NA
ATOM     48  C   UNL A   1      40.341  31.151  30.130  1.00  0.00     0.031 C 
ATOM     49  C   UNL A   1      39.631  26.605  28.077  1.00  0.00     0.029 A 
ATOM     50  N   UNL A   1      41.653  27.047  28.923  1.00  0.00    -0.354 N 
ATOM     51  C   UNL A   1      42.554  30.908  30.651  1.00  0.00     0.074 A 
ATOM     52  C   UNL A   1      41.410  31.790  30.578  1.00  0.00     0.031 C 
ATOM     53  C   UNL A   1      40.388  25.509  27.905  1.00  0.00     0.029 A 
ATOM     54  C   UNL A   1      41.727  25.767  28.426  1.00  0.00     0.049 A 
ATOM     55  H   UNL A   1      42.413  27.503  29.352  1.00  0.00     0.167 HD
ATOM     56  C   UNL A   1      43.749  31.255  31.185  1.00  0.00     0.031 A 
ATOM     57  C   UNL A   1      42.756  24.899  28.387  1.00  0.00     0.031 A 
ATOM     58  C   UNL A   1      44.879  30.368  31.267  1.00  0.00     0.049 A 
ATOM     59  C   UNL A   1      44.078  25.308  28.979  1.00  0.00     0.074 A 
ATOM     60  C   UNL A   1      46.116  30.599  31.842  1.00  0.00     0.029 A 
ATOM     61  N   UNL A   1      44.910  29.078  30.756  1.00  0.00    -0.354 N 
ATOM     62  N   UNL A   1      44.409  26.442  29.551  1.00  0.00    -0.248 NA
ATOM     63  C   UNL A   1      45.160  24.317  28.930  1.00  0.00     0.031 C 
ATOM     64  C   UNL A   1      46.915  29.471  31.626  1.00  0.00     0.029 A 
ATOM     65  C   UNL A   1      46.154  28.512  30.976  1.00  0.00     0.049 A 
ATOM     66  H   UNL A   1      44.158  28.631  30.302  1.00  0.00     0.167 HD
ATOM     67  C   UNL A   1      45.731  26.290  29.955  1.00  0.00     0.074 A 
ATOM     68  C   UNL A   1      46.132  24.950  29.575  1.00  0.00     0.031 C 
ATOM     69  C   UNL A   1      46.539  27.177  30.586  1.00  0.00     0.031 A 
BRANCH  56  70
ATOM     70  C   UNL A   1      43.898  32.662  31.708  1.00  0.00    -0.014 A 
ATOM     71  C   UNL A   1      43.560  32.988  33.035  1.00  0.00     0.010 A 
ATOM     72  C   UNL A   1      44.405  33.670  30.868  1.00  0.00     0.010 A 
ATOM     73  C   UNL A   1      43.675  34.302  33.495  1.00  0.00     0.020 A 
ATOM     74  C   UNL A   1      44.554  34.981  31.334  1.00  0.00     0.020 A 
ATOM     75  C   UNL A   1      44.167  35.292  32.639  1.00  0.00     0.054 A 
BRANCH  75  76
ATOM     76  S   UNL A   1      44.313  36.989  33.264  1.00  0.00     0.124 S 
ATOM     77  O   UNL A   1      43.456  36.947  34.447  1.00  0.00    -0.237 OA
ATOM     78  O   UNL A   1      45.743  37.111  33.529  1.00  0.00    -0.237 OA
ATOM     79  O   UNL A   1      43.813  37.809  32.163  1.00  0.00    -0.744 OA
ENDBRANCH  75  76
ENDBRANCH  56  70
BRANCH  57  80
ATOM     80  C   UNL A   1      42.565  23.549  27.789  1.00  0.00    -0.014 A 
ATOM     81  C   UNL A   1      42.955  23.296  26.462  1.00  0.00     0.010 A 
ATOM     82  C   UNL A   1      42.019  22.501  28.553  1.00  0.00     0.010 A 
ATOM     83  C   UNL A   1      42.791  22.023  25.906  1.00  0.00     0.020 A 
ATOM     84  C   UNL A   1      41.881  21.220  28.010  1.00  0.00     0.020 A 
ATOM     85  C   UNL A   1      42.261  20.992  26.686  1.00  0.00     0.054 A 
BRANCH  85  86
ATOM     86  S   UNL A   1      42.118  19.334  25.963  1.00  0.00     0.124 S 
ATOM     87  O   UNL A   1      40.681  19.223  25.734  1.00  0.00    -0.237 OA
ATOM     88  O   UNL A   1      42.944  19.441  24.762  1.00  0.00    -0.237 OA
ATOM     89  O   UNL A   1      42.655  18.459  27.003  1.00  0.00    -0.744 OA
ENDBRANCH  85  86
ENDBRANCH  57  80
BRANCH  69  90
ATOM     90  C   UNL A   1      47.930  26.722  30.936  1.00  0.00    -0.014 A 
ATOM     91  C   UNL A   1      49.027  27.019  30.108  1.00  0.00     0.010 A 
ATOM     92  C   UNL A   1      48.149  26.031  32.143  1.00  0.00     0.010 A 
ATOM     93  C   UNL A   1      50.314  26.608  30.468  1.00  0.00     0.020 A 
ATOM     94  C   UNL A   1      49.437  25.645  32.519  1.00  0.00     0.020 A 
ATOM     95  C   UNL A   1      50.511  25.924  31.672  1.00  0.00     0.054 A 
BRANCH  95  96
ATOM     96  S   UNL A   1      52.196  25.441  32.134  1.00  0.00     0.124 S 
ATOM     97  O   UNL A   1      52.956  25.808  30.943  1.00  0.00    -0.237 OA
ATOM     98  O   UNL A   1      52.450  26.259  33.318  1.00  0.00    -0.237 OA
ATOM     99  O   UNL A   1      52.088  24.006  32.388  1.00  0.00    -0.744 OA
ENDBRANCH  95  96
ENDBRANCH  69  90
ENDBRANCH  43  44
ENDBRANCH  35  38
ENDBRANCH  33  34
ENDBRANCH  32  33
ENDBRANCH   1  32
TORSDOF 19
ENDMDL
MODEL 2
REMARK VINA RESULT:     -11.7      3.029      9.531
REMARK SMILES O=C(NCCCCCCNC(=O)c1ccc(-c2c3nc(c(-c4ccc(S(=O)(=O)[O-])cc4)c4ccc([nH]4)c(-c4ccc(S(=O)(=O)[O-])cc4)c4nc(c(-c5ccc(S(=O)(=O)[O-])cc5)c5ccc2[nH]5)C=C4)C=C3)cc1)C1=Cc2cc(Cl)cc(-c3ccc(O)cc3)c2O[C@@H]1C(F)(F)F
REMARK SMILES IDX 7 1 6 2 5 3 4 4 3 5 1 6 2 7 73 9 74 10 90 11 75 12 89 13
REMARK SMILES IDX 76 14 88 15 77 16 80 17 78 18 79 19 91 20 92 21 93 22 94 23
REMARK SMILES IDX 81 24 82 25 87 26 83 27 86 28 84 29 85 30 8 32 9 33 10 34
REMARK SMILES IDX 11 35 12 37 13 38 14 39 72 40 15 41 71 42 16 43 17 44 18 45
REMARK SMILES IDX 65 46 19 47 70 48 64 49 66 50 20 51 69 52 63 53 62 54 21 56
REMARK SMILES IDX 51 57 32 58 50 59 33 60 36 61 49 62 67 63 34 64 35 65 48 67
REMARK SMILES IDX 68 68 37 69 22 70 23 71 31 72 24 73 30 74 25 75 26 76 27 77
REMARK SMILES IDX 28 78 29 79 52 80 53 81 61 82 54 83 60 84 55 85 56 86 57 87
REMARK SMILES IDX 58 88 59 89 38 90 39 91 47 92 40 93 46 94 41 95 42 96 43 97
REMARK SMILES IDX 44 98 45 99
REMARK H PARENT 3 8 85 31 10 36 66 55 36 66
REMARK Flexibility Score: inf
ROOT
ATOM      1  C   UNL A   1      35.180  21.486  26.254  1.00  0.00     0.002 C 
ENDROOT
BRANCH   1   2
ATOM      2  C   UNL A   1      34.531  20.960  24.972  1.00  0.00     0.002 C 
BRANCH   2   3
ATOM      3  C   UNL A   1      33.304  20.061  25.131  1.00  0.00     0.021 C 
BRANCH   3   4
ATOM      4  C   UNL A   1      31.933  20.709  24.949  1.00  0.00     0.116 C 
BRANCH   4   5
ATOM      5  N   UNL A   1      31.609  21.781  25.871  1.00  0.00    -0.352 N 
ATOM      6  O   UNL A   1      31.029  23.845  26.531  1.00  0.00    -0.270 OA
ATOM      7  C   UNL A   1      31.465  23.122  25.635  1.00  0.00     0.251 C 
ATOM      8  H   UNL A   1      31.470  21.504  26.806  1.00  0.00     0.163 HD
BRANCH   7   9
ATOM      9  C   UNL A   1      31.742  23.749  24.303  1.00  0.00     0.067 C 
ATOM     10  C   UNL A   1      30.775  24.194  23.483  1.00  0.00     0.025 C 
ATOM     11  C   UNL A   1      33.069  24.474  24.275  1.00  0.00     0.314 C 
ATOM     12  C   UNL A   1      30.699  25.683  23.496  1.00  0.00     0.019 A 
ATOM     13  O   UNL A   1      32.880  25.884  24.573  1.00  0.00    -0.475 OA
ATOM     14  C   UNL A   1      29.489  26.268  23.109  1.00  0.00     0.032 A 
ATOM     15  C   UNL A   1      31.680  26.437  24.180  1.00  0.00     0.135 A 
ATOM     16  C   UNL A   1      29.215  27.575  23.490  1.00  0.00     0.042 A 
ATOM     17  C   UNL A   1      31.381  27.742  24.613  1.00  0.00     0.026 A 
ATOM     18  Cl  UNL A   1      27.656  28.235  23.188  1.00  0.00    -0.084 Cl
ATOM     19  C   UNL A   1      30.140  28.300  24.241  1.00  0.00     0.033 A 
BRANCH  11  20
ATOM     20  C   UNL A   1      33.833  24.242  22.958  1.00  0.00     0.429 C 
ATOM     21  F   UNL A   1      34.000  25.394  22.266  1.00  0.00    -0.167 F 
ATOM     22  F   UNL A   1      35.073  23.743  23.190  1.00  0.00    -0.167 F 
ATOM     23  F   UNL A   1      33.209  23.367  22.133  1.00  0.00    -0.167 F 
ENDBRANCH  11  20
BRANCH  17  24
ATOM     24  C   UNL A   1      32.182  28.444  25.631  1.00  0.00    -0.014 A 
ATOM     25  C   UNL A   1      31.830  29.763  25.967  1.00  0.00     0.012 A 
ATOM     26  C   UNL A   1      33.305  27.891  26.249  1.00  0.00     0.012 A 
ATOM     27  C   UNL A   1      32.584  30.532  26.850  1.00  0.00     0.047 A 
ATOM     28  C   UNL A   1      34.070  28.654  27.146  1.00  0.00     0.047 A 
ATOM     29  C   UNL A   1      33.709  29.972  27.427  1.00  0.00     0.115 A 
BRANCH  29  30
ATOM     30  O   UNL A   1      34.441  30.757  28.267  1.00  0.00    -0.508 OA
ATOM     31  H   UNL A   1      34.267  31.676  28.318  1.00  0.00     0.293 HD
ENDBRANCH  29  30
ENDBRANCH  17  24
ENDBRANCH   7   9
ENDBRANCH   4   5
ENDBRANCH   3   4
ENDBRANCH   2   3
ENDBRANCH   1   2
BRANCH   1  32
ATOM     32  C   UNL A   1      35.221  23.009  26.434  1.00  0.00     0.021 C 
BRANCH  32  33
ATOM     33  C   UNL A   1      36.501  23.701  25.989  1.00  0.00     0.116 C 
BRANCH  33  34
ATOM     34  N   UNL A   1      37.642  22.802  26.013  1.00  0.00    -0.352 N 
ATOM     35  C   UNL A   1      38.958  23.038  26.330  1.00  0.00     0.251 C 
ATOM     36  H   UNL A   1      37.440  21.872  25.760  1.00  0.00     0.163 HD
ATOM     37  O   UNL A   1      39.792  22.170  26.087  1.00  0.00    -0.269 OA
BRANCH  35  38
ATOM     38  C   UNL A   1      39.385  24.318  26.946  1.00  0.00     0.039 A 
ATOM     39  C   UNL A   1      39.063  24.560  28.286  1.00  0.00     0.014 A 
ATOM     40  C   UNL A   1      40.047  25.303  26.209  1.00  0.00     0.014 A 
ATOM     41  C   UNL A   1      39.437  25.763  28.891  1.00  0.00     0.010 A 
ATOM     42  C   UNL A   1      40.499  26.463  26.836  1.00  0.00     0.010 A 
ATOM     43  C   UNL A   1      40.181  26.716  28.177  1.00  0.00    -0.014 A 
BRANCH  43  44
ATOM     44  C   UNL A   1      40.610  27.993  28.806  1.00  0.00     0.031 A 
ATOM     45  C   UNL A   1      42.004  28.129  29.363  1.00  0.00     0.074 A 
ATOM     46  C   UNL A   1      39.732  29.007  28.925  1.00  0.00     0.049 A 
ATOM     47  N   UNL A   1      42.546  29.140  29.991  1.00  0.00    -0.248 NA
ATOM     48  C   UNL A   1      42.896  26.965  29.220  1.00  0.00     0.031 C 
ATOM     49  C   UNL A   1      38.343  28.983  28.462  1.00  0.00     0.029 A 
ATOM     50  N   UNL A   1      39.875  30.255  29.478  1.00  0.00    -0.354 N 
ATOM     51  C   UNL A   1      43.829  28.728  30.337  1.00  0.00     0.074 A 
ATOM     52  C   UNL A   1      43.964  27.357  29.896  1.00  0.00     0.031 C 
ATOM     53  C   UNL A   1      37.773  30.173  28.717  1.00  0.00     0.029 A 
ATOM     54  C   UNL A   1      38.739  31.026  29.402  1.00  0.00     0.049 A 
ATOM     55  H   UNL A   1      40.713  30.569  29.889  1.00  0.00     0.167 HD
ATOM     56  C   UNL A   1      44.813  29.431  30.946  1.00  0.00     0.031 A 
ATOM     57  C   UNL A   1      38.497  32.277  29.840  1.00  0.00     0.031 A 
ATOM     58  C   UNL A   1      44.676  30.800  31.370  1.00  0.00     0.049 A 
ATOM     59  C   UNL A   1      39.603  33.038  30.521  1.00  0.00     0.074 A 
ATOM     60  C   UNL A   1      45.630  31.624  31.942  1.00  0.00     0.029 A 
ATOM     61  N   UNL A   1      43.510  31.546  31.270  1.00  0.00    -0.354 N 
ATOM     62  N   UNL A   1      40.830  32.654  30.778  1.00  0.00    -0.248 NA
ATOM     63  C   UNL A   1      39.292  34.405  30.959  1.00  0.00     0.031 C 
ATOM     64  C   UNL A   1      45.024  32.849  32.242  1.00  0.00     0.029 A 
ATOM     65  C   UNL A   1      43.711  32.811  31.797  1.00  0.00     0.049 A 
ATOM     66  H   UNL A   1      42.664  31.223  30.884  1.00  0.00     0.167 HD
ATOM     67  C   UNL A   1      41.448  33.742  31.385  1.00  0.00     0.074 A 
ATOM     68  C   UNL A   1      40.463  34.803  31.441  1.00  0.00     0.031 C 
ATOM     69  C   UNL A   1      42.717  33.854  31.849  1.00  0.00     0.031 A 
BRANCH  56  70
ATOM     70  C   UNL A   1      46.121  28.725  31.202  1.00  0.00    -0.014 A 
ATOM     71  C   UNL A   1      47.173  28.773  30.269  1.00  0.00     0.010 A 
ATOM     72  C   UNL A   1      46.310  28.020  32.405  1.00  0.00     0.010 A 
ATOM     73  C   UNL A   1      48.367  28.088  30.509  1.00  0.00     0.020 A 
ATOM     74  C   UNL A   1      47.516  27.359  32.665  1.00  0.00     0.020 A 
ATOM     75  C   UNL A   1      48.528  27.380  31.704  1.00  0.00     0.054 A 
BRANCH  75  76
ATOM     76  S   UNL A   1      50.091  26.505  31.992  1.00  0.00     0.124 S 
ATOM     77  O   UNL A   1      49.670  25.108  31.923  1.00  0.00    -0.237 OA
ATOM     78  O   UNL A   1      50.924  26.966  30.885  1.00  0.00    -0.237 OA
ATOM     79  O   UNL A   1      50.507  26.964  33.315  1.00  0.00    -0.744 OA
ENDBRANCH  75  76
ENDBRANCH  56  70
BRANCH  57  80
ATOM     80  C   UNL A   1      37.159  32.893  29.621  1.00  0.00    -0.014 A 
ATOM     81  C   UNL A   1      36.163  32.803  30.609  1.00  0.00     0.010 A 
ATOM     82  C   UNL A   1      36.884  33.598  28.435  1.00  0.00     0.010 A 
ATOM     83  C   UNL A   1      34.912  33.396  30.410  1.00  0.00     0.020 A 
ATOM     84  C   UNL A   1      35.645  34.218  28.246  1.00  0.00     0.020 A 
ATOM     85  C   UNL A   1      34.664  34.105  29.232  1.00  0.00     0.054 A 
BRANCH  85  86
ATOM     86  S   UNL A   1      33.056  34.921  29.025  1.00  0.00     0.124 S 
ATOM     87  O   UNL A   1      32.513  34.872  30.378  1.00  0.00    -0.237 OA
ATOM     88  O   UNL A   1      33.436  36.247  28.542  1.00  0.00    -0.237 OA
ATOM     89  O   UNL A   1      32.371  34.083  28.044  1.00  0.00    -0.744 OA
ENDBRANCH  85  86
ENDBRANCH  57  80
BRANCH  69  90
ATOM     90  C   UNL A   1      43.127  35.180  32.434  1.00  0.00    -0.014 A 
ATOM     91  C   UNL A   1      43.882  36.105  31.691  1.00  0.00     0.010 A 
ATOM     92  C   UNL A   1      42.702  35.525  33.730  1.00  0.00     0.010 A 
ATOM     93  C   UNL A   1      44.228  37.340  32.246  1.00  0.00     0.020 A 
ATOM     94  C   UNL A   1      43.020  36.770  34.276  1.00  0.00     0.020 A 
ATOM     95  C   UNL A   1      43.794  37.665  33.535  1.00  0.00     0.054 A 
BRANCH  95  96
ATOM     96  S   UNL A   1      44.220  39.291  34.214  1.00  0.00     0.124 S 
ATOM     97  O   UNL A   1      42.998  40.052  33.972  1.00  0.00    -0.237 OA
ATOM     98  O   UNL A   1      44.506  38.989  35.615  1.00  0.00    -0.237 OA
ATOM     99  O   UNL A   1      45.378  39.704  33.424  1.00  0.00    -0.744 OA
ENDBRANCH  95  96
ENDBRANCH  69  90
ENDBRANCH  43  44
ENDBRANCH  35  38
ENDBRANCH  33  34
ENDBRANCH  32  33
ENDBRANCH   1  32
TORSDOF 19
ENDMDL
MODEL 3
REMARK VINA RESULT:     -11.5      4.691     10.587
REMARK SMILES O=C(NCCCCCCNC(=O)c1ccc(-c2c3nc(c(-c4ccc(S(=O)(=O)[O-])cc4)c4ccc([nH]4)c(-c4ccc(S(=O)(=O)[O-])cc4)c4nc(c(-c5ccc(S(=O)(=O)[O-])cc5)c5ccc2[nH]5)C=C4)C=C3)cc1)C1=Cc2cc(Cl)cc(-c3ccc(O)cc3)c2O[C@@H]1C(F)(F)F
REMARK SMILES IDX 7 1 6 2 5 3 4 4 3 5 1 6 2 7 73 9 74 10 90 11 75 12 89 13
REMARK SMILES IDX 76 14 88 15 77 16 80 17 78 18 79 19 91 20 92 21 93 22 94 23
REMARK SMILES IDX 81 24 82 25 87 26 83 27 86 28 84 29 85 30 8 32 9 33 10 34
REMARK SMILES IDX 11 35 12 37 13 38 14 39 72 40 15 41 71 42 16 43 17 44 18 45
REMARK SMILES IDX 65 46 19 47 70 48 64 49 66 50 20 51 69 52 63 53 62 54 21 56
REMARK SMILES IDX 51 57 32 58 50 59 33 60 36 61 49 62 67 63 34 64 35 65 48 67
REMARK SMILES IDX 68 68 37 69 22 70 23 71 31 72 24 73 30 74 25 75 26 76 27 77
REMARK SMILES IDX 28 78 29 79 52 80 53 81 61 82 54 83 60 84 55 85 56 86 57 87
REMARK SMILES IDX 58 88 59 89 38 90 39 91 47 92 40 93 46 94 41 95 42 96 43 97
REMARK SMILES IDX 44 98 45 99
REMARK H PARENT 3 8 85 31 10 36 66 55 36 66
REMARK Flexibility Score: inf
ROOT
ATOM      1  C   UNL A   1      35.823  22.989  26.217  1.00  0.00     0.002 C 
ENDROOT
BRANCH   1   2
ATOM      2  C   UNL A   1      35.090  21.843  25.514  1.00  0.00     0.002 C 
BRANCH   2   3
ATOM      3  C   UNL A   1      34.915  21.955  23.999  1.00  0.00     0.021 C 
BRANCH   3   4
ATOM      4  C   UNL A   1      33.680  22.693  23.489  1.00  0.00     0.116 C 
BRANCH   4   5
ATOM      5  N   UNL A   1      33.909  24.025  22.959  1.00  0.00    -0.352 N 
ATOM      6  O   UNL A   1      34.105  26.259  22.977  1.00  0.00    -0.270 OA
ATOM      7  C   UNL A   1      33.694  25.245  23.541  1.00  0.00     0.251 C 
ATOM      8  H   UNL A   1      34.274  24.056  22.044  1.00  0.00     0.163 HD
BRANCH   7   9
ATOM      9  C   UNL A   1      33.043  25.406  24.881  1.00  0.00     0.067 C 
ATOM     10  C   UNL A   1      33.620  26.056  25.906  1.00  0.00     0.025 C 
ATOM     11  C   UNL A   1      31.535  25.453  24.784  1.00  0.00     0.314 C 
ATOM     12  C   UNL A   1      33.000  27.396  26.113  1.00  0.00     0.019 A 
ATOM     13  O   UNL A   1      31.076  26.830  24.722  1.00  0.00    -0.475 OA
ATOM     14  C   UNL A   1      33.764  28.361  26.777  1.00  0.00     0.032 A 
ATOM     15  C   UNL A   1      31.846  27.763  25.385  1.00  0.00     0.135 A 
ATOM     16  C   UNL A   1      33.435  29.703  26.632  1.00  0.00     0.042 A 
ATOM     17  C   UNL A   1      31.543  29.124  25.194  1.00  0.00     0.026 A 
ATOM     18  Cl  UNL A   1      34.480  30.905  27.281  1.00  0.00    -0.084 Cl
ATOM     19  C   UNL A   1      32.349  30.083  25.844  1.00  0.00     0.033 A 
BRANCH  11  20
ATOM     20  C   UNL A   1      30.853  24.650  25.908  1.00  0.00     0.429 C 
ATOM     21  F   UNL A   1      30.773  23.333  25.605  1.00  0.00    -0.167 F 
ATOM     22  F   UNL A   1      31.549  24.742  27.069  1.00  0.00    -0.167 F 
ATOM     23  F   UNL A   1      29.595  25.077  26.174  1.00  0.00    -0.167 F 
ENDBRANCH  11  20
BRANCH  17  24
ATOM     24  C   UNL A   1      30.601  29.592  24.162  1.00  0.00    -0.014 A 
ATOM     25  C   UNL A   1      29.860  30.760  24.412  1.00  0.00     0.012 A 
ATOM     26  C   UNL A   1      30.365  28.913  22.965  1.00  0.00     0.012 A 
ATOM     27  C   UNL A   1      28.883  31.222  23.534  1.00  0.00     0.047 A 
ATOM     28  C   UNL A   1      29.386  29.373  22.070  1.00  0.00     0.047 A 
ATOM     29  C   UNL A   1      28.646  30.516  22.370  1.00  0.00     0.115 A 
BRANCH  29  30
ATOM     30  O   UNL A   1      27.667  30.980  21.543  1.00  0.00    -0.508 OA
ATOM     31  H   UNL A   1      26.772  30.757  21.708  1.00  0.00     0.293 HD
ENDBRANCH  29  30
ENDBRANCH  17  24
ENDBRANCH   7   9
ENDBRANCH   4   5
ENDBRANCH   3   4
ENDBRANCH   2   3
ENDBRANCH   1   2
BRANCH   1  32
ATOM     32  C   UNL A   1      37.107  23.499  25.550  1.00  0.00     0.021 C 
BRANCH  32  33
ATOM     33  C   UNL A   1      38.013  24.363  26.415  1.00  0.00     0.116 C 
BRANCH  33  34
ATOM     34  N   UNL A   1      39.419  24.141  26.121  1.00  0.00    -0.352 N 
ATOM     35  C   UNL A   1      40.538  24.808  26.558  1.00  0.00     0.251 C 
ATOM     36  H   UNL A   1      39.599  23.392  25.508  1.00  0.00     0.163 HD
ATOM     37  O   UNL A   1      41.616  24.573  26.020  1.00  0.00    -0.269 OA
BRANCH  35  38
ATOM     38  C   UNL A   1      40.462  25.806  27.653  1.00  0.00     0.039 A 
ATOM     39  C   UNL A   1      41.407  26.837  27.689  1.00  0.00     0.014 A 
ATOM     40  C   UNL A   1      39.512  25.709  28.672  1.00  0.00     0.014 A 
ATOM     41  C   UNL A   1      41.374  27.784  28.717  1.00  0.00     0.010 A 
ATOM     42  C   UNL A   1      39.421  26.702  29.644  1.00  0.00     0.010 A 
ATOM     43  C   UNL A   1      40.363  27.739  29.691  1.00  0.00    -0.014 A 
BRANCH  43  44
ATOM     44  C   UNL A   1      40.292  28.748  30.780  1.00  0.00     0.031 A 
ATOM     45  C   UNL A   1      41.205  28.638  31.973  1.00  0.00     0.074 A 
ATOM     46  C   UNL A   1      39.371  29.729  30.721  1.00  0.00     0.049 A 
ATOM     47  N   UNL A   1      41.259  29.389  33.043  1.00  0.00    -0.248 NA
ATOM     48  C   UNL A   1      42.165  27.521  31.978  1.00  0.00     0.031 C 
ATOM     49  C   UNL A   1      38.403  29.920  29.638  1.00  0.00     0.029 A 
ATOM     50  N   UNL A   1      39.093  30.750  31.596  1.00  0.00    -0.354 N 
ATOM     51  C   UNL A   1      42.237  28.823  33.855  1.00  0.00     0.074 A 
ATOM     52  C   UNL A   1      42.713  27.637  33.177  1.00  0.00     0.031 C 
ATOM     53  C   UNL A   1      37.664  31.011  29.895  1.00  0.00     0.029 A 
ATOM     54  C   UNL A   1      38.071  31.571  31.180  1.00  0.00     0.049 A 
ATOM     55  H   UNL A   1      39.580  30.883  32.441  1.00  0.00     0.167 HD
ATOM     56  C   UNL A   1      42.713  29.261  35.045  1.00  0.00     0.031 A 
ATOM     57  C   UNL A   1      37.517  32.649  31.768  1.00  0.00     0.031 A 
ATOM     58  C   UNL A   1      42.244  30.450  35.707  1.00  0.00     0.049 A 
ATOM     59  C   UNL A   1      38.056  33.114  33.094  1.00  0.00     0.074 A 
ATOM     60  C   UNL A   1      42.700  31.015  36.885  1.00  0.00     0.029 A 
ATOM     61  N   UNL A   1      41.211  31.255  35.250  1.00  0.00    -0.354 N 
ATOM     62  N   UNL A   1      39.028  32.604  33.813  1.00  0.00    -0.248 NA
ATOM     63  C   UNL A   1      37.431  34.307  33.680  1.00  0.00     0.031 C 
ATOM     64  C   UNL A   1      41.903  32.129  37.171  1.00  0.00     0.029 A 
ATOM     65  C   UNL A   1      40.994  32.296  36.136  1.00  0.00     0.049 A 
ATOM     66  H   UNL A   1      40.705  31.107  34.418  1.00  0.00     0.167 HD
ATOM     67  C   UNL A   1      39.149  33.430  34.925  1.00  0.00     0.074 A 
ATOM     68  C   UNL A   1      38.162  34.481  34.774  1.00  0.00     0.031 C 
ATOM     69  C   UNL A   1      40.003  33.331  35.974  1.00  0.00     0.031 A 
BRANCH  56  70
ATOM     70  C   UNL A   1      43.787  28.439  35.712  1.00  0.00    -0.014 A 
ATOM     71  C   UNL A   1      43.464  27.388  36.590  1.00  0.00     0.010 A 
ATOM     72  C   UNL A   1      45.142  28.707  35.441  1.00  0.00     0.010 A 
ATOM     73  C   UNL A   1      44.472  26.656  37.223  1.00  0.00     0.020 A 
ATOM     74  C   UNL A   1      46.154  27.955  36.047  1.00  0.00     0.020 A 
ATOM     75  C   UNL A   1      45.811  26.949  36.952  1.00  0.00     0.054 A 
BRANCH  75  76
ATOM     76  S   UNL A   1      47.099  25.978  37.783  1.00  0.00     0.124 S 
ATOM     77  O   UNL A   1      46.764  26.179  39.191  1.00  0.00    -0.237 OA
ATOM     78  O   UNL A   1      46.868  24.632  37.268  1.00  0.00    -0.237 OA
ATOM     79  O   UNL A   1      48.344  26.605  37.345  1.00  0.00    -0.744 OA
ENDBRANCH  75  76
ENDBRANCH  56  70
BRANCH  57  80
ATOM     80  C   UNL A   1      36.407  33.375  31.091  1.00  0.00    -0.014 A 
ATOM     81  C   UNL A   1      35.194  33.609  31.761  1.00  0.00     0.010 A 
ATOM     82  C   UNL A   1      36.569  33.861  29.780  1.00  0.00     0.010 A 
ATOM     83  C   UNL A   1      34.159  34.305  31.130  1.00  0.00     0.020 A 
ATOM     84  C   UNL A   1      35.547  34.583  29.157  1.00  0.00     0.020 A 
ATOM     85  C   UNL A   1      34.344  34.793  29.834  1.00  0.00     0.054 A 
BRANCH  85  86
ATOM     86  S   UNL A   1      33.010  35.749  29.060  1.00  0.00     0.124 S 
ATOM     87  O   UNL A   1      32.374  34.751  28.208  1.00  0.00    -0.237 OA
ATOM     88  O   UNL A   1      32.227  36.188  30.214  1.00  0.00    -0.237 OA
ATOM     89  O   UNL A   1      33.717  36.816  28.356  1.00  0.00    -0.744 OA
ENDBRANCH  85  86
ENDBRANCH  57  80
BRANCH  69  90
ATOM     90  C   UNL A   1      39.932  34.401  37.030  1.00  0.00    -0.014 A 
ATOM     91  C   UNL A   1      40.668  35.594  36.914  1.00  0.00     0.010 A 
ATOM     92  C   UNL A   1      39.071  34.231  38.130  1.00  0.00     0.010 A 
ATOM     93  C   UNL A   1      40.565  36.584  37.895  1.00  0.00     0.020 A 
ATOM     94  C   UNL A   1      38.943  35.231  39.096  1.00  0.00     0.020 A 
ATOM     95  C   UNL A   1      39.702  36.397  38.979  1.00  0.00     0.054 A 
BRANCH  95  96
ATOM     96  S   UNL A   1      39.555  37.716  40.214  1.00  0.00     0.124 S 
ATOM     97  O   UNL A   1      40.622  38.629  39.814  1.00  0.00    -0.237 OA
ATOM     98  O   UNL A   1      38.195  38.206  39.999  1.00  0.00    -0.237 OA
ATOM     99  O   UNL A   1      39.768  37.027  41.485  1.00  0.00    -0.744 OA
ENDBRANCH  95  96
ENDBRANCH  69  90
ENDBRANCH  43  44
ENDBRANCH  35  38
ENDBRANCH  33  34
ENDBRANCH  32  33
ENDBRANCH   1  32
TORSDOF 19
ENDMDL
