MODEL 1
REMARK VINA RESULT:     -10.6      0.000      0.000
REMARK SMILES C[C@H]1CCCC[C@H]1NS(=O)(=O)c1ccc(C(=O)NCCCCCCNC(=O)c2ccc(-c3c4nc(c(-c5ccc(S(=O)(=O)[O-])cc5)c5ccc([nH]5)c(-c5ccc(S(=O)(=O)[O-])cc5)c5nc(c(-c6ccc(S(=O)(=O)[O-])cc6)c6ccc3[nH]6)C=C5)C=C4)cc2)cc1F
REMARK SMILES IDX 21 1 20 2 19 3 18 4 16 5 17 6 15 8 12 9 13 10 89 11 14 12
REMARK SMILES IDX 88 13 90 14 9 15 10 16 11 17 8 18 7 20 1 21 2 22 3 23 4 24
REMARK SMILES IDX 6 25 5 26 22 27 23 28 24 29 25 30 26 31 27 33 28 34 29 35
REMARK SMILES IDX 87 36 30 37 86 38 31 39 32 40 33 41 80 42 34 43 85 44 79 45
REMARK SMILES IDX 81 46 35 47 84 48 78 49 77 50 36 52 66 53 47 54 65 55 48 56
REMARK SMILES IDX 51 57 64 58 82 59 49 60 50 61 63 63 83 64 52 65 37 66 38 67
REMARK SMILES IDX 46 68 39 69 45 70 40 71 41 72 42 73 43 74 44 75 67 76 68 77
REMARK SMILES IDX 76 78 69 79 75 80 70 81 71 82 72 83 73 84 74 85 53 86 54 87
REMARK SMILES IDX 62 88 55 89 61 90 56 91 57 92 58 93 59 94 60 95
REMARK H PARENT 18 7 8 19 25 32 81 51 51 62
REMARK Flexibility Score: inf
ROOT
ATOM      1  C   UNL A   1      33.308  27.445  23.996  1.00  0.00     0.002 C 
ENDROOT
BRANCH   1   2
ATOM      2  C   UNL A   1      32.201  28.499  23.855  1.00  0.00     0.021 C 
BRANCH   2   3
ATOM      3  C   UNL A   1      31.383  28.346  22.571  1.00  0.00     0.116 C 
BRANCH   3   4
ATOM      4  N   UNL A   1      29.972  28.232  22.892  1.00  0.00    -0.352 N 
ATOM      5  C   UNL A   1      29.221  27.246  23.472  1.00  0.00     0.251 C 
ATOM      6  O   UNL A   1      28.008  27.447  23.571  1.00  0.00    -0.269 OA
ATOM      7  H   UNL A   1      29.449  29.029  22.642  1.00  0.00     0.163 HD
BRANCH   5   8
ATOM      8  C   UNL A   1      29.785  25.991  24.050  1.00  0.00     0.042 A 
ATOM      9  C   UNL A   1      31.025  23.823  25.341  1.00  0.00     0.118 A 
ATOM     10  C   UNL A   1      30.467  24.846  26.101  1.00  0.00     0.026 A 
ATOM     11  C   UNL A   1      30.868  23.830  23.961  1.00  0.00     0.144 A 
ATOM     12  C   UNL A   1      29.874  25.934  25.452  1.00  0.00     0.015 A 
ATOM     13  C   UNL A   1      30.221  24.885  23.320  1.00  0.00     0.054 A 
ATOM     14  F   UNL A   1      31.333  22.824  23.209  1.00  0.00    -0.205 F 
BRANCH   9  15
ATOM     15  S   UNL A   1      32.006  22.542  26.034  1.00  0.00     0.243 S 
ATOM     16  O   UNL A   1      31.508  21.275  25.550  1.00  0.00    -0.207 OA
ATOM     17  O   UNL A   1      32.134  22.825  27.445  1.00  0.00    -0.207 OA
BRANCH  15  18
ATOM     18  N   UNL A   1      33.554  22.749  25.429  1.00  0.00    -0.208 NA
ATOM     19  H   UNL A   1      33.591  23.720  25.123  1.00  0.00     0.141 HD
BRANCH  18  20
ATOM     20  C   UNL A   1      34.177  21.979  24.339  1.00  0.00     0.072 C 
ATOM     21  C   UNL A   1      34.333  24.171  23.001  1.00  0.00     0.009 C 
ATOM     22  C   UNL A   1      35.078  22.930  23.504  1.00  0.00     0.004 C 
ATOM     23  C   UNL A   1      36.348  23.337  24.274  1.00  0.00     0.005 C 
ATOM     24  C   UNL A   1      37.120  22.122  24.784  1.00  0.00     0.000 C 
ATOM     25  C   UNL A   1      34.997  20.777  24.809  1.00  0.00     0.020 C 
ATOM     26  C   UNL A   1      36.237  21.182  25.596  1.00  0.00     0.002 C 
ENDBRANCH  18  20
ENDBRANCH  15  18
ENDBRANCH   9  15
ENDBRANCH   5   8
ENDBRANCH   3   4
ENDBRANCH   2   3
ENDBRANCH   1   2
BRANCH   1  27
ATOM     27  C   UNL A   1      33.492  26.889  25.414  1.00  0.00     0.002 C 
BRANCH  27  28
ATOM     28  C   UNL A   1      33.468  27.939  26.531  1.00  0.00     0.021 C 
BRANCH  28  29
ATOM     29  C   UNL A   1      34.635  28.922  26.498  1.00  0.00     0.116 C 
BRANCH  29  30
ATOM     30  N   UNL A   1      34.225  30.253  26.919  1.00  0.00    -0.352 N 
ATOM     31  C   UNL A   1      34.702  31.019  27.952  1.00  0.00     0.251 C 
ATOM     32  H   UNL A   1      33.503  30.660  26.388  1.00  0.00     0.163 HD
ATOM     33  O   UNL A   1      34.085  32.016  28.314  1.00  0.00    -0.269 OA
BRANCH  31  34
ATOM     34  C   UNL A   1      35.956  30.633  28.634  1.00  0.00     0.039 A 
ATOM     35  C   UNL A   1      35.905  29.704  29.676  1.00  0.00     0.014 A 
ATOM     36  C   UNL A   1      37.176  31.205  28.260  1.00  0.00     0.014 A 
ATOM     37  C   UNL A   1      37.086  29.308  30.309  1.00  0.00     0.010 A 
ATOM     38  C   UNL A   1      38.357  30.768  28.852  1.00  0.00     0.010 A 
ATOM     39  C   UNL A   1      38.324  29.819  29.886  1.00  0.00    -0.014 A 
BRANCH  39  40
ATOM     40  C   UNL A   1      39.595  29.378  30.513  1.00  0.00     0.031 A 
ATOM     41  C   UNL A   1      40.122  30.091  31.729  1.00  0.00     0.074 A 
ATOM     42  C   UNL A   1      40.304  28.379  29.953  1.00  0.00     0.049 A 
ATOM     43  N   UNL A   1      41.247  29.905  32.370  1.00  0.00    -0.248 NA
ATOM     44  C   UNL A   1      39.287  31.169  32.283  1.00  0.00     0.031 C 
ATOM     45  C   UNL A   1      39.916  27.631  28.754  1.00  0.00     0.029 A 
ATOM     46  N   UNL A   1      41.508  27.826  30.311  1.00  0.00    -0.354 N 
ATOM     47  C   UNL A   1      41.263  30.849  33.390  1.00  0.00     0.074 A 
ATOM     48  C   UNL A   1      40.055  31.634  33.259  1.00  0.00     0.031 C 
ATOM     49  C   UNL A   1      40.854  26.707  28.489  1.00  0.00     0.029 A 
ATOM     50  C   UNL A   1      41.925  26.819  29.473  1.00  0.00     0.049 A 
ATOM     51  H   UNL A   1      42.024  28.123  31.095  1.00  0.00     0.167 HD
ATOM     52  C   UNL A   1      42.190  31.034  34.361  1.00  0.00     0.031 A 
ATOM     53  C   UNL A   1      43.048  26.075  29.489  1.00  0.00     0.031 A 
ATOM     54  C   UNL A   1      43.383  30.242  34.499  1.00  0.00     0.049 A 
ATOM     55  C   UNL A   1      44.065  26.305  30.573  1.00  0.00     0.074 A 
ATOM     56  C   UNL A   1      44.360  30.322  35.476  1.00  0.00     0.029 A 
ATOM     57  N   UNL A   1      43.759  29.222  33.639  1.00  0.00    -0.354 N 
ATOM     58  N   UNL A   1      44.037  27.171  31.559  1.00  0.00    -0.248 NA
ATOM     59  C   UNL A   1      45.261  25.451  30.553  1.00  0.00     0.031 C 
ATOM     60  C   UNL A   1      45.348  29.376  35.184  1.00  0.00     0.029 A 
ATOM     61  C   UNL A   1      44.961  28.674  34.053  1.00  0.00     0.049 A 
ATOM     62  H   UNL A   1      43.247  28.930  32.851  1.00  0.00     0.167 HD
ATOM     63  C   UNL A   1      45.198  26.948  32.290  1.00  0.00     0.074 A 
ATOM     64  C   UNL A   1      45.899  25.858  31.642  1.00  0.00     0.031 C 
ATOM     65  C   UNL A   1      45.642  27.587  33.399  1.00  0.00     0.031 A 
BRANCH  52  66
ATOM     66  C   UNL A   1      41.947  32.138  35.353  1.00  0.00    -0.014 A 
ATOM     67  C   UNL A   1      41.242  31.896  36.547  1.00  0.00     0.010 A 
ATOM     68  C   UNL A   1      42.468  33.424  35.116  1.00  0.00     0.010 A 
ATOM     69  C   UNL A   1      41.032  32.925  37.466  1.00  0.00     0.020 A 
ATOM     70  C   UNL A   1      42.282  34.450  36.046  1.00  0.00     0.020 A 
ATOM     71  C   UNL A   1      41.551  34.198  37.209  1.00  0.00     0.054 A 
BRANCH  71  72
ATOM     72  S   UNL A   1      41.288  35.509  38.435  1.00  0.00     0.124 S 
ATOM     73  O   UNL A   1      42.126  35.057  39.543  1.00  0.00    -0.237 OA
ATOM     74  O   UNL A   1      41.762  36.702  37.737  1.00  0.00    -0.237 OA
ATOM     75  O   UNL A   1      39.849  35.468  38.684  1.00  0.00    -0.744 OA
ENDBRANCH  71  72
ENDBRANCH  52  66
BRANCH  53  76
ATOM     76  C   UNL A   1      43.267  25.033  28.450  1.00  0.00    -0.014 A 
ATOM     77  C   UNL A   1      43.930  25.352  27.252  1.00  0.00     0.010 A 
ATOM     78  C   UNL A   1      42.814  23.717  28.653  1.00  0.00     0.010 A 
ATOM     79  C   UNL A   1      44.117  24.380  26.266  1.00  0.00     0.020 A 
ATOM     80  C   UNL A   1      43.022  22.736  27.679  1.00  0.00     0.020 A 
ATOM     81  C   UNL A   1      43.660  23.078  26.485  1.00  0.00     0.054 A 
BRANCH  81  82
ATOM     82  S   UNL A   1      43.948  21.820  25.210  1.00  0.00     0.124 S 
ATOM     83  O   UNL A   1      43.780  22.589  23.982  1.00  0.00    -0.237 OA
ATOM     84  O   UNL A   1      45.311  21.380  25.500  1.00  0.00    -0.237 OA
ATOM     85  O   UNL A   1      42.912  20.824  25.474  1.00  0.00    -0.744 OA
ENDBRANCH  81  82
ENDBRANCH  53  76
BRANCH  65  86
ATOM     86  C   UNL A   1      46.932  27.104  34.006  1.00  0.00    -0.014 A 
ATOM     87  C   UNL A   1      48.165  27.667  33.634  1.00  0.00     0.010 A 
ATOM     88  C   UNL A   1      46.900  26.112  35.003  1.00  0.00     0.010 A 
ATOM     89  C   UNL A   1      49.349  27.225  34.230  1.00  0.00     0.020 A 
ATOM     90  C   UNL A   1      48.078  25.685  35.619  1.00  0.00     0.020 A 
ATOM     91  C   UNL A   1      49.298  26.236  35.219  1.00  0.00     0.054 A 
BRANCH  91  92
ATOM     92  S   UNL A   1      50.843  25.714  36.014  1.00  0.00     0.124 S 
ATOM     93  O   UNL A   1      50.799  24.265  35.840  1.00  0.00    -0.237 OA
ATOM     94  O   UNL A   1      51.860  26.412  35.232  1.00  0.00    -0.237 OA
ATOM     95  O   UNL A   1      50.697  26.180  37.392  1.00  0.00    -0.744 OA
ENDBRANCH  91  92
ENDBRANCH  65  86
ENDBRANCH  39  40
ENDBRANCH  31  34
ENDBRANCH  29  30
ENDBRANCH  28  29
ENDBRANCH  27  28
ENDBRANCH   1  27
TORSDOF 19
ENDMDL
MODEL 2
REMARK VINA RESULT:     -10.5      2.343      2.850
REMARK SMILES C[C@H]1CCCC[C@H]1NS(=O)(=O)c1ccc(C(=O)NCCCCCCNC(=O)c2ccc(-c3c4nc(c(-c5ccc(S(=O)(=O)[O-])cc5)c5ccc([nH]5)c(-c5ccc(S(=O)(=O)[O-])cc5)c5nc(c(-c6ccc(S(=O)(=O)[O-])cc6)c6ccc3[nH]6)C=C5)C=C4)cc2)cc1F
REMARK SMILES IDX 21 1 20 2 19 3 18 4 16 5 17 6 15 8 12 9 13 10 89 11 14 12
REMARK SMILES IDX 88 13 90 14 9 15 10 16 11 17 8 18 7 20 1 21 2 22 3 23 4 24
REMARK SMILES IDX 6 25 5 26 22 27 23 28 24 29 25 30 26 31 27 33 28 34 29 35
REMARK SMILES IDX 87 36 30 37 86 38 31 39 32 40 33 41 80 42 34 43 85 44 79 45
REMARK SMILES IDX 81 46 35 47 84 48 78 49 77 50 36 52 66 53 47 54 65 55 48 56
REMARK SMILES IDX 51 57 64 58 82 59 49 60 50 61 63 63 83 64 52 65 37 66 38 67
REMARK SMILES IDX 46 68 39 69 45 70 40 71 41 72 42 73 43 74 44 75 67 76 68 77
REMARK SMILES IDX 76 78 69 79 75 80 70 81 71 82 72 83 73 84 74 85 53 86 54 87
REMARK SMILES IDX 62 88 55 89 61 90 56 91 57 92 58 93 59 94 60 95
REMARK H PARENT 18 7 8 19 25 32 81 51 51 62
REMARK Flexibility Score: inf
ROOT
ATOM      1  C   UNL A   1      34.002  27.206  24.156  1.00  0.00     0.002 C 
ENDROOT
BRANCH   1   2
ATOM      2  C   UNL A   1      33.246  28.481  23.759  1.00  0.00     0.021 C 
BRANCH   2   3
ATOM      3  C   UNL A   1      32.821  28.499  22.289  1.00  0.00     0.116 C 
BRANCH   3   4
ATOM      4  N   UNL A   1      31.389  28.714  22.189  1.00  0.00    -0.352 N 
ATOM      5  C   UNL A   1      30.303  27.976  22.574  1.00  0.00     0.251 C 
ATOM      6  O   UNL A   1      29.189  28.431  22.302  1.00  0.00    -0.269 OA
ATOM      7  H   UNL A   1      31.152  29.566  21.755  1.00  0.00     0.163 HD
BRANCH   5   8
ATOM      8  C   UNL A   1      30.384  26.708  23.356  1.00  0.00     0.042 A 
ATOM      9  C   UNL A   1      30.659  24.504  25.080  1.00  0.00     0.118 A 
ATOM     10  C   UNL A   1      30.053  25.667  25.545  1.00  0.00     0.026 A 
ATOM     11  C   UNL A   1      31.021  24.407  23.743  1.00  0.00     0.144 A 
ATOM     12  C   UNL A   1      29.942  26.768  24.691  1.00  0.00     0.015 A 
ATOM     13  C   UNL A   1      30.852  25.485  22.876  1.00  0.00     0.054 A 
ATOM     14  F   UNL A   1      31.542  23.276  23.250  1.00  0.00    -0.205 F 
BRANCH   9  15
ATOM     15  S   UNL A   1      31.073  23.157  26.127  1.00  0.00     0.243 S 
ATOM     16  O   UNL A   1      30.216  22.042  25.796  1.00  0.00    -0.207 OA
ATOM     17  O   UNL A   1      31.165  23.680  27.471  1.00  0.00    -0.207 OA
BRANCH  15  18
ATOM     18  N   UNL A   1      32.646  22.724  25.744  1.00  0.00    -0.208 NA
ATOM     19  H   UNL A   1      32.576  22.230  24.856  1.00  0.00     0.141 HD
BRANCH  18  20
ATOM     20  C   UNL A   1      33.553  21.907  26.567  1.00  0.00     0.072 C 
ATOM     21  C   UNL A   1      33.065  19.936  24.987  1.00  0.00     0.009 C 
ATOM     22  C   UNL A   1      34.143  20.770  25.687  1.00  0.00     0.004 C 
ATOM     23  C   UNL A   1      35.159  21.308  24.663  1.00  0.00     0.005 C 
ATOM     24  C   UNL A   1      36.253  22.140  25.329  1.00  0.00     0.000 C 
ATOM     25  C   UNL A   1      34.691  22.695  27.218  1.00  0.00     0.020 C 
ATOM     26  C   UNL A   1      35.679  23.251  26.201  1.00  0.00     0.002 C 
ENDBRANCH  18  20
ENDBRANCH  15  18
ENDBRANCH   9  15
ENDBRANCH   5   8
ENDBRANCH   3   4
ENDBRANCH   2   3
ENDBRANCH   1   2
BRANCH   1  27
ATOM     27  C   UNL A   1      33.603  26.615  25.514  1.00  0.00     0.002 C 
BRANCH  27  28
ATOM     28  C   UNL A   1      32.861  27.578  26.448  1.00  0.00     0.021 C 
BRANCH  28  29
ATOM     29  C   UNL A   1      33.753  28.278  27.470  1.00  0.00     0.116 C 
BRANCH  29  30
ATOM     30  N   UNL A   1      33.552  29.719  27.457  1.00  0.00    -0.352 N 
ATOM     31  C   UNL A   1      34.372  30.711  27.934  1.00  0.00     0.251 C 
ATOM     32  H   UNL A   1      32.710  30.025  27.049  1.00  0.00     0.163 HD
ATOM     33  O   UNL A   1      33.945  31.855  28.055  1.00  0.00    -0.269 OA
BRANCH  31  34
ATOM     34  C   UNL A   1      35.767  30.394  28.309  1.00  0.00     0.039 A 
ATOM     35  C   UNL A   1      36.033  29.919  29.595  1.00  0.00     0.014 A 
ATOM     36  C   UNL A   1      36.811  30.588  27.400  1.00  0.00     0.014 A 
ATOM     37  C   UNL A   1      37.343  29.588  29.953  1.00  0.00     0.010 A 
ATOM     38  C   UNL A   1      38.105  30.204  27.738  1.00  0.00     0.010 A 
ATOM     39  C   UNL A   1      38.385  29.704  29.020  1.00  0.00    -0.014 A 
BRANCH  39  40
ATOM     40  C   UNL A   1      39.776  29.315  29.364  1.00  0.00     0.031 A 
ATOM     41  C   UNL A   1      40.697  30.309  30.017  1.00  0.00     0.074 A 
ATOM     42  C   UNL A   1      40.227  28.089  29.032  1.00  0.00     0.049 A 
ATOM     43  N   UNL A   1      41.962  30.183  30.322  1.00  0.00    -0.248 NA
ATOM     44  C   UNL A   1      40.127  31.625  30.351  1.00  0.00     0.031 C 
ATOM     45  C   UNL A   1      39.441  27.047  28.366  1.00  0.00     0.029 A 
ATOM     46  N   UNL A   1      41.461  27.515  29.200  1.00  0.00    -0.354 N 
ATOM     47  C   UNL A   1      42.345  31.403  30.867  1.00  0.00     0.074 A 
ATOM     48  C   UNL A   1      41.189  32.271  30.814  1.00  0.00     0.031 C 
ATOM     49  C   UNL A   1      40.207  25.958  28.199  1.00  0.00     0.029 A 
ATOM     50  C   UNL A   1      41.546  26.232  28.712  1.00  0.00     0.049 A 
ATOM     51  H   UNL A   1      42.216  27.978  29.630  1.00  0.00     0.167 HD
ATOM     52  C   UNL A   1      43.545  31.763  31.383  1.00  0.00     0.031 A 
ATOM     53  C   UNL A   1      42.585  25.376  28.673  1.00  0.00     0.031 A 
ATOM     54  C   UNL A   1      44.689  30.894  31.449  1.00  0.00     0.049 A 
ATOM     55  C   UNL A   1      43.909  25.804  29.245  1.00  0.00     0.074 A 
ATOM     56  C   UNL A   1      45.935  31.151  31.994  1.00  0.00     0.029 A 
ATOM     57  N   UNL A   1      44.727  29.597  30.958  1.00  0.00    -0.354 N 
ATOM     58  N   UNL A   1      44.235  26.946  29.802  1.00  0.00    -0.248 NA
ATOM     59  C   UNL A   1      45.002  24.822  29.193  1.00  0.00     0.031 C 
ATOM     60  C   UNL A   1      46.739  30.023  31.798  1.00  0.00     0.029 A 
ATOM     61  C   UNL A   1      45.978  29.047  31.174  1.00  0.00     0.049 A 
ATOM     62  H   UNL A   1      43.975  29.137  30.521  1.00  0.00     0.167 HD
ATOM     63  C   UNL A   1      45.563  26.810  30.189  1.00  0.00     0.074 A 
ATOM     64  C   UNL A   1      45.975  25.472  29.816  1.00  0.00     0.031 C 
ATOM     65  C   UNL A   1      46.369  27.712  30.801  1.00  0.00     0.031 A 
BRANCH  52  66
ATOM     66  C   UNL A   1      43.679  33.162  31.920  1.00  0.00    -0.014 A 
ATOM     67  C   UNL A   1      43.400  33.449  33.269  1.00  0.00     0.010 A 
ATOM     68  C   UNL A   1      44.135  34.196  31.082  1.00  0.00     0.010 A 
ATOM     69  C   UNL A   1      43.539  34.748  33.761  1.00  0.00     0.020 A 
ATOM     70  C   UNL A   1      44.300  35.493  31.577  1.00  0.00     0.020 A 
ATOM     71  C   UNL A   1      43.985  35.764  32.910  1.00  0.00     0.054 A 
BRANCH  71  72
ATOM     72  S   UNL A   1      44.185  37.437  33.583  1.00  0.00     0.124 S 
ATOM     73  O   UNL A   1      45.614  37.470  33.887  1.00  0.00    -0.237 OA
ATOM     74  O   UNL A   1      43.761  38.284  32.470  1.00  0.00    -0.237 OA
ATOM     75  O   UNL A   1      43.300  37.451  34.744  1.00  0.00    -0.744 OA
ENDBRANCH  71  72
ENDBRANCH  52  66
BRANCH  53  76
ATOM     76  C   UNL A   1      42.415  24.023  28.078  1.00  0.00    -0.014 A 
ATOM     77  C   UNL A   1      42.758  23.788  26.735  1.00  0.00     0.010 A 
ATOM     78  C   UNL A   1      41.909  22.963  28.852  1.00  0.00     0.010 A 
ATOM     79  C   UNL A   1      42.578  22.523  26.169  1.00  0.00     0.020 A 
ATOM     80  C   UNL A   1      41.752  21.690  28.296  1.00  0.00     0.020 A 
ATOM     81  C   UNL A   1      42.073  21.482  26.953  1.00  0.00     0.054 A 
BRANCH  81  82
ATOM     82  S   UNL A   1      41.886  19.837  26.211  1.00  0.00     0.124 S 
ATOM     83  O   UNL A   1      42.719  19.946  25.018  1.00  0.00    -0.237 OA
ATOM     84  O   UNL A   1      42.393  18.956  27.260  1.00  0.00    -0.237 OA
ATOM     85  O   UNL A   1      40.449  19.736  25.967  1.00  0.00    -0.744 OA
ENDBRANCH  81  82
ENDBRANCH  53  76
BRANCH  65  86
ATOM     86  C   UNL A   1      47.769  27.274  31.136  1.00  0.00    -0.014 A 
ATOM     87  C   UNL A   1      48.038  26.524  32.294  1.00  0.00     0.010 A 
ATOM     88  C   UNL A   1      48.819  27.572  30.249  1.00  0.00     0.010 A 
ATOM     89  C   UNL A   1      49.340  26.101  32.573  1.00  0.00     0.020 A 
ATOM     90  C   UNL A   1      50.118  27.131  30.512  1.00  0.00     0.020 A 
ATOM     91  C   UNL A   1      50.373  26.408  31.679  1.00  0.00     0.054 A 
BRANCH  91  92
ATOM     92  S   UNL A   1      52.046  25.806  32.037  1.00  0.00     0.124 S 
ATOM     93  O   UNL A   1      51.783  24.463  32.545  1.00  0.00    -0.237 OA
ATOM     94  O   UNL A   1      52.697  25.869  30.731  1.00  0.00    -0.237 OA
ATOM     95  O   UNL A   1      52.552  26.758  33.024  1.00  0.00    -0.744 OA
ENDBRANCH  91  92
ENDBRANCH  65  86
ENDBRANCH  39  40
ENDBRANCH  31  34
ENDBRANCH  29  30
ENDBRANCH  28  29
ENDBRANCH  27  28
ENDBRANCH   1  27
TORSDOF 19
ENDMDL
MODEL 3
REMARK VINA RESULT:     -10.3      0.577      8.040
REMARK SMILES C[C@H]1CCCC[C@H]1NS(=O)(=O)c1ccc(C(=O)NCCCCCCNC(=O)c2ccc(-c3c4nc(c(-c5ccc(S(=O)(=O)[O-])cc5)c5ccc([nH]5)c(-c5ccc(S(=O)(=O)[O-])cc5)c5nc(c(-c6ccc(S(=O)(=O)[O-])cc6)c6ccc3[nH]6)C=C5)C=C4)cc2)cc1F
REMARK SMILES IDX 21 1 20 2 19 3 18 4 16 5 17 6 15 8 12 9 13 10 89 11 14 12
REMARK SMILES IDX 88 13 90 14 9 15 10 16 11 17 8 18 7 20 1 21 2 22 3 23 4 24
REMARK SMILES IDX 6 25 5 26 22 27 23 28 24 29 25 30 26 31 27 33 28 34 29 35
REMARK SMILES IDX 87 36 30 37 86 38 31 39 32 40 33 41 80 42 34 43 85 44 79 45
REMARK SMILES IDX 81 46 35 47 84 48 78 49 77 50 36 52 66 53 47 54 65 55 48 56
REMARK SMILES IDX 51 57 64 58 82 59 49 60 50 61 63 63 83 64 52 65 37 66 38 67
REMARK SMILES IDX 46 68 39 69 45 70 40 71 41 72 42 73 43 74 44 75 67 76 68 77
REMARK SMILES IDX 76 78 69 79 75 80 70 81 71 82 72 83 73 84 74 85 53 86 54 87
REMARK SMILES IDX 62 88 55 89 61 90 56 91 57 92 58 93 59 94 60 95
REMARK H PARENT 18 7 8 19 25 32 81 51 51 62
REMARK Flexibility Score: inf
ROOT
ATOM      1  C   UNL A   1      33.760  28.095  23.497  1.00  0.00     0.002 C 
ENDROOT
BRANCH   1   2
ATOM      2  C   UNL A   1      32.533  28.856  22.974  1.00  0.00     0.021 C 
BRANCH   2   3
ATOM      3  C   UNL A   1      31.607  27.989  22.117  1.00  0.00     0.116 C 
BRANCH   3   4
ATOM      4  N   UNL A   1      30.248  28.066  22.623  1.00  0.00    -0.352 N 
ATOM      5  C   UNL A   1      29.485  27.224  23.384  1.00  0.00     0.251 C 
ATOM      6  O   UNL A   1      28.323  27.571  23.614  1.00  0.00    -0.269 OA
ATOM      7  H   UNL A   1      29.782  28.895  22.366  1.00  0.00     0.163 HD
BRANCH   5   8
ATOM      8  C   UNL A   1      29.988  25.962  24.003  1.00  0.00     0.042 A 
ATOM      9  C   UNL A   1      31.134  23.781  25.355  1.00  0.00     0.118 A 
ATOM     10  C   UNL A   1      30.676  24.875  26.083  1.00  0.00     0.026 A 
ATOM     11  C   UNL A   1      30.920  23.731  23.984  1.00  0.00     0.144 A 
ATOM     12  C   UNL A   1      30.130  25.968  25.402  1.00  0.00     0.015 A 
ATOM     13  C   UNL A   1      30.319  24.796  23.314  1.00  0.00     0.054 A 
ATOM     14  F   UNL A   1      31.287  22.661  23.267  1.00  0.00    -0.205 F 
BRANCH   9  15
ATOM     15  S   UNL A   1      32.055  22.471  26.076  1.00  0.00     0.243 S 
ATOM     16  O   UNL A   1      31.530  21.219  25.581  1.00  0.00    -0.207 OA
ATOM     17  O   UNL A   1      32.156  22.754  27.489  1.00  0.00    -0.207 OA
BRANCH  15  18
ATOM     18  N   UNL A   1      33.624  22.627  25.511  1.00  0.00    -0.208 NA
ATOM     19  H   UNL A   1      33.718  23.611  25.259  1.00  0.00     0.141 HD
BRANCH  18  20
ATOM     20  C   UNL A   1      34.228  21.886  24.391  1.00  0.00     0.072 C 
ATOM     21  C   UNL A   1      34.271  24.093  23.070  1.00  0.00     0.009 C 
ATOM     22  C   UNL A   1      35.070  22.870  23.533  1.00  0.00     0.004 C 
ATOM     23  C   UNL A   1      36.355  23.307  24.259  1.00  0.00     0.005 C 
ATOM     24  C   UNL A   1      37.180  22.110  24.729  1.00  0.00     0.000 C 
ATOM     25  C   UNL A   1      35.099  20.704  24.819  1.00  0.00     0.020 C 
ATOM     26  C   UNL A   1      36.356  21.138  25.564  1.00  0.00     0.002 C 
ENDBRANCH  18  20
ENDBRANCH  15  18
ENDBRANCH   9  15
ENDBRANCH   5   8
ENDBRANCH   3   4
ENDBRANCH   2   3
ENDBRANCH   1   2
BRANCH   1  27
ATOM     27  C   UNL A   1      33.473  27.128  24.653  1.00  0.00     0.002 C 
BRANCH  27  28
ATOM     28  C   UNL A   1      33.409  27.775  26.041  1.00  0.00     0.021 C 
BRANCH  28  29
ATOM     29  C   UNL A   1      34.546  28.750  26.337  1.00  0.00     0.116 C 
BRANCH  29  30
ATOM     30  N   UNL A   1      34.043  30.074  26.667  1.00  0.00    -0.352 N 
ATOM     31  C   UNL A   1      34.450  30.931  27.659  1.00  0.00     0.251 C 
ATOM     32  H   UNL A   1      33.308  30.401  26.100  1.00  0.00     0.163 HD
ATOM     33  O   UNL A   1      33.763  31.906  27.947  1.00  0.00    -0.269 OA
BRANCH  31  34
ATOM     34  C   UNL A   1      35.712  30.670  28.384  1.00  0.00     0.039 A 
ATOM     35  C   UNL A   1      35.745  29.657  29.345  1.00  0.00     0.014 A 
ATOM     36  C   UNL A   1      36.852  31.438  28.131  1.00  0.00     0.014 A 
ATOM     37  C   UNL A   1      36.939  29.380  30.018  1.00  0.00     0.010 A 
ATOM     38  C   UNL A   1      38.053  31.123  28.758  1.00  0.00     0.010 A 
ATOM     39  C   UNL A   1      38.108  30.094  29.711  1.00  0.00    -0.014 A 
BRANCH  39  40
ATOM     40  C   UNL A   1      39.397  29.786  30.379  1.00  0.00     0.031 A 
ATOM     41  C   UNL A   1      40.274  28.682  29.854  1.00  0.00     0.074 A 
ATOM     42  C   UNL A   1      39.749  30.458  31.494  1.00  0.00     0.049 A 
ATOM     43  N   UNL A   1      41.393  28.215  30.343  1.00  0.00    -0.248 NA
ATOM     44  C   UNL A   1      39.822  27.999  28.630  1.00  0.00     0.031 C 
ATOM     45  C   UNL A   1      38.968  31.528  32.121  1.00  0.00     0.029 A 
ATOM     46  N   UNL A   1      40.848  30.333  32.304  1.00  0.00    -0.354 N 
ATOM     47  C   UNL A   1      41.771  27.175  29.502  1.00  0.00     0.074 A 
ATOM     48  C   UNL A   1      40.741  27.053  28.492  1.00  0.00     0.031 C 
ATOM     49  C   UNL A   1      39.623  31.971  33.206  1.00  0.00     0.029 A 
ATOM     50  C   UNL A   1      40.849  31.197  33.373  1.00  0.00     0.049 A 
ATOM     51  H   UNL A   1      41.570  29.685  32.136  1.00  0.00     0.167 HD
ATOM     52  C   UNL A   1      42.884  26.404  29.551  1.00  0.00     0.031 A 
ATOM     53  C   UNL A   1      41.731  31.345  34.380  1.00  0.00     0.031 A 
ATOM     54  C   UNL A   1      43.914  26.537  30.547  1.00  0.00     0.049 A 
ATOM     55  C   UNL A   1      42.955  30.471  34.417  1.00  0.00     0.074 A 
ATOM     56  C   UNL A   1      45.101  25.834  30.655  1.00  0.00     0.029 A 
ATOM     57  N   UNL A   1      43.883  27.436  31.602  1.00  0.00    -0.354 N 
ATOM     58  N   UNL A   1      43.318  29.527  33.581  1.00  0.00    -0.248 NA
ATOM     59  C   UNL A   1      43.893  30.690  35.528  1.00  0.00     0.031 C 
ATOM     60  C   UNL A   1      45.770  26.282  31.800  1.00  0.00     0.029 A 
ATOM     61  C   UNL A   1      45.022  27.296  32.375  1.00  0.00     0.049 A 
ATOM     62  H   UNL A   1      43.158  28.079  31.775  1.00  0.00     0.167 HD
ATOM     63  C   UNL A   1      44.539  29.058  34.052  1.00  0.00     0.074 A 
ATOM     64  C   UNL A   1      44.859  29.829  35.236  1.00  0.00     0.031 C 
ATOM     65  C   UNL A   1      45.326  28.076  33.547  1.00  0.00     0.031 A 
BRANCH  52  66
ATOM     66  C   UNL A   1      43.045  25.346  28.494  1.00  0.00    -0.014 A 
ATOM     67  C   UNL A   1      43.817  25.585  27.343  1.00  0.00     0.010 A 
ATOM     68  C   UNL A   1      42.458  24.079  28.673  1.00  0.00     0.010 A 
ATOM     69  C   UNL A   1      43.970  24.592  26.373  1.00  0.00     0.020 A 
ATOM     70  C   UNL A   1      42.630  23.075  27.717  1.00  0.00     0.020 A 
ATOM     71  C   UNL A   1      43.372  23.343  26.565  1.00  0.00     0.054 A 
BRANCH  71  72
ATOM     72  S   UNL A   1      43.611  22.061  25.303  1.00  0.00     0.124 S 
ATOM     73  O   UNL A   1      44.979  21.625  25.573  1.00  0.00    -0.237 OA
ATOM     74  O   UNL A   1      42.568  21.091  25.627  1.00  0.00    -0.237 OA
ATOM     75  O   UNL A   1      43.422  22.777  24.043  1.00  0.00    -0.744 OA
ENDBRANCH  71  72
ENDBRANCH  52  66
BRANCH  53  76
ATOM     76  C   UNL A   1      41.496  32.369  35.434  1.00  0.00    -0.014 A 
ATOM     77  C   UNL A   1      40.794  32.036  36.605  1.00  0.00     0.010 A 
ATOM     78  C   UNL A   1      41.973  33.682  35.271  1.00  0.00     0.010 A 
ATOM     79  C   UNL A   1      40.553  33.002  37.586  1.00  0.00     0.020 A 
ATOM     80  C   UNL A   1      41.756  34.645  36.261  1.00  0.00     0.020 A 
ATOM     81  C   UNL A   1      41.034  34.302  37.406  1.00  0.00     0.054 A 
BRANCH  81  82
ATOM     82  S   UNL A   1      40.748  35.532  38.708  1.00  0.00     0.124 S 
ATOM     83  O   UNL A   1      41.190  36.764  38.064  1.00  0.00    -0.237 OA
ATOM     84  O   UNL A   1      39.310  35.420  38.941  1.00  0.00    -0.237 OA
ATOM     85  O   UNL A   1      41.586  35.063  39.810  1.00  0.00    -0.744 OA
ENDBRANCH  81  82
ENDBRANCH  53  76
BRANCH  65  86
ATOM     86  C   UNL A   1      46.626  27.801  34.252  1.00  0.00    -0.014 A 
ATOM     87  C   UNL A   1      47.800  28.495  33.909  1.00  0.00     0.010 A 
ATOM     88  C   UNL A   1      46.658  26.874  35.310  1.00  0.00     0.010 A 
ATOM     89  C   UNL A   1      48.991  28.246  34.596  1.00  0.00     0.020 A 
ATOM     90  C   UNL A   1      47.841  26.640  36.014  1.00  0.00     0.020 A 
ATOM     91  C   UNL A   1      49.004  27.319  35.644  1.00  0.00     0.054 A 
BRANCH  91  92
ATOM     92  S   UNL A   1      50.551  27.049  36.554  1.00  0.00     0.124 S 
ATOM     93  O   UNL A   1      51.526  27.715  35.697  1.00  0.00    -0.237 OA
ATOM     94  O   UNL A   1      50.289  27.700  37.835  1.00  0.00    -0.237 OA
ATOM     95  O   UNL A   1      50.666  25.593  36.615  1.00  0.00    -0.744 OA
ENDBRANCH  91  92
ENDBRANCH  65  86
ENDBRANCH  39  40
ENDBRANCH  31  34
ENDBRANCH  29  30
ENDBRANCH  28  29
ENDBRANCH  27  28
ENDBRANCH   1  27
TORSDOF 19
ENDMDL
