MODEL 1
REMARK VINA RESULT:     -12.3      0.000      0.000
REMARK SMILES Cc1c(C(=O)Nc2ccc(C(=O)Nc3ccccc3C(=O)NCCCCCCNC(=O)c3ccc(-c4c5nc(c(-c6ccc(S(=O)(=O)[O-])cc6)c6ccc([nH]6)c(-c6ccc(S(=O)(=O)[O-])cc6)c6nc(c(-c7ccc(S(=O)(=O)[O-])cc7)c7ccc4[nH]7)C=C6)C=C5)cc3)cc2)cccc1[N+](=O)[O-]
REMARK SMILES IDX 24 1 23 2 22 3 20 4 21 5 19 7 14 8 15 9 16 10 18 11 17 12
REMARK SMILES IDX 13 13 11 14 12 15 10 17 7 18 8 19 93 20 9 21 92 22 6 23 4 24
REMARK SMILES IDX 5 25 3 27 1 28 2 29 97 30 94 31 96 32 95 33 98 34 99 35
REMARK SMILES IDX 100 36 25 37 26 38 27 39 28 40 29 41 30 42 31 44 32 45 33 46
REMARK SMILES IDX 91 47 34 48 90 49 35 50 36 51 37 52 84 53 38 54 89 55 83 56
REMARK SMILES IDX 85 57 39 58 88 59 82 60 81 61 40 63 70 64 51 65 69 66 52 67
REMARK SMILES IDX 55 68 68 69 86 70 53 71 54 72 67 74 87 75 56 76 41 77 42 78
REMARK SMILES IDX 50 79 43 80 49 81 44 82 45 83 46 84 47 85 48 86 71 87 72 88
REMARK SMILES IDX 80 89 73 90 79 91 74 92 75 93 76 94 77 95 78 96 57 97 58 98
REMARK SMILES IDX 66 99 59 100 65 101 60 102 61 103 62 104 63 105 64 106
REMARK H PARENT 22 6 13 16 6 26 29 43 85 62 55 73
REMARK Flexibility Score: inf
ROOT
ATOM      1  C   UNL A   1      37.703  20.416  25.479  1.00  0.00     0.021 C 
ENDROOT
BRANCH   1   2
ATOM      2  C   UNL A   1      36.894  19.502  24.556  1.00  0.00     0.116 C 
BRANCH   2   3
ATOM      3  N   UNL A   1      36.517  18.211  25.102  1.00  0.00    -0.352 N 
ATOM      4  C   UNL A   1      35.384  17.444  24.916  1.00  0.00     0.253 C 
ATOM      5  O   UNL A   1      35.361  16.304  25.376  1.00  0.00    -0.269 OA
ATOM      6  H   UNL A   1      37.182  17.814  25.710  1.00  0.00     0.163 HD
BRANCH   4   7
ATOM      7  C   UNL A   1      34.180  17.964  24.204  1.00  0.00     0.063 A 
ATOM      8  C   UNL A   1      33.368  18.981  24.766  1.00  0.00     0.054 A 
ATOM      9  C   UNL A   1      32.211  19.396  24.081  1.00  0.00     0.027 A 
ATOM     10  C   UNL A   1      31.902  18.883  22.823  1.00  0.00     0.002 A 
ATOM     11  C   UNL A   1      33.795  17.392  22.981  1.00  0.00     0.016 A 
ATOM     12  C   UNL A   1      32.692  17.879  22.274  1.00  0.00     0.001 A 
BRANCH   8  13
ATOM     13  N   UNL A   1      33.644  19.721  25.934  1.00  0.00    -0.321 N 
ATOM     14  C   UNL A   1      33.936  21.057  26.125  1.00  0.00     0.255 C 
ATOM     15  O   UNL A   1      34.312  21.424  27.241  1.00  0.00    -0.269 OA
ATOM     16  H   UNL A   1      33.625  19.190  26.762  1.00  0.00     0.170 HD
BRANCH  14  17
ATOM     17  C   UNL A   1      33.619  22.097  25.100  1.00  0.00     0.040 A 
ATOM     18  C   UNL A   1      32.833  23.767  22.975  1.00  0.00     0.041 A 
ATOM     19  C   UNL A   1      34.133  23.300  23.060  1.00  0.00     0.027 A 
ATOM     20  C   UNL A   1      31.966  23.545  24.049  1.00  0.00     0.027 A 
ATOM     21  C   UNL A   1      34.481  22.389  24.045  1.00  0.00     0.016 A 
ATOM     22  C   UNL A   1      32.359  22.713  25.110  1.00  0.00     0.016 A 
BRANCH  18  23
ATOM     23  N   UNL A   1      32.329  24.343  21.799  1.00  0.00    -0.322 N 
ATOM     24  C   UNL A   1      32.116  25.670  21.455  1.00  0.00     0.256 C 
ATOM     25  O   UNL A   1      31.580  25.933  20.380  1.00  0.00    -0.269 OA
ATOM     26  H   UNL A   1      32.086  23.696  21.098  1.00  0.00     0.170 HD
BRANCH  24  27
ATOM     27  C   UNL A   1      32.516  26.815  22.332  1.00  0.00     0.049 A 
ATOM     28  C   UNL A   1      30.487  26.661  23.863  1.00  0.00     0.053 C 
ATOM     29  C   UNL A   1      31.699  27.387  23.337  1.00  0.00     0.039 A 
ATOM     30  C   UNL A   1      32.084  28.655  23.835  1.00  0.00     0.273 A 
ATOM     31  C   UNL A   1      33.793  27.349  22.080  1.00  0.00     0.014 A 
ATOM     32  C   UNL A   1      33.351  29.195  23.557  1.00  0.00     0.086 A 
ATOM     33  C   UNL A   1      34.226  28.507  22.723  1.00  0.00     0.008 A 
BRANCH  30  34
ATOM     34  N   UNL A   1      31.138  29.518  24.559  1.00  0.00     0.063 N 
ATOM     35  O   UNL A   1      30.139  29.920  23.946  1.00  0.00    -0.258 OA
ATOM     36  O   UNL A   1      31.351  29.732  25.761  1.00  0.00    -0.258 OA
ENDBRANCH  30  34
ENDBRANCH  24  27
ENDBRANCH  18  23
ENDBRANCH  14  17
ENDBRANCH   8  13
ENDBRANCH   4   7
ENDBRANCH   2   3
ENDBRANCH   1   2
BRANCH   1  37
ATOM     37  C   UNL A   1      39.218  20.224  25.572  1.00  0.00     0.002 C 
BRANCH  37  38
ATOM     38  C   UNL A   1      40.022  21.163  26.480  1.00  0.00     0.002 C 
BRANCH  38  39
ATOM     39  C   UNL A   1      41.189  20.565  27.266  1.00  0.00     0.021 C 
BRANCH  39  40
ATOM     40  C   UNL A   1      42.031  21.562  28.035  1.00  0.00     0.116 C 
BRANCH  40  41
ATOM     41  N   UNL A   1      43.161  22.129  27.322  1.00  0.00    -0.352 N 
ATOM     42  C   UNL A   1      42.882  23.000  26.263  1.00  0.00     0.251 C 
ATOM     43  H   UNL A   1      44.088  21.909  27.575  1.00  0.00     0.163 HD
ATOM     44  O   UNL A   1      42.716  22.676  25.112  1.00  0.00    -0.269 OA
BRANCH  42  45
ATOM     45  C   UNL A   1      42.464  24.339  26.740  1.00  0.00     0.039 A 
ATOM     46  C   UNL A   1      42.265  25.411  25.873  1.00  0.00     0.014 A 
ATOM     47  C   UNL A   1      42.493  24.518  28.125  1.00  0.00     0.014 A 
ATOM     48  C   UNL A   1      42.231  26.702  26.403  1.00  0.00     0.010 A 
ATOM     49  C   UNL A   1      42.572  25.788  28.633  1.00  0.00     0.010 A 
ATOM     50  C   UNL A   1      42.469  26.878  27.769  1.00  0.00    -0.014 A 
BRANCH  50  51
ATOM     51  C   UNL A   1      42.618  28.156  28.439  1.00  0.00     0.031 A 
ATOM     52  C   UNL A   1      41.406  28.982  28.657  1.00  0.00     0.074 A 
ATOM     53  C   UNL A   1      43.801  28.461  29.019  1.00  0.00     0.049 A 
ATOM     54  N   UNL A   1      41.423  30.238  28.939  1.00  0.00    -0.248 NA
ATOM     55  C   UNL A   1      40.047  28.445  28.546  1.00  0.00     0.031 C 
ATOM     56  C   UNL A   1      44.053  29.520  29.993  1.00  0.00     0.029 A 
ATOM     57  N   UNL A   1      45.084  27.977  28.752  1.00  0.00    -0.354 N 
ATOM     58  C   UNL A   1      40.153  30.592  29.344  1.00  0.00     0.074 A 
ATOM     59  C   UNL A   1      39.316  29.473  28.988  1.00  0.00     0.031 C 
ATOM     60  C   UNL A   1      45.363  29.820  29.968  1.00  0.00     0.029 A 
ATOM     61  C   UNL A   1      45.934  29.087  28.851  1.00  0.00     0.049 A 
ATOM     62  H   UNL A   1      45.338  27.049  28.539  1.00  0.00     0.167 HD
ATOM     63  C   UNL A   1      39.985  31.733  30.069  1.00  0.00     0.031 A 
ATOM     64  C   UNL A   1      46.549  29.679  27.779  1.00  0.00     0.031 A 
ATOM     65  C   UNL A   1      41.250  32.453  30.207  1.00  0.00     0.049 A 
ATOM     66  C   UNL A   1      46.165  31.145  27.611  1.00  0.00     0.074 A 
ATOM     67  C   UNL A   1      42.184  32.528  31.229  1.00  0.00     0.029 A 
ATOM     68  N   UNL A   1      41.868  32.955  29.070  1.00  0.00    -0.354 N 
ATOM     69  N   UNL A   1      45.095  31.684  28.132  1.00  0.00    -0.248 NA
ATOM     70  C   UNL A   1      46.947  32.114  26.848  1.00  0.00     0.031 C 
ATOM     71  C   UNL A   1      43.399  33.011  30.673  1.00  0.00     0.029 A 
ATOM     72  C   UNL A   1      43.191  33.261  29.328  1.00  0.00     0.049 A 
ATOM     73  H   UNL A   1      41.426  33.076  28.199  1.00  0.00     0.167 HD
ATOM     74  C   UNL A   1      45.043  33.022  27.830  1.00  0.00     0.074 A 
ATOM     75  C   UNL A   1      46.230  33.241  27.022  1.00  0.00     0.031 C 
ATOM     76  C   UNL A   1      44.029  33.827  28.276  1.00  0.00     0.031 A 
BRANCH  63  77
ATOM     77  C   UNL A   1      38.753  32.059  30.886  1.00  0.00    -0.014 A 
ATOM     78  C   UNL A   1      37.949  33.157  30.511  1.00  0.00     0.010 A 
ATOM     79  C   UNL A   1      38.352  31.369  32.046  1.00  0.00     0.010 A 
ATOM     80  C   UNL A   1      36.866  33.594  31.291  1.00  0.00     0.020 A 
ATOM     81  C   UNL A   1      37.289  31.810  32.852  1.00  0.00     0.020 A 
ATOM     82  C   UNL A   1      36.557  32.929  32.473  1.00  0.00     0.054 A 
BRANCH  82  83
ATOM     83  S   UNL A   1      35.195  33.541  33.498  1.00  0.00     0.124 S 
ATOM     84  O   UNL A   1      34.053  32.788  32.985  1.00  0.00    -0.237 OA
ATOM     85  O   UNL A   1      35.631  33.187  34.846  1.00  0.00    -0.237 OA
ATOM     86  O   UNL A   1      35.162  34.975  33.213  1.00  0.00    -0.744 OA
ENDBRANCH  82  83
ENDBRANCH  63  77
BRANCH  64  87
ATOM     87  C   UNL A   1      46.875  28.741  26.664  1.00  0.00    -0.014 A 
ATOM     88  C   UNL A   1      47.895  27.793  26.898  1.00  0.00     0.010 A 
ATOM     89  C   UNL A   1      45.935  28.486  25.652  1.00  0.00     0.010 A 
ATOM     90  C   UNL A   1      47.841  26.530  26.301  1.00  0.00     0.020 A 
ATOM     91  C   UNL A   1      45.892  27.225  25.036  1.00  0.00     0.020 A 
ATOM     92  C   UNL A   1      46.788  26.230  25.437  1.00  0.00     0.054 A 
BRANCH  92  93
ATOM     93  S   UNL A   1      46.489  24.484  25.023  1.00  0.00     0.124 S 
ATOM     94  O   UNL A   1      46.674  23.818  26.307  1.00  0.00    -0.237 OA
ATOM     95  O   UNL A   1      45.113  24.521  24.518  1.00  0.00    -0.237 OA
ATOM     96  O   UNL A   1      47.500  24.194  24.012  1.00  0.00    -0.744 OA
ENDBRANCH  92  93
ENDBRANCH  64  87
BRANCH  76  97
ATOM     97  C   UNL A   1      43.724  35.251  27.842  1.00  0.00    -0.014 A 
ATOM     98  C   UNL A   1      42.563  35.656  27.171  1.00  0.00     0.010 A 
ATOM     99  C   UNL A   1      44.615  36.287  28.235  1.00  0.00     0.010 A 
ATOM    100  C   UNL A   1      42.325  37.008  26.869  1.00  0.00     0.020 A 
ATOM    101  C   UNL A   1      44.364  37.639  27.988  1.00  0.00     0.020 A 
ATOM    102  C   UNL A   1      43.225  37.990  27.282  1.00  0.00     0.054 A 
BRANCH 102 103
ATOM    103  S   UNL A   1      42.861  39.730  26.947  1.00  0.00     0.124 S 
ATOM    104  O   UNL A   1      43.879  40.063  25.954  1.00  0.00    -0.237 OA
ATOM    105  O   UNL A   1      41.489  39.682  26.445  1.00  0.00    -0.237 OA
ATOM    106  O   UNL A   1      43.019  40.374  28.248  1.00  0.00    -0.744 OA
ENDBRANCH 102 103
ENDBRANCH  76  97
ENDBRANCH  50  51
ENDBRANCH  42  45
ENDBRANCH  40  41
ENDBRANCH  39  40
ENDBRANCH  38  39
ENDBRANCH  37  38
ENDBRANCH   1  37
TORSDOF 21
ENDMDL
MODEL 2
REMARK VINA RESULT:     -11.8      2.372      3.942
REMARK SMILES Cc1c(C(=O)Nc2ccc(C(=O)Nc3ccccc3C(=O)NCCCCCCNC(=O)c3ccc(-c4c5nc(c(-c6ccc(S(=O)(=O)[O-])cc6)c6ccc([nH]6)c(-c6ccc(S(=O)(=O)[O-])cc6)c6nc(c(-c7ccc(S(=O)(=O)[O-])cc7)c7ccc4[nH]7)C=C6)C=C5)cc3)cc2)cccc1[N+](=O)[O-]
REMARK SMILES IDX 24 1 23 2 22 3 20 4 21 5 19 7 14 8 15 9 16 10 18 11 17 12
REMARK SMILES IDX 13 13 11 14 12 15 10 17 7 18 8 19 93 20 9 21 92 22 6 23 4 24
REMARK SMILES IDX 5 25 3 27 1 28 2 29 97 30 94 31 96 32 95 33 98 34 99 35
REMARK SMILES IDX 100 36 25 37 26 38 27 39 28 40 29 41 30 42 31 44 32 45 33 46
REMARK SMILES IDX 91 47 34 48 90 49 35 50 36 51 37 52 84 53 38 54 89 55 83 56
REMARK SMILES IDX 85 57 39 58 88 59 82 60 81 61 40 63 70 64 51 65 69 66 52 67
REMARK SMILES IDX 55 68 68 69 86 70 53 71 54 72 67 74 87 75 56 76 41 77 42 78
REMARK SMILES IDX 50 79 43 80 49 81 44 82 45 83 46 84 47 85 48 86 71 87 72 88
REMARK SMILES IDX 80 89 73 90 79 91 74 92 75 93 76 94 77 95 78 96 57 97 58 98
REMARK SMILES IDX 66 99 59 100 65 101 60 102 61 103 62 104 63 105 64 106
REMARK H PARENT 22 6 13 16 6 26 29 43 85 62 55 73
REMARK Flexibility Score: inf
ROOT
ATOM      1  C   UNL A   1      33.865  22.818  27.632  1.00  0.00     0.021 C 
ENDROOT
BRANCH   1   2
ATOM      2  C   UNL A   1      33.620  21.308  27.698  1.00  0.00     0.116 C 
BRANCH   2   3
ATOM      3  N   UNL A   1      33.248  20.665  26.452  1.00  0.00    -0.352 N 
ATOM      4  C   UNL A   1      32.437  21.090  25.418  1.00  0.00     0.253 C 
ATOM      5  O   UNL A   1      32.394  20.421  24.387  1.00  0.00    -0.269 OA
ATOM      6  H   UNL A   1      33.641  19.771  26.320  1.00  0.00     0.163 HD
BRANCH   4   7
ATOM      7  C   UNL A   1      31.591  22.315  25.525  1.00  0.00     0.063 A 
ATOM      8  C   UNL A   1      31.883  23.485  24.783  1.00  0.00     0.054 A 
ATOM      9  C   UNL A   1      31.088  24.633  24.963  1.00  0.00     0.027 A 
ATOM     10  C   UNL A   1      29.969  24.604  25.794  1.00  0.00     0.002 A 
ATOM     11  C   UNL A   1      30.517  22.340  26.430  1.00  0.00     0.016 A 
ATOM     12  C   UNL A   1      29.686  23.459  26.530  1.00  0.00     0.001 A 
BRANCH   8  13
ATOM     13  N   UNL A   1      32.861  23.615  23.775  1.00  0.00    -0.321 N 
ATOM     14  C   UNL A   1      33.516  24.721  23.270  1.00  0.00     0.255 C 
ATOM     15  O   UNL A   1      34.208  24.583  22.259  1.00  0.00    -0.269 OA
ATOM     16  H   UNL A   1      33.123  22.764  23.356  1.00  0.00     0.170 HD
BRANCH  14  17
ATOM     17  C   UNL A   1      33.582  26.016  24.012  1.00  0.00     0.040 A 
ATOM     18  C   UNL A   1      33.313  28.438  25.420  1.00  0.00     0.041 A 
ATOM     19  C   UNL A   1      33.599  28.438  24.065  1.00  0.00     0.027 A 
ATOM     20  C   UNL A   1      33.337  27.223  26.113  1.00  0.00     0.027 A 
ATOM     21  C   UNL A   1      33.617  27.246  23.359  1.00  0.00     0.016 A 
ATOM     22  C   UNL A   1      33.473  26.015  25.409  1.00  0.00     0.016 A 
BRANCH  18  23
ATOM     23  N   UNL A   1      32.882  29.595  26.086  1.00  0.00    -0.322 N 
ATOM     24  C   UNL A   1      31.819  30.448  25.830  1.00  0.00     0.256 C 
ATOM     25  O   UNL A   1      31.684  31.461  26.514  1.00  0.00    -0.269 OA
ATOM     26  H   UNL A   1      33.426  29.844  26.868  1.00  0.00     0.170 HD
BRANCH  24  27
ATOM     27  C   UNL A   1      30.807  30.193  24.757  1.00  0.00     0.049 A 
ATOM     28  C   UNL A   1      30.166  32.638  24.450  1.00  0.00     0.053 C 
ATOM     29  C   UNL A   1      29.923  31.166  24.233  1.00  0.00     0.039 A 
ATOM     30  C   UNL A   1      28.820  30.694  23.481  1.00  0.00     0.273 A 
ATOM     31  C   UNL A   1      30.746  28.867  24.290  1.00  0.00     0.014 A 
ATOM     32  C   UNL A   1      28.751  29.362  23.040  1.00  0.00     0.086 A 
ATOM     33  C   UNL A   1      29.751  28.465  23.401  1.00  0.00     0.008 A 
BRANCH  30  34
ATOM     34  N   UNL A   1      27.640  31.537  23.233  1.00  0.00     0.063 N 
ATOM     35  O   UNL A   1      26.756  31.563  24.102  1.00  0.00    -0.258 OA
ATOM     36  O   UNL A   1      27.630  32.235  22.208  1.00  0.00    -0.258 OA
ENDBRANCH  30  34
ENDBRANCH  24  27
ENDBRANCH  18  23
ENDBRANCH  14  17
ENDBRANCH   8  13
ENDBRANCH   4   7
ENDBRANCH   2   3
ENDBRANCH   1   2
BRANCH   1  37
ATOM     37  C   UNL A   1      34.632  23.394  26.440  1.00  0.00     0.002 C 
BRANCH  37  38
ATOM     38  C   UNL A   1      36.101  23.792  26.636  1.00  0.00     0.002 C 
BRANCH  38  39
ATOM     39  C   UNL A   1      36.991  23.856  25.395  1.00  0.00     0.021 C 
BRANCH  39  40
ATOM     40  C   UNL A   1      38.364  23.234  25.549  1.00  0.00     0.116 C 
BRANCH  40  41
ATOM     41  N   UNL A   1      38.825  23.030  26.910  1.00  0.00    -0.352 N 
ATOM     42  C   UNL A   1      40.016  23.658  27.286  1.00  0.00     0.251 C 
ATOM     43  H   UNL A   1      38.317  22.471  27.544  1.00  0.00     0.163 HD
ATOM     44  O   UNL A   1      41.124  23.190  27.172  1.00  0.00    -0.269 OA
BRANCH  42  45
ATOM     45  C   UNL A   1      39.829  25.107  27.528  1.00  0.00     0.039 A 
ATOM     46  C   UNL A   1      40.331  26.079  26.665  1.00  0.00     0.014 A 
ATOM     47  C   UNL A   1      39.311  25.443  28.781  1.00  0.00     0.014 A 
ATOM     48  C   UNL A   1      40.436  27.393  27.127  1.00  0.00     0.010 A 
ATOM     49  C   UNL A   1      39.517  26.705  29.273  1.00  0.00     0.010 A 
ATOM     50  C   UNL A   1      40.105  27.671  28.455  1.00  0.00    -0.014 A 
BRANCH  50  51
ATOM     51  C   UNL A   1      40.305  28.943  29.123  1.00  0.00     0.031 A 
ATOM     52  C   UNL A   1      39.246  29.974  29.003  1.00  0.00     0.074 A 
ATOM     53  C   UNL A   1      41.334  29.077  29.989  1.00  0.00     0.049 A 
ATOM     54  N   UNL A   1      39.415  31.224  29.262  1.00  0.00    -0.248 NA
ATOM     55  C   UNL A   1      37.888  29.670  28.546  1.00  0.00     0.031 C 
ATOM     56  C   UNL A   1      41.514  30.135  30.981  1.00  0.00     0.029 A 
ATOM     57  N   UNL A   1      42.534  28.367  30.076  1.00  0.00    -0.354 N 
ATOM     58  C   UNL A   1      38.170  31.812  29.314  1.00  0.00     0.074 A 
ATOM     59  C   UNL A   1      37.264  30.832  28.767  1.00  0.00     0.031 C 
ATOM     60  C   UNL A   1      42.818  30.206  31.297  1.00  0.00     0.029 A 
ATOM     61  C   UNL A   1      43.516  29.321  30.380  1.00  0.00     0.049 A 
ATOM     62  H   UNL A   1      42.663  27.399  29.950  1.00  0.00     0.167 HD
ATOM     63  C   UNL A   1      38.029  33.007  29.955  1.00  0.00     0.031 A 
ATOM     64  C   UNL A   1      44.481  29.734  29.499  1.00  0.00     0.031 A 
ATOM     65  C   UNL A   1      39.325  33.508  30.410  1.00  0.00     0.049 A 
ATOM     66  C   UNL A   1      44.423  31.231  29.216  1.00  0.00     0.074 A 
ATOM     67  C   UNL A   1      39.963  33.485  31.640  1.00  0.00     0.029 A 
ATOM     68  N   UNL A   1      40.294  33.828  29.468  1.00  0.00    -0.354 N 
ATOM     69  N   UNL A   1      43.370  31.974  29.430  1.00  0.00    -0.248 NA
ATOM     70  C   UNL A   1      45.535  32.005  28.671  1.00  0.00     0.031 C 
ATOM     71  C   UNL A   1      41.347  33.721  31.417  1.00  0.00     0.029 A 
ATOM     72  C   UNL A   1      41.539  33.921  30.061  1.00  0.00     0.049 A 
ATOM     73  H   UNL A   1      40.118  33.970  28.510  1.00  0.00     0.167 HD
ATOM     74  C   UNL A   1      43.638  33.281  29.105  1.00  0.00     0.074 A 
ATOM     75  C   UNL A   1      45.012  33.246  28.636  1.00  0.00     0.031 C 
ATOM     76  C   UNL A   1      42.706  34.272  29.258  1.00  0.00     0.031 A 
BRANCH  63  77
ATOM     77  C   UNL A   1      36.709  33.586  30.414  1.00  0.00    -0.014 A 
ATOM     78  C   UNL A   1      35.759  33.987  29.449  1.00  0.00     0.010 A 
ATOM     79  C   UNL A   1      36.352  33.807  31.758  1.00  0.00     0.010 A 
ATOM     80  C   UNL A   1      34.569  34.645  29.797  1.00  0.00     0.020 A 
ATOM     81  C   UNL A   1      35.178  34.489  32.121  1.00  0.00     0.020 A 
ATOM     82  C   UNL A   1      34.297  34.915  31.134  1.00  0.00     0.054 A 
BRANCH  82  83
ATOM     83  S   UNL A   1      32.786  35.817  31.561  1.00  0.00     0.124 S 
ATOM     84  O   UNL A   1      33.310  37.023  32.199  1.00  0.00    -0.237 OA
ATOM     85  O   UNL A   1      32.157  36.014  30.258  1.00  0.00    -0.237 OA
ATOM     86  O   UNL A   1      32.079  34.906  32.460  1.00  0.00    -0.744 OA
ENDBRANCH  82  83
ENDBRANCH  63  77
BRANCH  64  87
ATOM     87  C   UNL A   1      44.907  28.689  28.522  1.00  0.00    -0.014 A 
ATOM     88  C   UNL A   1      44.286  28.701  27.253  1.00  0.00     0.010 A 
ATOM     89  C   UNL A   1      46.154  28.055  28.657  1.00  0.00     0.010 A 
ATOM     90  C   UNL A   1      44.990  28.300  26.114  1.00  0.00     0.020 A 
ATOM     91  C   UNL A   1      46.854  27.633  27.515  1.00  0.00     0.020 A 
ATOM     92  C   UNL A   1      46.301  27.846  26.249  1.00  0.00     0.054 A 
BRANCH  92  93
ATOM     93  S   UNL A   1      47.334  27.750  24.753  1.00  0.00     0.124 S 
ATOM     94  O   UNL A   1      48.636  28.192  25.239  1.00  0.00    -0.237 OA
ATOM     95  O   UNL A   1      47.233  26.329  24.403  1.00  0.00    -0.237 OA
ATOM     96  O   UNL A   1      46.669  28.654  23.821  1.00  0.00    -0.744 OA
ENDBRANCH  92  93
ENDBRANCH  64  87
BRANCH  76  97
ATOM     97  C   UNL A   1      42.784  35.698  28.740  1.00  0.00    -0.014 A 
ATOM     98  C   UNL A   1      43.316  36.783  29.449  1.00  0.00     0.010 A 
ATOM     99  C   UNL A   1      42.398  35.954  27.396  1.00  0.00     0.010 A 
ATOM    100  C   UNL A   1      43.417  38.059  28.868  1.00  0.00     0.020 A 
ATOM    101  C   UNL A   1      42.543  37.206  26.791  1.00  0.00     0.020 A 
ATOM    102  C   UNL A   1      43.032  38.261  27.542  1.00  0.00     0.054 A 
BRANCH 102 103
ATOM    103  S   UNL A   1      43.240  39.894  26.794  1.00  0.00     0.124 S 
ATOM    104  O   UNL A   1      43.228  40.765  27.966  1.00  0.00    -0.237 OA
ATOM    105  O   UNL A   1      44.528  39.777  26.113  1.00  0.00    -0.237 OA
ATOM    106  O   UNL A   1      42.085  40.019  25.909  1.00  0.00    -0.744 OA
ENDBRANCH 102 103
ENDBRANCH  76  97
ENDBRANCH  50  51
ENDBRANCH  42  45
ENDBRANCH  40  41
ENDBRANCH  39  40
ENDBRANCH  38  39
ENDBRANCH  37  38
ENDBRANCH   1  37
TORSDOF 21
ENDMDL
MODEL 3
REMARK VINA RESULT:     -11.6      2.240      3.765
REMARK SMILES Cc1c(C(=O)Nc2ccc(C(=O)Nc3ccccc3C(=O)NCCCCCCNC(=O)c3ccc(-c4c5nc(c(-c6ccc(S(=O)(=O)[O-])cc6)c6ccc([nH]6)c(-c6ccc(S(=O)(=O)[O-])cc6)c6nc(c(-c7ccc(S(=O)(=O)[O-])cc7)c7ccc4[nH]7)C=C6)C=C5)cc3)cc2)cccc1[N+](=O)[O-]
REMARK SMILES IDX 24 1 23 2 22 3 20 4 21 5 19 7 14 8 15 9 16 10 18 11 17 12
REMARK SMILES IDX 13 13 11 14 12 15 10 17 7 18 8 19 93 20 9 21 92 22 6 23 4 24
REMARK SMILES IDX 5 25 3 27 1 28 2 29 97 30 94 31 96 32 95 33 98 34 99 35
REMARK SMILES IDX 100 36 25 37 26 38 27 39 28 40 29 41 30 42 31 44 32 45 33 46
REMARK SMILES IDX 91 47 34 48 90 49 35 50 36 51 37 52 84 53 38 54 89 55 83 56
REMARK SMILES IDX 85 57 39 58 88 59 82 60 81 61 40 63 70 64 51 65 69 66 52 67
REMARK SMILES IDX 55 68 68 69 86 70 53 71 54 72 67 74 87 75 56 76 41 77 42 78
REMARK SMILES IDX 50 79 43 80 49 81 44 82 45 83 46 84 47 85 48 86 71 87 72 88
REMARK SMILES IDX 80 89 73 90 79 91 74 92 75 93 76 94 77 95 78 96 57 97 58 98
REMARK SMILES IDX 66 99 59 100 65 101 60 102 61 103 62 104 63 105 64 106
REMARK H PARENT 22 6 13 16 6 26 29 43 85 62 55 73
REMARK Flexibility Score: inf
ROOT
ATOM      1  C   UNL A   1      37.359  20.627  24.641  1.00  0.00     0.021 C 
ENDROOT
BRANCH   1   2
ATOM      2  C   UNL A   1      36.113  20.649  25.530  1.00  0.00     0.116 C 
BRANCH   2   3
ATOM      3  N   UNL A   1      34.848  20.391  24.866  1.00  0.00    -0.352 N 
ATOM      4  C   UNL A   1      33.859  21.252  24.433  1.00  0.00     0.253 C 
ATOM      5  O   UNL A   1      32.937  20.801  23.757  1.00  0.00    -0.269 OA
ATOM      6  H   UNL A   1      34.663  19.439  24.695  1.00  0.00     0.163 HD
BRANCH   4   7
ATOM      7  C   UNL A   1      33.858  22.702  24.787  1.00  0.00     0.063 A 
ATOM      8  C   UNL A   1      34.018  23.707  23.801  1.00  0.00     0.054 A 
ATOM      9  C   UNL A   1      34.068  25.057  24.193  1.00  0.00     0.027 A 
ATOM     10  C   UNL A   1      33.876  25.422  25.525  1.00  0.00     0.002 A 
ATOM     11  C   UNL A   1      33.765  23.088  26.134  1.00  0.00     0.016 A 
ATOM     12  C   UNL A   1      33.728  24.438  26.495  1.00  0.00     0.001 A 
BRANCH   8  13
ATOM     13  N   UNL A   1      34.043  23.511  22.404  1.00  0.00    -0.321 N 
ATOM     14  C   UNL A   1      33.418  24.184  21.373  1.00  0.00     0.255 C 
ATOM     15  O   UNL A   1      33.467  23.701  20.240  1.00  0.00    -0.269 OA
ATOM     16  H   UNL A   1      34.606  22.759  22.112  1.00  0.00     0.170 HD
BRANCH  14  17
ATOM     17  C   UNL A   1      32.869  25.564  21.539  1.00  0.00     0.040 A 
ATOM     18  C   UNL A   1      31.797  28.072  22.234  1.00  0.00     0.041 A 
ATOM     19  C   UNL A   1      31.015  27.122  21.601  1.00  0.00     0.027 A 
ATOM     20  C   UNL A   1      33.169  27.836  22.364  1.00  0.00     0.027 A 
ATOM     21  C   UNL A   1      31.517  25.853  21.365  1.00  0.00     0.016 A 
ATOM     22  C   UNL A   1      33.704  26.585  22.014  1.00  0.00     0.016 A 
BRANCH  18  23
ATOM     23  N   UNL A   1      31.236  29.198  22.857  1.00  0.00    -0.322 N 
ATOM     24  C   UNL A   1      30.877  29.422  24.177  1.00  0.00     0.256 C 
ATOM     25  O   UNL A   1      30.319  30.476  24.477  1.00  0.00    -0.269 OA
ATOM     26  H   UNL A   1      31.071  29.958  22.254  1.00  0.00     0.170 HD
BRANCH  24  27
ATOM     27  C   UNL A   1      31.142  28.439  25.274  1.00  0.00     0.049 A 
ATOM     28  C   UNL A   1      30.009  26.476  24.112  1.00  0.00     0.053 C 
ATOM     29  C   UNL A   1      30.606  27.129  25.333  1.00  0.00     0.039 A 
ATOM     30  C   UNL A   1      30.677  26.460  26.578  1.00  0.00     0.273 A 
ATOM     31  C   UNL A   1      31.964  28.906  26.316  1.00  0.00     0.014 A 
ATOM     32  C   UNL A   1      31.477  26.947  27.625  1.00  0.00     0.086 A 
ATOM     33  C   UNL A   1      32.167  28.145  27.466  1.00  0.00     0.008 A 
BRANCH  30  34
ATOM     34  N   UNL A   1      29.824  25.300  26.879  1.00  0.00     0.063 N 
ATOM     35  O   UNL A   1      28.596  25.466  26.864  1.00  0.00    -0.258 OA
ATOM     36  O   UNL A   1      30.377  24.204  27.054  1.00  0.00    -0.258 OA
ENDBRANCH  30  34
ENDBRANCH  24  27
ENDBRANCH  18  23
ENDBRANCH  14  17
ENDBRANCH   8  13
ENDBRANCH   4   7
ENDBRANCH   2   3
ENDBRANCH   1   2
BRANCH   1  37
ATOM     37  C   UNL A   1      38.581  19.825  25.096  1.00  0.00     0.002 C 
BRANCH  37  38
ATOM     38  C   UNL A   1      39.831  20.589  25.550  1.00  0.00     0.002 C 
BRANCH  38  39
ATOM     39  C   UNL A   1      39.761  21.341  26.879  1.00  0.00     0.021 C 
BRANCH  39  40
ATOM     40  C   UNL A   1      40.502  22.661  26.917  1.00  0.00     0.116 C 
BRANCH  40  41
ATOM     41  N   UNL A   1      39.969  23.718  26.077  1.00  0.00    -0.352 N 
ATOM     42  C   UNL A   1      38.969  24.529  26.622  1.00  0.00     0.251 C 
ATOM     43  H   UNL A   1      40.300  23.858  25.160  1.00  0.00     0.163 HD
ATOM     44  O   UNL A   1      37.782  24.314  26.569  1.00  0.00    -0.269 OA
BRANCH  42  45
ATOM     45  C   UNL A   1      39.516  25.517  27.582  1.00  0.00     0.039 A 
ATOM     46  C   UNL A   1      39.089  25.586  28.907  1.00  0.00     0.014 A 
ATOM     47  C   UNL A   1      40.321  26.512  27.024  1.00  0.00     0.014 A 
ATOM     48  C   UNL A   1      39.366  26.742  29.639  1.00  0.00     0.010 A 
ATOM     49  C   UNL A   1      40.497  27.689  27.703  1.00  0.00     0.010 A 
ATOM     50  C   UNL A   1      39.995  27.813  28.999  1.00  0.00    -0.014 A 
BRANCH  50  51
ATOM     51  C   UNL A   1      40.212  29.127  29.574  1.00  0.00     0.031 A 
ATOM     52  C   UNL A   1      39.132  30.136  29.451  1.00  0.00     0.074 A 
ATOM     53  C   UNL A   1      41.286  29.328  30.370  1.00  0.00     0.049 A 
ATOM     54  N   UNL A   1      39.296  31.401  29.622  1.00  0.00    -0.248 NA
ATOM     55  C   UNL A   1      37.755  29.787  29.092  1.00  0.00     0.031 C 
ATOM     56  C   UNL A   1      41.505  30.448  31.283  1.00  0.00     0.029 A 
ATOM     57  N   UNL A   1      42.500  28.639  30.432  1.00  0.00    -0.354 N 
ATOM     58  C   UNL A   1      38.046  31.976  29.709  1.00  0.00     0.074 A 
ATOM     59  C   UNL A   1      37.127  30.953  29.275  1.00  0.00     0.031 C 
ATOM     60  C   UNL A   1      42.823  30.554  31.519  1.00  0.00     0.029 A 
ATOM     61  C   UNL A   1      43.483  29.622  30.620  1.00  0.00     0.049 A 
ATOM     62  H   UNL A   1      42.637  27.666  30.360  1.00  0.00     0.167 HD
ATOM     63  C   UNL A   1      37.923  33.207  30.280  1.00  0.00     0.031 A 
ATOM     64  C   UNL A   1      44.390  29.990  29.661  1.00  0.00     0.031 A 
ATOM     65  C   UNL A   1      39.234  33.751  30.629  1.00  0.00     0.049 A 
ATOM     66  C   UNL A   1      44.292  31.466  29.290  1.00  0.00     0.074 A 
ATOM     67  C   UNL A   1      39.941  33.814  31.820  1.00  0.00     0.029 A 
ATOM     68  N   UNL A   1      40.143  34.024  29.615  1.00  0.00    -0.354 N 
ATOM     69  N   UNL A   1      43.241  32.208  29.517  1.00  0.00    -0.248 NA
ATOM     70  C   UNL A   1      45.359  32.218  28.636  1.00  0.00     0.031 C 
ATOM     71  C   UNL A   1      41.306  34.052  31.504  1.00  0.00     0.029 A 
ATOM     72  C   UNL A   1      41.418  34.168  30.129  1.00  0.00     0.049 A 
ATOM     73  H   UNL A   1      39.912  34.103  28.662  1.00  0.00     0.167 HD
ATOM     74  C   UNL A   1      43.471  33.495  29.097  1.00  0.00     0.074 A 
ATOM     75  C   UNL A   1      44.816  33.447  28.553  1.00  0.00     0.031 C 
ATOM     76  C   UNL A   1      42.533  34.482  29.241  1.00  0.00     0.031 A 
BRANCH  63  77
ATOM     77  C   UNL A   1      36.621  33.798  30.777  1.00  0.00    -0.014 A 
ATOM     78  C   UNL A   1      35.601  34.095  29.849  1.00  0.00     0.010 A 
ATOM     79  C   UNL A   1      36.348  34.127  32.119  1.00  0.00     0.010 A 
ATOM     80  C   UNL A   1      34.420  34.757  30.219  1.00  0.00     0.020 A 
ATOM     81  C   UNL A   1      35.184  34.815  32.502  1.00  0.00     0.020 A 
ATOM     82  C   UNL A   1      34.230  35.136  31.544  1.00  0.00     0.054 A 
BRANCH  82  83
ATOM     83  S   UNL A   1      32.728  36.043  31.995  1.00  0.00     0.124 S 
ATOM     84  O   UNL A   1      32.366  36.695  30.739  1.00  0.00    -0.237 OA
ATOM     85  O   UNL A   1      31.834  34.974  32.432  1.00  0.00    -0.237 OA
ATOM     86  O   UNL A   1      33.174  36.950  33.052  1.00  0.00    -0.744 OA
ENDBRANCH  82  83
ENDBRANCH  63  77
BRANCH  64  87
ATOM     87  C   UNL A   1      44.777  28.891  28.729  1.00  0.00    -0.014 A 
ATOM     88  C   UNL A   1      44.078  28.810  27.504  1.00  0.00     0.010 A 
ATOM     89  C   UNL A   1      46.042  28.289  28.825  1.00  0.00     0.010 A 
ATOM     90  C   UNL A   1      44.718  28.347  26.351  1.00  0.00     0.020 A 
ATOM     91  C   UNL A   1      46.679  27.805  27.671  1.00  0.00     0.020 A 
ATOM     92  C   UNL A   1      46.045  27.926  26.431  1.00  0.00     0.054 A 
BRANCH  92  93
ATOM     93  S   UNL A   1      46.985  27.750  24.883  1.00  0.00     0.124 S 
ATOM     94  O   UNL A   1      46.394  26.557  24.288  1.00  0.00    -0.237 OA
ATOM     95  O   UNL A   1      46.690  29.014  24.200  1.00  0.00    -0.237 OA
ATOM     96  O   UNL A   1      48.365  27.610  25.335  1.00  0.00    -0.744 OA
ENDBRANCH  92  93
ENDBRANCH  64  87
BRANCH  76  97
ATOM     97  C   UNL A   1      42.559  35.874  28.632  1.00  0.00    -0.014 A 
ATOM     98  C   UNL A   1      41.988  36.224  27.401  1.00  0.00     0.010 A 
ATOM     99  C   UNL A   1      43.096  36.942  29.400  1.00  0.00     0.010 A 
ATOM    100  C   UNL A   1      41.993  37.551  26.942  1.00  0.00     0.020 A 
ATOM    101  C   UNL A   1      43.059  38.274  28.979  1.00  0.00     0.020 A 
ATOM    102  C   UNL A   1      42.525  38.568  27.735  1.00  0.00     0.054 A 
BRANCH 102 103
ATOM    103  S   UNL A   1      42.454  40.280  27.155  1.00  0.00     0.124 S 
ATOM    104  O   UNL A   1      43.198  40.203  25.901  1.00  0.00    -0.237 OA
ATOM    105  O   UNL A   1      41.018  40.516  27.019  1.00  0.00    -0.237 OA
ATOM    106  O   UNL A   1      43.103  41.035  28.224  1.00  0.00    -0.744 OA
ENDBRANCH 102 103
ENDBRANCH  76  97
ENDBRANCH  50  51
ENDBRANCH  42  45
ENDBRANCH  40  41
ENDBRANCH  39  40
ENDBRANCH  38  39
ENDBRANCH  37  38
ENDBRANCH   1  37
TORSDOF 21
ENDMDL
