MODEL 1
REMARK VINA RESULT:     -10.0      0.000      0.000
REMARK SMILES COc1c[nH]c(C[N@H+]2CCC[C@@H](c3ccc(C(=O)NCCCCCCNC(=O)c4ccc(-c5c6nc(c(-c7ccc(S(=O)(=O)[O-])cc7)c7ccc([nH]7)c(-c7ccc(S(=O)(=O)[O-])cc7)c7nc(c(-c8ccc(S(=O)(=O)[O-])cc8)c8ccc5[nH]8)C=C7)C=C6)cc4)cc3)C2)cc1=O
REMARK SMILES IDX 22 1 21 2 20 3 19 4 17 5 18 6 16 8 13 9 14 10 90 11 15 12
REMARK SMILES IDX 89 13 12 14 8 15 9 16 91 17 10 19 11 20 7 21 6 22 3 23 4 24
REMARK SMILES IDX 93 25 5 26 92 27 94 28 2 30 1 31 23 32 24 33 25 34 26 35
REMARK SMILES IDX 27 36 28 38 29 39 30 40 88 41 31 42 87 43 32 44 33 45 34 46
REMARK SMILES IDX 81 47 35 48 86 49 80 50 82 51 36 52 85 53 79 54 78 55 37 57
REMARK SMILES IDX 67 58 48 59 66 60 49 61 52 62 65 63 83 64 50 65 51 66 64 68
REMARK SMILES IDX 84 69 53 70 38 71 39 72 47 73 40 74 46 75 41 76 42 77 43 78
REMARK SMILES IDX 44 79 45 80 68 81 69 82 77 83 70 84 76 85 71 86 72 87 73 88
REMARK SMILES IDX 74 89 75 90 54 91 55 92 63 93 56 94 62 95 57 96 58 97 59 98
REMARK SMILES IDX 60 99 61 100
REMARK H PARENT 19 7 8 18 5 29 26 37 82 56 52 67
REMARK Flexibility Score: inf
ROOT
ATOM      1  C   UNL A   1      40.636  25.608  27.425  1.00  0.00     0.002 C 
ENDROOT
BRANCH   1   2
ATOM      2  C   UNL A   1      39.654  24.442  27.605  1.00  0.00     0.021 C 
BRANCH   2   3
ATOM      3  C   UNL A   1      38.661  24.311  26.449  1.00  0.00     0.116 C 
BRANCH   3   4
ATOM      4  N   UNL A   1      38.626  22.937  25.991  1.00  0.00    -0.352 N 
ATOM      5  C   UNL A   1      37.599  22.146  25.549  1.00  0.00     0.251 C 
ATOM      6  O   UNL A   1      37.861  20.981  25.250  1.00  0.00    -0.269 OA
ATOM      7  H   UNL A   1      39.502  22.489  25.998  1.00  0.00     0.163 HD
BRANCH   5   8
ATOM      8  C   UNL A   1      36.216  22.657  25.337  1.00  0.00     0.039 A 
ATOM      9  C   UNL A   1      33.713  23.859  24.801  1.00  0.00    -0.039 A 
ATOM     10  C   UNL A   1      34.730  23.847  23.834  1.00  0.00     0.005 A 
ATOM     11  C   UNL A   1      33.934  23.173  26.000  1.00  0.00     0.005 A 
ATOM     12  C   UNL A   1      35.971  23.272  24.106  1.00  0.00     0.014 A 
ATOM     13  C   UNL A   1      35.164  22.553  26.252  1.00  0.00     0.014 A 
BRANCH   9  14
ATOM     14  C   UNL A   1      32.400  24.597  24.568  1.00  0.00     0.074 C 
ATOM     15  N   UNL A   1      31.472  26.862  23.864  1.00  0.00    -0.329 N 
ATOM     16  C   UNL A   1      30.747  26.211  22.764  1.00  0.00     0.262 C 
ATOM     17  C   UNL A   1      32.656  26.092  24.263  1.00  0.00     0.270 C 
ATOM     18  H   UNL A   1      30.846  26.878  24.669  1.00  0.00     0.348 HD
ATOM     19  C   UNL A   1      30.364  24.771  23.110  1.00  0.00     0.062 C 
ATOM     20  C   UNL A   1      31.598  23.938  23.441  1.00  0.00     0.020 C 
BRANCH  15  21
ATOM     21  C   UNL A   1      31.794  28.277  23.556  1.00  0.00     0.317 C 
BRANCH  21  22
ATOM     22  C   UNL A   1      30.647  29.125  23.002  1.00  0.00     0.074 A 
ATOM     23  C   UNL A   1      28.593  30.485  21.556  1.00  0.00     0.182 A 
ATOM     24  C   UNL A   1      29.882  30.514  21.189  1.00  0.00     0.133 A 
ATOM     25  C   UNL A   1      28.290  29.787  22.858  1.00  0.00     0.223 A 
ATOM     26  N   UNL A   1      30.891  29.939  21.910  1.00  0.00    -0.357 N 
ATOM     27  C   UNL A   1      29.409  29.061  23.528  1.00  0.00     0.083 A 
ATOM     28  O   UNL A   1      27.171  29.766  23.361  1.00  0.00    -0.286 OA
ATOM     29  H   UNL A   1      31.823  30.111  21.643  1.00  0.00     0.166 HD
BRANCH  23  30
ATOM     30  O   UNL A   1      27.615  30.987  20.718  1.00  0.00    -0.491 OA
ATOM     31  C   UNL A   1      27.839  32.337  20.337  1.00  0.00     0.278 C 
ENDBRANCH  23  30
ENDBRANCH  21  22
ENDBRANCH  15  21
ENDBRANCH   9  14
ENDBRANCH   5   8
ENDBRANCH   3   4
ENDBRANCH   2   3
ENDBRANCH   1   2
BRANCH   1  32
ATOM     32  C   UNL A   1      41.041  25.887  25.972  1.00  0.00     0.002 C 
BRANCH  32  33
ATOM     33  C   UNL A   1      42.341  25.212  25.530  1.00  0.00     0.021 C 
BRANCH  33  34
ATOM     34  C   UNL A   1      42.611  23.878  26.216  1.00  0.00     0.116 C 
BRANCH  34  35
ATOM     35  N   UNL A   1      44.039  23.632  26.361  1.00  0.00    -0.352 N 
ATOM     36  C   UNL A   1      44.961  24.364  27.069  1.00  0.00     0.251 C 
ATOM     37  H   UNL A   1      44.387  22.840  25.891  1.00  0.00     0.163 HD
ATOM     38  O   UNL A   1      46.160  24.176  26.917  1.00  0.00    -0.269 OA
BRANCH  36  39
ATOM     39  C   UNL A   1      44.474  25.393  28.010  1.00  0.00     0.039 A 
ATOM     40  C   UNL A   1      43.771  25.005  29.153  1.00  0.00     0.014 A 
ATOM     41  C   UNL A   1      44.751  26.741  27.766  1.00  0.00     0.014 A 
ATOM     42  C   UNL A   1      43.393  25.971  30.088  1.00  0.00     0.010 A 
ATOM     43  C   UNL A   1      44.428  27.691  28.727  1.00  0.00     0.010 A 
ATOM     44  C   UNL A   1      43.744  27.316  29.895  1.00  0.00    -0.014 A 
BRANCH  44  45
ATOM     45  C   UNL A   1      43.399  28.374  30.876  1.00  0.00     0.031 A 
ATOM     46  C   UNL A   1      44.242  28.531  32.112  1.00  0.00     0.074 A 
ATOM     47  C   UNL A   1      42.280  29.106  30.717  1.00  0.00     0.049 A 
ATOM     48  N   UNL A   1      44.014  29.247  33.182  1.00  0.00    -0.248 NA
ATOM     49  C   UNL A   1      45.491  27.752  32.162  1.00  0.00     0.031 C 
ATOM     50  C   UNL A   1      41.373  29.034  29.570  1.00  0.00     0.029 A 
ATOM     51  N   UNL A   1      41.700  30.040  31.540  1.00  0.00    -0.354 N 
ATOM     52  C   UNL A   1      45.070  28.979  34.045  1.00  0.00     0.074 A 
ATOM     53  C   UNL A   1      45.919  28.009  33.389  1.00  0.00     0.031 C 
ATOM     54  C   UNL A   1      40.356  29.891  29.760  1.00  0.00     0.029 A 
ATOM     55  C   UNL A   1      40.510  30.535  31.061  1.00  0.00     0.049 A 
ATOM     56  H   UNL A   1      42.100  30.328  32.392  1.00  0.00     0.167 HD
ATOM     57  C   UNL A   1      45.313  29.500  35.270  1.00  0.00     0.031 A 
ATOM     58  C   UNL A   1      39.630  31.390  31.617  1.00  0.00     0.031 A 
ATOM     59  C   UNL A   1      44.475  30.480  35.906  1.00  0.00     0.049 A 
ATOM     60  C   UNL A   1      39.917  31.954  32.982  1.00  0.00     0.074 A 
ATOM     61  C   UNL A   1      44.657  31.106  37.125  1.00  0.00     0.029 A 
ATOM     62  N   UNL A   1      43.299  30.981  35.368  1.00  0.00    -0.354 N 
ATOM     63  N   UNL A   1      40.937  31.712  33.772  1.00  0.00    -0.248 NA
ATOM     64  C   UNL A   1      38.943  32.907  33.531  1.00  0.00     0.031 C 
ATOM     65  C   UNL A   1      43.570  31.957  37.345  1.00  0.00     0.029 A 
ATOM     66  C   UNL A   1      42.740  31.902  36.235  1.00  0.00     0.049 A 
ATOM     67  H   UNL A   1      42.920  30.722  34.497  1.00  0.00     0.167 HD
ATOM     68  C   UNL A   1      40.745  32.513  34.893  1.00  0.00     0.074 A 
ATOM     69  C   UNL A   1      39.512  33.244  34.681  1.00  0.00     0.031 C 
ATOM     70  C   UNL A   1      41.525  32.638  35.994  1.00  0.00     0.031 A 
BRANCH  57  71
ATOM     71  C   UNL A   1      46.532  29.011  36.005  1.00  0.00    -0.014 A 
ATOM     72  C   UNL A   1      46.467  27.897  36.861  1.00  0.00     0.010 A 
ATOM     73  C   UNL A   1      47.767  29.658  35.815  1.00  0.00     0.010 A 
ATOM     74  C   UNL A   1      47.605  27.466  37.547  1.00  0.00     0.020 A 
ATOM     75  C   UNL A   1      48.914  29.212  36.478  1.00  0.00     0.020 A 
ATOM     76  C   UNL A   1      48.820  28.130  37.356  1.00  0.00     0.054 A 
BRANCH  76  77
ATOM     77  S   UNL A   1      50.284  27.541  38.249  1.00  0.00     0.124 S 
ATOM     78  O   UNL A   1      50.634  28.709  39.053  1.00  0.00    -0.237 OA
ATOM     79  O   UNL A   1      49.766  26.397  38.997  1.00  0.00    -0.237 OA
ATOM     80  O   UNL A   1      51.230  27.210  37.187  1.00  0.00    -0.744 OA
ENDBRANCH  76  77
ENDBRANCH  57  71
BRANCH  58  81
ATOM     81  C   UNL A   1      38.397  31.773  30.877  1.00  0.00    -0.014 A 
ATOM     82  C   UNL A   1      37.224  31.010  31.008  1.00  0.00     0.010 A 
ATOM     83  C   UNL A   1      38.382  32.912  30.050  1.00  0.00     0.010 A 
ATOM     84  C   UNL A   1      36.063  31.368  30.316  1.00  0.00     0.020 A 
ATOM     85  C   UNL A   1      37.216  33.288  29.377  1.00  0.00     0.020 A 
ATOM     86  C   UNL A   1      36.066  32.507  29.505  1.00  0.00     0.054 A 
BRANCH  86  87
ATOM     87  S   UNL A   1      34.535  32.982  28.658  1.00  0.00     0.124 S 
ATOM     88  O   UNL A   1      35.030  33.864  27.607  1.00  0.00    -0.237 OA
ATOM     89  O   UNL A   1      34.007  31.696  28.211  1.00  0.00    -0.237 OA
ATOM     90  O   UNL A   1      33.754  33.634  29.707  1.00  0.00    -0.744 OA
ENDBRANCH  86  87
ENDBRANCH  58  81
BRANCH  70  91
ATOM     91  C   UNL A   1      41.118  33.643  37.035  1.00  0.00    -0.014 A 
ATOM     92  C   UNL A   1      41.466  34.999  36.920  1.00  0.00     0.010 A 
ATOM     93  C   UNL A   1      40.275  33.234  38.087  1.00  0.00     0.010 A 
ATOM     94  C   UNL A   1      40.978  35.931  37.841  1.00  0.00     0.020 A 
ATOM     95  C   UNL A   1      39.768  34.166  38.994  1.00  0.00     0.020 A 
ATOM     96  C   UNL A   1      40.127  35.510  38.868  1.00  0.00     0.054 A 
BRANCH  96  97
ATOM     97  S   UNL A   1      39.430  36.752  39.992  1.00  0.00     0.124 S 
ATOM     98  O   UNL A   1      39.089  37.834  39.073  1.00  0.00    -0.237 OA
ATOM     99  O   UNL A   1      38.295  36.048  40.584  1.00  0.00    -0.237 OA
ATOM    100  O   UNL A   1      40.527  37.039  40.914  1.00  0.00    -0.744 OA
ENDBRANCH  96  97
ENDBRANCH  70  91
ENDBRANCH  44  45
ENDBRANCH  36  39
ENDBRANCH  34  35
ENDBRANCH  33  34
ENDBRANCH  32  33
ENDBRANCH   1  32
TORSDOF 20
ENDMDL
MODEL 2
REMARK VINA RESULT:      -9.9      4.716     10.589
REMARK SMILES COc1c[nH]c(C[N@H+]2CCC[C@@H](c3ccc(C(=O)NCCCCCCNC(=O)c4ccc(-c5c6nc(c(-c7ccc(S(=O)(=O)[O-])cc7)c7ccc([nH]7)c(-c7ccc(S(=O)(=O)[O-])cc7)c7nc(c(-c8ccc(S(=O)(=O)[O-])cc8)c8ccc5[nH]8)C=C7)C=C6)cc4)cc3)C2)cc1=O
REMARK SMILES IDX 22 1 21 2 20 3 19 4 17 5 18 6 16 8 13 9 14 10 90 11 15 12
REMARK SMILES IDX 89 13 12 14 8 15 9 16 91 17 10 19 11 20 7 21 6 22 3 23 4 24
REMARK SMILES IDX 93 25 5 26 92 27 94 28 2 30 1 31 23 32 24 33 25 34 26 35
REMARK SMILES IDX 27 36 28 38 29 39 30 40 88 41 31 42 87 43 32 44 33 45 34 46
REMARK SMILES IDX 81 47 35 48 86 49 80 50 82 51 36 52 85 53 79 54 78 55 37 57
REMARK SMILES IDX 67 58 48 59 66 60 49 61 52 62 65 63 83 64 50 65 51 66 64 68
REMARK SMILES IDX 84 69 53 70 38 71 39 72 47 73 40 74 46 75 41 76 42 77 43 78
REMARK SMILES IDX 44 79 45 80 68 81 69 82 77 83 70 84 76 85 71 86 72 87 73 88
REMARK SMILES IDX 74 89 75 90 54 91 55 92 63 93 56 94 62 95 57 96 58 97 59 98
REMARK SMILES IDX 60 99 61 100
REMARK H PARENT 19 7 8 18 5 29 26 37 82 56 52 67
REMARK Flexibility Score: inf
ROOT
ATOM      1  C   UNL A   1      40.698  31.411  30.962  1.00  0.00     0.002 C 
ENDROOT
BRANCH   1   2
ATOM      2  C   UNL A   1      41.219  30.434  32.024  1.00  0.00     0.021 C 
BRANCH   2   3
ATOM      3  C   UNL A   1      41.270  28.986  31.533  1.00  0.00     0.116 C 
BRANCH   3   4
ATOM      4  N   UNL A   1      40.290  28.194  32.250  1.00  0.00    -0.352 N 
ATOM      5  C   UNL A   1      38.942  28.034  32.079  1.00  0.00     0.251 C 
ATOM      6  O   UNL A   1      38.345  27.308  32.876  1.00  0.00    -0.269 OA
ATOM      7  H   UNL A   1      40.665  27.675  32.998  1.00  0.00     0.163 HD
BRANCH   5   8
ATOM      8  C   UNL A   1      38.194  28.624  30.935  1.00  0.00     0.039 A 
ATOM      9  C   UNL A   1      36.527  29.688  28.912  1.00  0.00    -0.039 A 
ATOM     10  C   UNL A   1      36.279  29.956  30.268  1.00  0.00     0.005 A 
ATOM     11  C   UNL A   1      37.677  28.964  28.583  1.00  0.00     0.005 A 
ATOM     12  C   UNL A   1      37.089  29.415  31.265  1.00  0.00     0.014 A 
ATOM     13  C   UNL A   1      38.518  28.463  29.585  1.00  0.00     0.014 A 
BRANCH   9  14
ATOM     14  C   UNL A   1      35.576  30.161  27.819  1.00  0.00     0.074 C 
ATOM     15  N   UNL A   1      33.579  29.402  26.433  1.00  0.00    -0.329 N 
ATOM     16  C   UNL A   1      32.809  30.549  26.934  1.00  0.00     0.262 C 
ATOM     17  C   UNL A   1      34.643  29.014  27.367  1.00  0.00     0.270 C 
ATOM     18  H   UNL A   1      34.038  29.701  25.572  1.00  0.00     0.348 HD
ATOM     19  C   UNL A   1      33.711  31.742  27.253  1.00  0.00     0.062 C 
ATOM     20  C   UNL A   1      34.766  31.373  28.291  1.00  0.00     0.020 C 
BRANCH  15  21
ATOM     21  C   UNL A   1      32.704  28.262  26.066  1.00  0.00     0.317 C 
BRANCH  21  22
ATOM     22  C   UNL A   1      33.295  27.246  25.086  1.00  0.00     0.074 A 
ATOM     23  C   UNL A   1      34.103  25.039  23.463  1.00  0.00     0.182 A 
ATOM     24  C   UNL A   1      34.184  25.026  24.800  1.00  0.00     0.133 A 
ATOM     25  C   UNL A   1      33.670  26.342  22.838  1.00  0.00     0.223 A 
ATOM     26  N   UNL A   1      33.880  26.099  25.591  1.00  0.00    -0.357 N 
ATOM     27  C   UNL A   1      33.219  27.430  23.754  1.00  0.00     0.083 A 
ATOM     28  O   UNL A   1      33.643  26.526  21.625  1.00  0.00    -0.286 OA
ATOM     29  H   UNL A   1      34.085  26.053  26.553  1.00  0.00     0.166 HD
BRANCH  23  30
ATOM     30  O   UNL A   1      34.315  23.882  22.737  1.00  0.00    -0.491 OA
ATOM     31  C   UNL A   1      34.190  22.700  23.514  1.00  0.00     0.278 C 
ENDBRANCH  23  30
ENDBRANCH  21  22
ENDBRANCH  15  21
ENDBRANCH   9  14
ENDBRANCH   5   8
ENDBRANCH   3   4
ENDBRANCH   2   3
ENDBRANCH   1   2
BRANCH   1  32
ATOM     32  C   UNL A   1      39.767  32.505  31.498  1.00  0.00     0.002 C 
BRANCH  32  33
ATOM     33  C   UNL A   1      38.592  32.851  30.580  1.00  0.00     0.021 C 
BRANCH  33  34
ATOM     34  C   UNL A   1      38.174  34.316  30.636  1.00  0.00     0.116 C 
BRANCH  34  35
ATOM     35  N   UNL A   1      36.735  34.453  30.814  1.00  0.00    -0.352 N 
ATOM     36  C   UNL A   1      35.965  34.043  31.875  1.00  0.00     0.251 C 
ATOM     37  H   UNL A   1      36.253  34.898  30.079  1.00  0.00     0.163 HD
ATOM     38  O   UNL A   1      34.746  34.014  31.791  1.00  0.00    -0.269 OA
BRANCH  36  39
ATOM     39  C   UNL A   1      36.644  33.622  33.118  1.00  0.00     0.039 A 
ATOM     40  C   UNL A   1      36.684  32.268  33.457  1.00  0.00     0.014 A 
ATOM     41  C   UNL A   1      37.267  34.578  33.925  1.00  0.00     0.014 A 
ATOM     42  C   UNL A   1      37.405  31.862  34.583  1.00  0.00     0.010 A 
ATOM     43  C   UNL A   1      38.034  34.166  35.007  1.00  0.00     0.010 A 
ATOM     44  C   UNL A   1      38.108  32.806  35.349  1.00  0.00    -0.014 A 
BRANCH  44  45
ATOM     45  C   UNL A   1      38.918  32.422  36.531  1.00  0.00     0.031 A 
ATOM     46  C   UNL A   1      38.276  32.420  37.891  1.00  0.00     0.074 A 
ATOM     47  C   UNL A   1      40.238  32.188  36.400  1.00  0.00     0.049 A 
ATOM     48  N   UNL A   1      38.834  32.308  39.068  1.00  0.00    -0.248 NA
ATOM     49  C   UNL A   1      36.815  32.600  37.930  1.00  0.00     0.031 C 
ATOM     50  C   UNL A   1      40.979  32.177  35.137  1.00  0.00     0.029 A 
ATOM     51  N   UNL A   1      41.198  31.941  37.349  1.00  0.00    -0.354 N 
ATOM     52  C   UNL A   1      37.800  32.441  39.987  1.00  0.00     0.074 A 
ATOM     53  C   UNL A   1      36.589  32.674  39.233  1.00  0.00     0.031 C 
ATOM     54  C   UNL A   1      42.275  31.930  35.390  1.00  0.00     0.029 A 
ATOM     55  C   UNL A   1      42.467  31.815  36.833  1.00  0.00     0.049 A 
ATOM     56  H   UNL A   1      40.997  31.861  38.310  1.00  0.00     0.167 HD
ATOM     57  C   UNL A   1      37.855  32.366  41.338  1.00  0.00     0.031 A 
ATOM     58  C   UNL A   1      43.652  31.652  37.451  1.00  0.00     0.031 A 
ATOM     59  C   UNL A   1      39.061  32.112  42.078  1.00  0.00     0.049 A 
ATOM     60  C   UNL A   1      43.692  31.577  38.954  1.00  0.00     0.074 A 
ATOM     61  C   UNL A   1      39.217  31.970  43.445  1.00  0.00     0.029 A 
ATOM     62  N   UNL A   1      40.317  31.952  41.511  1.00  0.00    -0.354 N 
ATOM     63  N   UNL A   1      42.700  31.673  39.807  1.00  0.00    -0.248 NA
ATOM     64  C   UNL A   1      45.005  31.366  39.578  1.00  0.00     0.031 C 
ATOM     65  C   UNL A   1      40.574  31.767  43.709  1.00  0.00     0.029 A 
ATOM     66  C   UNL A   1      41.254  31.725  42.501  1.00  0.00     0.049 A 
ATOM     67  H   UNL A   1      40.511  31.994  40.547  1.00  0.00     0.167 HD
ATOM     68  C   UNL A   1      43.264  31.495  41.065  1.00  0.00     0.074 A 
ATOM     69  C   UNL A   1      44.684  31.289  40.863  1.00  0.00     0.031 C 
ATOM     70  C   UNL A   1      42.659  31.495  42.278  1.00  0.00     0.031 A 
BRANCH  57  71
ATOM     71  C   UNL A   1      36.573  32.571  42.099  1.00  0.00    -0.014 A 
ATOM     72  C   UNL A   1      36.224  33.834  42.609  1.00  0.00     0.010 A 
ATOM     73  C   UNL A   1      35.691  31.490  42.282  1.00  0.00     0.010 A 
ATOM     74  C   UNL A   1      35.038  34.003  43.327  1.00  0.00     0.020 A 
ATOM     75  C   UNL A   1      34.489  31.662  42.975  1.00  0.00     0.020 A 
ATOM     76  C   UNL A   1      34.181  32.915  43.510  1.00  0.00     0.054 A 
BRANCH  76  77
ATOM     77  S   UNL A   1      32.641  33.165  44.435  1.00  0.00     0.124 S 
ATOM     78  O   UNL A   1      32.596  31.969  45.272  1.00  0.00    -0.237 OA
ATOM     79  O   UNL A   1      32.892  34.418  45.144  1.00  0.00    -0.237 OA
ATOM     80  O   UNL A   1      31.618  33.237  43.395  1.00  0.00    -0.744 OA
ENDBRANCH  76  77
ENDBRANCH  57  71
BRANCH  58  81
ATOM     81  C   UNL A   1      44.900  31.540  36.648  1.00  0.00    -0.014 A 
ATOM     82  C   UNL A   1      45.646  32.688  36.331  1.00  0.00     0.010 A 
ATOM     83  C   UNL A   1      45.360  30.284  36.210  1.00  0.00     0.010 A 
ATOM     84  C   UNL A   1      46.820  32.586  35.578  1.00  0.00     0.020 A 
ATOM     85  C   UNL A   1      46.546  30.175  35.479  1.00  0.00     0.020 A 
ATOM     86  C   UNL A   1      47.264  31.329  35.158  1.00  0.00     0.054 A 
BRANCH  86  87
ATOM     87  S   UNL A   1      48.817  31.214  34.228  1.00  0.00     0.124 S 
ATOM     88  O   UNL A   1      48.892  32.528  33.599  1.00  0.00    -0.237 OA
ATOM     89  O   UNL A   1      49.797  30.957  35.280  1.00  0.00    -0.237 OA
ATOM     90  O   UNL A   1      48.586  30.095  33.318  1.00  0.00    -0.744 OA
ENDBRANCH  86  87
ENDBRANCH  58  81
BRANCH  70  91
ATOM     91  C   UNL A   1      43.504  31.202  43.486  1.00  0.00    -0.014 A 
ATOM     92  C   UNL A   1      44.132  32.231  44.207  1.00  0.00     0.010 A 
ATOM     93  C   UNL A   1      43.572  29.881  43.969  1.00  0.00     0.010 A 
ATOM     94  C   UNL A   1      44.818  31.943  45.392  1.00  0.00     0.020 A 
ATOM     95  C   UNL A   1      44.236  29.594  45.163  1.00  0.00     0.020 A 
ATOM     96  C   UNL A   1      44.858  30.627  45.866  1.00  0.00     0.054 A 
BRANCH  96  97
ATOM     97  S   UNL A   1      45.670  30.295  47.454  1.00  0.00     0.124 S 
ATOM     98  O   UNL A   1      46.292  28.996  47.209  1.00  0.00    -0.237 OA
ATOM     99  O   UNL A   1      46.592  31.420  47.584  1.00  0.00    -0.237 OA
ATOM    100  O   UNL A   1      44.567  30.287  48.412  1.00  0.00    -0.744 OA
ENDBRANCH  96  97
ENDBRANCH  70  91
ENDBRANCH  44  45
ENDBRANCH  36  39
ENDBRANCH  34  35
ENDBRANCH  33  34
ENDBRANCH  32  33
ENDBRANCH   1  32
TORSDOF 20
ENDMDL
MODEL 3
REMARK VINA RESULT:      -9.8      6.431     11.777
REMARK SMILES COc1c[nH]c(C[N@H+]2CCC[C@@H](c3ccc(C(=O)NCCCCCCNC(=O)c4ccc(-c5c6nc(c(-c7ccc(S(=O)(=O)[O-])cc7)c7ccc([nH]7)c(-c7ccc(S(=O)(=O)[O-])cc7)c7nc(c(-c8ccc(S(=O)(=O)[O-])cc8)c8ccc5[nH]8)C=C7)C=C6)cc4)cc3)C2)cc1=O
REMARK SMILES IDX 22 1 21 2 20 3 19 4 17 5 18 6 16 8 13 9 14 10 90 11 15 12
REMARK SMILES IDX 89 13 12 14 8 15 9 16 91 17 10 19 11 20 7 21 6 22 3 23 4 24
REMARK SMILES IDX 93 25 5 26 92 27 94 28 2 30 1 31 23 32 24 33 25 34 26 35
REMARK SMILES IDX 27 36 28 38 29 39 30 40 88 41 31 42 87 43 32 44 33 45 34 46
REMARK SMILES IDX 81 47 35 48 86 49 80 50 82 51 36 52 85 53 79 54 78 55 37 57
REMARK SMILES IDX 67 58 48 59 66 60 49 61 52 62 65 63 83 64 50 65 51 66 64 68
REMARK SMILES IDX 84 69 53 70 38 71 39 72 47 73 40 74 46 75 41 76 42 77 43 78
REMARK SMILES IDX 44 79 45 80 68 81 69 82 77 83 70 84 76 85 71 86 72 87 73 88
REMARK SMILES IDX 74 89 75 90 54 91 55 92 63 93 56 94 62 95 57 96 58 97 59 98
REMARK SMILES IDX 60 99 61 100
REMARK H PARENT 19 7 8 18 5 29 26 37 82 56 52 67
REMARK Flexibility Score: inf
ROOT
ATOM      1  C   UNL A   1      37.084  34.269  32.870  1.00  0.00     0.002 C 
ENDROOT
BRANCH   1   2
ATOM      2  C   UNL A   1      36.112  33.549  31.926  1.00  0.00     0.021 C 
BRANCH   2   3
ATOM      3  C   UNL A   1      36.411  33.805  30.448  1.00  0.00     0.116 C 
BRANCH   3   4
ATOM      4  N   UNL A   1      35.282  33.382  29.643  1.00  0.00    -0.352 N 
ATOM      5  C   UNL A   1      35.060  32.253  28.903  1.00  0.00     0.251 C 
ATOM      6  O   UNL A   1      34.001  32.175  28.280  1.00  0.00    -0.269 OA
ATOM      7  H   UNL A   1      34.539  34.026  29.625  1.00  0.00     0.163 HD
BRANCH   5   8
ATOM      8  C   UNL A   1      35.996  31.094  28.890  1.00  0.00     0.039 A 
ATOM      9  C   UNL A   1      37.825  28.953  29.150  1.00  0.00    -0.039 A 
ATOM     10  C   UNL A   1      36.877  29.218  30.151  1.00  0.00     0.005 A 
ATOM     11  C   UNL A   1      37.776  29.711  27.976  1.00  0.00     0.005 A 
ATOM     12  C   UNL A   1      35.990  30.286  30.031  1.00  0.00     0.014 A 
ATOM     13  C   UNL A   1      36.850  30.753  27.837  1.00  0.00     0.014 A 
BRANCH   9  14
ATOM     14  C   UNL A   1      38.888  27.874  29.324  1.00  0.00     0.074 C 
ATOM     15  N   UNL A   1      40.463  26.379  27.994  1.00  0.00    -0.329 N 
ATOM     16  C   UNL A   1      41.603  26.946  28.726  1.00  0.00     0.262 C 
ATOM     17  C   UNL A   1      39.328  27.309  27.953  1.00  0.00     0.270 C 
ATOM     18  H   UNL A   1      40.151  25.557  28.511  1.00  0.00     0.348 HD
ATOM     19  C   UNL A   1      41.211  27.382  30.138  1.00  0.00     0.062 C 
ATOM     20  C   UNL A   1      40.090  28.416  30.104  1.00  0.00     0.020 C 
BRANCH  15  21
ATOM     21  C   UNL A   1      40.851  25.900  26.644  1.00  0.00     0.317 C 
BRANCH  21  22
ATOM     22  C   UNL A   1      41.191  24.413  26.528  1.00  0.00     0.074 A 
ATOM     23  C   UNL A   1      42.274  21.773  26.393  1.00  0.00     0.182 A 
ATOM     24  C   UNL A   1      42.689  22.770  25.600  1.00  0.00     0.133 A 
ATOM     25  C   UNL A   1      41.105  22.085  27.294  1.00  0.00     0.223 A 
ATOM     26  N   UNL A   1      42.130  24.017  25.591  1.00  0.00    -0.357 N 
ATOM     27  C   UNL A   1      40.628  23.498  27.340  1.00  0.00     0.083 A 
ATOM     28  O   UNL A   1      40.563  21.242  28.002  1.00  0.00    -0.286 OA
ATOM     29  H   UNL A   1      42.404  24.656  24.893  1.00  0.00     0.166 HD
BRANCH  23  30
ATOM     30  O   UNL A   1      42.962  20.575  26.430  1.00  0.00    -0.491 OA
ATOM     31  C   UNL A   1      42.294  19.521  25.752  1.00  0.00     0.278 C 
ENDBRANCH  23  30
ENDBRANCH  21  22
ENDBRANCH  15  21
ENDBRANCH   9  14
ENDBRANCH   5   8
ENDBRANCH   3   4
ENDBRANCH   2   3
ENDBRANCH   1   2
BRANCH   1  32
ATOM     32  C   UNL A   1      36.538  34.525  34.280  1.00  0.00     0.002 C 
BRANCH  32  33
ATOM     33  C   UNL A   1      36.819  33.406  35.287  1.00  0.00     0.021 C 
BRANCH  33  34
ATOM     34  C   UNL A   1      38.082  32.607  34.987  1.00  0.00     0.116 C 
BRANCH  34  35
ATOM     35  N   UNL A   1      37.779  31.205  34.738  1.00  0.00    -0.352 N 
ATOM     36  C   UNL A   1      38.233  30.405  33.718  1.00  0.00     0.251 C 
ATOM     37  H   UNL A   1      37.172  30.777  35.384  1.00  0.00     0.163 HD
ATOM     38  O   UNL A   1      37.720  29.317  33.499  1.00  0.00    -0.269 OA
BRANCH  36  39
ATOM     39  C   UNL A   1      39.348  30.892  32.880  1.00  0.00     0.039 A 
ATOM     40  C   UNL A   1      39.072  31.513  31.659  1.00  0.00     0.014 A 
ATOM     41  C   UNL A   1      40.663  30.759  33.331  1.00  0.00     0.014 A 
ATOM     42  C   UNL A   1      40.120  32.056  30.913  1.00  0.00     0.010 A 
ATOM     43  C   UNL A   1      41.696  31.354  32.618  1.00  0.00     0.010 A 
ATOM     44  C   UNL A   1      41.436  32.006  31.401  1.00  0.00    -0.014 A 
BRANCH  44  45
ATOM     45  C   UNL A   1      42.577  32.601  30.665  1.00  0.00     0.031 A 
ATOM     46  C   UNL A   1      43.462  31.708  29.838  1.00  0.00     0.074 A 
ATOM     47  C   UNL A   1      42.884  33.902  30.826  1.00  0.00     0.049 A 
ATOM     48  N   UNL A   1      44.612  31.975  29.276  1.00  0.00    -0.248 NA
ATOM     49  C   UNL A   1      43.005  30.321  29.647  1.00  0.00     0.031 C 
ATOM     50  C   UNL A   1      42.112  34.865  31.614  1.00  0.00     0.029 A 
ATOM     51  N   UNL A   1      43.944  34.634  30.354  1.00  0.00    -0.354 N 
ATOM     52  C   UNL A   1      45.033  30.784  28.697  1.00  0.00     0.074 A 
ATOM     53  C   UNL A   1      44.032  29.786  29.005  1.00  0.00     0.031 C 
ATOM     54  C   UNL A   1      42.722  36.061  31.566  1.00  0.00     0.029 A 
ATOM     55  C   UNL A   1      43.951  35.939  30.787  1.00  0.00     0.049 A 
ATOM     56  H   UNL A   1      44.634  34.260  29.760  1.00  0.00     0.167 HD
ATOM     57  C   UNL A   1      46.148  30.546  27.968  1.00  0.00     0.031 A 
ATOM     58  C   UNL A   1      44.857  36.919  30.601  1.00  0.00     0.031 A 
ATOM     59  C   UNL A   1      47.126  31.549  27.649  1.00  0.00     0.049 A 
ATOM     60  C   UNL A   1      46.093  36.632  29.792  1.00  0.00     0.074 A 
ATOM     61  C   UNL A   1      48.268  31.423  26.879  1.00  0.00     0.029 A 
ATOM     62  N   UNL A   1      47.074  32.868  28.078  1.00  0.00    -0.354 N 
ATOM     63  N   UNL A   1      46.460  35.507  29.226  1.00  0.00    -0.248 NA
ATOM     64  C   UNL A   1      47.034  37.743  29.592  1.00  0.00     0.031 C 
ATOM     65  C   UNL A   1      48.929  32.655  26.874  1.00  0.00     0.029 A 
ATOM     66  C   UNL A   1      48.168  33.562  27.596  1.00  0.00     0.049 A 
ATOM     67  H   UNL A   1      46.363  33.251  28.640  1.00  0.00     0.167 HD
ATOM     68  C   UNL A   1      47.654  35.786  28.569  1.00  0.00     0.074 A 
ATOM     69  C   UNL A   1      47.949  37.184  28.811  1.00  0.00     0.031 C 
ATOM     70  C   UNL A   1      48.430  34.961  27.826  1.00  0.00     0.031 A 
BRANCH  57  71
ATOM     71  C   UNL A   1      46.371  29.142  27.475  1.00  0.00    -0.014 A 
ATOM     72  C   UNL A   1      45.999  28.760  26.174  1.00  0.00     0.010 A 
ATOM     73  C   UNL A   1      46.989  28.198  28.316  1.00  0.00     0.010 A 
ATOM     74  C   UNL A   1      46.199  27.448  25.738  1.00  0.00     0.020 A 
ATOM     75  C   UNL A   1      47.217  26.892  27.874  1.00  0.00     0.020 A 
ATOM     76  C   UNL A   1      46.802  26.520  26.593  1.00  0.00     0.054 A 
BRANCH  76  77
ATOM     77  S   UNL A   1      47.061  24.828  25.997  1.00  0.00     0.124 S 
ATOM     78  O   UNL A   1      46.771  24.964  24.572  1.00  0.00    -0.237 OA
ATOM     79  O   UNL A   1      48.461  24.580  26.331  1.00  0.00    -0.237 OA
ATOM     80  O   UNL A   1      46.094  24.039  26.757  1.00  0.00    -0.744 OA
ENDBRANCH  76  77
ENDBRANCH  57  71
BRANCH  58  81
ATOM     81  C   UNL A   1      44.624  38.267  31.187  1.00  0.00    -0.014 A 
ATOM     82  C   UNL A   1      45.173  38.605  32.435  1.00  0.00     0.010 A 
ATOM     83  C   UNL A   1      43.865  39.228  30.492  1.00  0.00     0.010 A 
ATOM     84  C   UNL A   1      44.958  39.872  32.986  1.00  0.00     0.020 A 
ATOM     85  C   UNL A   1      43.668  40.504  31.028  1.00  0.00     0.020 A 
ATOM     86  C   UNL A   1      44.207  40.815  32.277  1.00  0.00     0.054 A 
BRANCH  86  87
ATOM     87  S   UNL A   1      43.984  42.469  32.987  1.00  0.00     0.124 S 
ATOM     88  O   UNL A   1      44.355  43.331  31.871  1.00  0.00    -0.237 OA
ATOM     89  O   UNL A   1      42.569  42.471  33.348  1.00  0.00    -0.237 OA
ATOM     90  O   UNL A   1      44.906  42.479  34.121  1.00  0.00    -0.744 OA
ENDBRANCH  86  87
ENDBRANCH  58  81
BRANCH  70  91
ATOM     91  C   UNL A   1      49.645  35.546  27.160  1.00  0.00    -0.014 A 
ATOM     92  C   UNL A   1      49.558  36.183  25.911  1.00  0.00     0.010 A 
ATOM     93  C   UNL A   1      50.869  35.555  27.856  1.00  0.00     0.010 A 
ATOM     94  C   UNL A   1      50.679  36.818  25.367  1.00  0.00     0.020 A 
ATOM     95  C   UNL A   1      51.983  36.208  27.325  1.00  0.00     0.020 A 
ATOM     96  C   UNL A   1      51.882  36.833  26.081  1.00  0.00     0.054 A 
BRANCH  96  97
ATOM     97  S   UNL A   1      53.293  37.746  25.399  1.00  0.00     0.124 S 
ATOM     98  O   UNL A   1      53.051  37.648  23.962  1.00  0.00    -0.237 OA
ATOM     99  O   UNL A   1      53.122  39.078  25.975  1.00  0.00    -0.237 OA
ATOM    100  O   UNL A   1      54.454  37.006  25.888  1.00  0.00    -0.744 OA
ENDBRANCH  96  97
ENDBRANCH  70  91
ENDBRANCH  44  45
ENDBRANCH  36  39
ENDBRANCH  34  35
ENDBRANCH  33  34
ENDBRANCH  32  33
ENDBRANCH   1  32
TORSDOF 20
ENDMDL
