MODEL 1
REMARK VINA RESULT:     -11.8      0.000      0.000
REMARK SMILES Cc1cc(F)cc(N[C@H](C(=O)NCCCCCCNC(=O)c2ccc(-c3c4nc(c(-c5ccc(S(=O)(=O)[O-])cc5)c5ccc([nH]5)c(-c5ccc(S(=O)(=O)[O-])cc5)c5nc(c(-c6ccc(S(=O)(=O)[O-])cc6)c6ccc3[nH]6)C=C5)C=C4)cc2)c2cc(C)cc(C)c2)c1
REMARK SMILES IDX 16 1 15 2 14 3 13 4 12 5 10 6 11 7 9 9 8 10 7 12 1 13 2 14
REMARK SMILES IDX 3 15 90 16 4 17 5 18 6 19 82 20 83 21 89 22 84 23 87 24
REMARK SMILES IDX 85 25 86 26 88 27 17 28 18 29 19 30 20 31 21 33 22 34 23 35
REMARK SMILES IDX 81 36 24 37 80 38 25 39 26 40 27 41 74 42 28 43 79 44 73 45
REMARK SMILES IDX 75 46 29 47 78 48 72 49 71 50 30 52 60 53 41 54 59 55 42 56
REMARK SMILES IDX 45 57 58 58 76 59 43 60 44 61 57 63 77 64 46 65 31 66 32 67
REMARK SMILES IDX 40 68 33 69 39 70 34 71 35 72 36 73 37 74 38 75 61 76 62 77
REMARK SMILES IDX 70 78 63 79 69 80 64 81 65 82 66 83 67 84 68 85 47 86 48 87
REMARK SMILES IDX 56 88 49 89 55 90 50 91 51 92 52 93 53 94 54 95
REMARK H PARENT 12 8 8 11 19 32 75 51 45 62
REMARK Flexibility Score: inf
ROOT
ATOM      1  C   UNL A   1      38.491  23.700  26.482  1.00  0.00     0.002 C 
ENDROOT
BRANCH   1   2
ATOM      2  C   UNL A   1      37.424  23.318  25.451  1.00  0.00     0.002 C 
BRANCH   2   3
ATOM      3  C   UNL A   1      37.435  21.857  24.986  1.00  0.00     0.021 C 
BRANCH   3   4
ATOM      4  C   UNL A   1      36.148  21.083  25.247  1.00  0.00     0.116 C 
BRANCH   4   5
ATOM      5  N   UNL A   1      35.541  21.423  26.514  1.00  0.00    -0.354 N 
ATOM      6  C   UNL A   1      34.365  22.066  26.774  1.00  0.00     0.247 C 
ATOM      7  O   UNL A   1      34.102  22.207  27.977  1.00  0.00    -0.272 OA
ATOM      8  H   UNL A   1      36.053  21.149  27.310  1.00  0.00     0.163 HD
BRANCH   6   9
ATOM      9  C   UNL A   1      33.484  22.706  25.657  1.00  0.00     0.200 C 
BRANCH   9  10
ATOM     10  N   UNL A   1      32.431  21.829  25.077  1.00  0.00    -0.370 N 
ATOM     11  H   UNL A   1      31.523  22.209  25.127  1.00  0.00     0.161 HD
BRANCH  10  12
ATOM     12  C   UNL A   1      32.483  20.584  24.480  1.00  0.00     0.038 A 
ATOM     13  C   UNL A   1      32.770  16.927  25.649  1.00  0.00     0.044 C 
ATOM     14  C   UNL A   1      32.635  18.132  24.767  1.00  0.00    -0.046 A 
ATOM     15  C   UNL A   1      32.521  17.948  23.389  1.00  0.00     0.042 A 
ATOM     16  C   UNL A   1      32.646  19.443  25.291  1.00  0.00     0.029 A 
ATOM     17  C   UNL A   1      32.356  19.053  22.583  1.00  0.00     0.125 A 
ATOM     18  F   UNL A   1      32.235  18.901  21.258  1.00  0.00    -0.207 F 
ATOM     19  C   UNL A   1      32.300  20.333  23.126  1.00  0.00     0.065 A 
ENDBRANCH  10  12
ENDBRANCH   9  10
BRANCH   9  20
ATOM     20  C   UNL A   1      32.930  24.091  25.995  1.00  0.00    -0.016 A 
ATOM     21  C   UNL A   1      31.555  24.277  26.194  1.00  0.00     0.009 A 
ATOM     22  C   UNL A   1      33.748  25.229  25.946  1.00  0.00     0.009 A 
ATOM     23  C   UNL A   1      30.971  25.531  26.019  1.00  0.00    -0.051 A 
ATOM     24  C   UNL A   1      33.188  26.515  25.985  1.00  0.00    -0.051 A 
ATOM     25  C   UNL A   1      29.511  25.612  25.674  1.00  0.00     0.044 C 
ATOM     26  C   UNL A   1      31.794  26.653  25.940  1.00  0.00     0.006 A 
ATOM     27  C   UNL A   1      34.052  27.738  25.950  1.00  0.00     0.044 C 
ENDBRANCH   9  20
ENDBRANCH   6   9
ENDBRANCH   4   5
ENDBRANCH   3   4
ENDBRANCH   2   3
ENDBRANCH   1   2
BRANCH   1  28
ATOM     28  C   UNL A   1      39.580  22.654  26.725  1.00  0.00     0.021 C 
BRANCH  28  29
ATOM     29  C   UNL A   1      40.943  23.217  27.110  1.00  0.00     0.116 C 
BRANCH  29  30
ATOM     30  N   UNL A   1      41.550  23.994  26.043  1.00  0.00    -0.352 N 
ATOM     31  C   UNL A   1      41.833  25.336  26.006  1.00  0.00     0.251 C 
ATOM     32  H   UNL A   1      41.792  23.488  25.234  1.00  0.00     0.163 HD
ATOM     33  O   UNL A   1      42.202  25.859  24.955  1.00  0.00    -0.269 OA
BRANCH  31  34
ATOM     34  C   UNL A   1      41.670  26.154  27.225  1.00  0.00     0.039 A 
ATOM     35  C   UNL A   1      42.589  27.173  27.483  1.00  0.00     0.014 A 
ATOM     36  C   UNL A   1      40.607  25.925  28.105  1.00  0.00     0.014 A 
ATOM     37  C   UNL A   1      42.410  27.999  28.595  1.00  0.00     0.010 A 
ATOM     38  C   UNL A   1      40.388  26.798  29.167  1.00  0.00     0.010 A 
ATOM     39  C   UNL A   1      41.290  27.840  29.428  1.00  0.00    -0.014 A 
BRANCH  39  40
ATOM     40  C   UNL A   1      41.051  28.754  30.574  1.00  0.00     0.031 A 
ATOM     41  C   UNL A   1      41.879  28.633  31.825  1.00  0.00     0.074 A 
ATOM     42  C   UNL A   1      40.056  29.661  30.508  1.00  0.00     0.049 A 
ATOM     43  N   UNL A   1      41.795  29.317  32.938  1.00  0.00    -0.248 NA
ATOM     44  C   UNL A   1      42.919  27.592  31.839  1.00  0.00     0.031 C 
ATOM     45  C   UNL A   1      39.157  29.851  29.365  1.00  0.00     0.029 A 
ATOM     46  N   UNL A   1      39.630  30.594  31.420  1.00  0.00    -0.354 N 
ATOM     47  C   UNL A   1      42.760  28.784  33.784  1.00  0.00     0.074 A 
ATOM     48  C   UNL A   1      43.377  27.682  33.079  1.00  0.00     0.031 C 
ATOM     49  C   UNL A   1      38.311  30.859  29.633  1.00  0.00     0.029 A 
ATOM     50  C   UNL A   1      38.575  31.358  30.980  1.00  0.00     0.049 A 
ATOM     51  H   UNL A   1      40.042  30.706  32.307  1.00  0.00     0.167 HD
ATOM     52  C   UNL A   1      43.117  29.186  35.027  1.00  0.00     0.031 A 
ATOM     53  C   UNL A   1      37.890  32.345  31.589  1.00  0.00     0.031 A 
ATOM     54  C   UNL A   1      42.502  30.287  35.722  1.00  0.00     0.049 A 
ATOM     55  C   UNL A   1      38.290  32.763  32.979  1.00  0.00     0.074 A 
ATOM     56  C   UNL A   1      42.826  30.807  36.963  1.00  0.00     0.029 A 
ATOM     57  N   UNL A   1      41.437  31.034  35.241  1.00  0.00    -0.354 N 
ATOM     58  N   UNL A   1      39.252  32.289  33.736  1.00  0.00    -0.248 NA
ATOM     59  C   UNL A   1      37.521  33.854  33.592  1.00  0.00     0.031 C 
ATOM     60  C   UNL A   1      41.916  31.827  37.259  1.00  0.00     0.029 A 
ATOM     61  C   UNL A   1      41.072  31.992  36.172  1.00  0.00     0.049 A 
ATOM     62  H   UNL A   1      41.004  30.903  34.367  1.00  0.00     0.167 HD
ATOM     63  C   UNL A   1      39.224  33.049  34.901  1.00  0.00     0.074 A 
ATOM     64  C   UNL A   1      38.160  34.019  34.743  1.00  0.00     0.031 C 
ATOM     65  C   UNL A   1      40.011  32.953  36.001  1.00  0.00     0.031 A 
BRANCH  52  66
ATOM     66  C   UNL A   1      44.216  28.425  35.722  1.00  0.00    -0.014 A 
ATOM     67  C   UNL A   1      45.564  28.807  35.587  1.00  0.00     0.010 A 
ATOM     68  C   UNL A   1      43.896  27.339  36.556  1.00  0.00     0.010 A 
ATOM     69  C   UNL A   1      46.572  28.090  36.239  1.00  0.00     0.020 A 
ATOM     70  C   UNL A   1      44.898  26.640  37.236  1.00  0.00     0.020 A 
ATOM     71  C   UNL A   1      46.232  27.011  37.058  1.00  0.00     0.054 A 
BRANCH  71  72
ATOM     72  S   UNL A   1      47.560  26.115  37.909  1.00  0.00     0.124 S 
ATOM     73  O   UNL A   1      47.946  27.066  38.950  1.00  0.00    -0.237 OA
ATOM     74  O   UNL A   1      46.881  24.911  38.381  1.00  0.00    -0.237 OA
ATOM     75  O   UNL A   1      48.558  25.898  36.865  1.00  0.00    -0.744 OA
ENDBRANCH  71  72
ENDBRANCH  52  66
BRANCH  53  76
ATOM     76  C   UNL A   1      36.763  33.016  30.884  1.00  0.00    -0.014 A 
ATOM     77  C   UNL A   1      35.430  32.730  31.227  1.00  0.00     0.010 A 
ATOM     78  C   UNL A   1      37.019  33.955  29.867  1.00  0.00     0.010 A 
ATOM     79  C   UNL A   1      34.374  33.354  30.553  1.00  0.00     0.020 A 
ATOM     80  C   UNL A   1      35.968  34.605  29.214  1.00  0.00     0.020 A 
ATOM     81  C   UNL A   1      34.652  34.290  29.554  1.00  0.00     0.054 A 
BRANCH  81  82
ATOM     82  S   UNL A   1      33.267  35.123  28.727  1.00  0.00     0.124 S 
ATOM     83  O   UNL A   1      33.952  36.150  27.948  1.00  0.00    -0.237 OA
ATOM     84  O   UNL A   1      32.666  34.039  27.955  1.00  0.00    -0.237 OA
ATOM     85  O   UNL A   1      32.453  35.614  29.836  1.00  0.00    -0.744 OA
ENDBRANCH  81  82
ENDBRANCH  53  76
BRANCH  65  86
ATOM     86  C   UNL A   1      39.785  33.947  37.109  1.00  0.00    -0.014 A 
ATOM     87  C   UNL A   1      39.041  33.613  38.255  1.00  0.00     0.010 A 
ATOM     88  C   UNL A   1      40.382  35.219  37.028  1.00  0.00     0.010 A 
ATOM     89  C   UNL A   1      38.875  34.542  39.285  1.00  0.00     0.020 A 
ATOM     90  C   UNL A   1      40.244  36.140  38.069  1.00  0.00     0.020 A 
ATOM     91  C   UNL A   1      39.480  35.799  39.187  1.00  0.00     0.054 A 
BRANCH  91  92
ATOM     92  S   UNL A   1      39.291  36.969  40.560  1.00  0.00     0.124 S 
ATOM     93  O   UNL A   1      38.475  36.206  41.500  1.00  0.00    -0.237 OA
ATOM     94  O   UNL A   1      40.673  37.202  40.974  1.00  0.00    -0.237 OA
ATOM     95  O   UNL A   1      38.627  38.118  39.949  1.00  0.00    -0.744 OA
ENDBRANCH  91  92
ENDBRANCH  65  86
ENDBRANCH  39  40
ENDBRANCH  31  34
ENDBRANCH  29  30
ENDBRANCH  28  29
ENDBRANCH   1  28
TORSDOF 19
ENDMDL
MODEL 2
REMARK VINA RESULT:     -11.5      4.534     10.031
REMARK SMILES Cc1cc(F)cc(N[C@H](C(=O)NCCCCCCNC(=O)c2ccc(-c3c4nc(c(-c5ccc(S(=O)(=O)[O-])cc5)c5ccc([nH]5)c(-c5ccc(S(=O)(=O)[O-])cc5)c5nc(c(-c6ccc(S(=O)(=O)[O-])cc6)c6ccc3[nH]6)C=C5)C=C4)cc2)c2cc(C)cc(C)c2)c1
REMARK SMILES IDX 16 1 15 2 14 3 13 4 12 5 10 6 11 7 9 9 8 10 7 12 1 13 2 14
REMARK SMILES IDX 3 15 90 16 4 17 5 18 6 19 82 20 83 21 89 22 84 23 87 24
REMARK SMILES IDX 85 25 86 26 88 27 17 28 18 29 19 30 20 31 21 33 22 34 23 35
REMARK SMILES IDX 81 36 24 37 80 38 25 39 26 40 27 41 74 42 28 43 79 44 73 45
REMARK SMILES IDX 75 46 29 47 78 48 72 49 71 50 30 52 60 53 41 54 59 55 42 56
REMARK SMILES IDX 45 57 58 58 76 59 43 60 44 61 57 63 77 64 46 65 31 66 32 67
REMARK SMILES IDX 40 68 33 69 39 70 34 71 35 72 36 73 37 74 38 75 61 76 62 77
REMARK SMILES IDX 70 78 63 79 69 80 64 81 65 82 66 83 67 84 68 85 47 86 48 87
REMARK SMILES IDX 56 88 49 89 55 90 50 91 51 92 52 93 53 94 54 95
REMARK H PARENT 12 8 8 11 19 32 75 51 45 62
REMARK Flexibility Score: inf
ROOT
ATOM      1  C   UNL A   1      31.714  28.734  25.732  1.00  0.00     0.002 C 
ENDROOT
BRANCH   1   2
ATOM      2  C   UNL A   1      30.777  27.883  24.870  1.00  0.00     0.002 C 
BRANCH   2   3
ATOM      3  C   UNL A   1      30.248  26.600  25.521  1.00  0.00     0.021 C 
BRANCH   3   4
ATOM      4  C   UNL A   1      30.164  25.390  24.597  1.00  0.00     0.116 C 
BRANCH   4   5
ATOM      5  N   UNL A   1      30.357  24.140  25.298  1.00  0.00    -0.354 N 
ATOM      6  C   UNL A   1      31.476  23.642  25.901  1.00  0.00     0.247 C 
ATOM      7  O   UNL A   1      31.332  22.533  26.435  1.00  0.00    -0.272 OA
ATOM      8  H   UNL A   1      29.562  23.561  25.347  1.00  0.00     0.163 HD
BRANCH   6   9
ATOM      9  C   UNL A   1      32.870  24.337  25.808  1.00  0.00     0.200 C 
BRANCH   9  10
ATOM     10  N   UNL A   1      33.980  23.673  26.543  1.00  0.00    -0.370 N 
ATOM     11  H   UNL A   1      33.953  23.813  27.518  1.00  0.00     0.161 HD
BRANCH  10  12
ATOM     12  C   UNL A   1      35.041  22.895  26.119  1.00  0.00     0.038 A 
ATOM     13  C   UNL A   1      38.878  23.192  26.044  1.00  0.00     0.044 C 
ATOM     14  C   UNL A   1      37.490  22.648  25.885  1.00  0.00    -0.046 A 
ATOM     15  C   UNL A   1      37.326  21.366  25.362  1.00  0.00     0.042 A 
ATOM     16  C   UNL A   1      36.350  23.406  26.227  1.00  0.00     0.029 A 
ATOM     17  C   UNL A   1      36.054  20.850  25.254  1.00  0.00     0.125 A 
ATOM     18  F   UNL A   1      35.872  19.617  24.763  1.00  0.00    -0.207 F 
ATOM     19  C   UNL A   1      34.946  21.587  25.661  1.00  0.00     0.065 A 
ENDBRANCH  10  12
ENDBRANCH   9  10
BRANCH   9  20
ATOM     20  C   UNL A   1      33.297  24.724  24.390  1.00  0.00    -0.016 A 
ATOM     21  C   UNL A   1      33.753  26.020  24.115  1.00  0.00     0.009 A 
ATOM     22  C   UNL A   1      33.083  23.857  23.309  1.00  0.00     0.009 A 
ATOM     23  C   UNL A   1      33.682  26.543  22.824  1.00  0.00    -0.051 A 
ATOM     24  C   UNL A   1      33.218  24.314  21.989  1.00  0.00    -0.051 A 
ATOM     25  C   UNL A   1      33.621  28.033  22.645  1.00  0.00     0.044 C 
ATOM     26  C   UNL A   1      33.438  25.678  21.759  1.00  0.00     0.006 A 
ATOM     27  C   UNL A   1      33.009  23.393  20.826  1.00  0.00     0.044 C 
ENDBRANCH   9  20
ENDBRANCH   6   9
ENDBRANCH   4   5
ENDBRANCH   3   4
ENDBRANCH   2   3
ENDBRANCH   1   2
BRANCH   1  28
ATOM     28  C   UNL A   1      32.455  27.984  26.841  1.00  0.00     0.021 C 
BRANCH  28  29
ATOM     29  C   UNL A   1      33.803  28.577  27.233  1.00  0.00     0.116 C 
BRANCH  29  30
ATOM     30  N   UNL A   1      33.710  29.974  27.621  1.00  0.00    -0.352 N 
ATOM     31  C   UNL A   1      34.638  30.756  28.261  1.00  0.00     0.251 C 
ATOM     32  H   UNL A   1      32.864  30.422  27.394  1.00  0.00     0.163 HD
ATOM     33  O   UNL A   1      34.328  31.879  28.657  1.00  0.00    -0.269 OA
BRANCH  31  34
ATOM     34  C   UNL A   1      36.001  30.235  28.495  1.00  0.00     0.039 A 
ATOM     35  C   UNL A   1      36.936  30.302  27.460  1.00  0.00     0.014 A 
ATOM     36  C   UNL A   1      36.359  29.693  29.733  1.00  0.00     0.014 A 
ATOM     37  C   UNL A   1      38.246  29.876  27.684  1.00  0.00     0.010 A 
ATOM     38  C   UNL A   1      37.684  29.344  29.978  1.00  0.00     0.010 A 
ATOM     39  C   UNL A   1      38.641  29.425  28.955  1.00  0.00    -0.014 A 
BRANCH  39  40
ATOM     40  C   UNL A   1      40.047  29.033  29.227  1.00  0.00     0.031 A 
ATOM     41  C   UNL A   1      41.002  30.018  29.846  1.00  0.00     0.074 A 
ATOM     42  C   UNL A   1      40.479  27.806  28.872  1.00  0.00     0.049 A 
ATOM     43  N   UNL A   1      42.272  29.870  30.127  1.00  0.00    -0.248 NA
ATOM     44  C   UNL A   1      40.469  31.352  30.169  1.00  0.00     0.031 C 
ATOM     45  C   UNL A   1      39.661  26.774  28.228  1.00  0.00     0.029 A 
ATOM     46  N   UNL A   1      41.712  27.217  28.998  1.00  0.00    -0.354 N 
ATOM     47  C   UNL A   1      42.690  31.089  30.646  1.00  0.00     0.074 A 
ATOM     48  C   UNL A   1      41.555  31.984  30.588  1.00  0.00     0.031 C 
ATOM     49  C   UNL A   1      40.405  25.671  28.049  1.00  0.00     0.029 A 
ATOM     50  C   UNL A   1      41.762  25.929  28.521  1.00  0.00     0.049 A 
ATOM     51  H   UNL A   1      42.488  27.675  29.395  1.00  0.00     0.167 HD
ATOM     52  C   UNL A   1      43.902  31.429  31.147  1.00  0.00     0.031 A 
ATOM     53  C   UNL A   1      42.784  25.053  28.462  1.00  0.00     0.031 A 
ATOM     54  C   UNL A   1      45.026  30.532  31.207  1.00  0.00     0.049 A 
ATOM     55  C   UNL A   1      44.128  25.459  29.005  1.00  0.00     0.074 A 
ATOM     56  C   UNL A   1      46.282  30.763  31.743  1.00  0.00     0.029 A 
ATOM     57  N   UNL A   1      45.035  29.236  30.712  1.00  0.00    -0.354 N 
ATOM     58  N   UNL A   1      44.484  26.596  29.555  1.00  0.00    -0.248 NA
ATOM     59  C   UNL A   1      45.203  24.461  28.931  1.00  0.00     0.031 C 
ATOM     60  C   UNL A   1      47.068  29.630  31.515  1.00  0.00     0.029 A 
ATOM     61  C   UNL A   1      46.282  28.666  30.903  1.00  0.00     0.049 A 
ATOM     62  H   UNL A   1      44.268  28.789  30.287  1.00  0.00     0.167 HD
ATOM     63  C   UNL A   1      45.816  26.437  29.923  1.00  0.00     0.074 A 
ATOM     64  C   UNL A   1      46.196  25.091  29.544  1.00  0.00     0.031 C 
ATOM     65  C   UNL A   1      46.647  27.324  30.522  1.00  0.00     0.031 A 
BRANCH  52  66
ATOM     66  C   UNL A   1      44.078  32.834  31.661  1.00  0.00    -0.014 A 
ATOM     67  C   UNL A   1      44.734  33.814  30.892  1.00  0.00     0.010 A 
ATOM     68  C   UNL A   1      43.543  33.195  32.911  1.00  0.00     0.010 A 
ATOM     69  C   UNL A   1      44.889  35.114  31.382  1.00  0.00     0.020 A 
ATOM     70  C   UNL A   1      43.667  34.502  33.391  1.00  0.00     0.020 A 
ATOM     71  C   UNL A   1      44.355  35.449  32.629  1.00  0.00     0.054 A 
BRANCH  71  72
ATOM     72  S   UNL A   1      44.551  37.150  33.229  1.00  0.00     0.124 S 
ATOM     73  O   UNL A   1      45.249  37.784  32.113  1.00  0.00    -0.237 OA
ATOM     74  O   UNL A   1      43.169  37.578  33.430  1.00  0.00    -0.237 OA
ATOM     75  O   UNL A   1      45.339  36.999  34.450  1.00  0.00    -0.744 OA
ENDBRANCH  71  72
ENDBRANCH  52  66
BRANCH  53  76
ATOM     76  C   UNL A   1      42.572  23.700  27.877  1.00  0.00    -0.014 A 
ATOM     77  C   UNL A   1      42.270  22.600  28.700  1.00  0.00     0.010 A 
ATOM     78  C   UNL A   1      42.663  23.505  26.486  1.00  0.00     0.010 A 
ATOM     79  C   UNL A   1      42.083  21.330  28.147  1.00  0.00     0.020 A 
ATOM     80  C   UNL A   1      42.445  22.243  25.925  1.00  0.00     0.020 A 
ATOM     81  C   UNL A   1      42.168  21.161  26.762  1.00  0.00     0.054 A 
BRANCH  81  82
ATOM     82  S   UNL A   1      41.874  19.513  26.062  1.00  0.00     0.124 S 
ATOM     83  O   UNL A   1      42.234  18.641  27.175  1.00  0.00    -0.237 OA
ATOM     84  O   UNL A   1      40.453  19.562  25.729  1.00  0.00    -0.237 OA
ATOM     85  O   UNL A   1      42.774  19.466  24.911  1.00  0.00    -0.744 OA
ENDBRANCH  81  82
ENDBRANCH  53  76
BRANCH  65  86
ATOM     86  C   UNL A   1      48.043  26.861  30.848  1.00  0.00    -0.014 A 
ATOM     87  C   UNL A   1      49.120  27.106  29.977  1.00  0.00     0.010 A 
ATOM     88  C   UNL A   1      48.289  26.225  32.079  1.00  0.00     0.010 A 
ATOM     89  C   UNL A   1      50.412  26.698  30.319  1.00  0.00     0.020 A 
ATOM     90  C   UNL A   1      49.584  25.843  32.438  1.00  0.00     0.020 A 
ATOM     91  C   UNL A   1      50.636  26.071  31.549  1.00  0.00     0.054 A 
BRANCH  91  92
ATOM     92  S   UNL A   1      52.330  25.596  31.990  1.00  0.00     0.124 S 
ATOM     93  O   UNL A   1      53.047  25.829  30.740  1.00  0.00    -0.237 OA
ATOM     94  O   UNL A   1      52.647  26.518  33.078  1.00  0.00    -0.237 OA
ATOM     95  O   UNL A   1      52.207  24.194  32.385  1.00  0.00    -0.744 OA
ENDBRANCH  91  92
ENDBRANCH  65  86
ENDBRANCH  39  40
ENDBRANCH  31  34
ENDBRANCH  29  30
ENDBRANCH  28  29
ENDBRANCH   1  28
TORSDOF 19
ENDMDL
MODEL 3
REMARK VINA RESULT:     -11.5      4.415      9.368
REMARK SMILES Cc1cc(F)cc(N[C@H](C(=O)NCCCCCCNC(=O)c2ccc(-c3c4nc(c(-c5ccc(S(=O)(=O)[O-])cc5)c5ccc([nH]5)c(-c5ccc(S(=O)(=O)[O-])cc5)c5nc(c(-c6ccc(S(=O)(=O)[O-])cc6)c6ccc3[nH]6)C=C5)C=C4)cc2)c2cc(C)cc(C)c2)c1
REMARK SMILES IDX 16 1 15 2 14 3 13 4 12 5 10 6 11 7 9 9 8 10 7 12 1 13 2 14
REMARK SMILES IDX 3 15 90 16 4 17 5 18 6 19 82 20 83 21 89 22 84 23 87 24
REMARK SMILES IDX 85 25 86 26 88 27 17 28 18 29 19 30 20 31 21 33 22 34 23 35
REMARK SMILES IDX 81 36 24 37 80 38 25 39 26 40 27 41 74 42 28 43 79 44 73 45
REMARK SMILES IDX 75 46 29 47 78 48 72 49 71 50 30 52 60 53 41 54 59 55 42 56
REMARK SMILES IDX 45 57 58 58 76 59 43 60 44 61 57 63 77 64 46 65 31 66 32 67
REMARK SMILES IDX 40 68 33 69 39 70 34 71 35 72 36 73 37 74 38 75 61 76 62 77
REMARK SMILES IDX 70 78 63 79 69 80 64 81 65 82 66 83 67 84 68 85 47 86 48 87
REMARK SMILES IDX 56 88 49 89 55 90 50 91 51 92 52 93 53 94 54 95
REMARK H PARENT 12 8 8 11 19 32 75 51 45 62
REMARK Flexibility Score: inf
ROOT
ATOM      1  C   UNL A   1      32.544  27.806  24.790  1.00  0.00     0.002 C 
ENDROOT
BRANCH   1   2
ATOM      2  C   UNL A   1      31.228  27.420  24.107  1.00  0.00     0.002 C 
BRANCH   2   3
ATOM      3  C   UNL A   1      30.239  26.621  24.963  1.00  0.00     0.021 C 
BRANCH   3   4
ATOM      4  C   UNL A   1      30.226  25.119  24.707  1.00  0.00     0.116 C 
BRANCH   4   5
ATOM      5  N   UNL A   1      30.390  24.346  25.917  1.00  0.00    -0.354 N 
ATOM      6  C   UNL A   1      31.533  23.911  26.527  1.00  0.00     0.247 C 
ATOM      7  O   UNL A   1      31.355  23.269  27.572  1.00  0.00    -0.272 OA
ATOM      8  H   UNL A   1      29.553  24.095  26.371  1.00  0.00     0.163 HD
BRANCH   6   9
ATOM      9  C   UNL A   1      32.948  24.078  25.891  1.00  0.00     0.200 C 
BRANCH   9  10
ATOM     10  N   UNL A   1      34.084  23.527  26.678  1.00  0.00    -0.370 N 
ATOM     11  H   UNL A   1      33.893  23.427  27.639  1.00  0.00     0.161 HD
BRANCH  10  12
ATOM     12  C   UNL A   1      35.357  23.128  26.316  1.00  0.00     0.038 A 
ATOM     13  C   UNL A   1      37.002  19.943  24.913  1.00  0.00     0.044 C 
ATOM     14  C   UNL A   1      36.813  21.342  25.417  1.00  0.00    -0.046 A 
ATOM     15  C   UNL A   1      37.913  22.198  25.458  1.00  0.00     0.042 A 
ATOM     16  C   UNL A   1      35.560  21.805  25.874  1.00  0.00     0.029 A 
ATOM     17  C   UNL A   1      37.731  23.495  25.883  1.00  0.00     0.125 A 
ATOM     18  F   UNL A   1      38.771  24.338  25.921  1.00  0.00    -0.207 F 
ATOM     19  C   UNL A   1      36.473  23.953  26.263  1.00  0.00     0.065 A 
ENDBRANCH  10  12
ENDBRANCH   9  10
BRANCH   9  20
ATOM     20  C   UNL A   1      33.039  23.665  24.420  1.00  0.00    -0.016 A 
ATOM     21  C   UNL A   1      33.407  24.599  23.442  1.00  0.00     0.009 A 
ATOM     22  C   UNL A   1      32.597  22.405  23.994  1.00  0.00     0.009 A 
ATOM     23  C   UNL A   1      33.041  24.419  22.109  1.00  0.00    -0.051 A 
ATOM     24  C   UNL A   1      32.426  22.131  22.628  1.00  0.00    -0.051 A 
ATOM     25  C   UNL A   1      32.924  25.622  21.217  1.00  0.00     0.044 C 
ATOM     26  C   UNL A   1      32.573  23.171  21.701  1.00  0.00     0.006 A 
ATOM     27  C   UNL A   1      31.970  20.783  22.160  1.00  0.00     0.044 C 
ENDBRANCH   9  20
ENDBRANCH   6   9
ENDBRANCH   4   5
ENDBRANCH   3   4
ENDBRANCH   2   3
ENDBRANCH   1   2
BRANCH   1  28
ATOM     28  C   UNL A   1      32.575  27.633  26.309  1.00  0.00     0.021 C 
BRANCH  28  29
ATOM     29  C   UNL A   1      33.769  28.272  27.009  1.00  0.00     0.116 C 
BRANCH  29  30
ATOM     30  N   UNL A   1      33.535  29.662  27.362  1.00  0.00    -0.352 N 
ATOM     31  C   UNL A   1      34.364  30.538  28.016  1.00  0.00     0.251 C 
ATOM     32  H   UNL A   1      32.660  30.025  27.096  1.00  0.00     0.163 HD
ATOM     33  O   UNL A   1      33.938  31.635  28.376  1.00  0.00    -0.269 OA
BRANCH  31  34
ATOM     34  C   UNL A   1      35.759  30.150  28.308  1.00  0.00     0.039 A 
ATOM     35  C   UNL A   1      36.706  30.215  27.284  1.00  0.00     0.014 A 
ATOM     36  C   UNL A   1      36.134  29.734  29.589  1.00  0.00     0.014 A 
ATOM     37  C   UNL A   1      38.041  29.916  27.559  1.00  0.00     0.010 A 
ATOM     38  C   UNL A   1      37.478  29.514  29.879  1.00  0.00     0.010 A 
ATOM     39  C   UNL A   1      38.445  29.595  28.867  1.00  0.00    -0.014 A 
BRANCH  39  40
ATOM     40  C   UNL A   1      39.873  29.342  29.188  1.00  0.00     0.031 A 
ATOM     41  C   UNL A   1      40.497  28.011  28.866  1.00  0.00     0.074 A 
ATOM     42  C   UNL A   1      40.595  30.293  29.814  1.00  0.00     0.049 A 
ATOM     43  N   UNL A   1      41.716  27.594  29.100  1.00  0.00    -0.248 NA
ATOM     44  C   UNL A   1      39.635  27.007  28.220  1.00  0.00     0.031 C 
ATOM     45  C   UNL A   1      40.094  31.611  30.215  1.00  0.00     0.029 A 
ATOM     46  N   UNL A   1      41.904  30.300  30.225  1.00  0.00    -0.354 N 
ATOM     47  C   UNL A   1      41.762  26.283  28.643  1.00  0.00     0.074 A 
ATOM     48  C   UNL A   1      40.435  25.953  28.171  1.00  0.00     0.031 C 
ATOM     49  C   UNL A   1      41.091  32.308  30.782  1.00  0.00     0.029 A 
ATOM     50  C   UNL A   1      42.290  31.475  30.827  1.00  0.00     0.049 A 
ATOM     51  H   UNL A   1      42.512  29.535  30.100  1.00  0.00     0.167 HD
ATOM     52  C   UNL A   1      42.818  25.435  28.599  1.00  0.00     0.031 A 
ATOM     53  C   UNL A   1      43.470  31.842  31.362  1.00  0.00     0.031 A 
ATOM     54  C   UNL A   1      44.138  25.770  29.065  1.00  0.00     0.049 A 
ATOM     55  C   UNL A   1      44.624  30.876  31.321  1.00  0.00     0.074 A 
ATOM     56  C   UNL A   1      45.287  25.001  29.017  1.00  0.00     0.029 A 
ATOM     57  N   UNL A   1      44.485  26.970  29.668  1.00  0.00    -0.354 N 
ATOM     58  N   UNL A   1      44.665  29.663  30.821  1.00  0.00    -0.248 NA
ATOM     59  C   UNL A   1      45.893  31.332  31.904  1.00  0.00     0.031 C 
ATOM     60  C   UNL A   1      46.314  25.710  29.648  1.00  0.00     0.029 A 
ATOM     61  C   UNL A   1      45.823  26.951  30.024  1.00  0.00     0.049 A 
ATOM     62  H   UNL A   1      43.871  27.724  29.822  1.00  0.00     0.167 HD
ATOM     63  C   UNL A   1      45.972  29.225  31.000  1.00  0.00     0.074 A 
ATOM     64  C   UNL A   1      46.692  30.306  31.642  1.00  0.00     0.031 C 
ATOM     65  C   UNL A   1      46.528  28.035  30.661  1.00  0.00     0.031 A 
BRANCH  52  66
ATOM     66  C   UNL A   1      42.586  24.057  28.035  1.00  0.00    -0.014 A 
ATOM     67  C   UNL A   1      42.549  23.834  26.646  1.00  0.00     0.010 A 
ATOM     68  C   UNL A   1      42.448  22.960  28.905  1.00  0.00     0.010 A 
ATOM     69  C   UNL A   1      42.333  22.549  26.139  1.00  0.00     0.020 A 
ATOM     70  C   UNL A   1      42.265  21.668  28.402  1.00  0.00     0.020 A 
ATOM     71  C   UNL A   1      42.192  21.474  27.021  1.00  0.00     0.054 A 
BRANCH  71  72
ATOM     72  S   UNL A   1      41.938  19.815  26.334  1.00  0.00     0.124 S 
ATOM     73  O   UNL A   1      42.848  19.820  25.190  1.00  0.00    -0.237 OA
ATOM     74  O   UNL A   1      42.327  18.948  27.442  1.00  0.00    -0.237 OA
ATOM     75  O   UNL A   1      40.517  19.793  25.996  1.00  0.00    -0.744 OA
ENDBRANCH  71  72
ENDBRANCH  52  66
BRANCH  53  76
ATOM     76  C   UNL A   1      43.624  33.192  31.973  1.00  0.00    -0.014 A 
ATOM     77  C   UNL A   1      44.019  34.292  31.192  1.00  0.00     0.010 A 
ATOM     78  C   UNL A   1      43.364  33.386  33.343  1.00  0.00     0.010 A 
ATOM     79  C   UNL A   1      44.173  35.555  31.772  1.00  0.00     0.020 A 
ATOM     80  C   UNL A   1      43.485  34.653  33.919  1.00  0.00     0.020 A 
ATOM     81  C   UNL A   1      43.900  35.727  33.131  1.00  0.00     0.054 A 
BRANCH  81  82
ATOM     82  S   UNL A   1      44.060  37.385  33.853  1.00  0.00     0.124 S 
ATOM     83  O   UNL A   1      44.820  37.116  35.069  1.00  0.00    -0.237 OA
ATOM     84  O   UNL A   1      44.773  38.114  32.808  1.00  0.00    -0.237 OA
ATOM     85  O   UNL A   1      42.675  37.802  34.058  1.00  0.00    -0.744 OA
ENDBRANCH  81  82
ENDBRANCH  53  76
BRANCH  65  86
ATOM     86  C   UNL A   1      47.997  27.847  30.936  1.00  0.00    -0.014 A 
ATOM     87  C   UNL A   1      48.453  27.314  32.154  1.00  0.00     0.010 A 
ATOM     88  C   UNL A   1      48.932  28.153  29.930  1.00  0.00     0.010 A 
ATOM     89  C   UNL A   1      49.819  27.117  32.372  1.00  0.00     0.020 A 
ATOM     90  C   UNL A   1      50.295  27.929  30.131  1.00  0.00     0.020 A 
ATOM     91  C   UNL A   1      50.732  27.422  31.357  1.00  0.00     0.054 A 
BRANCH  91  92
ATOM     92  S   UNL A   1      52.495  27.111  31.646  1.00  0.00     0.124 S 
ATOM     93  O   UNL A   1      52.558  25.653  31.604  1.00  0.00    -0.237 OA
ATOM     94  O   UNL A   1      53.129  27.800  30.524  1.00  0.00    -0.237 OA
ATOM     95  O   UNL A   1      52.744  27.708  32.956  1.00  0.00    -0.744 OA
ENDBRANCH  91  92
ENDBRANCH  65  86
ENDBRANCH  39  40
ENDBRANCH  31  34
ENDBRANCH  29  30
ENDBRANCH  28  29
ENDBRANCH   1  28
TORSDOF 19
ENDMDL
