MODEL 1
REMARK VINA RESULT:     -12.8      0.000      0.000
REMARK SMILES COc1ccc(NC(=O)[C@H]2[C@@H](C(=O)NCCCCCCNC(=O)c3ccc(-c4c5nc(c(-c6ccc(S(=O)(=O)[O-])cc6)c6ccc([nH]6)c(-c6ccc(S(=O)(=O)[O-])cc6)c6nc(c(-c7ccc(S(=O)(=O)[O-])cc7)c7ccc4[nH]7)C=C6)C=C5)cc3)[C@H]3C=C[C@@H]2C3)c(C)c1
REMARK SMILES IDX 17 1 16 2 15 3 14 4 12 5 13 6 11 8 10 9 87 10 84 11 86 12
REMARK SMILES IDX 88 13 85 14 8 15 7 16 9 18 6 19 3 20 4 21 91 22 5 23 89 24
REMARK SMILES IDX 90 25 2 26 1 27 18 28 19 29 20 30 21 31 22 32 23 34 24 35
REMARK SMILES IDX 25 36 83 37 26 38 82 39 27 40 28 41 29 42 76 43 30 44 81 45
REMARK SMILES IDX 75 46 77 47 31 48 80 49 74 50 73 51 32 53 62 54 43 55 61 56
REMARK SMILES IDX 44 57 47 58 60 59 78 60 45 61 46 62 59 64 79 65 48 66 33 67
REMARK SMILES IDX 34 68 42 69 35 70 41 71 36 72 37 73 38 74 39 75 40 76 63 77
REMARK SMILES IDX 64 78 72 79 65 80 71 81 66 82 67 83 68 84 69 85 70 86 49 87
REMARK SMILES IDX 50 88 58 89 51 90 57 91 52 92 53 93 54 94 55 95 56 96
REMARK H PARENT 14 7 7 17 21 33 77 52 47 63
REMARK Flexibility Score: inf
ROOT
ATOM      1  C   UNL A   1      31.920  28.816  24.757  1.00  0.00     0.002 C 
ENDROOT
BRANCH   1   2
ATOM      2  C   UNL A   1      30.807  28.065  25.498  1.00  0.00     0.021 C 
BRANCH   2   3
ATOM      3  C   UNL A   1      30.605  26.603  25.089  1.00  0.00     0.116 C 
BRANCH   3   4
ATOM      4  N   UNL A   1      30.843  25.667  26.171  1.00  0.00    -0.356 N 
ATOM      5  C   UNL A   1      31.523  24.486  26.200  1.00  0.00     0.224 C 
ATOM      6  O   UNL A   1      31.696  23.948  27.295  1.00  0.00    -0.275 OA
ATOM      7  H   UNL A   1      30.446  25.930  27.032  1.00  0.00     0.163 HD
BRANCH   5   8
ATOM      8  C   UNL A   1      32.180  23.961  24.931  1.00  0.00     0.098 C 
ATOM      9  C   UNL A   1      33.272  22.829  24.981  1.00  0.00     0.099 C 
ATOM     10  C   UNL A   1      34.408  23.435  24.101  1.00  0.00     0.025 C 
ATOM     11  C   UNL A   1      32.895  25.073  24.111  1.00  0.00     0.025 C 
ATOM     12  C   UNL A   1      35.030  24.596  24.833  1.00  0.00    -0.027 C 
ATOM     13  C   UNL A   1      33.608  24.219  23.058  1.00  0.00     0.017 C 
ATOM     14  C   UNL A   1      34.116  25.576  24.849  1.00  0.00    -0.027 C 
BRANCH   9  15
ATOM     15  C   UNL A   1      33.776  22.377  26.342  1.00  0.00     0.228 C 
ATOM     16  N   UNL A   1      33.857  21.063  26.707  1.00  0.00    -0.326 N 
ATOM     17  H   UNL A   1      34.002  20.941  27.673  1.00  0.00     0.169 HD
ATOM     18  O   UNL A   1      34.187  23.186  27.177  1.00  0.00    -0.274 OA
BRANCH  16  19
ATOM     19  C   UNL A   1      33.777  19.843  26.006  1.00  0.00     0.044 A 
ATOM     20  C   UNL A   1      33.297  17.910  24.049  1.00  0.00     0.119 A 
ATOM     21  C   UNL A   1      32.467  17.986  25.155  1.00  0.00     0.048 A 
ATOM     22  C   UNL A   1      34.486  18.627  24.030  1.00  0.00     0.052 A 
ATOM     23  C   UNL A   1      32.720  18.943  26.137  1.00  0.00     0.030 A 
ATOM     24  C   UNL A   1      34.764  19.573  25.034  1.00  0.00    -0.024 A 
ATOM     25  C   UNL A   1      36.073  20.313  24.948  1.00  0.00     0.047 C 
BRANCH  20  26
ATOM     26  O   UNL A   1      32.988  17.123  22.974  1.00  0.00    -0.497 OA
ATOM     27  C   UNL A   1      32.343  17.900  21.959  1.00  0.00     0.278 C 
ENDBRANCH  20  26
ENDBRANCH  16  19
ENDBRANCH   9  15
ENDBRANCH   5   8
ENDBRANCH   3   4
ENDBRANCH   2   3
ENDBRANCH   1   2
BRANCH   1  28
ATOM     28  C   UNL A   1      32.718  29.832  25.584  1.00  0.00     0.002 C 
BRANCH  28  29
ATOM     29  C   UNL A   1      33.131  29.381  26.985  1.00  0.00     0.021 C 
BRANCH  29  30
ATOM     30  C   UNL A   1      34.641  29.369  27.216  1.00  0.00     0.116 C 
BRANCH  30  31
ATOM     31  N   UNL A   1      35.205  30.680  27.413  1.00  0.00    -0.352 N 
ATOM     32  C   UNL A   1      36.408  30.974  28.061  1.00  0.00     0.251 C 
ATOM     33  H   UNL A   1      34.693  31.443  27.059  1.00  0.00     0.163 HD
ATOM     34  O   UNL A   1      36.670  32.084  28.498  1.00  0.00    -0.269 OA
BRANCH  32  35
ATOM     35  C   UNL A   1      37.428  29.911  28.055  1.00  0.00     0.039 A 
ATOM     36  C   UNL A   1      37.659  29.244  29.264  1.00  0.00     0.014 A 
ATOM     37  C   UNL A   1      38.277  29.737  26.965  1.00  0.00     0.014 A 
ATOM     38  C   UNL A   1      38.830  28.503  29.425  1.00  0.00     0.010 A 
ATOM     39  C   UNL A   1      39.477  29.073  27.151  1.00  0.00     0.010 A 
ATOM     40  C   UNL A   1      39.767  28.487  28.388  1.00  0.00    -0.014 A 
BRANCH  40  41
ATOM     41  C   UNL A   1      41.107  27.931  28.543  1.00  0.00     0.031 A 
ATOM     42  C   UNL A   1      41.378  26.534  28.139  1.00  0.00     0.074 A 
ATOM     43  C   UNL A   1      42.106  28.678  29.062  1.00  0.00     0.049 A 
ATOM     44  N   UNL A   1      42.247  25.769  28.715  1.00  0.00    -0.248 NA
ATOM     45  C   UNL A   1      40.643  25.873  27.064  1.00  0.00     0.031 C 
ATOM     46  C   UNL A   1      43.526  28.337  29.096  1.00  0.00     0.029 A 
ATOM     47  N   UNL A   1      42.008  29.805  29.879  1.00  0.00    -0.354 N 
ATOM     48  C   UNL A   1      42.383  24.648  27.930  1.00  0.00     0.074 A 
ATOM     49  C   UNL A   1      41.312  24.720  26.961  1.00  0.00     0.031 C 
ATOM     50  C   UNL A   1      44.100  29.010  30.105  1.00  0.00     0.029 A 
ATOM     51  C   UNL A   1      43.040  29.700  30.824  1.00  0.00     0.049 A 
ATOM     52  H   UNL A   1      41.346  30.530  29.808  1.00  0.00     0.167 HD
ATOM     53  C   UNL A   1      43.470  23.838  28.060  1.00  0.00     0.031 A 
ATOM     54  C   UNL A   1      42.845  29.666  32.173  1.00  0.00     0.031 A 
ATOM     55  C   UNL A   1      44.383  24.299  29.096  1.00  0.00     0.049 A 
ATOM     56  C   UNL A   1      43.435  28.432  32.823  1.00  0.00     0.074 A 
ATOM     57  C   UNL A   1      45.551  25.043  29.051  1.00  0.00     0.029 A 
ATOM     58  N   UNL A   1      43.987  24.264  30.427  1.00  0.00    -0.354 N 
ATOM     59  N   UNL A   1      43.791  27.362  32.170  1.00  0.00    -0.248 NA
ATOM     60  C   UNL A   1      43.613  28.287  34.266  1.00  0.00     0.031 C 
ATOM     61  C   UNL A   1      45.823  25.515  30.360  1.00  0.00     0.029 A 
ATOM     62  C   UNL A   1      44.835  25.034  31.201  1.00  0.00     0.049 A 
ATOM     63  H   UNL A   1      43.214  23.761  30.771  1.00  0.00     0.167 HD
ATOM     64  C   UNL A   1      44.218  26.403  33.054  1.00  0.00     0.074 A 
ATOM     65  C   UNL A   1      44.102  27.038  34.353  1.00  0.00     0.031 C 
ATOM     66  C   UNL A   1      44.618  25.165  32.636  1.00  0.00     0.031 A 
BRANCH  53  67
ATOM     67  C   UNL A   1      43.830  22.830  26.998  1.00  0.00    -0.014 A 
ATOM     68  C   UNL A   1      42.922  21.804  26.674  1.00  0.00     0.010 A 
ATOM     69  C   UNL A   1      45.072  22.813  26.335  1.00  0.00     0.010 A 
ATOM     70  C   UNL A   1      43.272  20.749  25.820  1.00  0.00     0.020 A 
ATOM     71  C   UNL A   1      45.449  21.744  25.505  1.00  0.00     0.020 A 
ATOM     72  C   UNL A   1      44.548  20.710  25.263  1.00  0.00     0.054 A 
BRANCH  72  73
ATOM     73  S   UNL A   1      45.017  19.274  24.260  1.00  0.00     0.124 S 
ATOM     74  O   UNL A   1      44.302  18.181  24.916  1.00  0.00    -0.237 OA
ATOM     75  O   UNL A   1      44.526  19.644  22.936  1.00  0.00    -0.237 OA
ATOM     76  O   UNL A   1      46.472  19.221  24.393  1.00  0.00    -0.744 OA
ENDBRANCH  72  73
ENDBRANCH  53  67
BRANCH  54  77
ATOM     77  C   UNL A   1      41.608  30.353  32.639  1.00  0.00    -0.014 A 
ATOM     78  C   UNL A   1      41.066  31.367  31.823  1.00  0.00     0.010 A 
ATOM     79  C   UNL A   1      40.793  29.759  33.618  1.00  0.00     0.010 A 
ATOM     80  C   UNL A   1      39.702  31.675  31.880  1.00  0.00     0.020 A 
ATOM     81  C   UNL A   1      39.427  30.069  33.678  1.00  0.00     0.020 A 
ATOM     82  C   UNL A   1      38.882  30.982  32.769  1.00  0.00     0.054 A 
BRANCH  82  83
ATOM     83  S   UNL A   1      37.081  31.179  32.615  1.00  0.00     0.124 S 
ATOM     84  O   UNL A   1      36.963  32.095  31.486  1.00  0.00    -0.237 OA
ATOM     85  O   UNL A   1      36.636  29.808  32.362  1.00  0.00    -0.237 OA
ATOM     86  O   UNL A   1      36.690  31.723  33.911  1.00  0.00    -0.744 OA
ENDBRANCH  82  83
ENDBRANCH  54  77
BRANCH  66  87
ATOM     87  C   UNL A   1      44.933  23.974  33.513  1.00  0.00    -0.014 A 
ATOM     88  C   UNL A   1      44.023  22.954  33.830  1.00  0.00     0.010 A 
ATOM     89  C   UNL A   1      46.266  23.797  33.964  1.00  0.00     0.010 A 
ATOM     90  C   UNL A   1      44.405  21.848  34.605  1.00  0.00     0.020 A 
ATOM     91  C   UNL A   1      46.668  22.678  34.698  1.00  0.00     0.020 A 
ATOM     92  C   UNL A   1      45.725  21.718  35.036  1.00  0.00     0.054 A 
BRANCH  92  93
ATOM     93  S   UNL A   1      46.225  20.252  35.974  1.00  0.00     0.124 S 
ATOM     94  O   UNL A   1      45.650  19.172  35.176  1.00  0.00    -0.237 OA
ATOM     95  O   UNL A   1      47.683  20.331  35.959  1.00  0.00    -0.237 OA
ATOM     96  O   UNL A   1      45.612  20.459  37.284  1.00  0.00    -0.744 OA
ENDBRANCH  92  93
ENDBRANCH  66  87
ENDBRANCH  40  41
ENDBRANCH  32  35
ENDBRANCH  30  31
ENDBRANCH  29  30
ENDBRANCH  28  29
ENDBRANCH   1  28
TORSDOF 19
ENDMDL
MODEL 2
REMARK VINA RESULT:     -12.7      1.462      3.111
REMARK SMILES COc1ccc(NC(=O)[C@H]2[C@@H](C(=O)NCCCCCCNC(=O)c3ccc(-c4c5nc(c(-c6ccc(S(=O)(=O)[O-])cc6)c6ccc([nH]6)c(-c6ccc(S(=O)(=O)[O-])cc6)c6nc(c(-c7ccc(S(=O)(=O)[O-])cc7)c7ccc4[nH]7)C=C6)C=C5)cc3)[C@H]3C=C[C@@H]2C3)c(C)c1
REMARK SMILES IDX 17 1 16 2 15 3 14 4 12 5 13 6 11 8 10 9 87 10 84 11 86 12
REMARK SMILES IDX 88 13 85 14 8 15 7 16 9 18 6 19 3 20 4 21 91 22 5 23 89 24
REMARK SMILES IDX 90 25 2 26 1 27 18 28 19 29 20 30 21 31 22 32 23 34 24 35
REMARK SMILES IDX 25 36 83 37 26 38 82 39 27 40 28 41 29 42 76 43 30 44 81 45
REMARK SMILES IDX 75 46 77 47 31 48 80 49 74 50 73 51 32 53 62 54 43 55 61 56
REMARK SMILES IDX 44 57 47 58 60 59 78 60 45 61 46 62 59 64 79 65 48 66 33 67
REMARK SMILES IDX 34 68 42 69 35 70 41 71 36 72 37 73 38 74 39 75 40 76 63 77
REMARK SMILES IDX 64 78 72 79 65 80 71 81 66 82 67 83 68 84 69 85 70 86 49 87
REMARK SMILES IDX 50 88 58 89 51 90 57 91 52 92 53 93 54 94 55 95 56 96
REMARK H PARENT 14 7 7 17 21 33 77 52 47 63
REMARK Flexibility Score: inf
ROOT
ATOM      1  C   UNL A   1      31.434  28.614  25.771  1.00  0.00     0.002 C 
ENDROOT
BRANCH   1   2
ATOM      2  C   UNL A   1      31.442  27.338  26.622  1.00  0.00     0.021 C 
BRANCH   2   3
ATOM      3  C   UNL A   1      31.354  26.021  25.846  1.00  0.00     0.116 C 
BRANCH   3   4
ATOM      4  N   UNL A   1      31.074  24.875  26.690  1.00  0.00    -0.356 N 
ATOM      5  C   UNL A   1      31.833  23.786  27.001  1.00  0.00     0.224 C 
ATOM      6  O   UNL A   1      31.407  23.016  27.865  1.00  0.00    -0.275 OA
ATOM      7  H   UNL A   1      30.185  24.887  27.112  1.00  0.00     0.163 HD
BRANCH   5   8
ATOM      8  C   UNL A   1      33.226  23.642  26.409  1.00  0.00     0.098 C 
ATOM      9  C   UNL A   1      33.450  23.041  24.972  1.00  0.00     0.099 C 
ATOM     10  C   UNL A   1      34.557  21.975  25.233  1.00  0.00     0.025 C 
ATOM     11  C   UNL A   1      34.171  22.767  27.282  1.00  0.00     0.025 C 
ATOM     12  C   UNL A   1      33.970  20.841  26.033  1.00  0.00    -0.027 C 
ATOM     13  C   UNL A   1      35.375  22.643  26.342  1.00  0.00     0.017 C 
ATOM     14  C   UNL A   1      33.727  21.320  27.261  1.00  0.00    -0.027 C 
BRANCH   9  15
ATOM     15  C   UNL A   1      32.250  22.457  24.243  1.00  0.00     0.228 C 
ATOM     16  N   UNL A   1      31.458  23.190  23.404  1.00  0.00    -0.326 N 
ATOM     17  H   UNL A   1      30.615  22.735  23.176  1.00  0.00     0.169 HD
ATOM     18  O   UNL A   1      31.956  21.262  24.340  1.00  0.00    -0.274 OA
BRANCH  16  19
ATOM     19  C   UNL A   1      31.582  24.455  22.795  1.00  0.00     0.044 A 
ATOM     20  C   UNL A   1      32.196  27.131  22.291  1.00  0.00     0.119 A 
ATOM     21  C   UNL A   1      30.894  26.773  22.600  1.00  0.00     0.048 A 
ATOM     22  C   UNL A   1      33.132  26.146  22.005  1.00  0.00     0.052 A 
ATOM     23  C   UNL A   1      30.590  25.434  22.836  1.00  0.00     0.030 A 
ATOM     24  C   UNL A   1      32.822  24.788  22.210  1.00  0.00    -0.024 A 
ATOM     25  C   UNL A   1      33.887  23.775  21.878  1.00  0.00     0.047 C 
BRANCH  20  26
ATOM     26  O   UNL A   1      32.585  28.441  22.236  1.00  0.00    -0.497 OA
ATOM     27  C   UNL A   1      34.006  28.543  22.378  1.00  0.00     0.278 C 
ENDBRANCH  20  26
ENDBRANCH  16  19
ENDBRANCH   9  15
ENDBRANCH   5   8
ENDBRANCH   3   4
ENDBRANCH   2   3
ENDBRANCH   1   2
BRANCH   1  28
ATOM     28  C   UNL A   1      32.314  29.768  26.271  1.00  0.00     0.002 C 
BRANCH  28  29
ATOM     29  C   UNL A   1      33.124  29.493  27.538  1.00  0.00     0.021 C 
BRANCH  29  30
ATOM     30  C   UNL A   1      34.632  29.659  27.361  1.00  0.00     0.116 C 
BRANCH  30  31
ATOM     31  N   UNL A   1      35.161  30.843  27.991  1.00  0.00    -0.352 N 
ATOM     32  C   UNL A   1      36.264  30.901  28.847  1.00  0.00     0.251 C 
ATOM     33  H   UNL A   1      34.699  31.692  27.801  1.00  0.00     0.163 HD
ATOM     34  O   UNL A   1      36.460  31.835  29.608  1.00  0.00    -0.269 OA
BRANCH  32  35
ATOM     35  C   UNL A   1      37.278  29.847  28.676  1.00  0.00     0.039 A 
ATOM     36  C   UNL A   1      37.504  28.998  29.766  1.00  0.00     0.014 A 
ATOM     37  C   UNL A   1      38.128  29.841  27.573  1.00  0.00     0.014 A 
ATOM     38  C   UNL A   1      38.670  28.236  29.811  1.00  0.00     0.010 A 
ATOM     39  C   UNL A   1      39.324  29.149  27.655  1.00  0.00     0.010 A 
ATOM     40  C   UNL A   1      39.609  28.376  28.785  1.00  0.00    -0.014 A 
BRANCH  40  41
ATOM     41  C   UNL A   1      40.945  27.796  28.853  1.00  0.00     0.031 A 
ATOM     42  C   UNL A   1      41.162  26.390  28.443  1.00  0.00     0.074 A 
ATOM     43  C   UNL A   1      41.991  28.527  29.296  1.00  0.00     0.049 A 
ATOM     44  N   UNL A   1      42.054  25.613  28.965  1.00  0.00    -0.248 NA
ATOM     45  C   UNL A   1      40.342  25.735  27.427  1.00  0.00     0.031 C 
ATOM     46  C   UNL A   1      43.405  28.158  29.235  1.00  0.00     0.029 A 
ATOM     47  N   UNL A   1      41.972  29.661  30.107  1.00  0.00    -0.354 N 
ATOM     48  C   UNL A   1      42.115  24.484  28.182  1.00  0.00     0.074 A 
ATOM     49  C   UNL A   1      40.981  24.569  27.288  1.00  0.00     0.031 C 
ATOM     50  C   UNL A   1      44.059  28.828  30.197  1.00  0.00     0.029 A 
ATOM     51  C   UNL A   1      43.064  29.544  30.980  1.00  0.00     0.049 A 
ATOM     52  H   UNL A   1      41.320  30.398  30.076  1.00  0.00     0.167 HD
ATOM     53  C   UNL A   1      43.193  23.654  28.244  1.00  0.00     0.031 A 
ATOM     54  C   UNL A   1      42.961  29.523  32.340  1.00  0.00     0.031 A 
ATOM     55  C   UNL A   1      44.184  24.105  29.211  1.00  0.00     0.049 A 
ATOM     56  C   UNL A   1      43.571  28.283  32.959  1.00  0.00     0.074 A 
ATOM     57  C   UNL A   1      45.359  24.826  29.080  1.00  0.00     0.029 A 
ATOM     58  N   UNL A   1      43.880  24.087  30.566  1.00  0.00    -0.354 N 
ATOM     59  N   UNL A   1      43.862  27.201  32.292  1.00  0.00    -0.248 NA
ATOM     60  C   UNL A   1      43.845  28.145  34.387  1.00  0.00     0.031 C 
ATOM     61  C   UNL A   1      45.729  25.302  30.363  1.00  0.00     0.029 A 
ATOM     62  C   UNL A   1      44.792  24.847  31.274  1.00  0.00     0.049 A 
ATOM     63  H   UNL A   1      43.123  23.602  30.967  1.00  0.00     0.167 HD
ATOM     64  C   UNL A   1      44.330  26.240  33.153  1.00  0.00     0.074 A 
ATOM     65  C   UNL A   1      44.316  26.887  34.451  1.00  0.00     0.031 C 
ATOM     66  C   UNL A   1      44.677  24.992  32.719  1.00  0.00     0.031 A 
BRANCH  53  67
ATOM     67  C   UNL A   1      43.460  22.632  27.169  1.00  0.00    -0.014 A 
ATOM     68  C   UNL A   1      42.674  21.465  27.104  1.00  0.00     0.010 A 
ATOM     69  C   UNL A   1      44.511  22.742  26.239  1.00  0.00     0.010 A 
ATOM     70  C   UNL A   1      42.985  20.411  26.235  1.00  0.00     0.020 A 
ATOM     71  C   UNL A   1      44.855  21.679  25.387  1.00  0.00     0.020 A 
ATOM     72  C   UNL A   1      44.095  20.512  25.401  1.00  0.00     0.054 A 
BRANCH  72  73
ATOM     73  S   UNL A   1      44.547  19.087  24.374  1.00  0.00     0.124 S 
ATOM     74  O   UNL A   1      45.921  18.819  24.792  1.00  0.00    -0.237 OA
ATOM     75  O   UNL A   1      43.560  18.089  24.774  1.00  0.00    -0.237 OA
ATOM     76  O   UNL A   1      44.409  19.589  23.008  1.00  0.00    -0.744 OA
ENDBRANCH  72  73
ENDBRANCH  53  67
BRANCH  54  77
ATOM     77  C   UNL A   1      41.773  30.237  32.884  1.00  0.00    -0.014 A 
ATOM     78  C   UNL A   1      41.932  31.582  33.278  1.00  0.00     0.010 A 
ATOM     79  C   UNL A   1      40.478  29.748  32.640  1.00  0.00     0.010 A 
ATOM     80  C   UNL A   1      40.840  32.457  33.283  1.00  0.00     0.020 A 
ATOM     81  C   UNL A   1      39.383  30.624  32.646  1.00  0.00     0.020 A 
ATOM     82  C   UNL A   1      39.583  31.983  32.911  1.00  0.00     0.054 A 
BRANCH  82  83
ATOM     83  S   UNL A   1      38.253  33.191  32.629  1.00  0.00     0.124 S 
ATOM     84  O   UNL A   1      38.466  33.571  31.237  1.00  0.00    -0.237 OA
ATOM     85  O   UNL A   1      37.050  32.400  32.888  1.00  0.00    -0.237 OA
ATOM     86  O   UNL A   1      38.530  34.231  33.615  1.00  0.00    -0.744 OA
ENDBRANCH  82  83
ENDBRANCH  54  77
BRANCH  66  87
ATOM     87  C   UNL A   1      45.029  23.802  33.583  1.00  0.00    -0.014 A 
ATOM     88  C   UNL A   1      46.137  22.966  33.375  1.00  0.00     0.010 A 
ATOM     89  C   UNL A   1      44.268  23.566  34.757  1.00  0.00     0.010 A 
ATOM     90  C   UNL A   1      46.434  21.913  34.254  1.00  0.00     0.020 A 
ATOM     91  C   UNL A   1      44.581  22.549  35.663  1.00  0.00     0.020 A 
ATOM     92  C   UNL A   1      45.652  21.710  35.393  1.00  0.00     0.054 A 
BRANCH  92  93
ATOM     93  S   UNL A   1      46.086  20.394  36.559  1.00  0.00     0.124 S 
ATOM     94  O   UNL A   1      45.672  20.973  37.834  1.00  0.00    -0.237 OA
ATOM     95  O   UNL A   1      45.284  19.265  36.095  1.00  0.00    -0.237 OA
ATOM     96  O   UNL A   1      47.528  20.239  36.379  1.00  0.00    -0.744 OA
ENDBRANCH  92  93
ENDBRANCH  66  87
ENDBRANCH  40  41
ENDBRANCH  32  35
ENDBRANCH  30  31
ENDBRANCH  29  30
ENDBRANCH  28  29
ENDBRANCH   1  28
TORSDOF 19
ENDMDL
MODEL 3
REMARK VINA RESULT:     -12.7      4.263     10.483
REMARK SMILES COc1ccc(NC(=O)[C@H]2[C@@H](C(=O)NCCCCCCNC(=O)c3ccc(-c4c5nc(c(-c6ccc(S(=O)(=O)[O-])cc6)c6ccc([nH]6)c(-c6ccc(S(=O)(=O)[O-])cc6)c6nc(c(-c7ccc(S(=O)(=O)[O-])cc7)c7ccc4[nH]7)C=C6)C=C5)cc3)[C@H]3C=C[C@@H]2C3)c(C)c1
REMARK SMILES IDX 17 1 16 2 15 3 14 4 12 5 13 6 11 8 10 9 87 10 84 11 86 12
REMARK SMILES IDX 88 13 85 14 8 15 7 16 9 18 6 19 3 20 4 21 91 22 5 23 89 24
REMARK SMILES IDX 90 25 2 26 1 27 18 28 19 29 20 30 21 31 22 32 23 34 24 35
REMARK SMILES IDX 25 36 83 37 26 38 82 39 27 40 28 41 29 42 76 43 30 44 81 45
REMARK SMILES IDX 75 46 77 47 31 48 80 49 74 50 73 51 32 53 62 54 43 55 61 56
REMARK SMILES IDX 44 57 47 58 60 59 78 60 45 61 46 62 59 64 79 65 48 66 33 67
REMARK SMILES IDX 34 68 42 69 35 70 41 71 36 72 37 73 38 74 39 75 40 76 63 77
REMARK SMILES IDX 64 78 72 79 65 80 71 81 66 82 67 83 68 84 69 85 70 86 49 87
REMARK SMILES IDX 50 88 58 89 51 90 57 91 52 92 53 93 54 94 55 95 56 96
REMARK H PARENT 14 7 7 17 21 33 77 52 47 63
REMARK Flexibility Score: inf
ROOT
ATOM      1  C   UNL A   1      38.703  24.514  27.022  1.00  0.00     0.002 C 
ENDROOT
BRANCH   1   2
ATOM      2  C   UNL A   1      37.827  23.679  26.080  1.00  0.00     0.021 C 
BRANCH   2   3
ATOM      3  C   UNL A   1      36.320  23.935  26.174  1.00  0.00     0.116 C 
BRANCH   3   4
ATOM      4  N   UNL A   1      35.537  22.719  26.278  1.00  0.00    -0.356 N 
ATOM      5  C   UNL A   1      34.597  22.185  25.448  1.00  0.00     0.224 C 
ATOM      6  O   UNL A   1      34.178  21.054  25.705  1.00  0.00    -0.275 OA
ATOM      7  H   UNL A   1      35.716  22.188  27.087  1.00  0.00     0.163 HD
BRANCH   5   8
ATOM      8  C   UNL A   1      34.222  22.911  24.165  1.00  0.00     0.098 C 
ATOM      9  C   UNL A   1      33.329  24.207  24.186  1.00  0.00     0.099 C 
ATOM     10  C   UNL A   1      32.250  23.875  23.111  1.00  0.00     0.025 C 
ATOM     11  C   UNL A   1      33.465  22.005  23.152  1.00  0.00     0.025 C 
ATOM     12  C   UNL A   1      31.351  22.785  23.637  1.00  0.00    -0.027 C 
ATOM     13  C   UNL A   1      33.055  23.048  22.106  1.00  0.00     0.017 C 
ATOM     14  C   UNL A   1      32.085  21.664  23.673  1.00  0.00    -0.027 C 
BRANCH   9  15
ATOM     15  C   UNL A   1      32.713  24.633  25.509  1.00  0.00     0.228 C 
ATOM     16  N   UNL A   1      32.082  25.832  25.685  1.00  0.00    -0.326 N 
ATOM     17  H   UNL A   1      31.923  26.047  26.633  1.00  0.00     0.169 HD
ATOM     18  O   UNL A   1      32.714  23.884  26.490  1.00  0.00    -0.274 OA
BRANCH  16  19
ATOM     19  C   UNL A   1      31.610  26.830  24.809  1.00  0.00     0.044 A 
ATOM     20  C   UNL A   1      30.297  29.053  23.748  1.00  0.00     0.119 A 
ATOM     21  C   UNL A   1      29.824  27.781  23.470  1.00  0.00     0.048 A 
ATOM     22  C   UNL A   1      31.539  29.210  24.348  1.00  0.00     0.052 A 
ATOM     23  C   UNL A   1      30.492  26.674  23.990  1.00  0.00     0.030 A 
ATOM     24  C   UNL A   1      32.235  28.094  24.848  1.00  0.00    -0.024 A 
ATOM     25  C   UNL A   1      33.577  28.342  25.486  1.00  0.00     0.047 C 
BRANCH  20  26
ATOM     26  O   UNL A   1      29.579  30.171  23.423  1.00  0.00    -0.497 OA
ATOM     27  C   UNL A   1      29.184  30.126  22.048  1.00  0.00     0.278 C 
ENDBRANCH  20  26
ENDBRANCH  16  19
ENDBRANCH   9  15
ENDBRANCH   5   8
ENDBRANCH   3   4
ENDBRANCH   2   3
ENDBRANCH   1   2
BRANCH   1  28
ATOM     28  C   UNL A   1      40.078  23.927  27.367  1.00  0.00     0.002 C 
BRANCH  28  29
ATOM     29  C   UNL A   1      41.238  24.364  26.472  1.00  0.00     0.021 C 
BRANCH  29  30
ATOM     30  C   UNL A   1      42.030  25.552  27.014  1.00  0.00     0.116 C 
BRANCH  30  31
ATOM     31  N   UNL A   1      42.651  26.348  25.986  1.00  0.00    -0.352 N 
ATOM     32  C   UNL A   1      42.273  27.636  25.596  1.00  0.00     0.251 C 
ATOM     33  H   UNL A   1      43.416  25.946  25.512  1.00  0.00     0.163 HD
ATOM     34  O   UNL A   1      42.593  28.121  24.522  1.00  0.00    -0.269 OA
BRANCH  32  35
ATOM     35  C   UNL A   1      41.594  28.453  26.615  1.00  0.00     0.039 A 
ATOM     36  C   UNL A   1      42.404  29.220  27.461  1.00  0.00     0.014 A 
ATOM     37  C   UNL A   1      40.235  28.292  26.875  1.00  0.00     0.014 A 
ATOM     38  C   UNL A   1      41.876  29.716  28.652  1.00  0.00     0.010 A 
ATOM     39  C   UNL A   1      39.733  28.712  28.095  1.00  0.00     0.010 A 
ATOM     40  C   UNL A   1      40.560  29.392  28.995  1.00  0.00    -0.014 A 
BRANCH  40  41
ATOM     41  C   UNL A   1      39.995  29.675  30.309  1.00  0.00     0.031 A 
ATOM     42  C   UNL A   1      39.193  30.900  30.520  1.00  0.00     0.074 A 
ATOM     43  C   UNL A   1      40.202  28.830  31.343  1.00  0.00     0.049 A 
ATOM     44  N   UNL A   1      39.144  31.551  31.637  1.00  0.00    -0.248 NA
ATOM     45  C   UNL A   1      38.408  31.517  29.454  1.00  0.00     0.031 C 
ATOM     46  C   UNL A   1      39.547  28.869  32.649  1.00  0.00     0.029 A 
ATOM     47  N   UNL A   1      41.225  27.896  31.505  1.00  0.00    -0.354 N 
ATOM     48  C   UNL A   1      38.134  32.476  31.523  1.00  0.00     0.074 A 
ATOM     49  C   UNL A   1      37.760  32.473  30.126  1.00  0.00     0.031 C 
ATOM     50  C   UNL A   1      40.345  28.264  33.542  1.00  0.00     0.029 A 
ATOM     51  C   UNL A   1      41.587  27.935  32.860  1.00  0.00     0.049 A 
ATOM     52  H   UNL A   1      41.617  27.324  30.806  1.00  0.00     0.167 HD
ATOM     53  C   UNL A   1      37.593  33.052  32.632  1.00  0.00     0.031 A 
ATOM     54  C   UNL A   1      42.840  28.228  33.311  1.00  0.00     0.031 A 
ATOM     55  C   UNL A   1      38.220  32.585  33.861  1.00  0.00     0.049 A 
ATOM     56  C   UNL A   1      42.864  29.400  34.269  1.00  0.00     0.074 A 
ATOM     57  C   UNL A   1      37.862  31.617  34.785  1.00  0.00     0.029 A 
ATOM     58  N   UNL A   1      39.542  32.917  34.127  1.00  0.00    -0.354 N 
ATOM     59  N   UNL A   1      41.887  30.252  34.404  1.00  0.00    -0.248 NA
ATOM     60  C   UNL A   1      44.014  29.737  35.105  1.00  0.00     0.031 C 
ATOM     61  C   UNL A   1      39.002  31.318  35.572  1.00  0.00     0.029 A 
ATOM     62  C   UNL A   1      40.042  32.123  35.142  1.00  0.00     0.049 A 
ATOM     63  H   UNL A   1      40.051  33.619  33.661  1.00  0.00     0.167 HD
ATOM     64  C   UNL A   1      42.248  31.232  35.294  1.00  0.00     0.074 A 
ATOM     65  C   UNL A   1      43.584  30.854  35.718  1.00  0.00     0.031 C 
ATOM     66  C   UNL A   1      41.418  32.275  35.595  1.00  0.00     0.031 A 
BRANCH  53  67
ATOM     67  C   UNL A   1      36.272  33.777  32.576  1.00  0.00    -0.014 A 
ATOM     68  C   UNL A   1      35.361  33.489  31.541  1.00  0.00     0.010 A 
ATOM     69  C   UNL A   1      35.907  34.794  33.479  1.00  0.00     0.010 A 
ATOM     70  C   UNL A   1      34.200  34.248  31.346  1.00  0.00     0.020 A 
ATOM     71  C   UNL A   1      34.765  35.585  33.275  1.00  0.00     0.020 A 
ATOM     72  C   UNL A   1      33.923  35.314  32.199  1.00  0.00     0.054 A 
BRANCH  72  73
ATOM     73  S   UNL A   1      32.479  36.355  31.853  1.00  0.00     0.124 S 
ATOM     74  O   UNL A   1      32.854  37.629  32.462  1.00  0.00    -0.237 OA
ATOM     75  O   UNL A   1      32.428  36.344  30.395  1.00  0.00    -0.237 OA
ATOM     76  O   UNL A   1      31.383  35.657  32.521  1.00  0.00    -0.744 OA
ENDBRANCH  72  73
ENDBRANCH  53  67
BRANCH  54  77
ATOM     77  C   UNL A   1      43.936  27.899  32.358  1.00  0.00    -0.014 A 
ATOM     78  C   UNL A   1      44.432  26.578  32.349  1.00  0.00     0.010 A 
ATOM     79  C   UNL A   1      44.185  28.725  31.249  1.00  0.00     0.010 A 
ATOM     80  C   UNL A   1      45.030  26.048  31.201  1.00  0.00     0.020 A 
ATOM     81  C   UNL A   1      44.786  28.196  30.099  1.00  0.00     0.020 A 
ATOM     82  C   UNL A   1      45.151  26.846  30.064  1.00  0.00     0.054 A 
BRANCH  82  83
ATOM     83  S   UNL A   1      45.645  26.056  28.502  1.00  0.00     0.124 S 
ATOM     84  O   UNL A   1      44.909  24.796  28.544  1.00  0.00    -0.237 OA
ATOM     85  O   UNL A   1      45.186  27.020  27.503  1.00  0.00    -0.237 OA
ATOM     86  O   UNL A   1      47.094  25.942  28.628  1.00  0.00    -0.744 OA
ENDBRANCH  82  83
ENDBRANCH  54  77
BRANCH  66  87
ATOM     87  C   UNL A   1      41.767  33.500  36.410  1.00  0.00    -0.014 A 
ATOM     88  C   UNL A   1      42.384  34.650  35.897  1.00  0.00     0.010 A 
ATOM     89  C   UNL A   1      41.347  33.557  37.764  1.00  0.00     0.010 A 
ATOM     90  C   UNL A   1      42.625  35.773  36.703  1.00  0.00     0.020 A 
ATOM     91  C   UNL A   1      41.541  34.686  38.564  1.00  0.00     0.020 A 
ATOM     92  C   UNL A   1      42.203  35.783  38.034  1.00  0.00     0.054 A 
BRANCH  92  93
ATOM     93  S   UNL A   1      42.455  37.264  39.046  1.00  0.00     0.124 S 
ATOM     94  O   UNL A   1      43.400  38.027  38.235  1.00  0.00    -0.237 OA
ATOM     95  O   UNL A   1      41.112  37.831  39.139  1.00  0.00    -0.237 OA
ATOM     96  O   UNL A   1      42.987  36.735  40.299  1.00  0.00    -0.744 OA
ENDBRANCH  92  93
ENDBRANCH  66  87
ENDBRANCH  40  41
ENDBRANCH  32  35
ENDBRANCH  30  31
ENDBRANCH  29  30
ENDBRANCH  28  29
ENDBRANCH   1  28
TORSDOF 19
ENDMDL
