MODEL 1
REMARK VINA RESULT:     -12.5      0.000      0.000
REMARK SMILES Cc1ccc(Nc2c(Cl)cc(Cl)cc2Cl)c(CC(=O)NCCCCCCNC(=O)c2ccc(-c3c4nc(c(-c5ccc(S(=O)(=O)[O-])cc5)c5ccc([nH]5)c(-c5ccc(S(=O)(=O)[O-])cc5)c5nc(c(-c6ccc(S(=O)(=O)[O-])cc6)c6ccc3[nH]6)C=C5)C=C4)cc2)c1
REMARK SMILES IDX 23 1 22 2 21 3 20 4 18 5 19 6 17 8 16 9 1 10 2 11 3 12 90 13
REMARK SMILES IDX 4 14 5 15 6 16 7 18 8 19 14 20 9 21 10 22 13 23 15 24 11 25
REMARK SMILES IDX 12 26 24 27 25 28 26 29 27 30 28 31 29 33 30 34 31 35 89 36
REMARK SMILES IDX 32 37 88 38 33 39 34 40 35 41 82 42 36 43 87 44 81 45 83 46
REMARK SMILES IDX 37 47 86 48 80 49 79 50 38 52 68 53 49 54 67 55 50 56 53 57
REMARK SMILES IDX 66 58 84 59 51 60 52 61 65 63 85 64 54 65 39 66 40 67 48 68
REMARK SMILES IDX 41 69 47 70 42 71 43 72 44 73 45 74 46 75 69 76 70 77 78 78
REMARK SMILES IDX 71 79 77 80 72 81 73 82 74 83 75 84 76 85 55 86 56 87 64 88
REMARK SMILES IDX 57 89 63 90 58 91 59 92 60 93 61 94 62 95
REMARK H PARENT 20 7 6 17 27 32 83 51 53 62
REMARK Flexibility Score: inf
ROOT
ATOM      1  C   UNL A   1      35.055  24.250  24.941  1.00  0.00     0.002 C 
ENDROOT
BRANCH   1   2
ATOM      2  C   UNL A   1      34.173  24.206  26.196  1.00  0.00     0.021 C 
BRANCH   2   3
ATOM      3  C   UNL A   1      32.994  25.181  26.199  1.00  0.00     0.116 C 
BRANCH   3   4
ATOM      4  N   UNL A   1      31.805  24.606  26.799  1.00  0.00    -0.356 N 
ATOM      5  C   UNL A   1      30.557  24.471  26.270  1.00  0.00     0.224 C 
ATOM      6  O   UNL A   1      29.647  24.053  26.991  1.00  0.00    -0.275 OA
ATOM      7  H   UNL A   1      31.914  24.266  27.716  1.00  0.00     0.163 HD
BRANCH   5   8
ATOM      8  C   UNL A   1      30.278  24.844  24.825  1.00  0.00     0.137 C 
BRANCH   8   9
ATOM      9  C   UNL A   1      31.219  24.197  23.832  1.00  0.00    -0.015 A 
ATOM     10  C   UNL A   1      32.806  20.735  23.429  1.00  0.00     0.044 C 
ATOM     11  C   UNL A   1      32.444  22.171  23.196  1.00  0.00    -0.051 A 
ATOM     12  C   UNL A   1      33.021  22.875  22.143  1.00  0.00     0.005 A 
ATOM     13  C   UNL A   1      31.534  22.833  24.022  1.00  0.00     0.009 A 
ATOM     14  C   UNL A   1      32.688  24.214  21.919  1.00  0.00     0.026 A 
ATOM     15  C   UNL A   1      31.787  24.903  22.748  1.00  0.00     0.042 A 
BRANCH  15  16
ATOM     16  N   UNL A   1      31.412  26.238  22.471  1.00  0.00    -0.353 N 
ATOM     17  H   UNL A   1      30.962  26.383  21.608  1.00  0.00     0.167 HD
BRANCH  16  18
ATOM     18  C   UNL A   1      31.597  27.397  23.265  1.00  0.00     0.076 A 
ATOM     19  C   UNL A   1      32.865  27.836  23.695  1.00  0.00     0.067 A 
ATOM     20  C   UNL A   1      30.469  28.110  23.724  1.00  0.00     0.067 A 
ATOM     21  Cl  UNL A   1      34.332  27.126  23.107  1.00  0.00    -0.082 Cl
ATOM     22  C   UNL A   1      32.995  28.925  24.565  1.00  0.00     0.043 A 
ATOM     23  C   UNL A   1      30.596  29.198  24.590  1.00  0.00     0.043 A 
ATOM     24  Cl  UNL A   1      28.870  27.652  23.239  1.00  0.00    -0.082 Cl
ATOM     25  C   UNL A   1      31.859  29.594  25.011  1.00  0.00     0.044 A 
ATOM     26  Cl  UNL A   1      32.024  30.934  26.077  1.00  0.00    -0.084 Cl
ENDBRANCH  16  18
ENDBRANCH  15  16
ENDBRANCH   8   9
ENDBRANCH   5   8
ENDBRANCH   3   4
ENDBRANCH   2   3
ENDBRANCH   1   2
BRANCH   1  27
ATOM     27  C   UNL A   1      35.812  22.963  24.584  1.00  0.00     0.002 C 
BRANCH  27  28
ATOM     28  C   UNL A   1      36.927  22.540  25.542  1.00  0.00     0.021 C 
BRANCH  28  29
ATOM     29  C   UNL A   1      37.835  23.685  25.979  1.00  0.00     0.116 C 
BRANCH  29  30
ATOM     30  N   UNL A   1      38.921  23.240  26.838  1.00  0.00    -0.352 N 
ATOM     31  C   UNL A   1      39.876  24.010  27.492  1.00  0.00     0.251 C 
ATOM     32  H   UNL A   1      38.989  22.267  26.973  1.00  0.00     0.163 HD
ATOM     33  O   UNL A   1      40.896  23.545  27.925  1.00  0.00    -0.269 OA
BRANCH  31  34
ATOM     34  C   UNL A   1      39.502  25.417  27.768  1.00  0.00     0.039 A 
ATOM     35  C   UNL A   1      39.957  26.380  26.860  1.00  0.00     0.014 A 
ATOM     36  C   UNL A   1      38.959  25.782  28.994  1.00  0.00     0.014 A 
ATOM     37  C   UNL A   1      40.025  27.715  27.253  1.00  0.00     0.010 A 
ATOM     38  C   UNL A   1      39.107  27.089  29.412  1.00  0.00     0.010 A 
ATOM     39  C   UNL A   1      39.686  28.046  28.562  1.00  0.00    -0.014 A 
BRANCH  39  40
ATOM     40  C   UNL A   1      39.970  29.334  29.184  1.00  0.00     0.031 A 
ATOM     41  C   UNL A   1      38.974  30.429  29.126  1.00  0.00     0.074 A 
ATOM     42  C   UNL A   1      41.072  29.483  29.955  1.00  0.00     0.049 A 
ATOM     43  N   UNL A   1      39.219  31.652  29.460  1.00  0.00    -0.248 NA
ATOM     44  C   UNL A   1      37.623  30.243  28.601  1.00  0.00     0.031 C 
ATOM     45  C   UNL A   1      41.290  30.502  30.979  1.00  0.00     0.029 A 
ATOM     46  N   UNL A   1      42.323  28.881  29.815  1.00  0.00    -0.354 N 
ATOM     47  C   UNL A   1      38.011  32.301  29.541  1.00  0.00     0.074 A 
ATOM     48  C   UNL A   1      37.084  31.441  28.847  1.00  0.00     0.031 C 
ATOM     49  C   UNL A   1      42.609  30.663  31.148  1.00  0.00     0.029 A 
ATOM     50  C   UNL A   1      43.268  29.877  30.121  1.00  0.00     0.049 A 
ATOM     51  H   UNL A   1      42.507  27.949  29.554  1.00  0.00     0.167 HD
ATOM     52  C   UNL A   1      37.904  33.412  30.324  1.00  0.00     0.031 A 
ATOM     53  C   UNL A   1      44.190  30.354  29.231  1.00  0.00     0.031 A 
ATOM     54  C   UNL A   1      39.213  33.935  30.726  1.00  0.00     0.049 A 
ATOM     55  C   UNL A   1      44.101  31.852  28.994  1.00  0.00     0.074 A 
ATOM     56  C   UNL A   1      39.896  34.070  31.922  1.00  0.00     0.029 A 
ATOM     57  N   UNL A   1      40.129  34.240  29.731  1.00  0.00    -0.354 N 
ATOM     58  N   UNL A   1      43.243  32.644  29.576  1.00  0.00    -0.248 NA
ATOM     59  C   UNL A   1      44.906  32.557  27.993  1.00  0.00     0.031 C 
ATOM     60  C   UNL A   1      41.242  34.445  31.626  1.00  0.00     0.029 A 
ATOM     61  C   UNL A   1      41.365  34.557  30.253  1.00  0.00     0.049 A 
ATOM     62  H   UNL A   1      39.922  34.232  28.768  1.00  0.00     0.167 HD
ATOM     63  C   UNL A   1      43.307  33.888  29.009  1.00  0.00     0.074 A 
ATOM     64  C   UNL A   1      44.380  33.793  28.036  1.00  0.00     0.031 C 
ATOM     65  C   UNL A   1      42.439  34.890  29.330  1.00  0.00     0.031 A 
BRANCH  52  66
ATOM     66  C   UNL A   1      36.593  33.930  30.892  1.00  0.00    -0.014 A 
ATOM     67  C   UNL A   1      35.459  34.029  30.057  1.00  0.00     0.010 A 
ATOM     68  C   UNL A   1      36.437  34.443  32.196  1.00  0.00     0.010 A 
ATOM     69  C   UNL A   1      34.268  34.647  30.483  1.00  0.00     0.020 A 
ATOM     70  C   UNL A   1      35.249  35.037  32.643  1.00  0.00     0.020 A 
ATOM     71  C   UNL A   1      34.176  35.161  31.774  1.00  0.00     0.054 A 
BRANCH  71  72
ATOM     72  S   UNL A   1      32.673  36.022  32.301  1.00  0.00     0.124 S 
ATOM     73  O   UNL A   1      31.790  34.913  32.655  1.00  0.00    -0.237 OA
ATOM     74  O   UNL A   1      33.146  36.837  33.417  1.00  0.00    -0.237 OA
ATOM     75  O   UNL A   1      32.271  36.774  31.114  1.00  0.00    -0.744 OA
ENDBRANCH  71  72
ENDBRANCH  52  66
BRANCH  53  76
ATOM     76  C   UNL A   1      44.616  29.353  28.214  1.00  0.00    -0.014 A 
ATOM     77  C   UNL A   1      45.463  28.312  28.649  1.00  0.00     0.010 A 
ATOM     78  C   UNL A   1      43.867  29.179  27.036  1.00  0.00     0.010 A 
ATOM     79  C   UNL A   1      45.414  27.058  28.037  1.00  0.00     0.020 A 
ATOM     80  C   UNL A   1      43.826  27.925  26.415  1.00  0.00     0.020 A 
ATOM     81  C   UNL A   1      44.540  26.858  26.968  1.00  0.00     0.054 A 
BRANCH  81  82
ATOM     82  S   UNL A   1      44.189  25.147  26.463  1.00  0.00     0.124 S 
ATOM     83  O   UNL A   1      42.903  25.275  25.787  1.00  0.00    -0.237 OA
ATOM     84  O   UNL A   1      45.332  24.852  25.600  1.00  0.00    -0.237 OA
ATOM     85  O   UNL A   1      44.166  24.422  27.731  1.00  0.00    -0.744 OA
ENDBRANCH  81  82
ENDBRANCH  53  76
BRANCH  65  86
ATOM     86  C   UNL A   1      42.495  36.269  28.733  1.00  0.00    -0.014 A 
ATOM     87  C   UNL A   1      42.001  36.557  27.450  1.00  0.00     0.010 A 
ATOM     88  C   UNL A   1      43.177  37.304  29.413  1.00  0.00     0.010 A 
ATOM     89  C   UNL A   1      42.131  37.838  26.896  1.00  0.00     0.020 A 
ATOM     90  C   UNL A   1      43.328  38.579  28.862  1.00  0.00     0.020 A 
ATOM     91  C   UNL A   1      42.787  38.844  27.610  1.00  0.00     0.054 A 
BRANCH  91  92
ATOM     92  S   UNL A   1      42.981  40.482  26.861  1.00  0.00     0.124 S 
ATOM     93  O   UNL A   1      43.861  40.214  25.726  1.00  0.00    -0.237 OA
ATOM     94  O   UNL A   1      41.603  40.823  26.521  1.00  0.00    -0.237 OA
ATOM     95  O   UNL A   1      43.578  41.284  27.928  1.00  0.00    -0.744 OA
ENDBRANCH  91  92
ENDBRANCH  65  86
ENDBRANCH  39  40
ENDBRANCH  31  34
ENDBRANCH  29  30
ENDBRANCH  28  29
ENDBRANCH  27  28
ENDBRANCH   1  27
TORSDOF 19
ENDMDL
MODEL 2
REMARK VINA RESULT:     -12.4      4.463     10.924
REMARK SMILES Cc1ccc(Nc2c(Cl)cc(Cl)cc2Cl)c(CC(=O)NCCCCCCNC(=O)c2ccc(-c3c4nc(c(-c5ccc(S(=O)(=O)[O-])cc5)c5ccc([nH]5)c(-c5ccc(S(=O)(=O)[O-])cc5)c5nc(c(-c6ccc(S(=O)(=O)[O-])cc6)c6ccc3[nH]6)C=C5)C=C4)cc2)c1
REMARK SMILES IDX 23 1 22 2 21 3 20 4 18 5 19 6 17 8 16 9 1 10 2 11 3 12 90 13
REMARK SMILES IDX 4 14 5 15 6 16 7 18 8 19 14 20 9 21 10 22 13 23 15 24 11 25
REMARK SMILES IDX 12 26 24 27 25 28 26 29 27 30 28 31 29 33 30 34 31 35 89 36
REMARK SMILES IDX 32 37 88 38 33 39 34 40 35 41 82 42 36 43 87 44 81 45 83 46
REMARK SMILES IDX 37 47 86 48 80 49 79 50 38 52 68 53 49 54 67 55 50 56 53 57
REMARK SMILES IDX 66 58 84 59 51 60 52 61 65 63 85 64 54 65 39 66 40 67 48 68
REMARK SMILES IDX 41 69 47 70 42 71 43 72 44 73 45 74 46 75 69 76 70 77 78 78
REMARK SMILES IDX 71 79 77 80 72 81 73 82 74 83 75 84 76 85 55 86 56 87 64 88
REMARK SMILES IDX 57 89 63 90 58 91 59 92 60 93 61 94 62 95
REMARK H PARENT 20 7 6 17 27 32 83 51 53 62
REMARK Flexibility Score: inf
ROOT
ATOM      1  C   UNL A   1      33.678  27.118  25.208  1.00  0.00     0.002 C 
ENDROOT
BRANCH   1   2
ATOM      2  C   UNL A   1      33.574  25.828  26.034  1.00  0.00     0.021 C 
BRANCH   2   3
ATOM      3  C   UNL A   1      34.642  24.774  25.735  1.00  0.00     0.116 C 
BRANCH   3   4
ATOM      4  N   UNL A   1      34.583  23.653  26.655  1.00  0.00    -0.356 N 
ATOM      5  C   UNL A   1      34.718  22.324  26.397  1.00  0.00     0.224 C 
ATOM      6  O   UNL A   1      34.521  21.517  27.309  1.00  0.00    -0.275 OA
ATOM      7  H   UNL A   1      34.421  23.887  27.597  1.00  0.00     0.163 HD
BRANCH   5   8
ATOM      8  C   UNL A   1      35.089  21.833  25.009  1.00  0.00     0.137 C 
BRANCH   8   9
ATOM      9  C   UNL A   1      34.003  21.022  24.335  1.00  0.00    -0.015 A 
ATOM     10  C   UNL A   1      32.914  17.351  24.374  1.00  0.00     0.044 C 
ATOM     11  C   UNL A   1      32.981  18.812  24.048  1.00  0.00    -0.051 A 
ATOM     12  C   UNL A   1      32.114  19.358  23.105  1.00  0.00     0.005 A 
ATOM     13  C   UNL A   1      33.907  19.653  24.668  1.00  0.00     0.009 A 
ATOM     14  C   UNL A   1      32.171  20.720  22.796  1.00  0.00     0.026 A 
ATOM     15  C   UNL A   1      33.106  21.579  23.397  1.00  0.00     0.042 A 
BRANCH  15  16
ATOM     16  N   UNL A   1      33.108  22.966  23.120  1.00  0.00    -0.353 N 
ATOM     17  H   UNL A   1      33.918  23.311  22.680  1.00  0.00     0.167 HD
BRANCH  16  18
ATOM     18  C   UNL A   1      32.103  23.928  23.389  1.00  0.00     0.076 A 
ATOM     19  C   UNL A   1      31.171  23.789  24.438  1.00  0.00     0.067 A 
ATOM     20  C   UNL A   1      31.961  25.041  22.533  1.00  0.00     0.067 A 
ATOM     21  Cl  UNL A   1      31.310  22.538  25.629  1.00  0.00    -0.082 Cl
ATOM     22  C   UNL A   1      30.131  24.709  24.606  1.00  0.00     0.043 A 
ATOM     23  C   UNL A   1      30.924  25.962  22.699  1.00  0.00     0.043 A 
ATOM     24  Cl  UNL A   1      33.065  25.303  21.225  1.00  0.00    -0.082 Cl
ATOM     25  C   UNL A   1      30.011  25.785  23.731  1.00  0.00     0.044 A 
ATOM     26  Cl  UNL A   1      28.732  26.916  23.944  1.00  0.00    -0.084 Cl
ENDBRANCH  16  18
ENDBRANCH  15  16
ENDBRANCH   8   9
ENDBRANCH   5   8
ENDBRANCH   3   4
ENDBRANCH   2   3
ENDBRANCH   1   2
BRANCH   1  27
ATOM     27  C   UNL A   1      32.747  28.271  25.609  1.00  0.00     0.002 C 
BRANCH  27  28
ATOM     28  C   UNL A   1      33.422  29.576  26.034  1.00  0.00     0.021 C 
BRANCH  28  29
ATOM     29  C   UNL A   1      34.579  29.384  27.009  1.00  0.00     0.116 C 
BRANCH  29  30
ATOM     30  N   UNL A   1      35.264  30.631  27.315  1.00  0.00    -0.352 N 
ATOM     31  C   UNL A   1      36.433  30.819  28.042  1.00  0.00     0.251 C 
ATOM     32  H   UNL A   1      34.843  31.448  26.961  1.00  0.00     0.163 HD
ATOM     33  O   UNL A   1      36.751  31.886  28.492  1.00  0.00    -0.269 OA
BRANCH  31  34
ATOM     34  C   UNL A   1      37.354  29.659  28.107  1.00  0.00     0.039 A 
ATOM     35  C   UNL A   1      37.358  28.922  29.298  1.00  0.00     0.014 A 
ATOM     36  C   UNL A   1      38.338  29.477  27.144  1.00  0.00     0.014 A 
ATOM     37  C   UNL A   1      38.454  28.119  29.603  1.00  0.00     0.010 A 
ATOM     38  C   UNL A   1      39.461  28.748  27.485  1.00  0.00     0.010 A 
ATOM     39  C   UNL A   1      39.541  28.110  28.733  1.00  0.00    -0.014 A 
BRANCH  39  40
ATOM     40  C   UNL A   1      40.847  27.545  29.056  1.00  0.00     0.031 A 
ATOM     41  C   UNL A   1      41.160  26.141  28.707  1.00  0.00     0.074 A 
ATOM     42  C   UNL A   1      41.831  28.345  29.525  1.00  0.00     0.049 A 
ATOM     43  N   UNL A   1      42.197  25.500  29.133  1.00  0.00    -0.248 NA
ATOM     44  C   UNL A   1      40.270  25.307  27.900  1.00  0.00     0.031 C 
ATOM     45  C   UNL A   1      43.268  28.079  29.483  1.00  0.00     0.029 A 
ATOM     46  N   UNL A   1      41.727  29.468  30.347  1.00  0.00    -0.354 N 
ATOM     47  C   UNL A   1      42.296  24.347  28.393  1.00  0.00     0.074 A 
ATOM     48  C   UNL A   1      41.005  24.198  27.769  1.00  0.00     0.031 C 
ATOM     49  C   UNL A   1      43.862  28.787  30.452  1.00  0.00     0.029 A 
ATOM     50  C   UNL A   1      42.808  29.393  31.245  1.00  0.00     0.049 A 
ATOM     51  H   UNL A   1      41.037  30.169  30.308  1.00  0.00     0.167 HD
ATOM     52  C   UNL A   1      43.511  23.740  28.267  1.00  0.00     0.031 A 
ATOM     53  C   UNL A   1      42.668  29.271  32.599  1.00  0.00     0.031 A 
ATOM     54  C   UNL A   1      44.491  24.258  29.226  1.00  0.00     0.049 A 
ATOM     55  C   UNL A   1      43.336  28.036  33.179  1.00  0.00     0.074 A 
ATOM     56  C   UNL A   1      45.674  24.971  29.139  1.00  0.00     0.029 A 
ATOM     57  N   UNL A   1      44.169  24.222  30.574  1.00  0.00    -0.354 N 
ATOM     58  N   UNL A   1      43.999  27.156  32.481  1.00  0.00    -0.248 NA
ATOM     59  C   UNL A   1      43.212  27.640  34.584  1.00  0.00     0.031 C 
ATOM     60  C   UNL A   1      46.047  25.377  30.457  1.00  0.00     0.029 A 
ATOM     61  C   UNL A   1      45.101  24.890  31.340  1.00  0.00     0.049 A 
ATOM     62  H   UNL A   1      43.373  23.773  30.941  1.00  0.00     0.167 HD
ATOM     63  C   UNL A   1      44.311  26.081  33.270  1.00  0.00     0.074 A 
ATOM     64  C   UNL A   1      43.817  26.439  34.587  1.00  0.00     0.031 C 
ATOM     65  C   UNL A   1      44.895  24.951  32.779  1.00  0.00     0.031 A 
BRANCH  52  66
ATOM     66  C   UNL A   1      43.875  22.793  27.137  1.00  0.00    -0.014 A 
ATOM     67  C   UNL A   1      43.014  21.721  26.815  1.00  0.00     0.010 A 
ATOM     68  C   UNL A   1      45.095  22.826  26.431  1.00  0.00     0.010 A 
ATOM     69  C   UNL A   1      43.373  20.724  25.890  1.00  0.00     0.020 A 
ATOM     70  C   UNL A   1      45.456  21.855  25.487  1.00  0.00     0.020 A 
ATOM     71  C   UNL A   1      44.603  20.791  25.240  1.00  0.00     0.054 A 
BRANCH  71  72
ATOM     72  S   UNL A   1      45.101  19.471  24.104  1.00  0.00     0.124 S 
ATOM     73  O   UNL A   1      46.557  19.579  24.125  1.00  0.00    -0.237 OA
ATOM     74  O   UNL A   1      44.543  18.279  24.736  1.00  0.00    -0.237 OA
ATOM     75  O   UNL A   1      44.474  19.850  22.839  1.00  0.00    -0.744 OA
ENDBRANCH  71  72
ENDBRANCH  52  66
BRANCH  53  76
ATOM     76  C   UNL A   1      41.429  29.902  33.134  1.00  0.00    -0.014 A 
ATOM     77  C   UNL A   1      41.505  31.262  33.501  1.00  0.00     0.010 A 
ATOM     78  C   UNL A   1      40.172  29.337  32.856  1.00  0.00     0.010 A 
ATOM     79  C   UNL A   1      40.383  32.085  33.401  1.00  0.00     0.020 A 
ATOM     80  C   UNL A   1      39.042  30.160  32.767  1.00  0.00     0.020 A 
ATOM     81  C   UNL A   1      39.176  31.537  32.965  1.00  0.00     0.054 A 
BRANCH  81  82
ATOM     82  S   UNL A   1      37.859  32.680  32.449  1.00  0.00     0.124 S 
ATOM     83  O   UNL A   1      38.221  32.977  31.067  1.00  0.00    -0.237 OA
ATOM     84  O   UNL A   1      36.664  31.854  32.626  1.00  0.00    -0.237 OA
ATOM     85  O   UNL A   1      37.991  33.789  33.388  1.00  0.00    -0.744 OA
ENDBRANCH  81  82
ENDBRANCH  53  76
BRANCH  65  86
ATOM     86  C   UNL A   1      45.260  23.763  33.626  1.00  0.00    -0.014 A 
ATOM     87  C   UNL A   1      44.333  22.764  33.965  1.00  0.00     0.010 A 
ATOM     88  C   UNL A   1      46.542  23.688  34.219  1.00  0.00     0.010 A 
ATOM     89  C   UNL A   1      44.688  21.706  34.813  1.00  0.00     0.020 A 
ATOM     90  C   UNL A   1      46.899  22.648  35.080  1.00  0.00     0.020 A 
ATOM     91  C   UNL A   1      45.973  21.650  35.358  1.00  0.00     0.054 A 
BRANCH  91  92
ATOM     92  S   UNL A   1      46.402  20.297  36.484  1.00  0.00     0.124 S 
ATOM     93  O   UNL A   1      45.847  19.127  35.807  1.00  0.00    -0.237 OA
ATOM     94  O   UNL A   1      47.860  20.375  36.507  1.00  0.00    -0.237 OA
ATOM     95  O   UNL A   1      45.738  20.659  37.734  1.00  0.00    -0.744 OA
ENDBRANCH  91  92
ENDBRANCH  65  86
ENDBRANCH  39  40
ENDBRANCH  31  34
ENDBRANCH  29  30
ENDBRANCH  28  29
ENDBRANCH  27  28
ENDBRANCH   1  27
TORSDOF 19
ENDMDL
MODEL 3
REMARK VINA RESULT:     -12.2      1.288      2.034
REMARK SMILES Cc1ccc(Nc2c(Cl)cc(Cl)cc2Cl)c(CC(=O)NCCCCCCNC(=O)c2ccc(-c3c4nc(c(-c5ccc(S(=O)(=O)[O-])cc5)c5ccc([nH]5)c(-c5ccc(S(=O)(=O)[O-])cc5)c5nc(c(-c6ccc(S(=O)(=O)[O-])cc6)c6ccc3[nH]6)C=C5)C=C4)cc2)c1
REMARK SMILES IDX 23 1 22 2 21 3 20 4 18 5 19 6 17 8 16 9 1 10 2 11 3 12 90 13
REMARK SMILES IDX 4 14 5 15 6 16 7 18 8 19 14 20 9 21 10 22 13 23 15 24 11 25
REMARK SMILES IDX 12 26 24 27 25 28 26 29 27 30 28 31 29 33 30 34 31 35 89 36
REMARK SMILES IDX 32 37 88 38 33 39 34 40 35 41 82 42 36 43 87 44 81 45 83 46
REMARK SMILES IDX 37 47 86 48 80 49 79 50 38 52 68 53 49 54 67 55 50 56 53 57
REMARK SMILES IDX 66 58 84 59 51 60 52 61 65 63 85 64 54 65 39 66 40 67 48 68
REMARK SMILES IDX 41 69 47 70 42 71 43 72 44 73 45 74 46 75 69 76 70 77 78 78
REMARK SMILES IDX 71 79 77 80 72 81 73 82 74 83 75 84 76 85 55 86 56 87 64 88
REMARK SMILES IDX 57 89 63 90 58 91 59 92 60 93 61 94 62 95
REMARK H PARENT 20 7 6 17 27 32 83 51 53 62
REMARK Flexibility Score: inf
ROOT
ATOM      1  C   UNL A   1      35.196  23.443  24.776  1.00  0.00     0.002 C 
ENDROOT
BRANCH   1   2
ATOM      2  C   UNL A   1      34.560  22.509  25.815  1.00  0.00     0.021 C 
BRANCH   2   3
ATOM      3  C   UNL A   1      33.954  23.206  27.034  1.00  0.00     0.116 C 
BRANCH   3   4
ATOM      4  N   UNL A   1      32.611  22.739  27.325  1.00  0.00    -0.356 N 
ATOM      5  C   UNL A   1      31.416  23.290  26.974  1.00  0.00     0.224 C 
ATOM      6  O   UNL A   1      30.378  22.794  27.421  1.00  0.00    -0.275 OA
ATOM      7  H   UNL A   1      32.556  21.909  27.850  1.00  0.00     0.163 HD
BRANCH   5   8
ATOM      8  C   UNL A   1      31.354  24.504  26.065  1.00  0.00     0.137 C 
BRANCH   8   9
ATOM      9  C   UNL A   1      31.704  24.209  24.622  1.00  0.00    -0.015 A 
ATOM     10  C   UNL A   1      32.105  21.046  22.502  1.00  0.00     0.044 C 
ATOM     11  C   UNL A   1      32.072  22.485  22.920  1.00  0.00    -0.051 A 
ATOM     12  C   UNL A   1      32.424  23.483  22.014  1.00  0.00     0.005 A 
ATOM     13  C   UNL A   1      31.698  22.858  24.211  1.00  0.00     0.009 A 
ATOM     14  C   UNL A   1      32.394  24.827  22.396  1.00  0.00     0.026 A 
ATOM     15  C   UNL A   1      32.037  25.221  23.696  1.00  0.00     0.042 A 
BRANCH  15  16
ATOM     16  N   UNL A   1      31.952  26.589  24.047  1.00  0.00    -0.353 N 
ATOM     17  H   UNL A   1      32.523  26.872  24.796  1.00  0.00     0.167 HD
BRANCH  16  18
ATOM     18  C   UNL A   1      31.155  27.607  23.467  1.00  0.00     0.076 A 
ATOM     19  C   UNL A   1      29.747  27.554  23.436  1.00  0.00     0.067 A 
ATOM     20  C   UNL A   1      31.782  28.692  22.816  1.00  0.00     0.067 A 
ATOM     21  Cl  UNL A   1      28.855  26.346  24.300  1.00  0.00    -0.082 Cl
ATOM     22  C   UNL A   1      29.002  28.529  22.763  1.00  0.00     0.043 A 
ATOM     23  C   UNL A   1      31.041  29.667  22.145  1.00  0.00     0.043 A 
ATOM     24  Cl  UNL A   1      33.507  28.850  22.812  1.00  0.00    -0.082 Cl
ATOM     25  C   UNL A   1      29.655  29.574  22.117  1.00  0.00     0.044 A 
ATOM     26  Cl  UNL A   1      28.735  30.773  21.293  1.00  0.00    -0.084 Cl
ENDBRANCH  16  18
ENDBRANCH  15  16
ENDBRANCH   8   9
ENDBRANCH   5   8
ENDBRANCH   3   4
ENDBRANCH   2   3
ENDBRANCH   1   2
BRANCH   1  27
ATOM     27  C   UNL A   1      36.441  22.917  24.046  1.00  0.00     0.002 C 
BRANCH  27  28
ATOM     28  C   UNL A   1      37.634  22.534  24.922  1.00  0.00     0.021 C 
BRANCH  28  29
ATOM     29  C   UNL A   1      37.928  23.533  26.038  1.00  0.00     0.116 C 
BRANCH  29  30
ATOM     30  N   UNL A   1      38.971  23.072  26.940  1.00  0.00    -0.352 N 
ATOM     31  C   UNL A   1      39.911  23.826  27.632  1.00  0.00     0.251 C 
ATOM     32  H   UNL A   1      39.018  22.097  27.077  1.00  0.00     0.163 HD
ATOM     33  O   UNL A   1      40.906  23.346  28.104  1.00  0.00    -0.269 OA
BRANCH  31  34
ATOM     34  C   UNL A   1      39.549  25.240  27.892  1.00  0.00     0.039 A 
ATOM     35  C   UNL A   1      40.051  26.195  26.999  1.00  0.00     0.014 A 
ATOM     36  C   UNL A   1      38.967  25.615  29.097  1.00  0.00     0.014 A 
ATOM     37  C   UNL A   1      40.126  27.529  27.394  1.00  0.00     0.010 A 
ATOM     38  C   UNL A   1      39.120  26.921  29.518  1.00  0.00     0.010 A 
ATOM     39  C   UNL A   1      39.744  27.867  28.689  1.00  0.00    -0.014 A 
BRANCH  39  40
ATOM     40  C   UNL A   1      40.025  29.152  29.319  1.00  0.00     0.031 A 
ATOM     41  C   UNL A   1      39.061  30.270  29.200  1.00  0.00     0.074 A 
ATOM     42  C   UNL A   1      41.084  29.278  30.150  1.00  0.00     0.049 A 
ATOM     43  N   UNL A   1      39.317  31.489  29.541  1.00  0.00    -0.248 NA
ATOM     44  C   UNL A   1      37.737  30.114  28.600  1.00  0.00     0.031 C 
ATOM     45  C   UNL A   1      41.270  30.298  31.180  1.00  0.00     0.029 A 
ATOM     46  N   UNL A   1      42.326  28.645  30.084  1.00  0.00    -0.354 N 
ATOM     47  C   UNL A   1      38.123  32.168  29.550  1.00  0.00     0.074 A 
ATOM     48  C   UNL A   1      37.216  31.327  28.810  1.00  0.00     0.031 C 
ATOM     49  C   UNL A   1      42.582  30.428  31.422  1.00  0.00     0.029 A 
ATOM     50  C   UNL A   1      43.278  29.619  30.438  1.00  0.00     0.049 A 
ATOM     51  H   UNL A   1      42.501  27.707  29.839  1.00  0.00     0.167 HD
ATOM     52  C   UNL A   1      38.000  33.287  30.320  1.00  0.00     0.031 A 
ATOM     53  C   UNL A   1      44.260  30.067  29.599  1.00  0.00     0.031 A 
ATOM     54  C   UNL A   1      39.297  33.780  30.793  1.00  0.00     0.049 A 
ATOM     55  C   UNL A   1      44.222  31.565  29.350  1.00  0.00     0.074 A 
ATOM     56  C   UNL A   1      39.915  33.906  32.025  1.00  0.00     0.029 A 
ATOM     57  N   UNL A   1      40.275  34.056  29.849  1.00  0.00    -0.354 N 
ATOM     58  N   UNL A   1      43.352  32.382  29.878  1.00  0.00    -0.248 NA
ATOM     59  C   UNL A   1      45.099  32.243  28.392  1.00  0.00     0.031 C 
ATOM     60  C   UNL A   1      41.285  34.245  31.803  1.00  0.00     0.029 A 
ATOM     61  C   UNL A   1      41.488  34.346  30.439  1.00  0.00     0.049 A 
ATOM     62  H   UNL A   1      40.123  34.046  28.876  1.00  0.00     0.167 HD
ATOM     63  C   UNL A   1      43.479  33.621  29.309  1.00  0.00     0.074 A 
ATOM     64  C   UNL A   1      44.603  33.493  28.399  1.00  0.00     0.031 C 
ATOM     65  C   UNL A   1      42.619  34.645  29.576  1.00  0.00     0.031 A 
BRANCH  52  66
ATOM     66  C   UNL A   1      36.673  33.840  30.810  1.00  0.00    -0.014 A 
ATOM     67  C   UNL A   1      35.592  33.966  29.911  1.00  0.00     0.010 A 
ATOM     68  C   UNL A   1      36.455  34.361  32.102  1.00  0.00     0.010 A 
ATOM     69  C   UNL A   1      34.395  34.616  30.267  1.00  0.00     0.020 A 
ATOM     70  C   UNL A   1      35.259  34.988  32.479  1.00  0.00     0.020 A 
ATOM     71  C   UNL A   1      34.242  35.137  31.549  1.00  0.00     0.054 A 
BRANCH  71  72
ATOM     72  S   UNL A   1      32.734  36.038  31.988  1.00  0.00     0.124 S 
ATOM     73  O   UNL A   1      32.345  36.628  30.710  1.00  0.00    -0.237 OA
ATOM     74  O   UNL A   1      31.864  34.979  32.490  1.00  0.00    -0.237 OA
ATOM     75  O   UNL A   1      33.185  36.997  32.996  1.00  0.00    -0.744 OA
ENDBRANCH  71  72
ENDBRANCH  52  66
BRANCH  53  76
ATOM     76  C   UNL A   1      44.717  29.049  28.613  1.00  0.00    -0.014 A 
ATOM     77  C   UNL A   1      44.099  29.057  27.344  1.00  0.00     0.010 A 
ATOM     78  C   UNL A   1      45.978  28.443  28.757  1.00  0.00     0.010 A 
ATOM     79  C   UNL A   1      44.805  28.648  26.212  1.00  0.00     0.020 A 
ATOM     80  C   UNL A   1      46.683  28.021  27.622  1.00  0.00     0.020 A 
ATOM     81  C   UNL A   1      46.119  28.199  26.355  1.00  0.00     0.054 A 
BRANCH  81  82
ATOM     82  S   UNL A   1      47.144  28.070  24.859  1.00  0.00     0.124 S 
ATOM     83  O   UNL A   1      46.840  26.725  24.383  1.00  0.00    -0.237 OA
ATOM     84  O   UNL A   1      46.616  29.164  24.044  1.00  0.00    -0.237 OA
ATOM     85  O   UNL A   1      48.499  28.271  25.363  1.00  0.00    -0.744 OA
ENDBRANCH  81  82
ENDBRANCH  53  76
BRANCH  65  86
ATOM     86  C   UNL A   1      42.744  36.019  28.976  1.00  0.00    -0.014 A 
ATOM     87  C   UNL A   1      43.093  37.146  29.737  1.00  0.00     0.010 A 
ATOM     88  C   UNL A   1      42.383  36.233  27.626  1.00  0.00     0.010 A 
ATOM     89  C   UNL A   1      43.134  38.424  29.161  1.00  0.00     0.020 A 
ATOM     90  C   UNL A   1      42.402  37.505  27.047  1.00  0.00     0.020 A 
ATOM     91  C   UNL A   1      42.796  38.593  27.816  1.00  0.00     0.054 A 
BRANCH  91  92
ATOM     92  S   UNL A   1      42.816  40.257  27.098  1.00  0.00     0.124 S 
ATOM     93  O   UNL A   1      41.414  40.659  27.182  1.00  0.00    -0.237 OA
ATOM     94  O   UNL A   1      43.726  40.962  27.996  1.00  0.00    -0.237 OA
ATOM     95  O   UNL A   1      43.316  40.044  25.742  1.00  0.00    -0.744 OA
ENDBRANCH  91  92
ENDBRANCH  65  86
ENDBRANCH  39  40
ENDBRANCH  31  34
ENDBRANCH  29  30
ENDBRANCH  28  29
ENDBRANCH  27  28
ENDBRANCH   1  27
TORSDOF 19
ENDMDL
