MODEL 1
REMARK VINA RESULT:     -11.5      0.000      0.000
REMARK SMILES Cc1cc(C)c2c(c1)C=C(C(=O)NCCCCCCNC(=O)c1ccc(-c3c4nc(c(-c5ccc(S(=O)(=O)[O-])cc5)c5ccc([nH]5)c(-c5ccc(S(=O)(=O)[O-])cc5)c5nc(c(-c6ccc(S(=O)(=O)[O-])cc6)c6ccc3[nH]6)C=C5)C=C4)cc1)[C@@H](C(F)(F)F)O2
REMARK SMILES IDX 17 1 16 2 15 3 14 4 13 5 11 6 12 7 10 9 1 10 2 11 3 12 8 13
REMARK SMILES IDX 4 14 7 15 5 16 6 17 9 18 88 19 83 20 84 21 85 22 86 23 87 24
REMARK SMILES IDX 18 25 19 26 20 27 21 28 22 30 23 31 24 32 82 33 25 34 81 35
REMARK SMILES IDX 26 36 27 37 28 38 75 39 29 40 80 41 74 42 76 43 30 44 79 45
REMARK SMILES IDX 73 46 72 47 31 49 61 50 42 51 60 52 43 53 46 54 59 55 77 56
REMARK SMILES IDX 44 57 45 58 58 60 78 61 47 62 32 63 33 64 41 65 34 66 40 67
REMARK SMILES IDX 35 68 36 69 37 70 38 71 39 72 62 73 63 74 71 75 64 76 70 77
REMARK SMILES IDX 65 78 66 79 67 80 68 81 69 82 48 83 49 84 57 85 50 86 56 87
REMARK SMILES IDX 51 88 52 89 53 90 54 91 55 92
REMARK H PARENT 13 8 20 29 76 48 46 59
REMARK Flexibility Score: inf
ROOT
ATOM      1  C   UNL A   1      31.521  28.290  25.907  1.00  0.00     0.002 C 
ENDROOT
BRANCH   1   2
ATOM      2  C   UNL A   1      31.277  28.067  24.409  1.00  0.00     0.002 C 
BRANCH   2   3
ATOM      3  C   UNL A   1      32.104  28.948  23.469  1.00  0.00     0.021 C 
BRANCH   3   4
ATOM      4  C   UNL A   1      33.437  28.333  23.057  1.00  0.00     0.116 C 
BRANCH   4   5
ATOM      5  N   UNL A   1      33.272  27.340  22.009  1.00  0.00    -0.352 N 
ATOM      6  C   UNL A   1      33.235  25.990  21.919  1.00  0.00     0.251 C 
ATOM      7  O   UNL A   1      33.050  25.549  20.780  1.00  0.00    -0.270 OA
ATOM      8  H   UNL A   1      33.158  27.764  21.128  1.00  0.00     0.163 HD
BRANCH   6   9
ATOM      9  C   UNL A   1      33.400  25.041  23.061  1.00  0.00     0.067 C 
ATOM     10  C   UNL A   1      37.223  20.573  24.984  1.00  0.00     0.044 C 
ATOM     11  C   UNL A   1      36.060  21.518  25.064  1.00  0.00    -0.050 A 
ATOM     12  C   UNL A   1      35.233  21.540  26.194  1.00  0.00     0.010 A 
ATOM     13  C   UNL A   1      35.814  22.415  24.016  1.00  0.00     0.015 A 
ATOM     14  C   UNL A   1      34.162  22.438  26.282  1.00  0.00    -0.008 A 
ATOM     15  C   UNL A   1      34.750  23.318  24.089  1.00  0.00     0.018 A 
ATOM     16  C   UNL A   1      33.281  22.461  27.499  1.00  0.00     0.048 C 
ATOM     17  C   UNL A   1      33.929  23.319  25.217  1.00  0.00     0.130 A 
ATOM     18  C   UNL A   1      34.515  24.287  23.026  1.00  0.00     0.025 C 
ATOM     19  O   UNL A   1      32.901  24.205  25.367  1.00  0.00    -0.475 OA
ATOM     20  C   UNL A   1      32.406  24.865  24.174  1.00  0.00     0.314 C 
BRANCH  20  21
ATOM     21  C   UNL A   1      31.114  24.165  23.716  1.00  0.00     0.429 C 
ATOM     22  F   UNL A   1      30.596  23.418  24.722  1.00  0.00    -0.167 F 
ATOM     23  F   UNL A   1      30.148  25.042  23.356  1.00  0.00    -0.167 F 
ATOM     24  F   UNL A   1      31.316  23.346  22.660  1.00  0.00    -0.167 F 
ENDBRANCH  20  21
ENDBRANCH   6   9
ENDBRANCH   4   5
ENDBRANCH   3   4
ENDBRANCH   2   3
ENDBRANCH   1   2
BRANCH   1  25
ATOM     25  C   UNL A   1      32.644  27.451  26.524  1.00  0.00     0.021 C 
BRANCH  25  26
ATOM     26  C   UNL A   1      33.938  28.214  26.781  1.00  0.00     0.116 C 
BRANCH  26  27
ATOM     27  N   UNL A   1      33.693  29.617  27.063  1.00  0.00    -0.352 N 
ATOM     28  C   UNL A   1      34.468  30.507  27.762  1.00  0.00     0.251 C 
ATOM     29  H   UNL A   1      32.852  29.981  26.703  1.00  0.00     0.163 HD
ATOM     30  O   UNL A   1      34.013  31.598  28.090  1.00  0.00    -0.269 OA
BRANCH  28  31
ATOM     31  C   UNL A   1      35.850  30.135  28.129  1.00  0.00     0.039 A 
ATOM     32  C   UNL A   1      36.105  29.666  29.419  1.00  0.00     0.014 A 
ATOM     33  C   UNL A   1      36.889  30.252  27.200  1.00  0.00     0.014 A 
ATOM     34  C   UNL A   1      37.398  29.271  29.764  1.00  0.00     0.010 A 
ATOM     35  C   UNL A   1      38.162  29.794  27.525  1.00  0.00     0.010 A 
ATOM     36  C   UNL A   1      38.431  29.313  28.813  1.00  0.00    -0.014 A 
BRANCH  36  37
ATOM     37  C   UNL A   1      39.807  28.887  29.171  1.00  0.00     0.031 A 
ATOM     38  C   UNL A   1      40.700  29.815  29.949  1.00  0.00     0.074 A 
ATOM     39  C   UNL A   1      40.257  27.677  28.783  1.00  0.00     0.049 A 
ATOM     40  N   UNL A   1      41.922  29.617  30.372  1.00  0.00    -0.248 NA
ATOM     41  C   UNL A   1      40.157  31.143  30.281  1.00  0.00     0.031 C 
ATOM     42  C   UNL A   1      39.495  26.704  27.996  1.00  0.00     0.029 A 
ATOM     43  N   UNL A   1      41.458  27.055  29.009  1.00  0.00    -0.354 N 
ATOM     44  C   UNL A   1      42.291  30.791  31.017  1.00  0.00     0.074 A 
ATOM     45  C   UNL A   1      41.191  31.719  30.876  1.00  0.00     0.031 C 
ATOM     46  C   UNL A   1      40.232  25.591  27.844  1.00  0.00     0.029 A 
ATOM     47  C   UNL A   1      41.526  25.782  28.493  1.00  0.00     0.049 A 
ATOM     48  H   UNL A   1      42.202  27.480  29.495  1.00  0.00     0.167 HD
ATOM     49  C   UNL A   1      43.431  31.063  31.694  1.00  0.00     0.031 A 
ATOM     50  C   UNL A   1      42.514  24.868  28.545  1.00  0.00     0.031 A 
ATOM     51  C   UNL A   1      44.517  30.135  31.845  1.00  0.00     0.049 A 
ATOM     52  C   UNL A   1      43.785  25.204  29.276  1.00  0.00     0.074 A 
ATOM     53  C   UNL A   1      45.696  30.298  32.552  1.00  0.00     0.029 A 
ATOM     54  N   UNL A   1      44.558  28.869  31.280  1.00  0.00    -0.354 N 
ATOM     55  N   UNL A   1      44.091  26.298  29.933  1.00  0.00    -0.248 NA
ATOM     56  C   UNL A   1      44.842  24.183  29.278  1.00  0.00     0.031 C 
ATOM     57  C   UNL A   1      46.469  29.147  32.377  1.00  0.00     0.029 A 
ATOM     58  C   UNL A   1      45.753  28.249  31.601  1.00  0.00     0.049 A 
ATOM     59  H   UNL A   1      43.844  28.471  30.734  1.00  0.00     0.167 HD
ATOM     60  C   UNL A   1      45.369  26.092  30.438  1.00  0.00     0.074 A 
ATOM     61  C   UNL A   1      45.774  24.763  30.025  1.00  0.00     0.031 C 
ATOM     62  C   UNL A   1      46.139  26.928  31.175  1.00  0.00     0.031 A 
BRANCH  49  63
ATOM     63  C   UNL A   1      43.550  32.419  32.337  1.00  0.00    -0.014 A 
ATOM     64  C   UNL A   1      43.336  32.580  33.718  1.00  0.00     0.010 A 
ATOM     65  C   UNL A   1      43.913  33.536  31.565  1.00  0.00     0.010 A 
ATOM     66  C   UNL A   1      43.447  33.840  34.310  1.00  0.00     0.020 A 
ATOM     67  C   UNL A   1      44.051  34.795  32.158  1.00  0.00     0.020 A 
ATOM     68  C   UNL A   1      43.802  34.940  33.524  1.00  0.00     0.054 A 
BRANCH  68  69
ATOM     69  S   UNL A   1      43.959  36.560  34.325  1.00  0.00     0.124 S 
ATOM     70  O   UNL A   1      43.336  36.315  35.623  1.00  0.00    -0.237 OA
ATOM     71  O   UNL A   1      45.404  36.765  34.351  1.00  0.00    -0.237 OA
ATOM     72  O   UNL A   1      43.220  37.459  33.441  1.00  0.00    -0.744 OA
ENDBRANCH  68  69
ENDBRANCH  49  63
BRANCH  50  73
ATOM     73  C   UNL A   1      42.325  23.535  27.914  1.00  0.00    -0.014 A 
ATOM     74  C   UNL A   1      42.876  23.267  26.648  1.00  0.00     0.010 A 
ATOM     75  C   UNL A   1      41.619  22.518  28.582  1.00  0.00     0.010 A 
ATOM     76  C   UNL A   1      42.719  22.008  26.059  1.00  0.00     0.020 A 
ATOM     77  C   UNL A   1      41.479  21.252  28.006  1.00  0.00     0.020 A 
ATOM     78  C   UNL A   1      42.024  21.008  26.744  1.00  0.00     0.054 A 
BRANCH  78  79
ATOM     79  S   UNL A   1      41.885  19.366  25.984  1.00  0.00     0.124 S 
ATOM     80  O   UNL A   1      40.460  19.290  25.680  1.00  0.00    -0.237 OA
ATOM     81  O   UNL A   1      42.775  19.478  24.830  1.00  0.00    -0.237 OA
ATOM     82  O   UNL A   1      42.351  18.462  27.034  1.00  0.00    -0.744 OA
ENDBRANCH  78  79
ENDBRANCH  50  73
BRANCH  62  83
ATOM     83  C   UNL A   1      47.501  26.444  31.587  1.00  0.00    -0.014 A 
ATOM     84  C   UNL A   1      47.664  25.663  32.745  1.00  0.00     0.010 A 
ATOM     85  C   UNL A   1      48.609  26.681  30.753  1.00  0.00     0.010 A 
ATOM     86  C   UNL A   1      48.915  25.129  33.063  1.00  0.00     0.020 A 
ATOM     87  C   UNL A   1      49.856  26.128  31.056  1.00  0.00     0.020 A 
ATOM     88  C   UNL A   1      50.002  25.358  32.211  1.00  0.00     0.054 A 
BRANCH  88  89
ATOM     89  S   UNL A   1      51.591  24.578  32.604  1.00  0.00     0.124 S 
ATOM     90  O   UNL A   1      51.335  23.179  32.269  1.00  0.00    -0.237 OA
ATOM     91  O   UNL A   1      52.518  25.277  31.716  1.00  0.00    -0.237 OA
ATOM     92  O   UNL A   1      51.772  24.854  34.027  1.00  0.00    -0.744 OA
ENDBRANCH  88  89
ENDBRANCH  62  83
ENDBRANCH  36  37
ENDBRANCH  28  31
ENDBRANCH  26  27
ENDBRANCH  25  26
ENDBRANCH   1  25
TORSDOF 17
ENDMDL
MODEL 2
REMARK VINA RESULT:     -11.3      2.651      9.176
REMARK SMILES Cc1cc(C)c2c(c1)C=C(C(=O)NCCCCCCNC(=O)c1ccc(-c3c4nc(c(-c5ccc(S(=O)(=O)[O-])cc5)c5ccc([nH]5)c(-c5ccc(S(=O)(=O)[O-])cc5)c5nc(c(-c6ccc(S(=O)(=O)[O-])cc6)c6ccc3[nH]6)C=C5)C=C4)cc1)[C@@H](C(F)(F)F)O2
REMARK SMILES IDX 17 1 16 2 15 3 14 4 13 5 11 6 12 7 10 9 1 10 2 11 3 12 8 13
REMARK SMILES IDX 4 14 7 15 5 16 6 17 9 18 88 19 83 20 84 21 85 22 86 23 87 24
REMARK SMILES IDX 18 25 19 26 20 27 21 28 22 30 23 31 24 32 82 33 25 34 81 35
REMARK SMILES IDX 26 36 27 37 28 38 75 39 29 40 80 41 74 42 76 43 30 44 79 45
REMARK SMILES IDX 73 46 72 47 31 49 61 50 42 51 60 52 43 53 46 54 59 55 77 56
REMARK SMILES IDX 44 57 45 58 58 60 78 61 47 62 32 63 33 64 41 65 34 66 40 67
REMARK SMILES IDX 35 68 36 69 37 70 38 71 39 72 62 73 63 74 71 75 64 76 70 77
REMARK SMILES IDX 65 78 66 79 67 80 68 81 69 82 48 83 49 84 57 85 50 86 56 87
REMARK SMILES IDX 51 88 52 89 53 90 54 91 55 92
REMARK H PARENT 13 8 20 29 76 48 46 59
REMARK Flexibility Score: inf
ROOT
ATOM      1  C   UNL A   1      34.891  22.585  26.930  1.00  0.00     0.002 C 
ENDROOT
BRANCH   1   2
ATOM      2  C   UNL A   1      33.881  21.463  26.655  1.00  0.00     0.002 C 
BRANCH   2   3
ATOM      3  C   UNL A   1      33.580  21.197  25.177  1.00  0.00     0.021 C 
BRANCH   3   4
ATOM      4  C   UNL A   1      32.109  21.364  24.806  1.00  0.00     0.116 C 
BRANCH   4   5
ATOM      5  N   UNL A   1      31.348  21.975  25.881  1.00  0.00    -0.352 N 
ATOM      6  C   UNL A   1      31.086  23.227  26.323  1.00  0.00     0.251 C 
ATOM      7  O   UNL A   1      30.343  23.287  27.308  1.00  0.00    -0.270 OA
ATOM      8  H   UNL A   1      30.905  21.296  26.439  1.00  0.00     0.163 HD
BRANCH   6   9
ATOM      9  C   UNL A   1      31.620  24.487  25.722  1.00  0.00     0.067 C 
ATOM     10  C   UNL A   1      32.936  30.312  27.340  1.00  0.00     0.044 C 
ATOM     11  C   UNL A   1      32.861  29.119  26.433  1.00  0.00    -0.050 A 
ATOM     12  C   UNL A   1      33.342  29.188  25.120  1.00  0.00     0.010 A 
ATOM     13  C   UNL A   1      32.339  27.909  26.909  1.00  0.00     0.015 A 
ATOM     14  C   UNL A   1      33.297  28.069  24.278  1.00  0.00    -0.008 A 
ATOM     15  C   UNL A   1      32.287  26.783  26.083  1.00  0.00     0.018 A 
ATOM     16  C   UNL A   1      33.820  28.148  22.872  1.00  0.00     0.048 C 
ATOM     17  C   UNL A   1      32.760  26.873  24.773  1.00  0.00     0.130 A 
ATOM     18  C   UNL A   1      31.790  25.508  26.583  1.00  0.00     0.025 C 
ATOM     19  O   UNL A   1      32.777  25.798  23.932  1.00  0.00    -0.475 OA
ATOM     20  C   UNL A   1      31.922  24.674  24.263  1.00  0.00     0.314 C 
BRANCH  20  21
ATOM     21  C   UNL A   1      30.653  24.740  23.394  1.00  0.00     0.429 C 
ATOM     22  F   UNL A   1      29.678  25.434  24.029  1.00  0.00    -0.167 F 
ATOM     23  F   UNL A   1      30.864  25.371  22.215  1.00  0.00    -0.167 F 
ATOM     24  F   UNL A   1      30.161  23.515  23.103  1.00  0.00    -0.167 F 
ENDBRANCH  20  21
ENDBRANCH   6   9
ENDBRANCH   4   5
ENDBRANCH   3   4
ENDBRANCH   2   3
ENDBRANCH   1   2
BRANCH   1  25
ATOM     25  C   UNL A   1      34.988  23.665  25.849  1.00  0.00     0.021 C 
BRANCH  25  26
ATOM     26  C   UNL A   1      36.409  24.106  25.518  1.00  0.00     0.116 C 
BRANCH  26  27
ATOM     27  N   UNL A   1      37.354  23.008  25.620  1.00  0.00    -0.352 N 
ATOM     28  C   UNL A   1      38.639  23.015  26.098  1.00  0.00     0.251 C 
ATOM     29  H   UNL A   1      37.026  22.135  25.302  1.00  0.00     0.163 HD
ATOM     30  O   UNL A   1      39.372  22.048  25.916  1.00  0.00    -0.269 OA
BRANCH  28  31
ATOM     31  C   UNL A   1      39.139  24.202  26.821  1.00  0.00     0.039 A 
ATOM     32  C   UNL A   1      39.918  25.135  26.134  1.00  0.00     0.014 A 
ATOM     33  C   UNL A   1      38.840  24.391  28.174  1.00  0.00     0.014 A 
ATOM     34  C   UNL A   1      40.360  26.283  26.794  1.00  0.00     0.010 A 
ATOM     35  C   UNL A   1      39.223  25.567  28.811  1.00  0.00     0.010 A 
ATOM     36  C   UNL A   1      39.998  26.517  28.131  1.00  0.00    -0.014 A 
BRANCH  36  37
ATOM     37  C   UNL A   1      40.458  27.738  28.837  1.00  0.00     0.031 A 
ATOM     38  C   UNL A   1      41.860  27.807  29.380  1.00  0.00     0.074 A 
ATOM     39  C   UNL A   1      39.613  28.775  29.003  1.00  0.00     0.049 A 
ATOM     40  N   UNL A   1      42.451  28.791  30.006  1.00  0.00    -0.248 NA
ATOM     41  C   UNL A   1      42.701  26.610  29.212  1.00  0.00     0.031 C 
ATOM     42  C   UNL A   1      38.220  28.812  28.551  1.00  0.00     0.029 A 
ATOM     43  N   UNL A   1      39.805  30.001  29.587  1.00  0.00    -0.354 N 
ATOM     44  C   UNL A   1      43.728  28.333  30.306  1.00  0.00     0.074 A 
ATOM     45  C   UNL A   1      43.807  26.963  29.850  1.00  0.00     0.031 C 
ATOM     46  C   UNL A   1      37.699  30.017  28.835  1.00  0.00     0.029 A 
ATOM     47  C   UNL A   1      38.707  30.825  29.515  1.00  0.00     0.049 A 
ATOM     48  H   UNL A   1      40.651  30.266  30.018  1.00  0.00     0.167 HD
ATOM     49  C   UNL A   1      44.755  29.002  30.880  1.00  0.00     0.031 A 
ATOM     50  C   UNL A   1      38.534  32.092  29.939  1.00  0.00     0.031 A 
ATOM     51  C   UNL A   1      44.679  30.368  31.318  1.00  0.00     0.049 A 
ATOM     52  C   UNL A   1      39.679  32.805  30.603  1.00  0.00     0.074 A 
ATOM     53  C   UNL A   1      45.678  31.150  31.870  1.00  0.00     0.029 A 
ATOM     54  N   UNL A   1      43.540  31.155  31.256  1.00  0.00    -0.354 N 
ATOM     55  N   UNL A   1      40.900  32.374  30.822  1.00  0.00    -0.248 NA
ATOM     56  C   UNL A   1      39.429  34.174  31.074  1.00  0.00     0.031 C 
ATOM     57  C   UNL A   1      45.130  32.398  32.182  1.00  0.00     0.029 A 
ATOM     58  C   UNL A   1      43.803  32.407  31.782  1.00  0.00     0.049 A 
ATOM     59  H   UNL A   1      42.673  30.866  30.891  1.00  0.00     0.167 HD
ATOM     60  C   UNL A   1      41.566  33.425  31.443  1.00  0.00     0.074 A 
ATOM     61  C   UNL A   1      40.619  34.517  31.551  1.00  0.00     0.031 C 
ATOM     62  C   UNL A   1      42.846  33.479  31.886  1.00  0.00     0.031 A 
BRANCH  49  63
ATOM     63  C   UNL A   1      46.056  28.264  31.049  1.00  0.00    -0.014 A 
ATOM     64  C   UNL A   1      46.366  27.627  32.264  1.00  0.00     0.010 A 
ATOM     65  C   UNL A   1      46.960  28.172  29.977  1.00  0.00     0.010 A 
ATOM     66  C   UNL A   1      47.574  26.943  32.417  1.00  0.00     0.020 A 
ATOM     67  C   UNL A   1      48.159  27.466  30.117  1.00  0.00     0.020 A 
ATOM     68  C   UNL A   1      48.464  26.870  31.342  1.00  0.00     0.054 A 
BRANCH  68  69
ATOM     69  S   UNL A   1      50.016  25.956  31.564  1.00  0.00     0.124 S 
ATOM     70  O   UNL A   1      50.970  27.038  31.795  1.00  0.00    -0.237 OA
ATOM     71  O   UNL A   1      49.729  25.115  32.723  1.00  0.00    -0.237 OA
ATOM     72  O   UNL A   1      50.181  25.239  30.302  1.00  0.00    -0.744 OA
ENDBRANCH  68  69
ENDBRANCH  49  63
BRANCH  50  73
ATOM     73  C   UNL A   1      37.233  32.777  29.718  1.00  0.00    -0.014 A 
ATOM     74  C   UNL A   1      37.015  33.518  28.543  1.00  0.00     0.010 A 
ATOM     75  C   UNL A   1      36.195  32.670  30.662  1.00  0.00     0.010 A 
ATOM     76  C   UNL A   1      35.786  34.147  28.320  1.00  0.00     0.020 A 
ATOM     77  C   UNL A   1      34.958  33.279  30.432  1.00  0.00     0.020 A 
ATOM     78  C   UNL A   1      34.764  34.020  29.264  1.00  0.00     0.054 A 
BRANCH  78  79
ATOM     79  S   UNL A   1      33.159  34.796  28.923  1.00  0.00     0.124 S 
ATOM     80  O   UNL A   1      32.521  34.765  30.236  1.00  0.00    -0.237 OA
ATOM     81  O   UNL A   1      33.546  36.118  28.438  1.00  0.00    -0.237 OA
ATOM     82  O   UNL A   1      32.563  33.920  27.916  1.00  0.00    -0.744 OA
ENDBRANCH  78  79
ENDBRANCH  50  73
BRANCH  62  83
ATOM     83  C   UNL A   1      43.309  34.754  32.532  1.00  0.00    -0.014 A 
ATOM     84  C   UNL A   1      43.854  35.793  31.757  1.00  0.00     0.010 A 
ATOM     85  C   UNL A   1      43.098  34.958  33.908  1.00  0.00     0.010 A 
ATOM     86  C   UNL A   1      44.184  37.014  32.350  1.00  0.00     0.020 A 
ATOM     87  C   UNL A   1      43.403  36.187  34.499  1.00  0.00     0.020 A 
ATOM     88  C   UNL A   1      43.948  37.206  33.716  1.00  0.00     0.054 A 
BRANCH  88  89
ATOM     89  S   UNL A   1      44.303  38.831  34.438  1.00  0.00     0.124 S 
ATOM     90  O   UNL A   1      43.151  39.617  34.003  1.00  0.00    -0.237 OA
ATOM     91  O   UNL A   1      44.360  38.540  35.869  1.00  0.00    -0.237 OA
ATOM     92  O   UNL A   1      45.578  39.209  33.833  1.00  0.00    -0.744 OA
ENDBRANCH  88  89
ENDBRANCH  62  83
ENDBRANCH  36  37
ENDBRANCH  28  31
ENDBRANCH  26  27
ENDBRANCH  25  26
ENDBRANCH   1  25
TORSDOF 17
ENDMDL
MODEL 3
REMARK VINA RESULT:     -11.3      2.563      3.260
REMARK SMILES Cc1cc(C)c2c(c1)C=C(C(=O)NCCCCCCNC(=O)c1ccc(-c3c4nc(c(-c5ccc(S(=O)(=O)[O-])cc5)c5ccc([nH]5)c(-c5ccc(S(=O)(=O)[O-])cc5)c5nc(c(-c6ccc(S(=O)(=O)[O-])cc6)c6ccc3[nH]6)C=C5)C=C4)cc1)[C@@H](C(F)(F)F)O2
REMARK SMILES IDX 17 1 16 2 15 3 14 4 13 5 11 6 12 7 10 9 1 10 2 11 3 12 8 13
REMARK SMILES IDX 4 14 7 15 5 16 6 17 9 18 88 19 83 20 84 21 85 22 86 23 87 24
REMARK SMILES IDX 18 25 19 26 20 27 21 28 22 30 23 31 24 32 82 33 25 34 81 35
REMARK SMILES IDX 26 36 27 37 28 38 75 39 29 40 80 41 74 42 76 43 30 44 79 45
REMARK SMILES IDX 73 46 72 47 31 49 61 50 42 51 60 52 43 53 46 54 59 55 77 56
REMARK SMILES IDX 44 57 45 58 58 60 78 61 47 62 32 63 33 64 41 65 34 66 40 67
REMARK SMILES IDX 35 68 36 69 37 70 38 71 39 72 62 73 63 74 71 75 64 76 70 77
REMARK SMILES IDX 65 78 66 79 67 80 68 81 69 82 48 83 49 84 57 85 50 86 56 87
REMARK SMILES IDX 51 88 52 89 53 90 54 91 55 92
REMARK H PARENT 13 8 20 29 76 48 46 59
REMARK Flexibility Score: inf
ROOT
ATOM      1  C   UNL A   1      31.679  28.091  26.165  1.00  0.00     0.002 C 
ENDROOT
BRANCH   1   2
ATOM      2  C   UNL A   1      31.753  28.233  24.639  1.00  0.00     0.002 C 
BRANCH   2   3
ATOM      3  C   UNL A   1      30.592  27.605  23.863  1.00  0.00     0.021 C 
BRANCH   3   4
ATOM      4  C   UNL A   1      30.821  26.146  23.480  1.00  0.00     0.116 C 
BRANCH   4   5
ATOM      5  N   UNL A   1      31.653  26.024  22.296  1.00  0.00    -0.352 N 
ATOM      6  C   UNL A   1      32.679  25.245  21.882  1.00  0.00     0.251 C 
ATOM      7  O   UNL A   1      33.093  25.489  20.744  1.00  0.00    -0.270 OA
ATOM      8  H   UNL A   1      31.405  26.687  21.613  1.00  0.00     0.163 HD
BRANCH   6   9
ATOM      9  C   UNL A   1      33.318  24.156  22.682  1.00  0.00     0.067 C 
ATOM     10  C   UNL A   1      32.267  18.305  24.395  1.00  0.00     0.044 C 
ATOM     11  C   UNL A   1      33.036  19.588  24.280  1.00  0.00    -0.050 A 
ATOM     12  C   UNL A   1      34.315  19.708  24.839  1.00  0.00     0.010 A 
ATOM     13  C   UNL A   1      32.490  20.671  23.578  1.00  0.00     0.015 A 
ATOM     14  C   UNL A   1      35.045  20.897  24.711  1.00  0.00    -0.008 A 
ATOM     15  C   UNL A   1      33.207  21.863  23.441  1.00  0.00     0.018 A 
ATOM     16  C   UNL A   1      36.419  21.017  25.308  1.00  0.00     0.048 C 
ATOM     17  C   UNL A   1      34.475  21.969  24.014  1.00  0.00     0.130 A 
ATOM     18  C   UNL A   1      32.668  22.977  22.672  1.00  0.00     0.025 C 
ATOM     19  O   UNL A   1      35.241  23.090  23.878  1.00  0.00    -0.475 OA
ATOM     20  C   UNL A   1      34.571  24.318  23.495  1.00  0.00     0.314 C 
BRANCH  20  21
ATOM     21  C   UNL A   1      34.361  25.184  24.751  1.00  0.00     0.429 C 
ATOM     22  F   UNL A   1      34.449  26.501  24.440  1.00  0.00    -0.167 F 
ATOM     23  F   UNL A   1      33.140  25.004  25.307  1.00  0.00    -0.167 F 
ATOM     24  F   UNL A   1      35.274  24.929  25.714  1.00  0.00    -0.167 F 
ENDBRANCH  20  21
ENDBRANCH   6   9
ENDBRANCH   4   5
ENDBRANCH   3   4
ENDBRANCH   2   3
ENDBRANCH   1   2
BRANCH   1  25
ATOM     25  C   UNL A   1      33.028  28.009  26.886  1.00  0.00     0.021 C 
BRANCH  25  26
ATOM     26  C   UNL A   1      34.082  28.983  26.373  1.00  0.00     0.116 C 
BRANCH  26  27
ATOM     27  N   UNL A   1      33.724  30.363  26.651  1.00  0.00    -0.352 N 
ATOM     28  C   UNL A   1      34.265  31.228  27.568  1.00  0.00     0.251 C 
ATOM     29  H   UNL A   1      32.992  30.729  26.104  1.00  0.00     0.163 HD
ATOM     30  O   UNL A   1      33.704  32.290  27.821  1.00  0.00    -0.269 OA
BRANCH  28  31
ATOM     31  C   UNL A   1      35.518  30.864  28.259  1.00  0.00     0.039 A 
ATOM     32  C   UNL A   1      35.515  29.783  29.142  1.00  0.00     0.014 A 
ATOM     33  C   UNL A   1      36.692  31.592  28.036  1.00  0.00     0.014 A 
ATOM     34  C   UNL A   1      36.704  29.403  29.769  1.00  0.00     0.010 A 
ATOM     35  C   UNL A   1      37.888  31.170  28.608  1.00  0.00     0.010 A 
ATOM     36  C   UNL A   1      37.902  30.081  29.490  1.00  0.00    -0.014 A 
BRANCH  36  37
ATOM     37  C   UNL A   1      39.169  29.677  30.146  1.00  0.00     0.031 A 
ATOM     38  C   UNL A   1      39.615  30.369  31.406  1.00  0.00     0.074 A 
ATOM     39  C   UNL A   1      39.926  28.703  29.602  1.00  0.00     0.049 A 
ATOM     40  N   UNL A   1      40.677  30.145  32.135  1.00  0.00    -0.248 NA
ATOM     41  C   UNL A   1      38.765  31.465  31.903  1.00  0.00     0.031 C 
ATOM     42  C   UNL A   1      39.615  27.982  28.365  1.00  0.00     0.029 A 
ATOM     43  N   UNL A   1      41.104  28.143  30.026  1.00  0.00    -0.354 N 
ATOM     44  C   UNL A   1      40.624  31.069  33.172  1.00  0.00     0.074 A 
ATOM     45  C   UNL A   1      39.460  31.897  32.945  1.00  0.00     0.031 C 
ATOM     46  C   UNL A   1      40.556  27.047  28.155  1.00  0.00     0.029 A 
ATOM     47  C   UNL A   1      41.550  27.121  29.222  1.00  0.00     0.049 A 
ATOM     48  H   UNL A   1      41.586  28.446  30.830  1.00  0.00     0.167 HD
ATOM     49  C   UNL A   1      41.450  31.197  34.236  1.00  0.00     0.031 A 
ATOM     50  C   UNL A   1      42.632  26.325  29.336  1.00  0.00     0.031 A 
ATOM     51  C   UNL A   1      42.598  30.365  34.467  1.00  0.00     0.049 A 
ATOM     52  C   UNL A   1      43.554  26.508  30.510  1.00  0.00     0.074 A 
ATOM     53  C   UNL A   1      43.472  30.385  35.539  1.00  0.00     0.029 A 
ATOM     54  N   UNL A   1      43.031  29.363  33.612  1.00  0.00    -0.354 N 
ATOM     55  N   UNL A   1      43.451  27.347  31.514  1.00  0.00    -0.248 NA
ATOM     56  C   UNL A   1      44.735  25.635  30.572  1.00  0.00     0.031 C 
ATOM     57  C   UNL A   1      44.461  29.423  35.311  1.00  0.00     0.029 A 
ATOM     58  C   UNL A   1      44.175  28.774  34.120  1.00  0.00     0.049 A 
ATOM     59  H   UNL A   1      42.590  29.108  32.771  1.00  0.00     0.167 HD
ATOM     60  C   UNL A   1      44.546  27.094  32.333  1.00  0.00     0.074 A 
ATOM     61  C   UNL A   1      45.289  26.012  31.717  1.00  0.00     0.031 C 
ATOM     62  C   UNL A   1      44.904  27.702  33.489  1.00  0.00     0.031 A 
BRANCH  49  63
ATOM     63  C   UNL A   1      41.128  32.272  35.239  1.00  0.00    -0.014 A 
ATOM     64  C   UNL A   1      41.730  33.540  35.151  1.00  0.00     0.010 A 
ATOM     65  C   UNL A   1      40.189  32.028  36.257  1.00  0.00     0.010 A 
ATOM     66  C   UNL A   1      41.427  34.534  36.084  1.00  0.00     0.020 A 
ATOM     67  C   UNL A   1      39.864  33.029  37.178  1.00  0.00     0.020 A 
ATOM     68  C   UNL A   1      40.498  34.271  37.094  1.00  0.00     0.054 A 
BRANCH  68  69
ATOM     69  S   UNL A   1      40.110  35.589  38.278  1.00  0.00     0.124 S 
ATOM     70  O   UNL A   1      38.995  35.006  39.020  1.00  0.00    -0.237 OA
ATOM     71  O   UNL A   1      41.358  35.726  39.024  1.00  0.00    -0.237 OA
ATOM     72  O   UNL A   1      39.766  36.728  37.430  1.00  0.00    -0.744 OA
ENDBRANCH  68  69
ENDBRANCH  49  63
BRANCH  50  73
ATOM     73  C   UNL A   1      42.881  25.263  28.326  1.00  0.00    -0.014 A 
ATOM     74  C   UNL A   1      43.659  25.537  27.188  1.00  0.00     0.010 A 
ATOM     75  C   UNL A   1      42.367  23.966  28.508  1.00  0.00     0.010 A 
ATOM     76  C   UNL A   1      43.913  24.535  26.246  1.00  0.00     0.020 A 
ATOM     77  C   UNL A   1      42.637  22.956  27.579  1.00  0.00     0.020 A 
ATOM     78  C   UNL A   1      43.404  23.251  26.449  1.00  0.00     0.054 A 
BRANCH  78  79
ATOM     79  S   UNL A   1      43.797  21.954  25.242  1.00  0.00     0.124 S 
ATOM     80  O   UNL A   1      45.140  21.554  25.651  1.00  0.00    -0.237 OA
ATOM     81  O   UNL A   1      42.743  20.972  25.481  1.00  0.00    -0.237 OA
ATOM     82  O   UNL A   1      43.714  22.646  23.957  1.00  0.00    -0.744 OA
ENDBRANCH  78  79
ENDBRANCH  50  73
BRANCH  62  83
ATOM     83  C   UNL A   1      46.154  27.225  34.173  1.00  0.00    -0.014 A 
ATOM     84  C   UNL A   1      47.374  27.901  33.989  1.00  0.00     0.010 A 
ATOM     85  C   UNL A   1      46.087  26.161  35.090  1.00  0.00     0.010 A 
ATOM     86  C   UNL A   1      48.507  27.516  34.709  1.00  0.00     0.020 A 
ATOM     87  C   UNL A   1      47.213  25.789  35.830  1.00  0.00     0.020 A 
ATOM     88  C   UNL A   1      48.417  26.467  35.632  1.00  0.00     0.054 A 
BRANCH  88  89
ATOM     89  S   UNL A   1      49.881  26.050  36.616  1.00  0.00     0.124 S 
ATOM     90  O   UNL A   1      49.747  26.949  37.760  1.00  0.00    -0.237 OA
ATOM     91  O   UNL A   1      49.679  24.632  36.905  1.00  0.00    -0.237 OA
ATOM     92  O   UNL A   1      50.997  26.345  35.721  1.00  0.00    -0.744 OA
ENDBRANCH  88  89
ENDBRANCH  62  83
ENDBRANCH  36  37
ENDBRANCH  28  31
ENDBRANCH  26  27
ENDBRANCH  25  26
ENDBRANCH   1  25
TORSDOF 17
ENDMDL
