MODEL 1
REMARK VINA RESULT:     -11.3      0.000      0.000
REMARK SMILES O=C(NCCCCCCNC(=O)[C@@H](Cc1ccc(O)cc1)Nc1c2ccccc2nc2ccccc12)c1ccc(-c2c3nc(c(-c4ccc(S(=O)(=O)[O-])cc4)c4ccc([nH]4)c(-c4ccc(S(=O)(=O)[O-])cc4)c4nc(c(-c5ccc(S(=O)(=O)[O-])cc5)c5ccc2[nH]5)C=C4)C=C3)cc1
REMARK SMILES IDX 6 1 5 2 4 3 3 4 1 5 2 6 37 8 38 9 96 10 39 11 95 12 40 13
REMARK SMILES IDX 41 14 42 15 89 16 43 17 94 18 88 19 90 20 44 21 93 22 87 23
REMARK SMILES IDX 86 24 45 26 75 27 56 28 74 29 57 30 60 31 73 32 91 33 58 34
REMARK SMILES IDX 59 35 72 37 92 38 61 39 46 40 47 41 55 42 48 43 54 44 49 45
REMARK SMILES IDX 50 46 51 47 52 48 53 49 76 50 77 51 85 52 78 53 84 54 79 55
REMARK SMILES IDX 80 56 81 57 82 58 83 59 62 60 63 61 71 62 64 63 70 64 65 65
REMARK SMILES IDX 66 66 67 67 68 68 69 69 7 70 8 71 9 72 10 73 11 74 12 76
REMARK SMILES IDX 13 77 14 78 15 79 16 80 21 81 17 82 20 83 18 84 19 85 22 87
REMARK SMILES IDX 23 89 24 90 36 91 25 92 29 93 31 94 35 95 26 96 28 97 30 98
REMARK SMILES IDX 32 99 34 100 27 101 33 102
REMARK H PARENT 3 7 90 25 60 36 10 75 19 86 22 88
REMARK Flexibility Score: inf
ROOT
ATOM      1  C   UNL A   1      31.602  27.944  25.690  1.00  0.00     0.002 C 
ENDROOT
BRANCH   1   2
ATOM      2  C   UNL A   1      32.977  27.260  25.671  1.00  0.00     0.021 C 
BRANCH   2   3
ATOM      3  C   UNL A   1      34.025  27.868  26.605  1.00  0.00     0.116 C 
BRANCH   3   4
ATOM      4  N   UNL A   1      33.744  29.265  26.885  1.00  0.00    -0.352 N 
ATOM      5  O   UNL A   1      33.902  31.226  27.964  1.00  0.00    -0.269 OA
ATOM      6  C   UNL A   1      34.442  30.171  27.641  1.00  0.00     0.251 C 
ATOM      7  H   UNL A   1      32.926  29.617  26.467  1.00  0.00     0.163 HD
BRANCH   6   8
ATOM      8  C   UNL A   1      35.830  29.893  28.077  1.00  0.00     0.039 A 
ATOM      9  C   UNL A   1      36.109  29.405  29.357  1.00  0.00     0.014 A 
ATOM     10  C   UNL A   1      36.862  30.037  27.145  1.00  0.00     0.014 A 
ATOM     11  C   UNL A   1      37.427  29.133  29.730  1.00  0.00     0.010 A 
ATOM     12  C   UNL A   1      38.175  29.718  27.504  1.00  0.00     0.010 A 
ATOM     13  C   UNL A   1      38.470  29.275  28.802  1.00  0.00    -0.014 A 
BRANCH  13  14
ATOM     14  C   UNL A   1      39.861  28.898  29.158  1.00  0.00     0.031 A 
ATOM     15  C   UNL A   1      40.791  29.899  29.781  1.00  0.00     0.074 A 
ATOM     16  C   UNL A   1      40.304  27.661  28.861  1.00  0.00     0.049 A 
ATOM     17  N   UNL A   1      42.057  29.769  30.084  1.00  0.00    -0.248 NA
ATOM     18  C   UNL A   1      40.227  31.220  30.095  1.00  0.00     0.031 C 
ATOM     19  C   UNL A   1      39.502  26.605  28.243  1.00  0.00     0.029 A 
ATOM     20  N   UNL A   1      41.542  27.092  29.021  1.00  0.00    -0.354 N 
ATOM     21  C   UNL A   1      42.451  30.996  30.603  1.00  0.00     0.074 A 
ATOM     22  C   UNL A   1      41.291  31.863  30.558  1.00  0.00     0.031 C 
ATOM     23  C   UNL A   1      40.267  25.517  28.070  1.00  0.00     0.029 A 
ATOM     24  C   UNL A   1      41.625  25.813  28.522  1.00  0.00     0.049 A 
ATOM     25  H   UNL A   1      42.298  27.553  29.451  1.00  0.00     0.167 HD
ATOM     26  C   UNL A   1      43.667  31.368  31.072  1.00  0.00     0.031 A 
ATOM     27  C   UNL A   1      42.675  24.979  28.408  1.00  0.00     0.031 A 
ATOM     28  C   UNL A   1      44.821  30.508  31.098  1.00  0.00     0.049 A 
ATOM     29  C   UNL A   1      44.022  25.417  28.907  1.00  0.00     0.074 A 
ATOM     30  C   UNL A   1      46.086  30.781  31.593  1.00  0.00     0.029 A 
ATOM     31  N   UNL A   1      44.858  29.216  30.597  1.00  0.00    -0.354 N 
ATOM     32  N   UNL A   1      44.362  26.562  29.448  1.00  0.00    -0.248 NA
ATOM     33  C   UNL A   1      45.124  24.453  28.786  1.00  0.00     0.031 C 
ATOM     34  C   UNL A   1      46.899  29.670  31.346  1.00  0.00     0.029 A 
ATOM     35  C   UNL A   1      46.130  28.686  30.744  1.00  0.00     0.049 A 
ATOM     36  H   UNL A   1      44.093  28.745  30.194  1.00  0.00     0.167 HD
ATOM     37  C   UNL A   1      45.712  26.450  29.753  1.00  0.00     0.074 A 
ATOM     38  C   UNL A   1      46.127  25.124  29.339  1.00  0.00     0.031 C 
ATOM     39  C   UNL A   1      46.531  27.364  30.329  1.00  0.00     0.031 A 
BRANCH  26  40
ATOM     40  C   UNL A   1      43.813  32.787  31.553  1.00  0.00    -0.014 A 
ATOM     41  C   UNL A   1      44.179  33.820  30.672  1.00  0.00     0.010 A 
ATOM     42  C   UNL A   1      43.584  33.090  32.907  1.00  0.00     0.010 A 
ATOM     43  C   UNL A   1      44.376  35.119  31.150  1.00  0.00     0.020 A 
ATOM     44  C   UNL A   1      43.755  34.392  33.384  1.00  0.00     0.020 A 
ATOM     45  C   UNL A   1      44.178  35.393  32.507  1.00  0.00     0.054 A 
BRANCH  45  46
ATOM     46  S   UNL A   1      44.476  37.077  33.111  1.00  0.00     0.124 S 
ATOM     47  O   UNL A   1      45.461  36.843  34.166  1.00  0.00    -0.237 OA
ATOM     48  O   UNL A   1      44.981  37.763  31.925  1.00  0.00    -0.237 OA
ATOM     49  O   UNL A   1      43.163  37.518  33.571  1.00  0.00    -0.744 OA
ENDBRANCH  45  46
ENDBRANCH  26  40
BRANCH  27  50
ATOM     50  C   UNL A   1      42.471  23.650  27.775  1.00  0.00    -0.014 A 
ATOM     51  C   UNL A   1      42.807  23.442  26.426  1.00  0.00     0.010 A 
ATOM     52  C   UNL A   1      42.029  22.561  28.550  1.00  0.00     0.010 A 
ATOM     53  C   UNL A   1      42.720  22.163  25.868  1.00  0.00     0.020 A 
ATOM     54  C   UNL A   1      41.963  21.278  28.000  1.00  0.00     0.020 A 
ATOM     55  C   UNL A   1      42.309  21.088  26.662  1.00  0.00     0.054 A 
BRANCH  55  56
ATOM     56  S   UNL A   1      42.314  19.419  25.947  1.00  0.00     0.124 S 
ATOM     57  O   UNL A   1      40.902  19.215  25.641  1.00  0.00    -0.237 OA
ATOM     58  O   UNL A   1      43.196  19.572  24.792  1.00  0.00    -0.237 OA
ATOM     59  O   UNL A   1      42.850  18.589  27.023  1.00  0.00    -0.744 OA
ENDBRANCH  55  56
ENDBRANCH  27  50
BRANCH  39  60
ATOM     60  C   UNL A   1      47.958  26.965  30.582  1.00  0.00    -0.014 A 
ATOM     61  C   UNL A   1      48.994  27.397  29.736  1.00  0.00     0.010 A 
ATOM     62  C   UNL A   1      48.276  26.231  31.739  1.00  0.00     0.010 A 
ATOM     63  C   UNL A   1      50.325  27.101  30.042  1.00  0.00     0.020 A 
ATOM     64  C   UNL A   1      49.607  25.950  32.060  1.00  0.00     0.020 A 
ATOM     65  C   UNL A   1      50.623  26.383  31.206  1.00  0.00     0.054 A 
BRANCH  65  66
ATOM     66  S   UNL A   1      52.362  26.087  31.632  1.00  0.00     0.124 S 
ATOM     67  O   UNL A   1      52.991  26.025  30.317  1.00  0.00    -0.237 OA
ATOM     68  O   UNL A   1      52.700  27.260  32.437  1.00  0.00    -0.237 OA
ATOM     69  O   UNL A   1      52.328  24.825  32.368  1.00  0.00    -0.744 OA
ENDBRANCH  65  66
ENDBRANCH  39  60
ENDBRANCH  13  14
ENDBRANCH   6   8
ENDBRANCH   3   4
ENDBRANCH   2   3
ENDBRANCH   1   2
BRANCH   1  70
ATOM     70  C   UNL A   1      30.675  27.629  24.511  1.00  0.00     0.002 C 
BRANCH  70  71
ATOM     71  C   UNL A   1      29.977  26.269  24.581  1.00  0.00     0.021 C 
BRANCH  71  72
ATOM     72  C   UNL A   1      30.330  25.298  23.455  1.00  0.00     0.116 C 
BRANCH  72  73
ATOM     73  N   UNL A   1      31.443  25.791  22.672  1.00  0.00    -0.354 N 
ATOM     74  C   UNL A   1      32.529  25.172  22.135  1.00  0.00     0.242 C 
ATOM     75  H   UNL A   1      31.409  26.759  22.496  1.00  0.00     0.163 HD
ATOM     76  O   UNL A   1      33.390  25.923  21.654  1.00  0.00    -0.273 OA
BRANCH  74  77
ATOM     77  C   UNL A   1      32.749  23.636  22.105  1.00  0.00     0.173 C 
BRANCH  77  78
ATOM     78  C   UNL A   1      34.244  23.218  22.188  1.00  0.00     0.070 C 
BRANCH  78  79
ATOM     79  C   UNL A   1      35.054  23.330  23.463  1.00  0.00    -0.045 A 
ATOM     80  C   UNL A   1      35.055  24.480  24.268  1.00  0.00     0.007 A 
ATOM     81  C   UNL A   1      35.769  22.209  23.919  1.00  0.00     0.007 A 
ATOM     82  C   UNL A   1      35.860  24.561  25.410  1.00  0.00     0.046 A 
ATOM     83  C   UNL A   1      36.555  22.276  25.073  1.00  0.00     0.046 A 
ATOM     84  C   UNL A   1      36.621  23.463  25.789  1.00  0.00     0.115 A 
BRANCH  84  85
ATOM     85  O   UNL A   1      37.463  23.512  26.860  1.00  0.00    -0.508 OA
ATOM     86  H   UNL A   1      37.558  24.307  27.345  1.00  0.00     0.293 HD
ENDBRANCH  84  85
ENDBRANCH  78  79
ENDBRANCH  77  78
BRANCH  77  87
ATOM     87  N   UNL A   1      31.858  22.913  23.028  1.00  0.00    -0.372 N 
ATOM     88  H   UNL A   1      30.916  23.195  23.055  1.00  0.00     0.161 HD
BRANCH  87  89
ATOM     89  C   UNL A   1      32.233  21.855  23.875  1.00  0.00     0.054 A 
ATOM     90  C   UNL A   1      32.344  20.495  23.435  1.00  0.00     0.024 A 
ATOM     91  C   UNL A   1      32.532  22.153  25.247  1.00  0.00     0.024 A 
ATOM     92  C   UNL A   1      32.143  20.027  22.110  1.00  0.00     0.012 A 
ATOM     93  C   UNL A   1      32.743  19.534  24.387  1.00  0.00     0.073 A 
ATOM     94  C   UNL A   1      32.959  21.092  26.069  1.00  0.00     0.073 A 
ATOM     95  C   UNL A   1      32.428  23.441  25.843  1.00  0.00     0.012 A 
ATOM     96  C   UNL A   1      32.258  18.679  21.760  1.00  0.00     0.001 A 
ATOM     97  C   UNL A   1      32.866  18.198  24.022  1.00  0.00     0.029 A 
ATOM     98  N   UNL A   1      33.046  19.829  25.652  1.00  0.00    -0.248 NA
ATOM     99  C   UNL A   1      33.314  21.341  27.388  1.00  0.00     0.029 A 
ATOM    100  C   UNL A   1      32.781  23.668  27.175  1.00  0.00     0.001 A 
ATOM    101  C   UNL A   1      32.616  17.757  22.724  1.00  0.00     0.002 A 
ATOM    102  C   UNL A   1      33.239  22.614  27.948  1.00  0.00     0.002 A 
ENDBRANCH  87  89
ENDBRANCH  77  87
ENDBRANCH  74  77
ENDBRANCH  72  73
ENDBRANCH  71  72
ENDBRANCH  70  71
ENDBRANCH   1  70
TORSDOF 21
ENDMDL
MODEL 2
REMARK VINA RESULT:     -11.2      2.692      3.748
REMARK SMILES O=C(NCCCCCCNC(=O)[C@@H](Cc1ccc(O)cc1)Nc1c2ccccc2nc2ccccc12)c1ccc(-c2c3nc(c(-c4ccc(S(=O)(=O)[O-])cc4)c4ccc([nH]4)c(-c4ccc(S(=O)(=O)[O-])cc4)c4nc(c(-c5ccc(S(=O)(=O)[O-])cc5)c5ccc2[nH]5)C=C4)C=C3)cc1
REMARK SMILES IDX 6 1 5 2 4 3 3 4 1 5 2 6 37 8 38 9 96 10 39 11 95 12 40 13
REMARK SMILES IDX 41 14 42 15 89 16 43 17 94 18 88 19 90 20 44 21 93 22 87 23
REMARK SMILES IDX 86 24 45 26 75 27 56 28 74 29 57 30 60 31 73 32 91 33 58 34
REMARK SMILES IDX 59 35 72 37 92 38 61 39 46 40 47 41 55 42 48 43 54 44 49 45
REMARK SMILES IDX 50 46 51 47 52 48 53 49 76 50 77 51 85 52 78 53 84 54 79 55
REMARK SMILES IDX 80 56 81 57 82 58 83 59 62 60 63 61 71 62 64 63 70 64 65 65
REMARK SMILES IDX 66 66 67 67 68 68 69 69 7 70 8 71 9 72 10 73 11 74 12 76
REMARK SMILES IDX 13 77 14 78 15 79 16 80 21 81 17 82 20 83 18 84 19 85 22 87
REMARK SMILES IDX 23 89 24 90 36 91 25 92 29 93 31 94 35 95 26 96 28 97 30 98
REMARK SMILES IDX 32 99 34 100 27 101 33 102
REMARK H PARENT 3 7 90 25 60 36 10 75 19 86 22 88
REMARK Flexibility Score: inf
ROOT
ATOM      1  C   UNL A   1      34.080  29.057  26.376  1.00  0.00     0.002 C 
ENDROOT
BRANCH   1   2
ATOM      2  C   UNL A   1      34.953  29.202  27.630  1.00  0.00     0.021 C 
BRANCH   2   3
ATOM      3  C   UNL A   1      35.439  30.621  27.931  1.00  0.00     0.116 C 
BRANCH   3   4
ATOM      4  N   UNL A   1      35.342  30.930  29.347  1.00  0.00    -0.352 N 
ATOM      5  O   UNL A   1      35.868  30.818  31.525  1.00  0.00    -0.269 OA
ATOM      6  C   UNL A   1      36.243  30.724  30.360  1.00  0.00     0.251 C 
ATOM      7  H   UNL A   1      34.498  31.354  29.623  1.00  0.00     0.163 HD
BRANCH   6   8
ATOM      8  C   UNL A   1      37.655  30.386  30.068  1.00  0.00     0.039 A 
ATOM      9  C   UNL A   1      38.566  30.112  31.093  1.00  0.00     0.014 A 
ATOM     10  C   UNL A   1      38.045  30.249  28.733  1.00  0.00     0.014 A 
ATOM     11  C   UNL A   1      39.885  29.775  30.784  1.00  0.00     0.010 A 
ATOM     12  C   UNL A   1      39.353  29.865  28.424  1.00  0.00     0.010 A 
ATOM     13  C   UNL A   1      40.287  29.636  29.446  1.00  0.00    -0.014 A 
BRANCH  13  14
ATOM     14  C   UNL A   1      41.661  29.186  29.108  1.00  0.00     0.031 A 
ATOM     15  C   UNL A   1      42.804  30.159  29.092  1.00  0.00     0.074 A 
ATOM     16  C   UNL A   1      41.864  27.903  28.754  1.00  0.00     0.049 A 
ATOM     17  N   UNL A   1      44.050  29.960  28.745  1.00  0.00    -0.248 NA
ATOM     18  C   UNL A   1      42.507  31.536  29.513  1.00  0.00     0.031 C 
ATOM     19  C   UNL A   1      40.832  26.866  28.715  1.00  0.00     0.029 A 
ATOM     20  N   UNL A   1      43.002  27.258  28.339  1.00  0.00    -0.354 N 
ATOM     21  C   UNL A   1      44.683  31.189  28.882  1.00  0.00     0.074 A 
ATOM     22  C   UNL A   1      43.677  32.132  29.328  1.00  0.00     0.031 C 
ATOM     23  C   UNL A   1      41.381  25.716  28.296  1.00  0.00     0.029 A 
ATOM     24  C   UNL A   1      42.791  25.945  27.991  1.00  0.00     0.049 A 
ATOM     25  H   UNL A   1      43.884  27.693  28.295  1.00  0.00     0.167 HD
ATOM     26  C   UNL A   1      45.981  31.505  28.654  1.00  0.00     0.031 A 
ATOM     27  C   UNL A   1      43.624  25.031  27.457  1.00  0.00     0.031 A 
ATOM     28  C   UNL A   1      46.972  30.568  28.193  1.00  0.00     0.049 A 
ATOM     29  C   UNL A   1      45.052  25.405  27.185  1.00  0.00     0.074 A 
ATOM     30  C   UNL A   1      48.322  30.784  27.973  1.00  0.00     0.029 A 
ATOM     31  N   UNL A   1      46.720  29.245  27.867  1.00  0.00    -0.354 N 
ATOM     32  N   UNL A   1      45.647  26.558  27.375  1.00  0.00    -0.248 NA
ATOM     33  C   UNL A   1      45.922  24.359  26.633  1.00  0.00     0.031 C 
ATOM     34  C   UNL A   1      48.876  29.602  27.468  1.00  0.00     0.029 A 
ATOM     35  C   UNL A   1      47.882  28.636  27.421  1.00  0.00     0.049 A 
ATOM     36  H   UNL A   1      45.843  28.802  27.940  1.00  0.00     0.167 HD
ATOM     37  C   UNL A   1      46.967  26.372  26.986  1.00  0.00     0.074 A 
ATOM     38  C   UNL A   1      47.086  24.993  26.553  1.00  0.00     0.031 C 
ATOM     39  C   UNL A   1      47.988  27.263  26.993  1.00  0.00     0.031 A 
BRANCH  26  40
ATOM     40  C   UNL A   1      46.385  32.940  28.860  1.00  0.00    -0.014 A 
ATOM     41  C   UNL A   1      46.388  33.857  27.793  1.00  0.00     0.010 A 
ATOM     42  C   UNL A   1      46.770  33.377  30.140  1.00  0.00     0.010 A 
ATOM     43  C   UNL A   1      46.831  35.168  27.990  1.00  0.00     0.020 A 
ATOM     44  C   UNL A   1      47.190  34.694  30.346  1.00  0.00     0.020 A 
ATOM     45  C   UNL A   1      47.245  35.574  29.262  1.00  0.00     0.054 A 
BRANCH  45  46
ATOM     46  S   UNL A   1      47.852  37.268  29.485  1.00  0.00     0.124 S 
ATOM     47  O   UNL A   1      47.907  37.375  30.941  1.00  0.00    -0.237 OA
ATOM     48  O   UNL A   1      49.146  37.240  28.810  1.00  0.00    -0.237 OA
ATOM     49  O   UNL A   1      46.832  38.089  28.838  1.00  0.00    -0.744 OA
ENDBRANCH  45  46
ENDBRANCH  26  40
BRANCH  27  50
ATOM     50  C   UNL A   1      43.096  23.679  27.139  1.00  0.00    -0.014 A 
ATOM     51  C   UNL A   1      42.905  23.282  25.804  1.00  0.00     0.010 A 
ATOM     52  C   UNL A   1      42.875  22.747  28.172  1.00  0.00     0.010 A 
ATOM     53  C   UNL A   1      42.517  21.972  25.507  1.00  0.00     0.020 A 
ATOM     54  C   UNL A   1      42.509  21.432  27.876  1.00  0.00     0.020 A 
ATOM     55  C   UNL A   1      42.332  21.053  26.545  1.00  0.00     0.054 A 
BRANCH  55  56
ATOM     56  S   UNL A   1      41.942  19.329  26.129  1.00  0.00     0.124 S 
ATOM     57  O   UNL A   1      40.491  19.373  25.987  1.00  0.00    -0.237 OA
ATOM     58  O   UNL A   1      42.693  19.124  24.892  1.00  0.00    -0.237 OA
ATOM     59  O   UNL A   1      42.438  18.580  27.280  1.00  0.00    -0.744 OA
ENDBRANCH  55  56
ENDBRANCH  27  50
BRANCH  39  60
ATOM     60  C   UNL A   1      49.342  26.781  26.550  1.00  0.00    -0.014 A 
ATOM     61  C   UNL A   1      49.764  26.926  25.217  1.00  0.00     0.010 A 
ATOM     62  C   UNL A   1      50.239  26.267  27.504  1.00  0.00     0.010 A 
ATOM     63  C   UNL A   1      51.061  26.565  24.845  1.00  0.00     0.020 A 
ATOM     64  C   UNL A   1      51.544  25.923  27.140  1.00  0.00     0.020 A 
ATOM     65  C   UNL A   1      51.945  26.070  25.811  1.00  0.00     0.054 A 
BRANCH  65  66
ATOM     66  S   UNL A   1      53.653  25.692  25.325  1.00  0.00     0.124 S 
ATOM     67  O   UNL A   1      54.314  26.980  25.510  1.00  0.00    -0.237 OA
ATOM     68  O   UNL A   1      54.033  24.647  26.274  1.00  0.00    -0.237 OA
ATOM     69  O   UNL A   1      53.527  25.248  23.938  1.00  0.00    -0.744 OA
ENDBRANCH  65  66
ENDBRANCH  39  60
ENDBRANCH  13  14
ENDBRANCH   6   8
ENDBRANCH   3   4
ENDBRANCH   2   3
ENDBRANCH   1   2
BRANCH   1  70
ATOM     70  C   UNL A   1      32.578  28.860  26.617  1.00  0.00     0.002 C 
BRANCH  70  71
ATOM     71  C   UNL A   1      31.746  28.621  25.357  1.00  0.00     0.021 C 
BRANCH  71  72
ATOM     72  C   UNL A   1      32.549  28.466  24.066  1.00  0.00     0.116 C 
BRANCH  72  73
ATOM     73  N   UNL A   1      32.197  27.241  23.379  1.00  0.00    -0.354 N 
ATOM     74  C   UNL A   1      32.797  26.021  23.318  1.00  0.00     0.242 C 
ATOM     75  H   UNL A   1      31.366  27.302  22.855  1.00  0.00     0.163 HD
ATOM     76  O   UNL A   1      32.315  25.229  22.495  1.00  0.00    -0.273 OA
BRANCH  74  77
ATOM     77  C   UNL A   1      34.015  25.588  24.178  1.00  0.00     0.173 C 
BRANCH  77  78
ATOM     78  C   UNL A   1      33.673  25.367  25.677  1.00  0.00     0.070 C 
BRANCH  78  79
ATOM     79  C   UNL A   1      32.493  24.532  26.133  1.00  0.00    -0.045 A 
ATOM     80  C   UNL A   1      32.638  23.282  26.755  1.00  0.00     0.007 A 
ATOM     81  C   UNL A   1      31.196  25.062  26.017  1.00  0.00     0.007 A 
ATOM     82  C   UNL A   1      31.520  22.521  27.112  1.00  0.00     0.046 A 
ATOM     83  C   UNL A   1      30.077  24.316  26.396  1.00  0.00     0.046 A 
ATOM     84  C   UNL A   1      30.247  23.037  26.908  1.00  0.00     0.115 A 
BRANCH  84  85
ATOM     85  O   UNL A   1      29.128  22.310  27.186  1.00  0.00    -0.508 OA
ATOM     86  H   UNL A   1      29.023  21.916  28.028  1.00  0.00     0.293 HD
ENDBRANCH  84  85
ENDBRANCH  78  79
ENDBRANCH  77  78
BRANCH  77  87
ATOM     87  N   UNL A   1      34.793  24.501  23.559  1.00  0.00    -0.372 N 
ATOM     88  H   UNL A   1      35.170  24.672  22.666  1.00  0.00     0.161 HD
BRANCH  87  89
ATOM     89  C   UNL A   1      35.045  23.241  24.131  1.00  0.00     0.054 A 
ATOM     90  C   UNL A   1      34.158  22.123  23.993  1.00  0.00     0.024 A 
ATOM     91  C   UNL A   1      36.255  23.063  24.880  1.00  0.00     0.024 A 
ATOM     92  C   UNL A   1      32.951  22.099  23.246  1.00  0.00     0.012 A 
ATOM     93  C   UNL A   1      34.540  20.911  24.607  1.00  0.00     0.073 A 
ATOM     94  C   UNL A   1      36.520  21.780  25.400  1.00  0.00     0.073 A 
ATOM     95  C   UNL A   1      37.211  24.083  25.141  1.00  0.00     0.012 A 
ATOM     96  C   UNL A   1      32.133  20.970  23.170  1.00  0.00     0.001 A 
ATOM     97  C   UNL A   1      33.722  19.792  24.512  1.00  0.00     0.029 A 
ATOM     98  N   UNL A   1      35.683  20.750  25.276  1.00  0.00    -0.248 NA
ATOM     99  C   UNL A   1      37.706  21.543  26.083  1.00  0.00     0.029 A 
ATOM    100  C   UNL A   1      38.393  23.827  25.838  1.00  0.00     0.001 A 
ATOM    101  C   UNL A   1      32.517  19.810  23.812  1.00  0.00     0.002 A 
ATOM    102  C   UNL A   1      38.648  22.547  26.301  1.00  0.00     0.002 A 
ENDBRANCH  87  89
ENDBRANCH  77  87
ENDBRANCH  74  77
ENDBRANCH  72  73
ENDBRANCH  71  72
ENDBRANCH  70  71
ENDBRANCH   1  70
TORSDOF 21
ENDMDL
MODEL 3
REMARK VINA RESULT:     -11.2      2.860      4.791
REMARK SMILES O=C(NCCCCCCNC(=O)[C@@H](Cc1ccc(O)cc1)Nc1c2ccccc2nc2ccccc12)c1ccc(-c2c3nc(c(-c4ccc(S(=O)(=O)[O-])cc4)c4ccc([nH]4)c(-c4ccc(S(=O)(=O)[O-])cc4)c4nc(c(-c5ccc(S(=O)(=O)[O-])cc5)c5ccc2[nH]5)C=C4)C=C3)cc1
REMARK SMILES IDX 6 1 5 2 4 3 3 4 1 5 2 6 37 8 38 9 96 10 39 11 95 12 40 13
REMARK SMILES IDX 41 14 42 15 89 16 43 17 94 18 88 19 90 20 44 21 93 22 87 23
REMARK SMILES IDX 86 24 45 26 75 27 56 28 74 29 57 30 60 31 73 32 91 33 58 34
REMARK SMILES IDX 59 35 72 37 92 38 61 39 46 40 47 41 55 42 48 43 54 44 49 45
REMARK SMILES IDX 50 46 51 47 52 48 53 49 76 50 77 51 85 52 78 53 84 54 79 55
REMARK SMILES IDX 80 56 81 57 82 58 83 59 62 60 63 61 71 62 64 63 70 64 65 65
REMARK SMILES IDX 66 66 67 67 68 68 69 69 7 70 8 71 9 72 10 73 11 74 12 76
REMARK SMILES IDX 13 77 14 78 15 79 16 80 21 81 17 82 20 83 18 84 19 85 22 87
REMARK SMILES IDX 23 89 24 90 36 91 25 92 29 93 31 94 35 95 26 96 28 97 30 98
REMARK SMILES IDX 32 99 34 100 27 101 33 102
REMARK H PARENT 3 7 90 25 60 36 10 75 19 86 22 88
REMARK Flexibility Score: inf
ROOT
ATOM      1  C   UNL A   1      33.866  29.022  26.300  1.00  0.00     0.002 C 
ENDROOT
BRANCH   1   2
ATOM      2  C   UNL A   1      34.547  29.310  27.645  1.00  0.00     0.021 C 
BRANCH   2   3
ATOM      3  C   UNL A   1      35.252  30.663  27.748  1.00  0.00     0.116 C 
BRANCH   3   4
ATOM      4  N   UNL A   1      35.290  31.143  29.118  1.00  0.00    -0.352 N 
ATOM      5  O   UNL A   1      35.965  31.234  31.255  1.00  0.00    -0.269 OA
ATOM      6  C   UNL A   1      36.241  30.968  30.089  1.00  0.00     0.251 C 
ATOM      7  H   UNL A   1      34.512  31.680  29.392  1.00  0.00     0.163 HD
BRANCH   6   8
ATOM      8  C   UNL A   1      37.591  30.458  29.752  1.00  0.00     0.039 A 
ATOM      9  C   UNL A   1      37.982  30.250  28.426  1.00  0.00     0.014 A 
ATOM     10  C   UNL A   1      38.513  30.278  30.788  1.00  0.00     0.014 A 
ATOM     11  C   UNL A   1      39.269  29.789  28.141  1.00  0.00     0.010 A 
ATOM     12  C   UNL A   1      39.815  29.863  30.498  1.00  0.00     0.010 A 
ATOM     13  C   UNL A   1      40.201  29.604  29.173  1.00  0.00    -0.014 A 
BRANCH  13  14
ATOM     14  C   UNL A   1      41.600  29.206  28.873  1.00  0.00     0.031 A 
ATOM     15  C   UNL A   1      42.698  30.229  28.842  1.00  0.00     0.074 A 
ATOM     16  C   UNL A   1      41.866  27.922  28.567  1.00  0.00     0.049 A 
ATOM     17  N   UNL A   1      43.958  30.076  28.522  1.00  0.00    -0.248 NA
ATOM     18  C   UNL A   1      42.332  31.605  29.210  1.00  0.00     0.031 C 
ATOM     19  C   UNL A   1      40.882  26.839  28.548  1.00  0.00     0.029 A 
ATOM     20  N   UNL A   1      43.040  27.316  28.193  1.00  0.00    -0.354 N 
ATOM     21  C   UNL A   1      44.532  31.336  28.627  1.00  0.00     0.074 A 
ATOM     22  C   UNL A   1      43.478  32.247  29.024  1.00  0.00     0.031 C 
ATOM     23  C   UNL A   1      41.490  25.702  28.177  1.00  0.00     0.029 A 
ATOM     24  C   UNL A   1      42.894  25.984  27.888  1.00  0.00     0.049 A 
ATOM     25  H   UNL A   1      43.902  27.789  28.149  1.00  0.00     0.167 HD
ATOM     26  C   UNL A   1      45.819  31.702  28.409  1.00  0.00     0.031 A 
ATOM     27  C   UNL A   1      43.776  25.091  27.399  1.00  0.00     0.031 A 
ATOM     28  C   UNL A   1      46.859  30.797  27.998  1.00  0.00     0.049 A 
ATOM     29  C   UNL A   1      45.191  25.520  27.137  1.00  0.00     0.074 A 
ATOM     30  C   UNL A   1      48.202  31.066  27.792  1.00  0.00     0.029 A 
ATOM     31  N   UNL A   1      46.672  29.453  27.713  1.00  0.00    -0.354 N 
ATOM     32  N   UNL A   1      45.730  26.705  27.297  1.00  0.00    -0.248 NA
ATOM     33  C   UNL A   1      46.116  24.497  26.636  1.00  0.00     0.031 C 
ATOM     34  C   UNL A   1      48.817  29.894  27.337  1.00  0.00     0.029 A 
ATOM     35  C   UNL A   1      47.869  28.883  27.308  1.00  0.00     0.049 A 
ATOM     36  H   UNL A   1      45.815  28.974  27.787  1.00  0.00     0.167 HD
ATOM     37  C   UNL A   1      47.064  26.566  26.936  1.00  0.00     0.074 A 
ATOM     38  C   UNL A   1      47.252  25.180  26.553  1.00  0.00     0.031 C 
ATOM     39  C   UNL A   1      48.044  27.502  26.929  1.00  0.00     0.031 A 
BRANCH  26  40
ATOM     40  C   UNL A   1      46.155  33.161  28.572  1.00  0.00    -0.014 A 
ATOM     41  C   UNL A   1      46.626  33.667  29.797  1.00  0.00     0.010 A 
ATOM     42  C   UNL A   1      45.994  34.038  27.485  1.00  0.00     0.010 A 
ATOM     43  C   UNL A   1      46.869  35.035  29.949  1.00  0.00     0.020 A 
ATOM     44  C   UNL A   1      46.258  35.403  27.626  1.00  0.00     0.020 A 
ATOM     45  C   UNL A   1      46.667  35.897  28.866  1.00  0.00     0.054 A 
BRANCH  45  46
ATOM     46  S   UNL A   1      46.951  37.673  29.099  1.00  0.00     0.124 S 
ATOM     47  O   UNL A   1      46.296  38.235  27.919  1.00  0.00    -0.237 OA
ATOM     48  O   UNL A   1      46.289  37.944  30.372  1.00  0.00    -0.237 OA
ATOM     49  O   UNL A   1      48.407  37.792  29.119  1.00  0.00    -0.744 OA
ENDBRANCH  45  46
ENDBRANCH  26  40
BRANCH  27  50
ATOM     50  C   UNL A   1      43.316  23.706  27.120  1.00  0.00    -0.014 A 
ATOM     51  C   UNL A   1      43.155  22.782  28.166  1.00  0.00     0.010 A 
ATOM     52  C   UNL A   1      42.943  23.337  25.813  1.00  0.00     0.010 A 
ATOM     53  C   UNL A   1      42.615  21.518  27.913  1.00  0.00     0.020 A 
ATOM     54  C   UNL A   1      42.382  22.083  25.562  1.00  0.00     0.020 A 
ATOM     55  C   UNL A   1      42.222  21.181  26.614  1.00  0.00     0.054 A 
BRANCH  55  56
ATOM     56  S   UNL A   1      41.416  19.579  26.330  1.00  0.00     0.124 S 
ATOM     57  O   UNL A   1      40.050  19.979  26.011  1.00  0.00    -0.237 OA
ATOM     58  O   UNL A   1      42.189  19.027  25.221  1.00  0.00    -0.237 OA
ATOM     59  O   UNL A   1      41.585  18.882  27.603  1.00  0.00    -0.744 OA
ENDBRANCH  55  56
ENDBRANCH  27  50
BRANCH  39  60
ATOM     60  C   UNL A   1      49.425  27.068  26.525  1.00  0.00    -0.014 A 
ATOM     61  C   UNL A   1      50.298  26.470  27.450  1.00  0.00     0.010 A 
ATOM     62  C   UNL A   1      49.815  27.169  25.177  1.00  0.00     0.010 A 
ATOM     63  C   UNL A   1      51.540  25.982  27.033  1.00  0.00     0.020 A 
ATOM     64  C   UNL A   1      51.046  26.664  24.753  1.00  0.00     0.020 A 
ATOM     65  C   UNL A   1      51.903  26.076  25.685  1.00  0.00     0.054 A 
BRANCH  65  66
ATOM     66  S   UNL A   1      53.480  25.355  25.150  1.00  0.00     0.124 S 
ATOM     67  O   UNL A   1      54.433  26.014  26.037  1.00  0.00    -0.237 OA
ATOM     68  O   UNL A   1      53.279  23.928  25.391  1.00  0.00    -0.237 OA
ATOM     69  O   UNL A   1      53.573  25.734  23.741  1.00  0.00    -0.744 OA
ENDBRANCH  65  66
ENDBRANCH  39  60
ENDBRANCH  13  14
ENDBRANCH   6   8
ENDBRANCH   3   4
ENDBRANCH   2   3
ENDBRANCH   1   2
BRANCH   1  70
ATOM     70  C   UNL A   1      32.361  29.308  26.230  1.00  0.00     0.002 C 
BRANCH  70  71
ATOM     71  C   UNL A   1      31.460  28.127  26.592  1.00  0.00     0.021 C 
BRANCH  71  72
ATOM     72  C   UNL A   1      32.118  26.751  26.492  1.00  0.00     0.116 C 
BRANCH  72  73
ATOM     73  N   UNL A   1      31.207  25.708  26.913  1.00  0.00    -0.354 N 
ATOM     74  C   UNL A   1      30.642  24.663  26.249  1.00  0.00     0.242 C 
ATOM     75  H   UNL A   1      30.946  25.764  27.860  1.00  0.00     0.163 HD
ATOM     76  O   UNL A   1      29.766  24.044  26.870  1.00  0.00    -0.273 OA
BRANCH  74  77
ATOM     77  C   UNL A   1      31.008  24.230  24.804  1.00  0.00     0.173 C 
BRANCH  77  78
ATOM     78  C   UNL A   1      31.057  22.689  24.608  1.00  0.00     0.070 C 
BRANCH  78  79
ATOM     79  C   UNL A   1      32.328  21.882  24.783  1.00  0.00    -0.045 A 
ATOM     80  C   UNL A   1      33.499  22.416  25.344  1.00  0.00     0.007 A 
ATOM     81  C   UNL A   1      32.319  20.514  24.458  1.00  0.00     0.007 A 
ATOM     82  C   UNL A   1      34.667  21.651  25.437  1.00  0.00     0.046 A 
ATOM     83  C   UNL A   1      33.476  19.740  24.574  1.00  0.00     0.046 A 
ATOM     84  C   UNL A   1      34.650  20.323  25.029  1.00  0.00     0.115 A 
BRANCH  84  85
ATOM     85  O   UNL A   1      35.776  19.555  25.048  1.00  0.00    -0.508 OA
ATOM     86  H   UNL A   1      35.842  18.807  24.488  1.00  0.00     0.293 HD
ENDBRANCH  84  85
ENDBRANCH  78  79
ENDBRANCH  77  78
BRANCH  77  87
ATOM     87  N   UNL A   1      30.237  24.953  23.778  1.00  0.00    -0.372 N 
ATOM     88  H   UNL A   1      29.572  24.436  23.270  1.00  0.00     0.161 HD
BRANCH  87  89
ATOM     89  C   UNL A   1      30.368  26.317  23.460  1.00  0.00     0.054 A 
ATOM     90  C   UNL A   1      31.615  26.926  23.103  1.00  0.00     0.024 A 
ATOM     91  C   UNL A   1      29.190  27.137  23.484  1.00  0.00     0.024 A 
ATOM     92  C   UNL A   1      32.863  26.263  22.975  1.00  0.00     0.012 A 
ATOM     93  C   UNL A   1      31.601  28.303  22.795  1.00  0.00     0.073 A 
ATOM     94  C   UNL A   1      29.327  28.489  23.111  1.00  0.00     0.073 A 
ATOM     95  C   UNL A   1      27.892  26.691  23.857  1.00  0.00     0.012 A 
ATOM     96  C   UNL A   1      34.042  26.931  22.634  1.00  0.00     0.001 A 
ATOM     97  C   UNL A   1      32.779  28.953  22.445  1.00  0.00     0.029 A 
ATOM     98  N   UNL A   1      30.494  29.048  22.792  1.00  0.00    -0.248 NA
ATOM     99  C   UNL A   1      28.207  29.308  23.062  1.00  0.00     0.029 A 
ATOM    100  C   UNL A   1      26.780  27.534  23.811  1.00  0.00     0.001 A 
ATOM    101  C   UNL A   1      34.000  28.286  22.373  1.00  0.00     0.002 A 
ATOM    102  C   UNL A   1      26.937  28.847  23.399  1.00  0.00     0.002 A 
ENDBRANCH  87  89
ENDBRANCH  77  87
ENDBRANCH  74  77
ENDBRANCH  72  73
ENDBRANCH  71  72
ENDBRANCH  70  71
ENDBRANCH   1  70
TORSDOF 21
ENDMDL
