MODEL 1
REMARK VINA RESULT:     -12.3      0.000      0.000
REMARK SMILES O=C(NCCCCCCNC(=O)c1sccc1S(=O)(=O)Nc1ccc(-c2nc3ccccc3n2C(F)F)cc1)c1ccc(-c2c3nc(c(-c4ccc(S(=O)(=O)[O-])cc4)c4ccc([nH]4)c(-c4ccc(S(=O)(=O)[O-])cc4)c4nc(c(-c5ccc(S(=O)(=O)[O-])cc5)c5ccc2[nH]5)C=C4)C=C3)cc1
REMARK SMILES IDX 7 1 6 2 5 3 4 4 3 5 1 6 2 7 40 9 41 10 99 11 42 12 98 13
REMARK SMILES IDX 43 14 44 15 45 16 92 17 46 18 97 19 91 20 93 21 47 22 96 23
REMARK SMILES IDX 90 24 89 25 48 27 78 28 59 29 77 30 60 31 63 32 76 33 94 34
REMARK SMILES IDX 61 35 62 36 75 38 95 39 64 40 49 41 50 42 58 43 51 44 57 45
REMARK SMILES IDX 52 46 53 47 54 48 55 49 56 50 79 51 80 52 88 53 81 54 87 55
REMARK SMILES IDX 82 56 83 57 84 58 85 59 86 60 65 61 66 62 74 63 67 64 73 65
REMARK SMILES IDX 68 66 69 67 70 68 71 69 72 70 8 71 9 72 10 73 11 74 12 76
REMARK SMILES IDX 13 77 14 78 17 79 15 80 16 81 18 82 19 83 20 84 21 85 22 87
REMARK SMILES IDX 23 88 39 89 24 90 38 91 25 92 26 93 27 94 34 95 28 96 33 97
REMARK SMILES IDX 29 98 32 99 30 100 31 101 35 102 36 103 37 104
REMARK H PARENT 3 8 93 26 63 37 10 75 21 86
REMARK Flexibility Score: inf
ROOT
ATOM      1  C   UNL A   1      39.695  22.984  27.232  1.00  0.00     0.002 C 
ENDROOT
BRANCH   1   2
ATOM      2  C   UNL A   1      40.196  21.842  26.342  1.00  0.00     0.002 C 
BRANCH   2   3
ATOM      3  C   UNL A   1      41.057  20.786  27.042  1.00  0.00     0.021 C 
BRANCH   3   4
ATOM      4  C   UNL A   1      42.557  20.904  26.770  1.00  0.00     0.116 C 
BRANCH   4   5
ATOM      5  N   UNL A   1      42.866  21.542  25.512  1.00  0.00    -0.352 N 
ATOM      6  O   UNL A   1      43.557  22.968  23.984  1.00  0.00    -0.269 OA
ATOM      7  C   UNL A   1      43.191  22.818  25.152  1.00  0.00     0.251 C 
ATOM      8  H   UNL A   1      42.837  20.922  24.749  1.00  0.00     0.163 HD
BRANCH   7   9
ATOM      9  C   UNL A   1      43.071  24.010  26.035  1.00  0.00     0.039 A 
ATOM     10  C   UNL A   1      43.525  24.108  27.352  1.00  0.00     0.014 A 
ATOM     11  C   UNL A   1      42.377  25.100  25.480  1.00  0.00     0.014 A 
ATOM     12  C   UNL A   1      43.219  25.224  28.123  1.00  0.00     0.010 A 
ATOM     13  C   UNL A   1      42.076  26.221  26.240  1.00  0.00     0.010 A 
ATOM     14  C   UNL A   1      42.465  26.259  27.576  1.00  0.00    -0.014 A 
BRANCH  14  15
ATOM     15  C   UNL A   1      42.227  27.443  28.393  1.00  0.00     0.031 A 
ATOM     16  C   UNL A   1      43.332  28.444  28.359  1.00  0.00     0.074 A 
ATOM     17  C   UNL A   1      41.050  27.687  29.003  1.00  0.00     0.049 A 
ATOM     18  N   UNL A   1      44.058  28.876  29.339  1.00  0.00    -0.248 NA
ATOM     19  C   UNL A   1      43.764  28.935  27.038  1.00  0.00     0.031 C 
ATOM     20  C   UNL A   1      39.798  26.936  28.879  1.00  0.00     0.029 A 
ATOM     21  N   UNL A   1      40.691  28.748  29.777  1.00  0.00    -0.354 N 
ATOM     22  C   UNL A   1      44.908  29.838  28.795  1.00  0.00     0.074 A 
ATOM     23  C   UNL A   1      44.788  29.723  27.365  1.00  0.00     0.031 C 
ATOM     24  C   UNL A   1      38.776  27.695  29.337  1.00  0.00     0.029 A 
ATOM     25  C   UNL A   1      39.317  28.915  29.914  1.00  0.00     0.049 A 
ATOM     26  H   UNL A   1      41.349  29.345  30.203  1.00  0.00     0.167 HD
ATOM     27  C   UNL A   1      45.486  30.809  29.557  1.00  0.00     0.031 A 
ATOM     28  C   UNL A   1      38.675  30.011  30.394  1.00  0.00     0.031 A 
ATOM     29  C   UNL A   1      45.449  30.484  30.957  1.00  0.00     0.049 A 
ATOM     30  C   UNL A   1      39.662  30.787  31.184  1.00  0.00     0.074 A 
ATOM     31  C   UNL A   1      45.969  29.471  31.737  1.00  0.00     0.029 A 
ATOM     32  N   UNL A   1      44.469  31.080  31.715  1.00  0.00    -0.354 N 
ATOM     33  N   UNL A   1      40.199  30.350  32.289  1.00  0.00    -0.248 NA
ATOM     34  C   UNL A   1      40.398  31.843  30.507  1.00  0.00     0.031 C 
ATOM     35  C   UNL A   1      44.955  29.196  32.698  1.00  0.00     0.029 A 
ATOM     36  C   UNL A   1      43.910  30.101  32.494  1.00  0.00     0.049 A 
ATOM     37  H   UNL A   1      44.215  32.031  31.700  1.00  0.00     0.167 HD
ATOM     38  C   UNL A   1      41.525  30.755  32.224  1.00  0.00     0.074 A 
ATOM     39  C   UNL A   1      41.567  31.742  31.145  1.00  0.00     0.031 C 
ATOM     40  C   UNL A   1      42.512  30.057  32.860  1.00  0.00     0.031 A 
BRANCH  27  41
ATOM     41  C   UNL A   1      45.716  32.223  29.075  1.00  0.00    -0.014 A 
ATOM     42  C   UNL A   1      44.902  33.256  29.587  1.00  0.00     0.010 A 
ATOM     43  C   UNL A   1      46.482  32.525  27.931  1.00  0.00     0.010 A 
ATOM     44  C   UNL A   1      44.789  34.488  28.929  1.00  0.00     0.020 A 
ATOM     45  C   UNL A   1      46.410  33.764  27.292  1.00  0.00     0.020 A 
ATOM     46  C   UNL A   1      45.530  34.724  27.772  1.00  0.00     0.054 A 
BRANCH  46  47
ATOM     47  S   UNL A   1      45.274  36.261  26.852  1.00  0.00     0.124 S 
ATOM     48  O   UNL A   1      43.926  36.073  26.325  1.00  0.00    -0.237 OA
ATOM     49  O   UNL A   1      45.412  37.272  27.897  1.00  0.00    -0.237 OA
ATOM     50  O   UNL A   1      46.344  36.247  25.858  1.00  0.00    -0.744 OA
ENDBRANCH  46  47
ENDBRANCH  27  41
BRANCH  28  51
ATOM     51  C   UNL A   1      37.398  30.599  29.907  1.00  0.00    -0.014 A 
ATOM     52  C   UNL A   1      36.437  31.115  30.799  1.00  0.00     0.010 A 
ATOM     53  C   UNL A   1      37.248  30.908  28.539  1.00  0.00     0.010 A 
ATOM     54  C   UNL A   1      35.397  31.949  30.343  1.00  0.00     0.020 A 
ATOM     55  C   UNL A   1      36.215  31.733  28.078  1.00  0.00     0.020 A 
ATOM     56  C   UNL A   1      35.305  32.268  28.986  1.00  0.00     0.054 A 
BRANCH  56  57
ATOM     57  S   UNL A   1      34.066  33.477  28.425  1.00  0.00     0.124 S 
ATOM     58  O   UNL A   1      33.072  32.627  27.776  1.00  0.00    -0.237 OA
ATOM     59  O   UNL A   1      33.644  34.104  29.674  1.00  0.00    -0.237 OA
ATOM     60  O   UNL A   1      34.818  34.348  27.523  1.00  0.00    -0.744 OA
ENDBRANCH  56  57
ENDBRANCH  28  51
BRANCH  40  61
ATOM     61  C   UNL A   1      42.122  28.987  33.852  1.00  0.00    -0.014 A 
ATOM     62  C   UNL A   1      41.952  27.630  33.513  1.00  0.00     0.010 A 
ATOM     63  C   UNL A   1      42.116  29.345  35.212  1.00  0.00     0.010 A 
ATOM     64  C   UNL A   1      41.771  26.660  34.513  1.00  0.00     0.020 A 
ATOM     65  C   UNL A   1      41.954  28.384  36.211  1.00  0.00     0.020 A 
ATOM     66  C   UNL A   1      41.778  27.045  35.857  1.00  0.00     0.054 A 
BRANCH  66  67
ATOM     67  S   UNL A   1      41.619  25.783  37.152  1.00  0.00     0.124 S 
ATOM     68  O   UNL A   1      42.682  26.148  38.084  1.00  0.00    -0.237 OA
ATOM     69  O   UNL A   1      40.257  25.988  37.639  1.00  0.00    -0.237 OA
ATOM     70  O   UNL A   1      41.829  24.523  36.438  1.00  0.00    -0.744 OA
ENDBRANCH  66  67
ENDBRANCH  40  61
ENDBRANCH  14  15
ENDBRANCH   7   9
ENDBRANCH   4   5
ENDBRANCH   3   4
ENDBRANCH   2   3
ENDBRANCH   1   2
BRANCH   1  71
ATOM     71  C   UNL A   1      38.982  24.128  26.495  1.00  0.00     0.021 C 
BRANCH  71  72
ATOM     72  C   UNL A   1      37.546  23.805  26.113  1.00  0.00     0.116 C 
BRANCH  72  73
ATOM     73  N   UNL A   1      37.437  22.419  25.720  1.00  0.00    -0.351 N 
ATOM     74  C   UNL A   1      36.341  21.605  25.698  1.00  0.00     0.262 C 
ATOM     75  H   UNL A   1      38.277  21.999  25.425  1.00  0.00     0.163 HD
ATOM     76  O   UNL A   1      36.556  20.398  25.572  1.00  0.00    -0.268 OA
BRANCH  74  77
ATOM     77  C   UNL A   1      35.025  22.161  25.907  1.00  0.00     0.112 A 
ATOM     78  S   UNL A   1      34.215  21.569  27.319  1.00  0.00    -0.137 S 
ATOM     79  C   UNL A   1      34.219  23.043  25.206  1.00  0.00     0.111 A 
ATOM     80  C   UNL A   1      32.868  22.574  27.071  1.00  0.00     0.067 A 
ATOM     81  C   UNL A   1      32.996  23.312  25.921  1.00  0.00     0.035 A 
BRANCH  79  82
ATOM     82  S   UNL A   1      34.453  23.823  23.666  1.00  0.00     0.263 S 
ATOM     83  O   UNL A   1      34.694  25.202  24.044  1.00  0.00    -0.201 OA
ATOM     84  O   UNL A   1      35.506  23.019  23.084  1.00  0.00    -0.201 OA
BRANCH  82  85
ATOM     85  N   UNL A   1      33.214  23.795  22.565  1.00  0.00    -0.280 N 
ATOM     86  H   UNL A   1      33.151  22.999  21.988  1.00  0.00     0.180 HD
BRANCH  85  87
ATOM     87  C   UNL A   1      32.240  24.799  22.372  1.00  0.00     0.049 A 
ATOM     88  C   UNL A   1      31.142  24.761  23.237  1.00  0.00     0.027 A 
ATOM     89  C   UNL A   1      32.399  25.878  21.521  1.00  0.00     0.027 A 
ATOM     90  C   UNL A   1      30.333  25.888  23.416  1.00  0.00     0.014 A 
ATOM     91  C   UNL A   1      31.579  26.995  21.694  1.00  0.00     0.014 A 
ATOM     92  C   UNL A   1      30.588  27.055  22.699  1.00  0.00     0.018 A 
BRANCH  92  93
ATOM     93  C   UNL A   1      29.953  28.367  22.932  1.00  0.00     0.145 A 
ATOM     94  N   UNL A   1      28.937  28.774  22.184  1.00  0.00    -0.228 NA
ATOM     95  N   UNL A   1      30.330  29.397  23.782  1.00  0.00    -0.266 N 
ATOM     96  C   UNL A   1      28.738  30.090  22.456  1.00  0.00     0.089 A 
ATOM     97  C   UNL A   1      29.607  30.531  23.443  1.00  0.00     0.074 A 
ATOM     98  C   UNL A   1      27.822  30.974  21.872  1.00  0.00     0.030 A 
ATOM     99  C   UNL A   1      29.613  31.865  23.881  1.00  0.00     0.029 A 
ATOM    100  C   UNL A   1      27.806  32.303  22.302  1.00  0.00     0.002 A 
ATOM    101  C   UNL A   1      28.691  32.739  23.287  1.00  0.00     0.002 A 
BRANCH  95 102
ATOM    102  C   UNL A   1      31.288  29.351  24.864  1.00  0.00     0.451 C 
ATOM    103  F   UNL A   1      30.846  28.571  25.886  1.00  0.00    -0.185 F 
ATOM    104  F   UNL A   1      32.493  28.857  24.472  1.00  0.00    -0.185 F 
ENDBRANCH  95 102
ENDBRANCH  92  93
ENDBRANCH  85  87
ENDBRANCH  82  85
ENDBRANCH  79  82
ENDBRANCH  74  77
ENDBRANCH  72  73
ENDBRANCH  71  72
ENDBRANCH   1  71
TORSDOF 21
ENDMDL
MODEL 2
REMARK VINA RESULT:     -12.2      1.457      2.266
REMARK SMILES O=C(NCCCCCCNC(=O)c1sccc1S(=O)(=O)Nc1ccc(-c2nc3ccccc3n2C(F)F)cc1)c1ccc(-c2c3nc(c(-c4ccc(S(=O)(=O)[O-])cc4)c4ccc([nH]4)c(-c4ccc(S(=O)(=O)[O-])cc4)c4nc(c(-c5ccc(S(=O)(=O)[O-])cc5)c5ccc2[nH]5)C=C4)C=C3)cc1
REMARK SMILES IDX 7 1 6 2 5 3 4 4 3 5 1 6 2 7 40 9 41 10 99 11 42 12 98 13
REMARK SMILES IDX 43 14 44 15 45 16 92 17 46 18 97 19 91 20 93 21 47 22 96 23
REMARK SMILES IDX 90 24 89 25 48 27 78 28 59 29 77 30 60 31 63 32 76 33 94 34
REMARK SMILES IDX 61 35 62 36 75 38 95 39 64 40 49 41 50 42 58 43 51 44 57 45
REMARK SMILES IDX 52 46 53 47 54 48 55 49 56 50 79 51 80 52 88 53 81 54 87 55
REMARK SMILES IDX 82 56 83 57 84 58 85 59 86 60 65 61 66 62 74 63 67 64 73 65
REMARK SMILES IDX 68 66 69 67 70 68 71 69 72 70 8 71 9 72 10 73 11 74 12 76
REMARK SMILES IDX 13 77 14 78 17 79 15 80 16 81 18 82 19 83 20 84 21 85 22 87
REMARK SMILES IDX 23 88 39 89 24 90 38 91 25 92 26 93 27 94 34 95 28 96 33 97
REMARK SMILES IDX 29 98 32 99 30 100 31 101 35 102 36 103 37 104
REMARK H PARENT 3 8 93 26 63 37 10 75 21 86
REMARK Flexibility Score: inf
ROOT
ATOM      1  C   UNL A   1      39.258  24.116  27.410  1.00  0.00     0.002 C 
ENDROOT
BRANCH   1   2
ATOM      2  C   UNL A   1      40.040  22.814  27.621  1.00  0.00     0.002 C 
BRANCH   2   3
ATOM      3  C   UNL A   1      40.357  22.021  26.350  1.00  0.00     0.021 C 
BRANCH   3   4
ATOM      4  C   UNL A   1      41.776  21.455  26.289  1.00  0.00     0.116 C 
BRANCH   4   5
ATOM      5  N   UNL A   1      42.599  22.073  25.276  1.00  0.00    -0.352 N 
ATOM      6  O   UNL A   1      43.925  23.451  24.186  1.00  0.00    -0.269 OA
ATOM      7  C   UNL A   1      43.114  23.325  25.107  1.00  0.00     0.251 C 
ATOM      8  H   UNL A   1      42.841  21.455  24.549  1.00  0.00     0.163 HD
BRANCH   7   9
ATOM      9  C   UNL A   1      42.721  24.522  25.899  1.00  0.00     0.039 A 
ATOM     10  C   UNL A   1      41.919  25.575  25.455  1.00  0.00     0.014 A 
ATOM     11  C   UNL A   1      43.276  24.597  27.189  1.00  0.00     0.014 A 
ATOM     12  C   UNL A   1      41.747  26.711  26.238  1.00  0.00     0.010 A 
ATOM     13  C   UNL A   1      43.102  25.723  27.980  1.00  0.00     0.010 A 
ATOM     14  C   UNL A   1      42.369  26.796  27.482  1.00  0.00    -0.014 A 
BRANCH  14  15
ATOM     15  C   UNL A   1      42.106  27.970  28.304  1.00  0.00     0.031 A 
ATOM     16  C   UNL A   1      43.181  29.004  28.259  1.00  0.00     0.074 A 
ATOM     17  C   UNL A   1      40.929  28.180  28.927  1.00  0.00     0.049 A 
ATOM     18  N   UNL A   1      43.905  29.455  29.232  1.00  0.00    -0.248 NA
ATOM     19  C   UNL A   1      43.585  29.508  26.934  1.00  0.00     0.031 C 
ATOM     20  C   UNL A   1      39.698  27.392  28.816  1.00  0.00     0.029 A 
ATOM     21  N   UNL A   1      40.548  29.228  29.707  1.00  0.00    -0.354 N 
ATOM     22  C   UNL A   1      44.721  30.442  28.681  1.00  0.00     0.074 A 
ATOM     23  C   UNL A   1      44.589  30.326  27.252  1.00  0.00     0.031 C 
ATOM     24  C   UNL A   1      38.660  28.121  29.286  1.00  0.00     0.029 A 
ATOM     25  C   UNL A   1      39.172  29.355  29.859  1.00  0.00     0.049 A 
ATOM     26  H   UNL A   1      41.193  29.844  30.127  1.00  0.00     0.167 HD
ATOM     27  C   UNL A   1      45.279  31.428  29.438  1.00  0.00     0.031 A 
ATOM     28  C   UNL A   1      38.503  30.432  30.348  1.00  0.00     0.031 A 
ATOM     29  C   UNL A   1      45.266  31.101  30.838  1.00  0.00     0.049 A 
ATOM     30  C   UNL A   1      39.475  31.235  31.129  1.00  0.00     0.074 A 
ATOM     31  C   UNL A   1      45.824  30.102  31.610  1.00  0.00     0.029 A 
ATOM     32  N   UNL A   1      44.277  31.667  31.607  1.00  0.00    -0.354 N 
ATOM     33  N   UNL A   1      40.037  30.813  32.227  1.00  0.00    -0.248 NA
ATOM     34  C   UNL A   1      40.173  32.312  30.445  1.00  0.00     0.031 C 
ATOM     35  C   UNL A   1      44.829  29.797  32.582  1.00  0.00     0.029 A 
ATOM     36  C   UNL A   1      43.756  30.671  32.391  1.00  0.00     0.049 A 
ATOM     37  H   UNL A   1      43.996  32.610  31.597  1.00  0.00     0.167 HD
ATOM     38  C   UNL A   1      41.350  31.256  32.148  1.00  0.00     0.074 A 
ATOM     39  C   UNL A   1      41.351  32.245  31.070  1.00  0.00     0.031 C 
ATOM     40  C   UNL A   1      42.363  30.586  32.772  1.00  0.00     0.031 A 
BRANCH  27  41
ATOM     41  C   UNL A   1      45.462  32.849  28.956  1.00  0.00    -0.014 A 
ATOM     42  C   UNL A   1      46.550  33.599  29.449  1.00  0.00     0.010 A 
ATOM     43  C   UNL A   1      44.449  33.563  28.283  1.00  0.00     0.010 A 
ATOM     44  C   UNL A   1      46.571  34.998  29.360  1.00  0.00     0.020 A 
ATOM     45  C   UNL A   1      44.481  34.953  28.151  1.00  0.00     0.020 A 
ATOM     46  C   UNL A   1      45.523  35.665  28.729  1.00  0.00     0.054 A 
BRANCH  46  47
ATOM     47  S   UNL A   1      45.487  37.474  28.741  1.00  0.00     0.124 S 
ATOM     48  O   UNL A   1      46.382  37.784  29.851  1.00  0.00    -0.237 OA
ATOM     49  O   UNL A   1      45.990  37.801  27.409  1.00  0.00    -0.237 OA
ATOM     50  O   UNL A   1      44.077  37.787  28.964  1.00  0.00    -0.744 OA
ENDBRANCH  46  47
ENDBRANCH  27  41
BRANCH  28  51
ATOM     51  C   UNL A   1      37.204  30.983  29.876  1.00  0.00    -0.014 A 
ATOM     52  C   UNL A   1      36.245  31.485  30.778  1.00  0.00     0.010 A 
ATOM     53  C   UNL A   1      37.025  31.273  28.508  1.00  0.00     0.010 A 
ATOM     54  C   UNL A   1      35.179  32.289  30.331  1.00  0.00     0.020 A 
ATOM     55  C   UNL A   1      35.964  32.067  28.055  1.00  0.00     0.020 A 
ATOM     56  C   UNL A   1      35.056  32.590  28.971  1.00  0.00     0.054 A 
BRANCH  56  57
ATOM     57  S   UNL A   1      33.779  33.762  28.417  1.00  0.00     0.124 S 
ATOM     58  O   UNL A   1      33.264  34.283  29.681  1.00  0.00    -0.237 OA
ATOM     59  O   UNL A   1      34.543  34.708  27.609  1.00  0.00    -0.237 OA
ATOM     60  O   UNL A   1      32.845  32.926  27.667  1.00  0.00    -0.744 OA
ENDBRANCH  56  57
ENDBRANCH  28  51
BRANCH  40  61
ATOM     61  C   UNL A   1      42.016  29.504  33.767  1.00  0.00    -0.014 A 
ATOM     62  C   UNL A   1      41.773  28.162  33.410  1.00  0.00     0.010 A 
ATOM     63  C   UNL A   1      42.130  29.826  35.130  1.00  0.00     0.010 A 
ATOM     64  C   UNL A   1      41.637  27.173  34.398  1.00  0.00     0.020 A 
ATOM     65  C   UNL A   1      42.013  28.845  36.116  1.00  0.00     0.020 A 
ATOM     66  C   UNL A   1      41.763  27.523  35.746  1.00  0.00     0.054 A 
BRANCH  66  67
ATOM     67  S   UNL A   1      41.662  26.233  37.019  1.00  0.00     0.124 S 
ATOM     68  O   UNL A   1      41.600  25.008  36.226  1.00  0.00    -0.237 OA
ATOM     69  O   UNL A   1      42.895  26.429  37.778  1.00  0.00    -0.237 OA
ATOM     70  O   UNL A   1      40.437  26.558  37.750  1.00  0.00    -0.744 OA
ENDBRANCH  66  67
ENDBRANCH  40  61
ENDBRANCH  14  15
ENDBRANCH   7   9
ENDBRANCH   4   5
ENDBRANCH   3   4
ENDBRANCH   2   3
ENDBRANCH   1   2
BRANCH   1  71
ATOM     71  C   UNL A   1      38.401  24.169  26.135  1.00  0.00     0.021 C 
BRANCH  71  72
ATOM     72  C   UNL A   1      36.943  23.808  26.366  1.00  0.00     0.116 C 
BRANCH  72  73
ATOM     73  N   UNL A   1      36.172  24.068  25.172  1.00  0.00    -0.351 N 
ATOM     74  C   UNL A   1      35.676  23.192  24.249  1.00  0.00     0.262 C 
ATOM     75  H   UNL A   1      35.976  25.016  24.997  1.00  0.00     0.163 HD
ATOM     76  O   UNL A   1      35.278  23.679  23.189  1.00  0.00    -0.268 OA
BRANCH  74  77
ATOM     77  C   UNL A   1      35.719  21.773  24.506  1.00  0.00     0.112 A 
ATOM     78  S   UNL A   1      37.276  21.051  24.274  1.00  0.00    -0.137 S 
ATOM     79  C   UNL A   1      34.778  20.819  24.860  1.00  0.00     0.111 A 
ATOM     80  C   UNL A   1      36.734  19.519  24.767  1.00  0.00     0.067 A 
ATOM     81  C   UNL A   1      35.393  19.529  25.059  1.00  0.00     0.035 A 
BRANCH  79  82
ATOM     82  S   UNL A   1      33.055  20.944  25.079  1.00  0.00     0.263 S 
ATOM     83  O   UNL A   1      32.619  21.527  23.825  1.00  0.00    -0.201 OA
ATOM     84  O   UNL A   1      32.701  19.585  25.427  1.00  0.00    -0.201 OA
BRANCH  82  85
ATOM     85  N   UNL A   1      32.478  21.883  26.318  1.00  0.00    -0.280 N 
ATOM     86  H   UNL A   1      32.514  21.495  27.222  1.00  0.00     0.180 HD
BRANCH  85  87
ATOM     87  C   UNL A   1      31.939  23.182  26.204  1.00  0.00     0.049 A 
ATOM     88  C   UNL A   1      32.867  24.226  26.131  1.00  0.00     0.027 A 
ATOM     89  C   UNL A   1      30.598  23.448  25.992  1.00  0.00     0.027 A 
ATOM     90  C   UNL A   1      32.497  25.479  25.630  1.00  0.00     0.014 A 
ATOM     91  C   UNL A   1      30.232  24.706  25.507  1.00  0.00     0.014 A 
ATOM     92  C   UNL A   1      31.181  25.715  25.235  1.00  0.00     0.018 A 
BRANCH  92  93
ATOM     93  C   UNL A   1      30.700  26.906  24.509  1.00  0.00     0.145 A 
ATOM     94  N   UNL A   1      29.403  27.137  24.365  1.00  0.00    -0.228 NA
ATOM     95  N   UNL A   1      31.411  27.849  23.780  1.00  0.00    -0.266 N 
ATOM     96  C   UNL A   1      29.269  28.138  23.455  1.00  0.00     0.089 A 
ATOM     97  C   UNL A   1      30.510  28.603  23.043  1.00  0.00     0.074 A 
ATOM     98  C   UNL A   1      28.095  28.688  22.927  1.00  0.00     0.030 A 
ATOM     99  C   UNL A   1      30.637  29.621  22.086  1.00  0.00     0.029 A 
ATOM    100  C   UNL A   1      28.201  29.710  21.981  1.00  0.00     0.002 A 
ATOM    101  C   UNL A   1      29.452  30.164  21.565  1.00  0.00     0.002 A 
BRANCH  95 102
ATOM    102  C   UNL A   1      32.840  28.068  23.766  1.00  0.00     0.451 C 
ATOM    103  F   UNL A   1      33.335  28.030  22.500  1.00  0.00    -0.185 F 
ATOM    104  F   UNL A   1      33.189  29.270  24.298  1.00  0.00    -0.185 F 
ENDBRANCH  95 102
ENDBRANCH  92  93
ENDBRANCH  85  87
ENDBRANCH  82  85
ENDBRANCH  79  82
ENDBRANCH  74  77
ENDBRANCH  72  73
ENDBRANCH  71  72
ENDBRANCH   1  71
TORSDOF 21
ENDMDL
MODEL 3
REMARK VINA RESULT:     -10.8      9.228     16.024
REMARK SMILES O=C(NCCCCCCNC(=O)c1sccc1S(=O)(=O)Nc1ccc(-c2nc3ccccc3n2C(F)F)cc1)c1ccc(-c2c3nc(c(-c4ccc(S(=O)(=O)[O-])cc4)c4ccc([nH]4)c(-c4ccc(S(=O)(=O)[O-])cc4)c4nc(c(-c5ccc(S(=O)(=O)[O-])cc5)c5ccc2[nH]5)C=C4)C=C3)cc1
REMARK SMILES IDX 7 1 6 2 5 3 4 4 3 5 1 6 2 7 40 9 41 10 99 11 42 12 98 13
REMARK SMILES IDX 43 14 44 15 45 16 92 17 46 18 97 19 91 20 93 21 47 22 96 23
REMARK SMILES IDX 90 24 89 25 48 27 78 28 59 29 77 30 60 31 63 32 76 33 94 34
REMARK SMILES IDX 61 35 62 36 75 38 95 39 64 40 49 41 50 42 58 43 51 44 57 45
REMARK SMILES IDX 52 46 53 47 54 48 55 49 56 50 79 51 80 52 88 53 81 54 87 55
REMARK SMILES IDX 82 56 83 57 84 58 85 59 86 60 65 61 66 62 74 63 67 64 73 65
REMARK SMILES IDX 68 66 69 67 70 68 71 69 72 70 8 71 9 72 10 73 11 74 12 76
REMARK SMILES IDX 13 77 14 78 17 79 15 80 16 81 18 82 19 83 20 84 21 85 22 87
REMARK SMILES IDX 23 88 39 89 24 90 38 91 25 92 26 93 27 94 34 95 28 96 33 97
REMARK SMILES IDX 29 98 32 99 30 100 31 101 35 102 36 103 37 104
REMARK H PARENT 3 8 93 26 63 37 10 75 21 86
REMARK Flexibility Score: inf
ROOT
ATOM      1  C   UNL A   1      41.911  39.738  28.543  1.00  0.00     0.002 C 
ENDROOT
BRANCH   1   2
ATOM      2  C   UNL A   1      41.707  40.834  29.594  1.00  0.00     0.002 C 
BRANCH   2   3
ATOM      3  C   UNL A   1      42.725  40.852  30.738  1.00  0.00     0.021 C 
BRANCH   3   4
ATOM      4  C   UNL A   1      44.007  40.066  30.463  1.00  0.00     0.116 C 
BRANCH   4   5
ATOM      5  N   UNL A   1      44.905  40.015  31.593  1.00  0.00    -0.352 N 
ATOM      6  O   UNL A   1      46.036  39.349  33.360  1.00  0.00    -0.269 OA
ATOM      7  C   UNL A   1      45.030  39.181  32.665  1.00  0.00     0.251 C 
ATOM      8  H   UNL A   1      45.571  40.739  31.588  1.00  0.00     0.163 HD
BRANCH   7   9
ATOM      9  C   UNL A   1      44.029  38.159  33.073  1.00  0.00     0.039 A 
ATOM     10  C   UNL A   1      43.328  38.128  34.280  1.00  0.00     0.014 A 
ATOM     11  C   UNL A   1      43.838  37.108  32.158  1.00  0.00     0.014 A 
ATOM     12  C   UNL A   1      42.530  37.037  34.607  1.00  0.00     0.010 A 
ATOM     13  C   UNL A   1      43.036  36.020  32.472  1.00  0.00     0.010 A 
ATOM     14  C   UNL A   1      42.416  35.971  33.717  1.00  0.00    -0.014 A 
BRANCH  14  15
ATOM     15  C   UNL A   1      41.513  34.881  34.063  1.00  0.00     0.031 A 
ATOM     16  C   UNL A   1      41.900  33.558  33.491  1.00  0.00     0.074 A 
ATOM     17  C   UNL A   1      40.505  35.017  34.948  1.00  0.00     0.049 A 
ATOM     18  N   UNL A   1      41.233  32.808  32.676  1.00  0.00    -0.248 NA
ATOM     19  C   UNL A   1      43.263  33.070  33.768  1.00  0.00     0.031 C 
ATOM     20  C   UNL A   1      40.200  36.174  35.794  1.00  0.00     0.029 A 
ATOM     21  N   UNL A   1      39.604  34.088  35.369  1.00  0.00    -0.354 N 
ATOM     22  C   UNL A   1      42.002  31.660  32.490  1.00  0.00     0.074 A 
ATOM     23  C   UNL A   1      43.294  31.941  33.059  1.00  0.00     0.031 C 
ATOM     24  C   UNL A   1      39.365  35.790  36.787  1.00  0.00     0.029 A 
ATOM     25  C   UNL A   1      38.968  34.410  36.563  1.00  0.00     0.049 A 
ATOM     26  H   UNL A   1      39.419  33.259  34.870  1.00  0.00     0.167 HD
ATOM     27  C   UNL A   1      41.458  30.481  32.076  1.00  0.00     0.031 A 
ATOM     28  C   UNL A   1      38.235  33.576  37.345  1.00  0.00     0.031 A 
ATOM     29  C   UNL A   1      40.158  30.667  31.491  1.00  0.00     0.049 A 
ATOM     30  C   UNL A   1      37.823  32.430  36.499  1.00  0.00     0.074 A 
ATOM     31  C   UNL A   1      39.671  31.351  30.396  1.00  0.00     0.029 A 
ATOM     32  N   UNL A   1      39.068  30.392  32.283  1.00  0.00    -0.354 N 
ATOM     33  N   UNL A   1      37.012  32.542  35.484  1.00  0.00    -0.248 NA
ATOM     34  C   UNL A   1      38.671  31.248  36.492  1.00  0.00     0.031 C 
ATOM     35  C   UNL A   1      38.420  31.880  30.826  1.00  0.00     0.029 A 
ATOM     36  C   UNL A   1      38.186  31.430  32.128  1.00  0.00     0.049 A 
ATOM     37  H   UNL A   1      38.944  29.600  32.854  1.00  0.00     0.167 HD
ATOM     38  C   UNL A   1      37.537  31.698  34.515  1.00  0.00     0.074 A 
ATOM     39  C   UNL A   1      38.508  30.866  35.224  1.00  0.00     0.031 C 
ATOM     40  C   UNL A   1      37.338  31.937  33.185  1.00  0.00     0.031 A 
BRANCH  27  41
ATOM     41  C   UNL A   1      41.923  29.129  32.567  1.00  0.00    -0.014 A 
ATOM     42  C   UNL A   1      41.795  28.824  33.939  1.00  0.00     0.010 A 
ATOM     43  C   UNL A   1      42.746  28.280  31.800  1.00  0.00     0.010 A 
ATOM     44  C   UNL A   1      42.531  27.786  34.526  1.00  0.00     0.020 A 
ATOM     45  C   UNL A   1      43.451  27.216  32.367  1.00  0.00     0.020 A 
ATOM     46  C   UNL A   1      43.371  27.002  33.736  1.00  0.00     0.054 A 
BRANCH  46  47
ATOM     47  S   UNL A   1      44.422  25.757  34.523  1.00  0.00     0.124 S 
ATOM     48  O   UNL A   1      45.564  25.713  33.615  1.00  0.00    -0.237 OA
ATOM     49  O   UNL A   1      44.675  26.350  35.833  1.00  0.00    -0.237 OA
ATOM     50  O   UNL A   1      43.583  24.560  34.535  1.00  0.00    -0.744 OA
ENDBRANCH  46  47
ENDBRANCH  27  41
BRANCH  28  51
ATOM     51  C   UNL A   1      38.194  33.530  38.832  1.00  0.00    -0.014 A 
ATOM     52  C   UNL A   1      38.888  34.472  39.617  1.00  0.00     0.010 A 
ATOM     53  C   UNL A   1      37.238  32.721  39.480  1.00  0.00     0.010 A 
ATOM     54  C   UNL A   1      38.597  34.631  40.986  1.00  0.00     0.020 A 
ATOM     55  C   UNL A   1      36.947  32.870  40.842  1.00  0.00     0.020 A 
ATOM     56  C   UNL A   1      37.613  33.840  41.586  1.00  0.00     0.054 A 
BRANCH  56  57
ATOM     57  S   UNL A   1      37.122  34.160  43.308  1.00  0.00     0.124 S 
ATOM     58  O   UNL A   1      35.679  33.940  43.268  1.00  0.00    -0.237 OA
ATOM     59  O   UNL A   1      37.893  33.165  44.050  1.00  0.00    -0.237 OA
ATOM     60  O   UNL A   1      37.531  35.545  43.531  1.00  0.00    -0.744 OA
ENDBRANCH  56  57
ENDBRANCH  28  51
BRANCH  40  61
ATOM     61  C   UNL A   1      36.324  32.979  32.776  1.00  0.00    -0.014 A 
ATOM     62  C   UNL A   1      34.962  32.698  32.552  1.00  0.00     0.010 A 
ATOM     63  C   UNL A   1      36.737  34.322  32.807  1.00  0.00     0.010 A 
ATOM     64  C   UNL A   1      34.040  33.740  32.355  1.00  0.00     0.020 A 
ATOM     65  C   UNL A   1      35.824  35.362  32.629  1.00  0.00     0.020 A 
ATOM     66  C   UNL A   1      34.479  35.067  32.400  1.00  0.00     0.054 A 
BRANCH  66  67
ATOM     67  S   UNL A   1      33.277  36.415  32.220  1.00  0.00     0.124 S 
ATOM     68  O   UNL A   1      33.525  37.222  33.412  1.00  0.00    -0.237 OA
ATOM     69  O   UNL A   1      33.665  37.029  30.952  1.00  0.00    -0.237 OA
ATOM     70  O   UNL A   1      31.985  35.729  32.197  1.00  0.00    -0.744 OA
ENDBRANCH  66  67
ENDBRANCH  40  61
ENDBRANCH  14  15
ENDBRANCH   7   9
ENDBRANCH   4   5
ENDBRANCH   3   4
ENDBRANCH   2   3
ENDBRANCH   1   2
BRANCH   1  71
ATOM     71  C   UNL A   1      41.956  40.225  27.085  1.00  0.00     0.021 C 
BRANCH  71  72
ATOM     72  C   UNL A   1      42.943  41.358  26.852  1.00  0.00     0.116 C 
BRANCH  72  73
ATOM     73  N   UNL A   1      44.136  40.853  26.211  1.00  0.00    -0.351 N 
ATOM     74  C   UNL A   1      44.857  41.379  25.178  1.00  0.00     0.262 C 
ATOM     75  H   UNL A   1      44.479  40.005  26.573  1.00  0.00     0.163 HD
ATOM     76  O   UNL A   1      45.679  40.631  24.646  1.00  0.00    -0.268 OA
BRANCH  74  77
ATOM     77  C   UNL A   1      44.574  42.714  24.708  1.00  0.00     0.112 A 
ATOM     78  S   UNL A   1      45.594  43.940  25.383  1.00  0.00    -0.137 S 
ATOM     79  C   UNL A   1      43.630  43.267  23.858  1.00  0.00     0.111 A 
ATOM     80  C   UNL A   1      44.875  45.168  24.456  1.00  0.00     0.067 A 
ATOM     81  C   UNL A   1      43.852  44.681  23.681  1.00  0.00     0.035 A 
BRANCH  79  82
ATOM     82  S   UNL A   1      42.282  42.542  23.026  1.00  0.00     0.263 S 
ATOM     83  O   UNL A   1      42.024  41.355  23.817  1.00  0.00    -0.201 OA
ATOM     84  O   UNL A   1      41.333  43.634  22.994  1.00  0.00    -0.201 OA
BRANCH  82  85
ATOM     85  N   UNL A   1      42.480  42.082  21.445  1.00  0.00    -0.280 N 
ATOM     86  H   UNL A   1      42.240  41.153  21.221  1.00  0.00     0.180 HD
BRANCH  85  87
ATOM     87  C   UNL A   1      42.959  42.888  20.390  1.00  0.00     0.049 A 
ATOM     88  C   UNL A   1      41.988  43.420  19.537  1.00  0.00     0.027 A 
ATOM     89  C   UNL A   1      44.273  43.304  20.270  1.00  0.00     0.027 A 
ATOM     90  C   UNL A   1      42.276  44.520  18.722  1.00  0.00     0.014 A 
ATOM     91  C   UNL A   1      44.558  44.394  19.443  1.00  0.00     0.014 A 
ATOM     92  C   UNL A   1      43.554  45.076  18.721  1.00  0.00     0.018 A 
BRANCH  92  93
ATOM     93  C   UNL A   1      43.943  46.346  18.076  1.00  0.00     0.145 A 
ATOM     94  N   UNL A   1      45.091  46.937  18.375  1.00  0.00    -0.228 NA
ATOM     95  N   UNL A   1      43.214  47.171  17.232  1.00  0.00    -0.266 N 
ATOM     96  C   UNL A   1      45.055  48.183  17.834  1.00  0.00     0.089 A 
ATOM     97  C   UNL A   1      43.881  48.382  17.122  1.00  0.00     0.074 A 
ATOM     98  C   UNL A   1      46.006  49.206  17.931  1.00  0.00     0.030 A 
ATOM     99  C   UNL A   1      43.598  49.603  16.490  1.00  0.00     0.029 A 
ATOM    100  C   UNL A   1      45.747  50.424  17.301  1.00  0.00     0.002 A 
ATOM    101  C   UNL A   1      44.560  50.619  16.596  1.00  0.00     0.002 A 
BRANCH  95 102
ATOM    102  C   UNL A   1      41.979  46.870  16.542  1.00  0.00     0.451 C 
ATOM    103  F   UNL A   1      41.612  47.886  15.716  1.00  0.00    -0.185 F 
ATOM    104  F   UNL A   1      42.067  45.746  15.783  1.00  0.00    -0.185 F 
ENDBRANCH  95 102
ENDBRANCH  92  93
ENDBRANCH  85  87
ENDBRANCH  82  85
ENDBRANCH  79  82
ENDBRANCH  74  77
ENDBRANCH  72  73
ENDBRANCH  71  72
ENDBRANCH   1  71
TORSDOF 21
ENDMDL
