MODEL 1
REMARK VINA RESULT:     -10.7      0.000      0.000
REMARK SMILES Cc1cc(C(=O)NCCCCCCNC(=O)c2ccc(-c3c4nc(c(-c5ccc(S(=O)(=O)[O-])cc5)c5ccc([nH]5)c(-c5ccc(S(=O)(=O)[O-])cc5)c5nc(c(-c6ccc(S(=O)(=O)[O-])cc6)c6ccc3[nH]6)C=C5)C=C4)cc2)ccc1NS(=O)(=O)c1ccc(C#N)cc1C
REMARK SMILES IDX 10 1 9 2 8 3 7 4 5 5 6 6 4 8 1 9 2 10 3 11 79 12 78 13 77 14
REMARK SMILES IDX 80 15 81 17 82 18 83 19 84 20 85 21 91 22 86 23 90 24 92 25
REMARK SMILES IDX 87 26 88 27 89 28 11 29 12 30 13 31 14 32 15 33 16 35 17 36
REMARK SMILES IDX 18 37 76 38 19 39 75 40 20 41 21 42 22 43 69 44 23 45 74 46
REMARK SMILES IDX 68 47 70 48 24 49 73 50 67 51 66 52 25 54 55 55 36 56 54 57
REMARK SMILES IDX 37 58 40 59 53 60 71 61 38 62 39 63 52 65 72 66 41 67 26 68
REMARK SMILES IDX 27 69 35 70 28 71 34 72 29 73 30 74 31 75 32 76 33 77 56 78
REMARK SMILES IDX 57 79 65 80 58 81 64 82 59 83 60 84 61 85 62 86 63 87 42 88
REMARK SMILES IDX 43 89 51 90 44 91 50 92 45 93 46 94 47 95 48 96 49 97
REMARK H PARENT 7 7 80 16 14 34 70 53 40 64
REMARK Flexibility Score: inf
ROOT
ATOM      1  C   UNL A   1      38.538  24.423  26.226  1.00  0.00     0.002 C 
ENDROOT
BRANCH   1   2
ATOM      2  C   UNL A   1      38.599  22.915  26.505  1.00  0.00     0.021 C 
BRANCH   2   3
ATOM      3  C   UNL A   1      37.907  22.055  25.446  1.00  0.00     0.116 C 
BRANCH   3   4
ATOM      4  N   UNL A   1      36.716  21.416  25.978  1.00  0.00    -0.352 N 
ATOM      5  C   UNL A   1      35.381  21.697  25.815  1.00  0.00     0.251 C 
ATOM      6  O   UNL A   1      34.551  20.900  26.248  1.00  0.00    -0.269 OA
ATOM      7  H   UNL A   1      36.897  20.641  26.559  1.00  0.00     0.163 HD
BRANCH   5   8
ATOM      8  C   UNL A   1      34.910  22.888  25.053  1.00  0.00     0.040 A 
ATOM      9  C   UNL A   1      33.965  26.452  25.912  1.00  0.00     0.046 C 
ATOM     10  C   UNL A   1      34.013  25.154  25.154  1.00  0.00    -0.026 A 
ATOM     11  C   UNL A   1      34.652  24.061  25.767  1.00  0.00     0.019 A 
ATOM     12  C   UNL A   1      33.546  25.013  23.835  1.00  0.00     0.052 A 
ATOM     13  C   UNL A   1      34.063  23.975  23.062  1.00  0.00     0.028 A 
ATOM     14  C   UNL A   1      34.740  22.913  23.671  1.00  0.00     0.016 A 
BRANCH  12  15
ATOM     15  N   UNL A   1      32.291  25.622  23.518  1.00  0.00    -0.279 N 
ATOM     16  H   UNL A   1      31.510  25.266  23.998  1.00  0.00     0.180 HD
BRANCH  15  17
ATOM     17  S   UNL A   1      31.974  26.860  22.436  1.00  0.00     0.262 S 
ATOM     18  O   UNL A   1      33.196  27.642  22.419  1.00  0.00    -0.201 OA
ATOM     19  O   UNL A   1      31.459  26.251  21.229  1.00  0.00    -0.201 OA
BRANCH  17  20
ATOM     20  C   UNL A   1      30.697  27.960  23.065  1.00  0.00     0.090 A 
ATOM     21  C   UNL A   1      29.353  27.788  22.713  1.00  0.00     0.024 A 
ATOM     22  C   UNL A   1      31.082  29.125  23.767  1.00  0.00    -0.029 A 
ATOM     23  C   UNL A   1      28.441  28.842  22.869  1.00  0.00     0.021 A 
ATOM     24  C   UNL A   1      30.147  30.167  23.931  1.00  0.00     0.024 A 
ATOM     25  C   UNL A   1      32.418  29.301  24.440  1.00  0.00     0.046 C 
ATOM     26  C   UNL A   1      28.848  30.050  23.436  1.00  0.00     0.052 A 
BRANCH  26  27
ATOM     27  C   UNL A   1      27.941  31.167  23.503  1.00  0.00     0.099 C 
ATOM     28  N   UNL A   1      27.224  32.068  23.532  1.00  0.00    -0.192 NA
ENDBRANCH  26  27
ENDBRANCH  17  20
ENDBRANCH  15  17
ENDBRANCH  12  15
ENDBRANCH   5   8
ENDBRANCH   3   4
ENDBRANCH   2   3
ENDBRANCH   1   2
BRANCH   1  29
ATOM     29  C   UNL A   1      39.729  25.251  26.734  1.00  0.00     0.002 C 
BRANCH  29  30
ATOM     30  C   UNL A   1      40.037  25.122  28.225  1.00  0.00     0.021 C 
BRANCH  30  31
ATOM     31  C   UNL A   1      39.586  26.319  29.039  1.00  0.00     0.116 C 
BRANCH  31  32
ATOM     32  N   UNL A   1      38.664  27.177  28.313  1.00  0.00    -0.352 N 
ATOM     33  C   UNL A   1      38.712  28.564  28.285  1.00  0.00     0.251 C 
ATOM     34  H   UNL A   1      37.948  26.738  27.799  1.00  0.00     0.163 HD
ATOM     35  O   UNL A   1      37.727  29.285  28.373  1.00  0.00    -0.269 OA
BRANCH  33  36
ATOM     36  C   UNL A   1      40.029  29.137  27.949  1.00  0.00     0.039 A 
ATOM     37  C   UNL A   1      40.680  28.652  26.806  1.00  0.00     0.014 A 
ATOM     38  C   UNL A   1      40.717  29.814  28.947  1.00  0.00     0.014 A 
ATOM     39  C   UNL A   1      42.063  28.642  26.779  1.00  0.00     0.010 A 
ATOM     40  C   UNL A   1      42.064  29.633  29.014  1.00  0.00     0.010 A 
ATOM     41  C   UNL A   1      42.720  29.024  27.941  1.00  0.00    -0.014 A 
BRANCH  41  42
ATOM     42  C   UNL A   1      44.149  29.076  28.102  1.00  0.00     0.031 A 
ATOM     43  C   UNL A   1      44.789  30.152  27.330  1.00  0.00     0.074 A 
ATOM     44  C   UNL A   1      44.658  28.369  29.134  1.00  0.00     0.049 A 
ATOM     45  N   UNL A   1      46.047  30.255  27.145  1.00  0.00    -0.248 NA
ATOM     46  C   UNL A   1      44.034  31.219  26.652  1.00  0.00     0.031 C 
ATOM     47  C   UNL A   1      45.931  28.479  29.830  1.00  0.00     0.029 A 
ATOM     48  N   UNL A   1      44.124  27.173  29.619  1.00  0.00    -0.354 N 
ATOM     49  C   UNL A   1      46.279  31.544  26.709  1.00  0.00     0.074 A 
ATOM     50  C   UNL A   1      45.009  32.049  26.271  1.00  0.00     0.031 C 
ATOM     51  C   UNL A   1      46.232  27.278  30.368  1.00  0.00     0.029 A 
ATOM     52  C   UNL A   1      45.216  26.337  29.910  1.00  0.00     0.049 A 
ATOM     53  H   UNL A   1      43.169  26.959  29.735  1.00  0.00     0.167 HD
ATOM     54  C   UNL A   1      47.504  32.073  26.959  1.00  0.00     0.031 A 
ATOM     55  C   UNL A   1      45.443  25.286  29.058  1.00  0.00     0.031 A 
ATOM     56  C   UNL A   1      48.353  31.049  27.571  1.00  0.00     0.049 A 
ATOM     57  C   UNL A   1      46.668  25.514  28.182  1.00  0.00     0.074 A 
ATOM     58  C   UNL A   1      48.679  30.742  28.880  1.00  0.00     0.029 A 
ATOM     59  N   UNL A   1      48.599  29.909  26.831  1.00  0.00    -0.354 N 
ATOM     60  N   UNL A   1      47.251  26.673  28.027  1.00  0.00    -0.248 NA
ATOM     61  C   UNL A   1      47.330  24.462  27.413  1.00  0.00     0.031 C 
ATOM     62  C   UNL A   1      49.072  29.366  28.915  1.00  0.00     0.029 A 
ATOM     63  C   UNL A   1      48.995  28.857  27.630  1.00  0.00     0.049 A 
ATOM     64  H   UNL A   1      48.503  29.854  25.853  1.00  0.00     0.167 HD
ATOM     65  C   UNL A   1      48.356  26.545  27.235  1.00  0.00     0.074 A 
ATOM     66  C   UNL A   1      48.321  25.150  26.816  1.00  0.00     0.031 C 
ATOM     67  C   UNL A   1      49.228  27.572  26.991  1.00  0.00     0.031 A 
BRANCH  54  68
ATOM     68  C   UNL A   1      47.896  33.520  26.878  1.00  0.00    -0.014 A 
ATOM     69  C   UNL A   1      47.311  34.398  27.813  1.00  0.00     0.010 A 
ATOM     70  C   UNL A   1      48.782  34.096  25.946  1.00  0.00     0.010 A 
ATOM     71  C   UNL A   1      47.569  35.770  27.816  1.00  0.00     0.020 A 
ATOM     72  C   UNL A   1      49.049  35.479  25.935  1.00  0.00     0.020 A 
ATOM     73  C   UNL A   1      48.438  36.306  26.874  1.00  0.00     0.054 A 
BRANCH  73  74
ATOM     74  S   UNL A   1      48.758  38.086  26.930  1.00  0.00     0.124 S 
ATOM     75  O   UNL A   1      48.025  38.572  25.764  1.00  0.00    -0.237 OA
ATOM     76  O   UNL A   1      48.201  38.464  28.226  1.00  0.00    -0.237 OA
ATOM     77  O   UNL A   1      50.213  38.182  26.829  1.00  0.00    -0.744 OA
ENDBRANCH  73  74
ENDBRANCH  54  68
BRANCH  55  78
ATOM     78  C   UNL A   1      44.143  24.643  28.642  1.00  0.00    -0.014 A 
ATOM     79  C   UNL A   1      43.873  24.601  27.248  1.00  0.00     0.010 A 
ATOM     80  C   UNL A   1      43.490  23.715  29.470  1.00  0.00     0.010 A 
ATOM     81  C   UNL A   1      43.148  23.547  26.684  1.00  0.00     0.020 A 
ATOM     82  C   UNL A   1      42.722  22.678  28.904  1.00  0.00     0.020 A 
ATOM     83  C   UNL A   1      42.609  22.567  27.514  1.00  0.00     0.054 A 
BRANCH  83  84
ATOM     84  S   UNL A   1      41.890  21.087  26.739  1.00  0.00     0.124 S 
ATOM     85  O   UNL A   1      40.848  20.719  27.693  1.00  0.00    -0.237 OA
ATOM     86  O   UNL A   1      41.411  21.596  25.450  1.00  0.00    -0.237 OA
ATOM     87  O   UNL A   1      43.015  20.164  26.656  1.00  0.00    -0.744 OA
ENDBRANCH  83  84
ENDBRANCH  55  78
BRANCH  67  88
ATOM     88  C   UNL A   1      50.404  27.453  26.061  1.00  0.00    -0.014 A 
ATOM     89  C   UNL A   1      51.643  26.959  26.479  1.00  0.00     0.010 A 
ATOM     90  C   UNL A   1      50.308  27.917  24.727  1.00  0.00     0.010 A 
ATOM     91  C   UNL A   1      52.689  26.794  25.567  1.00  0.00     0.020 A 
ATOM     92  C   UNL A   1      51.354  27.796  23.820  1.00  0.00     0.020 A 
ATOM     93  C   UNL A   1      52.527  27.192  24.238  1.00  0.00     0.054 A 
BRANCH  93  94
ATOM     94  S   UNL A   1      53.875  26.937  23.069  1.00  0.00     0.124 S 
ATOM     95  O   UNL A   1      53.311  25.950  22.151  1.00  0.00    -0.237 OA
ATOM     96  O   UNL A   1      54.050  28.279  22.522  1.00  0.00    -0.237 OA
ATOM     97  O   UNL A   1      54.974  26.453  23.901  1.00  0.00    -0.744 OA
ENDBRANCH  93  94
ENDBRANCH  67  88
ENDBRANCH  41  42
ENDBRANCH  33  36
ENDBRANCH  31  32
ENDBRANCH  30  31
ENDBRANCH  29  30
ENDBRANCH   1  29
TORSDOF 20
ENDMDL
MODEL 2
REMARK VINA RESULT:     -10.7      6.109     12.229
REMARK SMILES Cc1cc(C(=O)NCCCCCCNC(=O)c2ccc(-c3c4nc(c(-c5ccc(S(=O)(=O)[O-])cc5)c5ccc([nH]5)c(-c5ccc(S(=O)(=O)[O-])cc5)c5nc(c(-c6ccc(S(=O)(=O)[O-])cc6)c6ccc3[nH]6)C=C5)C=C4)cc2)ccc1NS(=O)(=O)c1ccc(C#N)cc1C
REMARK SMILES IDX 10 1 9 2 8 3 7 4 5 5 6 6 4 8 1 9 2 10 3 11 79 12 78 13 77 14
REMARK SMILES IDX 80 15 81 17 82 18 83 19 84 20 85 21 91 22 86 23 90 24 92 25
REMARK SMILES IDX 87 26 88 27 89 28 11 29 12 30 13 31 14 32 15 33 16 35 17 36
REMARK SMILES IDX 18 37 76 38 19 39 75 40 20 41 21 42 22 43 69 44 23 45 74 46
REMARK SMILES IDX 68 47 70 48 24 49 73 50 67 51 66 52 25 54 55 55 36 56 54 57
REMARK SMILES IDX 37 58 40 59 53 60 71 61 38 62 39 63 52 65 72 66 41 67 26 68
REMARK SMILES IDX 27 69 35 70 28 71 34 72 29 73 30 74 31 75 32 76 33 77 56 78
REMARK SMILES IDX 57 79 65 80 58 81 64 82 59 83 60 84 61 85 62 86 63 87 42 88
REMARK SMILES IDX 43 89 51 90 44 91 50 92 45 93 46 94 47 95 48 96 49 97
REMARK H PARENT 7 7 80 16 14 34 70 53 40 64
REMARK Flexibility Score: inf
ROOT
ATOM      1  C   UNL A   1      38.148  23.973  26.426  1.00  0.00     0.002 C 
ENDROOT
BRANCH   1   2
ATOM      2  C   UNL A   1      38.455  22.502  26.112  1.00  0.00     0.021 C 
BRANCH   2   3
ATOM      3  C   UNL A   1      39.658  21.940  26.871  1.00  0.00     0.116 C 
BRANCH   3   4
ATOM      4  N   UNL A   1      40.121  20.695  26.284  1.00  0.00    -0.352 N 
ATOM      5  C   UNL A   1      41.386  20.208  26.059  1.00  0.00     0.251 C 
ATOM      6  O   UNL A   1      41.514  19.043  25.688  1.00  0.00    -0.269 OA
ATOM      7  H   UNL A   1      39.398  20.091  25.995  1.00  0.00     0.163 HD
BRANCH   5   8
ATOM      8  C   UNL A   1      42.606  21.016  26.337  1.00  0.00     0.040 A 
ATOM      9  C   UNL A   1      43.708  23.407  29.058  1.00  0.00     0.046 C 
ATOM     10  C   UNL A   1      43.640  22.749  27.707  1.00  0.00    -0.026 A 
ATOM     11  C   UNL A   1      42.617  21.809  27.488  1.00  0.00     0.019 A 
ATOM     12  C   UNL A   1      44.601  22.952  26.701  1.00  0.00     0.052 A 
ATOM     13  C   UNL A   1      44.744  21.971  25.721  1.00  0.00     0.028 A 
ATOM     14  C   UNL A   1      43.746  21.007  25.538  1.00  0.00     0.016 A 
BRANCH  12  15
ATOM     15  N   UNL A   1      45.039  24.296  26.477  1.00  0.00    -0.279 N 
ATOM     16  H   UNL A   1      44.357  24.994  26.603  1.00  0.00     0.180 HD
BRANCH  15  17
ATOM     17  S   UNL A   1      46.558  24.838  26.027  1.00  0.00     0.262 S 
ATOM     18  O   UNL A   1      47.470  24.075  26.856  1.00  0.00    -0.201 OA
ATOM     19  O   UNL A   1      46.625  24.770  24.583  1.00  0.00    -0.201 OA
BRANCH  17  20
ATOM     20  C   UNL A   1      46.795  26.560  26.491  1.00  0.00     0.090 A 
ATOM     21  C   UNL A   1      45.836  27.248  27.244  1.00  0.00     0.024 A 
ATOM     22  C   UNL A   1      47.873  27.278  25.925  1.00  0.00    -0.029 A 
ATOM     23  C   UNL A   1      45.827  28.651  27.264  1.00  0.00     0.021 A 
ATOM     24  C   UNL A   1      47.858  28.686  25.972  1.00  0.00     0.024 A 
ATOM     25  C   UNL A   1      49.103  26.633  25.342  1.00  0.00     0.046 C 
ATOM     26  C   UNL A   1      46.813  29.373  26.590  1.00  0.00     0.052 A 
BRANCH  26  27
ATOM     27  C   UNL A   1      46.747  30.810  26.524  1.00  0.00     0.099 C 
ATOM     28  N   UNL A   1      46.684  31.957  26.448  1.00  0.00    -0.192 NA
ENDBRANCH  26  27
ENDBRANCH  17  20
ENDBRANCH  15  17
ENDBRANCH  12  15
ENDBRANCH   5   8
ENDBRANCH   3   4
ENDBRANCH   2   3
ENDBRANCH   1   2
BRANCH   1  29
ATOM     29  C   UNL A   1      39.251  24.750  27.161  1.00  0.00     0.002 C 
BRANCH  29  30
ATOM     30  C   UNL A   1      40.412  25.234  26.294  1.00  0.00     0.021 C 
BRANCH  30  31
ATOM     31  C   UNL A   1      41.510  25.919  27.083  1.00  0.00     0.116 C 
BRANCH  31  32
ATOM     32  N   UNL A   1      42.403  26.698  26.242  1.00  0.00    -0.352 N 
ATOM     33  C   UNL A   1      42.126  27.958  25.728  1.00  0.00     0.251 C 
ATOM     34  H   UNL A   1      43.276  26.301  26.020  1.00  0.00     0.163 HD
ATOM     35  O   UNL A   1      42.384  28.302  24.582  1.00  0.00    -0.269 OA
BRANCH  33  36
ATOM     36  C   UNL A   1      41.657  28.947  26.717  1.00  0.00     0.039 A 
ATOM     37  C   UNL A   1      42.626  29.688  27.409  1.00  0.00     0.014 A 
ATOM     38  C   UNL A   1      40.356  28.831  27.186  1.00  0.00     0.014 A 
ATOM     39  C   UNL A   1      42.346  30.114  28.696  1.00  0.00     0.010 A 
ATOM     40  C   UNL A   1      40.141  29.074  28.508  1.00  0.00     0.010 A 
ATOM     41  C   UNL A   1      41.150  29.688  29.256  1.00  0.00    -0.014 A 
BRANCH  41  42
ATOM     42  C   UNL A   1      40.690  30.029  30.576  1.00  0.00     0.031 A 
ATOM     43  C   UNL A   1      39.922  31.283  30.627  1.00  0.00     0.074 A 
ATOM     44  C   UNL A   1      40.746  29.044  31.499  1.00  0.00     0.049 A 
ATOM     45  N   UNL A   1      39.606  31.891  31.703  1.00  0.00    -0.248 NA
ATOM     46  C   UNL A   1      39.462  31.997  29.424  1.00  0.00     0.031 C 
ATOM     47  C   UNL A   1      40.047  28.881  32.764  1.00  0.00     0.029 A 
ATOM     48  N   UNL A   1      41.713  28.038  31.529  1.00  0.00    -0.354 N 
ATOM     49  C   UNL A   1      38.611  32.787  31.373  1.00  0.00     0.074 A 
ATOM     50  C   UNL A   1      38.663  32.931  29.946  1.00  0.00     0.031 C 
ATOM     51  C   UNL A   1      40.794  28.097  33.571  1.00  0.00     0.029 A 
ATOM     52  C   UNL A   1      42.056  27.853  32.881  1.00  0.00     0.049 A 
ATOM     53  H   UNL A   1      42.083  27.552  30.756  1.00  0.00     0.167 HD
ATOM     54  C   UNL A   1      37.746  33.144  32.358  1.00  0.00     0.031 A 
ATOM     55  C   UNL A   1      43.280  28.324  33.285  1.00  0.00     0.031 A 
ATOM     56  C   UNL A   1      38.174  32.534  33.617  1.00  0.00     0.049 A 
ATOM     57  C   UNL A   1      43.155  29.573  34.148  1.00  0.00     0.074 A 
ATOM     58  C   UNL A   1      37.809  31.379  34.288  1.00  0.00     0.029 A 
ATOM     59  N   UNL A   1      39.423  32.881  34.094  1.00  0.00    -0.354 N 
ATOM     60  N   UNL A   1      42.067  30.292  34.242  1.00  0.00    -0.248 NA
ATOM     61  C   UNL A   1      44.238  30.112  34.967  1.00  0.00     0.031 C 
ATOM     62  C   UNL A   1      38.899  31.012  35.138  1.00  0.00     0.029 A 
ATOM     63  C   UNL A   1      39.907  31.949  34.987  1.00  0.00     0.049 A 
ATOM     64  H   UNL A   1      39.909  33.695  33.828  1.00  0.00     0.167 HD
ATOM     65  C   UNL A   1      42.247  31.307  35.137  1.00  0.00     0.074 A 
ATOM     66  C   UNL A   1      43.650  31.194  35.511  1.00  0.00     0.031 C 
ATOM     67  C   UNL A   1      41.243  32.154  35.523  1.00  0.00     0.031 A 
BRANCH  54  68
ATOM     68  C   UNL A   1      36.422  33.833  32.190  1.00  0.00    -0.014 A 
ATOM     69  C   UNL A   1      36.145  34.913  33.053  1.00  0.00     0.010 A 
ATOM     70  C   UNL A   1      35.415  33.497  31.264  1.00  0.00     0.010 A 
ATOM     71  C   UNL A   1      34.936  35.609  33.019  1.00  0.00     0.020 A 
ATOM     72  C   UNL A   1      34.188  34.188  31.220  1.00  0.00     0.020 A 
ATOM     73  C   UNL A   1      33.959  35.242  32.101  1.00  0.00     0.054 A 
BRANCH  73  74
ATOM     74  S   UNL A   1      32.417  36.187  32.078  1.00  0.00     0.124 S 
ATOM     75  O   UNL A   1      31.420  35.163  32.386  1.00  0.00    -0.237 OA
ATOM     76  O   UNL A   1      32.642  37.179  33.124  1.00  0.00    -0.237 OA
ATOM     77  O   UNL A   1      32.354  36.720  30.719  1.00  0.00    -0.744 OA
ENDBRANCH  73  74
ENDBRANCH  54  68
BRANCH  55  78
ATOM     78  C   UNL A   1      44.331  28.051  32.240  1.00  0.00    -0.014 A 
ATOM     79  C   UNL A   1      44.797  29.170  31.501  1.00  0.00     0.010 A 
ATOM     80  C   UNL A   1      45.158  26.918  32.315  1.00  0.00     0.010 A 
ATOM     81  C   UNL A   1      46.115  29.232  31.037  1.00  0.00     0.020 A 
ATOM     82  C   UNL A   1      46.472  26.964  31.807  1.00  0.00     0.020 A 
ATOM     83  C   UNL A   1      46.959  28.141  31.229  1.00  0.00     0.054 A 
BRANCH  83  84
ATOM     84  S   UNL A   1      48.725  28.343  30.840  1.00  0.00     0.124 S 
ATOM     85  O   UNL A   1      48.694  28.590  29.402  1.00  0.00    -0.237 OA
ATOM     86  O   UNL A   1      49.109  29.491  31.668  1.00  0.00    -0.237 OA
ATOM     87  O   UNL A   1      49.311  27.071  31.243  1.00  0.00    -0.744 OA
ENDBRANCH  83  84
ENDBRANCH  55  78
BRANCH  67  88
ATOM     88  C   UNL A   1      41.456  33.317  36.452  1.00  0.00    -0.014 A 
ATOM     89  C   UNL A   1      41.728  34.607  35.987  1.00  0.00     0.010 A 
ATOM     90  C   UNL A   1      41.459  33.120  37.854  1.00  0.00     0.010 A 
ATOM     91  C   UNL A   1      41.845  35.676  36.880  1.00  0.00     0.020 A 
ATOM     92  C   UNL A   1      41.615  34.168  38.753  1.00  0.00     0.020 A 
ATOM     93  C   UNL A   1      41.764  35.451  38.255  1.00  0.00     0.054 A 
BRANCH  93  94
ATOM     94  S   UNL A   1      41.880  36.849  39.387  1.00  0.00     0.124 S 
ATOM     95  O   UNL A   1      41.858  36.196  40.695  1.00  0.00    -0.237 OA
ATOM     96  O   UNL A   1      43.159  37.438  38.999  1.00  0.00    -0.237 OA
ATOM     97  O   UNL A   1      40.702  37.653  39.075  1.00  0.00    -0.744 OA
ENDBRANCH  93  94
ENDBRANCH  67  88
ENDBRANCH  41  42
ENDBRANCH  33  36
ENDBRANCH  31  32
ENDBRANCH  30  31
ENDBRANCH  29  30
ENDBRANCH   1  29
TORSDOF 20
ENDMDL
MODEL 3
REMARK VINA RESULT:     -10.7      2.300      4.652
REMARK SMILES Cc1cc(C(=O)NCCCCCCNC(=O)c2ccc(-c3c4nc(c(-c5ccc(S(=O)(=O)[O-])cc5)c5ccc([nH]5)c(-c5ccc(S(=O)(=O)[O-])cc5)c5nc(c(-c6ccc(S(=O)(=O)[O-])cc6)c6ccc3[nH]6)C=C5)C=C4)cc2)ccc1NS(=O)(=O)c1ccc(C#N)cc1C
REMARK SMILES IDX 10 1 9 2 8 3 7 4 5 5 6 6 4 8 1 9 2 10 3 11 79 12 78 13 77 14
REMARK SMILES IDX 80 15 81 17 82 18 83 19 84 20 85 21 91 22 86 23 90 24 92 25
REMARK SMILES IDX 87 26 88 27 89 28 11 29 12 30 13 31 14 32 15 33 16 35 17 36
REMARK SMILES IDX 18 37 76 38 19 39 75 40 20 41 21 42 22 43 69 44 23 45 74 46
REMARK SMILES IDX 68 47 70 48 24 49 73 50 67 51 66 52 25 54 55 55 36 56 54 57
REMARK SMILES IDX 37 58 40 59 53 60 71 61 38 62 39 63 52 65 72 66 41 67 26 68
REMARK SMILES IDX 27 69 35 70 28 71 34 72 29 73 30 74 31 75 32 76 33 77 56 78
REMARK SMILES IDX 57 79 65 80 58 81 64 82 59 83 60 84 61 85 62 86 63 87 42 88
REMARK SMILES IDX 43 89 51 90 44 91 50 92 45 93 46 94 47 95 48 96 49 97
REMARK H PARENT 7 7 80 16 14 34 70 53 40 64
REMARK Flexibility Score: inf
ROOT
ATOM      1  C   UNL A   1      35.238  29.822  27.232  1.00  0.00     0.002 C 
ENDROOT
BRANCH   1   2
ATOM      2  C   UNL A   1      33.980  28.944  27.273  1.00  0.00     0.021 C 
BRANCH   2   3
ATOM      3  C   UNL A   1      33.851  27.984  26.089  1.00  0.00     0.116 C 
BRANCH   3   4
ATOM      4  N   UNL A   1      34.004  28.680  24.823  1.00  0.00    -0.352 N 
ATOM      5  C   UNL A   1      33.445  28.458  23.588  1.00  0.00     0.251 C 
ATOM      6  O   UNL A   1      33.615  29.294  22.703  1.00  0.00    -0.269 OA
ATOM      7  H   UNL A   1      34.619  29.449  24.856  1.00  0.00     0.163 HD
BRANCH   5   8
ATOM      8  C   UNL A   1      32.568  27.285  23.315  1.00  0.00     0.040 A 
ATOM      9  C   UNL A   1      28.962  26.379  24.028  1.00  0.00     0.046 C 
ATOM     10  C   UNL A   1      30.425  26.197  23.731  1.00  0.00    -0.026 A 
ATOM     11  C   UNL A   1      31.247  27.337  23.768  1.00  0.00     0.019 A 
ATOM     12  C   UNL A   1      30.983  24.973  23.324  1.00  0.00     0.052 A 
ATOM     13  C   UNL A   1      32.181  25.000  22.613  1.00  0.00     0.028 A 
ATOM     14  C   UNL A   1      32.973  26.154  22.611  1.00  0.00     0.016 A 
BRANCH  12  15
ATOM     15  N   UNL A   1      30.561  23.797  24.023  1.00  0.00    -0.279 N 
ATOM     16  H   UNL A   1      29.690  23.429  23.751  1.00  0.00     0.180 HD
BRANCH  15  17
ATOM     17  S   UNL A   1      31.352  22.966  25.241  1.00  0.00     0.262 S 
ATOM     18  O   UNL A   1      32.371  23.889  25.702  1.00  0.00    -0.201 OA
ATOM     19  O   UNL A   1      30.338  22.462  26.142  1.00  0.00    -0.201 OA
BRANCH  17  20
ATOM     20  C   UNL A   1      32.238  21.543  24.587  1.00  0.00     0.090 A 
ATOM     21  C   UNL A   1      32.035  21.102  23.274  1.00  0.00     0.024 A 
ATOM     22  C   UNL A   1      33.002  20.748  25.471  1.00  0.00    -0.029 A 
ATOM     23  C   UNL A   1      32.404  19.802  22.899  1.00  0.00     0.021 A 
ATOM     24  C   UNL A   1      33.383  19.451  25.071  1.00  0.00     0.024 A 
ATOM     25  C   UNL A   1      33.525  21.228  26.800  1.00  0.00     0.046 C 
ATOM     26  C   UNL A   1      33.038  18.958  23.812  1.00  0.00     0.052 A 
BRANCH  26  27
ATOM     27  C   UNL A   1      33.326  17.591  23.463  1.00  0.00     0.099 C 
ATOM     28  N   UNL A   1      33.578  16.498  23.199  1.00  0.00    -0.192 NA
ENDBRANCH  26  27
ENDBRANCH  17  20
ENDBRANCH  15  17
ENDBRANCH  12  15
ENDBRANCH   5   8
ENDBRANCH   3   4
ENDBRANCH   2   3
ENDBRANCH   1   2
BRANCH   1  29
ATOM     29  C   UNL A   1      36.358  29.441  28.213  1.00  0.00     0.002 C 
BRANCH  29  30
ATOM     30  C   UNL A   1      36.150  29.881  29.661  1.00  0.00     0.021 C 
BRANCH  30  31
ATOM     31  C   UNL A   1      37.442  30.196  30.388  1.00  0.00     0.116 C 
BRANCH  31  32
ATOM     32  N   UNL A   1      38.009  29.034  31.053  1.00  0.00    -0.352 N 
ATOM     33  C   UNL A   1      38.810  28.075  30.448  1.00  0.00     0.251 C 
ATOM     34  H   UNL A   1      37.809  28.918  32.010  1.00  0.00     0.163 HD
ATOM     35  O   UNL A   1      38.700  26.871  30.639  1.00  0.00    -0.269 OA
BRANCH  33  36
ATOM     36  C   UNL A   1      39.954  28.609  29.684  1.00  0.00     0.039 A 
ATOM     37  C   UNL A   1      40.223  28.042  28.430  1.00  0.00     0.014 A 
ATOM     38  C   UNL A   1      40.911  29.342  30.373  1.00  0.00     0.014 A 
ATOM     39  C   UNL A   1      41.531  28.012  27.978  1.00  0.00     0.010 A 
ATOM     40  C   UNL A   1      42.214  29.149  30.032  1.00  0.00     0.010 A 
ATOM     41  C   UNL A   1      42.511  28.462  28.851  1.00  0.00    -0.014 A 
BRANCH  41  42
ATOM     42  C   UNL A   1      43.919  28.508  28.558  1.00  0.00     0.031 A 
ATOM     43  C   UNL A   1      44.318  29.677  27.761  1.00  0.00     0.074 A 
ATOM     44  C   UNL A   1      44.705  27.681  29.283  1.00  0.00     0.049 A 
ATOM     45  N   UNL A   1      45.456  29.815  27.203  1.00  0.00    -0.248 NA
ATOM     46  C   UNL A   1      43.421  30.814  27.492  1.00  0.00     0.031 C 
ATOM     47  C   UNL A   1      46.135  27.715  29.550  1.00  0.00     0.029 A 
ATOM     48  N   UNL A   1      44.314  26.429  29.762  1.00  0.00    -0.354 N 
ATOM     49  C   UNL A   1      45.578  31.150  26.876  1.00  0.00     0.074 A 
ATOM     50  C   UNL A   1      44.251  31.694  26.927  1.00  0.00     0.031 C 
ATOM     51  C   UNL A   1      46.552  26.459  29.816  1.00  0.00     0.029 A 
ATOM     52  C   UNL A   1      45.416  25.573  29.589  1.00  0.00     0.049 A 
ATOM     53  H   UNL A   1      43.438  26.193  30.147  1.00  0.00     0.167 HD
ATOM     54  C   UNL A   1      46.836  31.655  26.790  1.00  0.00     0.031 A 
ATOM     55  C   UNL A   1      45.331  24.639  28.588  1.00  0.00     0.031 A 
ATOM     56  C   UNL A   1      47.802  30.571  26.973  1.00  0.00     0.049 A 
ATOM     57  C   UNL A   1      46.225  24.987  27.405  1.00  0.00     0.074 A 
ATOM     58  C   UNL A   1      48.513  30.105  28.065  1.00  0.00     0.029 A 
ATOM     59  N   UNL A   1      47.769  29.535  26.061  1.00  0.00    -0.354 N 
ATOM     60  N   UNL A   1      46.766  26.162  27.217  1.00  0.00    -0.248 NA
ATOM     61  C   UNL A   1      46.580  24.046  26.344  1.00  0.00     0.031 C 
ATOM     62  C   UNL A   1      48.855  28.740  27.806  1.00  0.00     0.029 A 
ATOM     63  C   UNL A   1      48.363  28.395  26.559  1.00  0.00     0.049 A 
ATOM     64  H   UNL A   1      47.369  29.602  25.164  1.00  0.00     0.167 HD
ATOM     65  C   UNL A   1      47.562  26.144  26.107  1.00  0.00     0.074 A 
ATOM     66  C   UNL A   1      47.354  24.813  25.554  1.00  0.00     0.031 C 
ATOM     67  C   UNL A   1      48.344  27.202  25.728  1.00  0.00     0.031 A 
BRANCH  54  68
ATOM     68  C   UNL A   1      47.227  33.105  26.767  1.00  0.00    -0.014 A 
ATOM     69  C   UNL A   1      46.357  33.995  26.105  1.00  0.00     0.010 A 
ATOM     70  C   UNL A   1      48.390  33.667  27.329  1.00  0.00     0.010 A 
ATOM     71  C   UNL A   1      46.629  35.358  25.984  1.00  0.00     0.020 A 
ATOM     72  C   UNL A   1      48.679  35.041  27.213  1.00  0.00     0.020 A 
ATOM     73  C   UNL A   1      47.792  35.877  26.540  1.00  0.00     0.054 A 
BRANCH  73  74
ATOM     74  S   UNL A   1      48.092  37.654  26.378  1.00  0.00     0.124 S 
ATOM     75  O   UNL A   1      48.588  37.763  25.008  1.00  0.00    -0.237 OA
ATOM     76  O   UNL A   1      46.767  38.218  26.615  1.00  0.00    -0.237 OA
ATOM     77  O   UNL A   1      49.081  37.936  27.417  1.00  0.00    -0.744 OA
ENDBRANCH  73  74
ENDBRANCH  54  68
BRANCH  55  78
ATOM     78  C   UNL A   1      43.948  24.042  28.528  1.00  0.00    -0.014 A 
ATOM     79  C   UNL A   1      43.173  24.350  27.379  1.00  0.00     0.010 A 
ATOM     80  C   UNL A   1      43.620  22.886  29.257  1.00  0.00     0.010 A 
ATOM     81  C   UNL A   1      42.250  23.434  26.863  1.00  0.00     0.020 A 
ATOM     82  C   UNL A   1      42.657  21.985  28.760  1.00  0.00     0.020 A 
ATOM     83  C   UNL A   1      42.026  22.236  27.537  1.00  0.00     0.054 A 
BRANCH  83  84
ATOM     84  S   UNL A   1      41.014  20.966  26.717  1.00  0.00     0.124 S 
ATOM     85  O   UNL A   1      41.881  20.546  25.621  1.00  0.00    -0.237 OA
ATOM     86  O   UNL A   1      40.816  19.974  27.778  1.00  0.00    -0.237 OA
ATOM     87  O   UNL A   1      39.813  21.691  26.321  1.00  0.00    -0.744 OA
ENDBRANCH  83  84
ENDBRANCH  55  78
BRANCH  67  88
ATOM     88  C   UNL A   1      49.164  27.212  24.467  1.00  0.00    -0.014 A 
ATOM     89  C   UNL A   1      50.562  27.236  24.483  1.00  0.00     0.010 A 
ATOM     90  C   UNL A   1      48.529  27.273  23.204  1.00  0.00     0.010 A 
ATOM     91  C   UNL A   1      51.288  27.169  23.291  1.00  0.00     0.020 A 
ATOM     92  C   UNL A   1      49.242  27.247  22.011  1.00  0.00     0.020 A 
ATOM     93  C   UNL A   1      50.621  27.151  22.065  1.00  0.00     0.054 A 
BRANCH  93  94
ATOM     94  S   UNL A   1      51.576  27.026  20.541  1.00  0.00     0.124 S 
ATOM     95  O   UNL A   1      50.773  27.807  19.603  1.00  0.00    -0.237 OA
ATOM     96  O   UNL A   1      52.846  27.629  20.938  1.00  0.00    -0.237 OA
ATOM     97  O   UNL A   1      51.623  25.591  20.273  1.00  0.00    -0.744 OA
ENDBRANCH  93  94
ENDBRANCH  67  88
ENDBRANCH  41  42
ENDBRANCH  33  36
ENDBRANCH  31  32
ENDBRANCH  30  31
ENDBRANCH  29  30
ENDBRANCH   1  29
TORSDOF 20
ENDMDL
