MODEL 1
REMARK VINA RESULT:     -10.6      0.000      0.000
REMARK SMILES C[C@@H](C(=O)NCCCCCCNC(=O)c1ccc(-c2c3nc(c(-c4ccc(S(=O)(=O)[O-])cc4)c4ccc([nH]4)c(-c4ccc(S(=O)(=O)[O-])cc4)c4nc(c(-c5ccc(S(=O)(=O)[O-])cc5)c5ccc2[nH]5)C=C4)C=C3)cc1)N(C)c1ccc(C(N)=O)nn1
REMARK SMILES IDX 8 1 7 2 6 3 5 4 3 5 4 6 2 8 1 9 75 10 76 11 77 12 78 13
REMARK SMILES IDX 85 14 79 15 84 16 80 17 81 18 82 19 83 20 9 23 10 24 11 25
REMARK SMILES IDX 12 26 13 27 14 29 15 30 16 31 74 32 17 33 73 34 18 35 19 36
REMARK SMILES IDX 20 37 67 38 21 39 72 40 66 41 68 42 22 43 71 44 65 45 64 46
REMARK SMILES IDX 23 48 53 49 34 50 52 51 35 52 38 53 51 54 69 55 36 56 37 57
REMARK SMILES IDX 50 59 70 60 39 61 24 62 25 63 33 64 26 65 32 66 27 67 28 68
REMARK SMILES IDX 29 69 30 70 31 71 54 72 55 73 63 74 56 75 62 76 57 77 58 78
REMARK SMILES IDX 59 79 60 80 61 81 40 82 41 83 49 84 42 85 48 86 43 87 44 88
REMARK SMILES IDX 45 89 46 90 47 91
REMARK H PARENT 5 7 82 21 82 22 12 28 68 47 38 58
REMARK Flexibility Score: inf
ROOT
ATOM      1  C   UNL A   1      32.842  29.439  25.360  1.00  0.00     0.002 C 
ENDROOT
BRANCH   1   2
ATOM      2  C   UNL A   1      31.381  29.071  25.072  1.00  0.00     0.021 C 
BRANCH   2   3
ATOM      3  C   UNL A   1      31.161  27.575  24.839  1.00  0.00     0.116 C 
BRANCH   3   4
ATOM      4  N   UNL A   1      31.950  27.117  23.713  1.00  0.00    -0.354 N 
ATOM      5  C   UNL A   1      32.789  26.045  23.601  1.00  0.00     0.242 C 
ATOM      6  O   UNL A   1      33.410  25.951  22.539  1.00  0.00    -0.273 OA
ATOM      7  H   UNL A   1      31.869  27.667  22.901  1.00  0.00     0.163 HD
BRANCH   5   8
ATOM      8  C   UNL A   1      32.860  24.981  24.738  1.00  0.00     0.169 C 
ATOM      9  C   UNL A   1      32.972  25.559  26.149  1.00  0.00     0.042 C 
BRANCH   8  10
ATOM     10  N   UNL A   1      33.900  23.942  24.491  1.00  0.00    -0.346 N 
ATOM     11  C   UNL A   1      35.281  24.334  24.770  1.00  0.00     0.146 C 
BRANCH  10  12
ATOM     12  C   UNL A   1      33.648  22.578  24.650  1.00  0.00     0.151 A 
ATOM     13  C   UNL A   1      34.647  21.616  24.525  1.00  0.00     0.051 A 
ATOM     14  N   UNL A   1      32.407  22.151  25.000  1.00  0.00    -0.132 NA
ATOM     15  C   UNL A   1      34.375  20.260  24.713  1.00  0.00     0.040 A 
ATOM     16  N   UNL A   1      32.107  20.809  25.176  1.00  0.00    -0.143 NA
ATOM     17  C   UNL A   1      33.086  19.894  25.027  1.00  0.00     0.150 A 
BRANCH  17  18
ATOM     18  C   UNL A   1      32.733  18.466  25.246  1.00  0.00     0.269 C 
ATOM     19  N   UNL A   1      32.657  18.051  26.548  1.00  0.00    -0.364 N 
ATOM     20  O   UNL A   1      32.521  17.692  24.318  1.00  0.00    -0.268 OA
ATOM     21  H   UNL A   1      32.831  18.687  27.279  1.00  0.00     0.160 HD
ATOM     22  H   UNL A   1      32.428  17.116  26.753  1.00  0.00     0.160 HD
ENDBRANCH  17  18
ENDBRANCH  10  12
ENDBRANCH   8  10
ENDBRANCH   5   8
ENDBRANCH   3   4
ENDBRANCH   2   3
ENDBRANCH   1   2
BRANCH   1  23
ATOM     23  C   UNL A   1      33.197  29.554  26.846  1.00  0.00     0.002 C 
BRANCH  23  24
ATOM     24  C   UNL A   1      34.572  28.996  27.223  1.00  0.00     0.021 C 
BRANCH  24  25
ATOM     25  C   UNL A   1      35.574  30.050  27.685  1.00  0.00     0.116 C 
BRANCH  25  26
ATOM     26  N   UNL A   1      35.530  30.240  29.125  1.00  0.00    -0.352 N 
ATOM     27  C   UNL A   1      36.463  29.918  30.079  1.00  0.00     0.251 C 
ATOM     28  H   UNL A   1      34.709  30.662  29.468  1.00  0.00     0.163 HD
ATOM     29  O   UNL A   1      36.151  29.944  31.265  1.00  0.00    -0.269 OA
BRANCH  27  30
ATOM     30  C   UNL A   1      37.833  29.528  29.677  1.00  0.00     0.039 A 
ATOM     31  C   UNL A   1      38.187  29.617  28.329  1.00  0.00     0.014 A 
ATOM     32  C   UNL A   1      38.756  29.053  30.613  1.00  0.00     0.014 A 
ATOM     33  C   UNL A   1      39.480  29.275  27.931  1.00  0.00     0.010 A 
ATOM     34  C   UNL A   1      40.068  28.789  30.226  1.00  0.00     0.010 A 
ATOM     35  C   UNL A   1      40.442  28.889  28.879  1.00  0.00    -0.014 A 
BRANCH  35  36
ATOM     36  C   UNL A   1      41.839  28.592  28.465  1.00  0.00     0.031 A 
ATOM     37  C   UNL A   1      42.240  27.197  28.065  1.00  0.00     0.074 A 
ATOM     38  C   UNL A   1      42.755  29.582  28.471  1.00  0.00     0.049 A 
ATOM     39  N   UNL A   1      43.409  26.757  27.674  1.00  0.00    -0.248 NA
ATOM     40  C   UNL A   1      41.200  26.155  28.130  1.00  0.00     0.031 C 
ATOM     41  C   UNL A   1      42.504  30.965  28.885  1.00  0.00     0.029 A 
ATOM     42  N   UNL A   1      44.081  29.579  28.116  1.00  0.00    -0.354 N 
ATOM     43  C   UNL A   1      43.245  25.396  27.441  1.00  0.00     0.074 A 
ATOM     44  C   UNL A   1      41.883  25.069  27.801  1.00  0.00     0.031 C 
ATOM     45  C   UNL A   1      43.628  31.683  28.730  1.00  0.00     0.029 A 
ATOM     46  C   UNL A   1      44.689  30.806  28.246  1.00  0.00     0.049 A 
ATOM     47  H   UNL A   1      44.553  28.775  27.800  1.00  0.00     0.167 HD
ATOM     48  C   UNL A   1      44.135  24.504  26.944  1.00  0.00     0.031 A 
ATOM     49  C   UNL A   1      45.960  31.185  28.008  1.00  0.00     0.031 A 
ATOM     50  C   UNL A   1      45.493  24.831  26.592  1.00  0.00     0.049 A 
ATOM     51  C   UNL A   1      46.938  30.170  27.480  1.00  0.00     0.074 A 
ATOM     52  C   UNL A   1      46.466  24.005  26.056  1.00  0.00     0.029 A 
ATOM     53  N   UNL A   1      46.070  26.084  26.736  1.00  0.00    -0.354 N 
ATOM     54  N   UNL A   1      46.743  28.900  27.210  1.00  0.00    -0.248 NA
ATOM     55  C   UNL A   1      48.302  30.642  27.207  1.00  0.00     0.031 C 
ATOM     56  C   UNL A   1      47.646  24.744  25.927  1.00  0.00     0.029 A 
ATOM     57  C   UNL A   1      47.390  26.049  26.317  1.00  0.00     0.049 A 
ATOM     58  H   UNL A   1      45.610  26.882  27.084  1.00  0.00     0.167 HD
ATOM     59  C   UNL A   1      47.954  28.431  26.711  1.00  0.00     0.074 A 
ATOM     60  C   UNL A   1      48.862  29.558  26.691  1.00  0.00     0.031 C 
ATOM     61  C   UNL A   1      48.284  27.178  26.308  1.00  0.00     0.031 A 
BRANCH  48  62
ATOM     62  C   UNL A   1      43.664  23.087  26.738  1.00  0.00    -0.014 A 
ATOM     63  C   UNL A   1      43.730  22.484  25.469  1.00  0.00     0.010 A 
ATOM     64  C   UNL A   1      43.206  22.329  27.831  1.00  0.00     0.010 A 
ATOM     65  C   UNL A   1      43.316  21.163  25.288  1.00  0.00     0.020 A 
ATOM     66  C   UNL A   1      42.818  20.996  27.661  1.00  0.00     0.020 A 
ATOM     67  C   UNL A   1      42.863  20.426  26.386  1.00  0.00     0.054 A 
BRANCH  67  68
ATOM     68  S   UNL A   1      42.368  18.700  26.127  1.00  0.00     0.124 S 
ATOM     69  O   UNL A   1      43.316  18.266  25.103  1.00  0.00    -0.237 OA
ATOM     70  O   UNL A   1      42.561  18.111  27.451  1.00  0.00    -0.237 OA
ATOM     71  O   UNL A   1      40.979  18.799  25.687  1.00  0.00    -0.744 OA
ENDBRANCH  67  68
ENDBRANCH  48  62
BRANCH  49  72
ATOM     72  C   UNL A   1      46.385  32.588  28.273  1.00  0.00    -0.014 A 
ATOM     73  C   UNL A   1      46.886  32.968  29.530  1.00  0.00     0.010 A 
ATOM     74  C   UNL A   1      46.272  33.560  27.262  1.00  0.00     0.010 A 
ATOM     75  C   UNL A   1      47.232  34.300  29.782  1.00  0.00     0.020 A 
ATOM     76  C   UNL A   1      46.650  34.885  27.499  1.00  0.00     0.020 A 
ATOM     77  C   UNL A   1      47.110  35.250  28.765  1.00  0.00     0.054 A 
BRANCH  77  78
ATOM     78  S   UNL A   1      47.584  36.968  29.105  1.00  0.00     0.124 S 
ATOM     79  O   UNL A   1      48.654  37.183  28.138  1.00  0.00    -0.237 OA
ATOM     80  O   UNL A   1      46.341  37.693  28.850  1.00  0.00    -0.237 OA
ATOM     81  O   UNL A   1      48.000  36.935  30.505  1.00  0.00    -0.744 OA
ENDBRANCH  77  78
ENDBRANCH  49  72
BRANCH  61  82
ATOM     82  C   UNL A   1      49.679  26.972  25.777  1.00  0.00    -0.014 A 
ATOM     83  C   UNL A   1      49.990  27.201  24.424  1.00  0.00     0.010 A 
ATOM     84  C   UNL A   1      50.704  26.571  26.655  1.00  0.00     0.010 A 
ATOM     85  C   UNL A   1      51.288  26.985  23.950  1.00  0.00     0.020 A 
ATOM     86  C   UNL A   1      52.009  26.387  26.192  1.00  0.00     0.020 A 
ATOM     87  C   UNL A   1      52.288  26.578  24.838  1.00  0.00     0.054 A 
BRANCH  87  88
ATOM     88  S   UNL A   1      53.967  26.325  24.201  1.00  0.00     0.124 S 
ATOM     89  O   UNL A   1      54.646  27.539  24.646  1.00  0.00    -0.237 OA
ATOM     90  O   UNL A   1      54.380  25.093  24.868  1.00  0.00    -0.237 OA
ATOM     91  O   UNL A   1      53.777  26.211  22.757  1.00  0.00    -0.744 OA
ENDBRANCH  87  88
ENDBRANCH  61  82
ENDBRANCH  35  36
ENDBRANCH  27  30
ENDBRANCH  25  26
ENDBRANCH  24  25
ENDBRANCH  23  24
ENDBRANCH   1  23
TORSDOF 19
ENDMDL
MODEL 2
REMARK VINA RESULT:     -10.4      2.208      8.804
REMARK SMILES C[C@@H](C(=O)NCCCCCCNC(=O)c1ccc(-c2c3nc(c(-c4ccc(S(=O)(=O)[O-])cc4)c4ccc([nH]4)c(-c4ccc(S(=O)(=O)[O-])cc4)c4nc(c(-c5ccc(S(=O)(=O)[O-])cc5)c5ccc2[nH]5)C=C4)C=C3)cc1)N(C)c1ccc(C(N)=O)nn1
REMARK SMILES IDX 8 1 7 2 6 3 5 4 3 5 4 6 2 8 1 9 75 10 76 11 77 12 78 13
REMARK SMILES IDX 85 14 79 15 84 16 80 17 81 18 82 19 83 20 9 23 10 24 11 25
REMARK SMILES IDX 12 26 13 27 14 29 15 30 16 31 74 32 17 33 73 34 18 35 19 36
REMARK SMILES IDX 20 37 67 38 21 39 72 40 66 41 68 42 22 43 71 44 65 45 64 46
REMARK SMILES IDX 23 48 53 49 34 50 52 51 35 52 38 53 51 54 69 55 36 56 37 57
REMARK SMILES IDX 50 59 70 60 39 61 24 62 25 63 33 64 26 65 32 66 27 67 28 68
REMARK SMILES IDX 29 69 30 70 31 71 54 72 55 73 63 74 56 75 62 76 57 77 58 78
REMARK SMILES IDX 59 79 60 80 61 81 40 82 41 83 49 84 42 85 48 86 43 87 44 88
REMARK SMILES IDX 45 89 46 90 47 91
REMARK H PARENT 5 7 82 21 82 22 12 28 68 47 38 58
REMARK Flexibility Score: inf
ROOT
ATOM      1  C   UNL A   1      38.475  23.448  26.174  1.00  0.00     0.002 C 
ENDROOT
BRANCH   1   2
ATOM      2  C   UNL A   1      37.364  22.681  25.443  1.00  0.00     0.021 C 
BRANCH   2   3
ATOM      3  C   UNL A   1      36.186  22.306  26.343  1.00  0.00     0.116 C 
BRANCH   3   4
ATOM      4  N   UNL A   1      35.476  21.166  25.799  1.00  0.00    -0.354 N 
ATOM      5  C   UNL A   1      34.178  21.049  25.386  1.00  0.00     0.242 C 
ATOM      6  O   UNL A   1      33.817  19.918  25.051  1.00  0.00    -0.273 OA
ATOM      7  H   UNL A   1      36.013  20.347  25.714  1.00  0.00     0.163 HD
BRANCH   5   8
ATOM      8  C   UNL A   1      33.272  22.312  25.278  1.00  0.00     0.169 C 
ATOM      9  C   UNL A   1      31.780  22.017  25.115  1.00  0.00     0.042 C 
BRANCH   8  10
ATOM     10  N   UNL A   1      33.751  23.277  24.248  1.00  0.00    -0.346 N 
ATOM     11  C   UNL A   1      33.623  22.851  22.855  1.00  0.00     0.146 C 
BRANCH  10  12
ATOM     12  C   UNL A   1      33.687  24.661  24.432  1.00  0.00     0.151 A 
ATOM     13  C   UNL A   1      33.100  25.510  23.498  1.00  0.00     0.051 A 
ATOM     14  N   UNL A   1      34.151  25.217  25.581  1.00  0.00    -0.132 NA
ATOM     15  C   UNL A   1      33.026  26.886  23.715  1.00  0.00     0.040 A 
ATOM     16  N   UNL A   1      34.105  26.583  25.814  1.00  0.00    -0.143 NA
ATOM     17  C   UNL A   1      33.552  27.388  24.884  1.00  0.00     0.150 A 
BRANCH  17  18
ATOM     18  C   UNL A   1      33.499  28.844  25.178  1.00  0.00     0.269 C 
ATOM     19  N   UNL A   1      34.423  29.320  26.069  1.00  0.00    -0.364 N 
ATOM     20  O   UNL A   1      32.675  29.590  24.658  1.00  0.00    -0.268 OA
ATOM     21  H   UNL A   1      35.076  28.706  26.476  1.00  0.00     0.160 HD
ATOM     22  H   UNL A   1      34.434  30.276  26.303  1.00  0.00     0.160 HD
ENDBRANCH  17  18
ENDBRANCH  10  12
ENDBRANCH   8  10
ENDBRANCH   5   8
ENDBRANCH   3   4
ENDBRANCH   2   3
ENDBRANCH   1   2
BRANCH   1  23
ATOM     23  C   UNL A   1      39.634  22.581  26.676  1.00  0.00     0.002 C 
BRANCH  23  24
ATOM     24  C   UNL A   1      39.700  21.180  26.061  1.00  0.00     0.021 C 
BRANCH  24  25
ATOM     25  C   UNL A   1      40.385  20.139  26.941  1.00  0.00     0.116 C 
BRANCH  25  26
ATOM     26  N   UNL A   1      41.367  19.367  26.197  1.00  0.00    -0.352 N 
ATOM     27  C   UNL A   1      42.537  19.777  25.608  1.00  0.00     0.251 C 
ATOM     28  H   UNL A   1      41.164  18.409  26.102  1.00  0.00     0.163 HD
ATOM     29  O   UNL A   1      43.118  19.028  24.828  1.00  0.00    -0.269 OA
BRANCH  27  30
ATOM     30  C   UNL A   1      43.087  21.119  25.900  1.00  0.00     0.039 A 
ATOM     31  C   UNL A   1      43.289  22.006  24.841  1.00  0.00     0.014 A 
ATOM     32  C   UNL A   1      43.428  21.495  27.203  1.00  0.00     0.014 A 
ATOM     33  C   UNL A   1      43.786  23.286  25.096  1.00  0.00     0.010 A 
ATOM     34  C   UNL A   1      43.848  22.797  27.465  1.00  0.00     0.010 A 
ATOM     35  C   UNL A   1      44.041  23.704  26.413  1.00  0.00    -0.014 A 
BRANCH  35  36
ATOM     36  C   UNL A   1      44.503  25.090  26.693  1.00  0.00     0.031 A 
ATOM     37  C   UNL A   1      43.537  26.136  27.182  1.00  0.00     0.074 A 
ATOM     38  C   UNL A   1      45.796  25.410  26.482  1.00  0.00     0.049 A 
ATOM     39  N   UNL A   1      43.764  27.391  27.478  1.00  0.00    -0.248 NA
ATOM     40  C   UNL A   1      42.131  25.728  27.342  1.00  0.00     0.031 C 
ATOM     41  C   UNL A   1      46.820  24.499  25.962  1.00  0.00     0.029 A 
ATOM     42  N   UNL A   1      46.472  26.588  26.681  1.00  0.00    -0.354 N 
ATOM     43  C   UNL A   1      42.537  27.918  27.864  1.00  0.00     0.074 A 
ATOM     44  C   UNL A   1      41.556  26.868  27.697  1.00  0.00     0.031 C 
ATOM     45  C   UNL A   1      47.998  25.142  25.915  1.00  0.00     0.029 A 
ATOM     46  C   UNL A   1      47.808  26.518  26.360  1.00  0.00     0.049 A 
ATOM     47  H   UNL A   1      46.042  27.405  27.020  1.00  0.00     0.167 HD
ATOM     48  C   UNL A   1      42.255  29.153  28.343  1.00  0.00     0.031 A 
ATOM     49  C   UNL A   1      48.773  27.457  26.411  1.00  0.00     0.031 A 
ATOM     50  C   UNL A   1      43.231  30.199  28.502  1.00  0.00     0.049 A 
ATOM     51  C   UNL A   1      48.428  28.831  26.923  1.00  0.00     0.074 A 
ATOM     52  C   UNL A   1      43.050  31.477  29.004  1.00  0.00     0.029 A 
ATOM     53  N   UNL A   1      44.573  30.089  28.168  1.00  0.00    -0.354 N 
ATOM     54  N   UNL A   1      47.271  29.289  27.340  1.00  0.00    -0.248 NA
ATOM     55  C   UNL A   1      49.524  29.808  26.989  1.00  0.00     0.031 C 
ATOM     56  C   UNL A   1      44.270  32.156  28.921  1.00  0.00     0.029 A 
ATOM     57  C   UNL A   1      45.227  31.281  28.434  1.00  0.00     0.049 A 
ATOM     58  H   UNL A   1      44.998  29.283  27.797  1.00  0.00     0.167 HD
ATOM     59  C   UNL A   1      47.508  30.600  27.741  1.00  0.00     0.074 A 
ATOM     60  C   UNL A   1      48.921  30.848  27.543  1.00  0.00     0.031 C 
ATOM     61  C   UNL A   1      46.633  31.516  28.228  1.00  0.00     0.031 A 
BRANCH  48  62
ATOM     62  C   UNL A   1      40.829  29.438  28.743  1.00  0.00    -0.014 A 
ATOM     63  C   UNL A   1      39.816  29.539  27.772  1.00  0.00     0.010 A 
ATOM     64  C   UNL A   1      40.486  29.549  30.103  1.00  0.00     0.010 A 
ATOM     65  C   UNL A   1      38.492  29.778  28.150  1.00  0.00     0.020 A 
ATOM     66  C   UNL A   1      39.157  29.759  30.487  1.00  0.00     0.020 A 
ATOM     67  C   UNL A   1      38.171  29.886  29.506  1.00  0.00     0.054 A 
BRANCH  67  68
ATOM     68  S   UNL A   1      36.437  30.158  29.966  1.00  0.00     0.124 S 
ATOM     69  O   UNL A   1      36.307  29.320  31.156  1.00  0.00    -0.237 OA
ATOM     70  O   UNL A   1      36.395  31.599  30.205  1.00  0.00    -0.237 OA
ATOM     71  O   UNL A   1      35.691  29.700  28.797  1.00  0.00    -0.744 OA
ENDBRANCH  67  68
ENDBRANCH  48  62
BRANCH  49  72
ATOM     72  C   UNL A   1      50.155  27.135  25.960  1.00  0.00    -0.014 A 
ATOM     73  C   UNL A   1      51.137  26.716  26.875  1.00  0.00     0.010 A 
ATOM     74  C   UNL A   1      50.500  27.263  24.602  1.00  0.00     0.010 A 
ATOM     75  C   UNL A   1      52.445  26.467  26.446  1.00  0.00     0.020 A 
ATOM     76  C   UNL A   1      51.796  26.980  24.163  1.00  0.00     0.020 A 
ATOM     77  C   UNL A   1      52.766  26.603  25.093  1.00  0.00     0.054 A 
BRANCH  77  78
ATOM     78  S   UNL A   1      54.463  26.254  24.553  1.00  0.00     0.124 S 
ATOM     79  O   UNL A   1      55.239  27.163  25.390  1.00  0.00    -0.237 OA
ATOM     80  O   UNL A   1      54.604  24.833  24.858  1.00  0.00    -0.237 OA
ATOM     81  O   UNL A   1      54.440  26.578  23.128  1.00  0.00    -0.744 OA
ENDBRANCH  77  78
ENDBRANCH  49  72
BRANCH  61  82
ATOM     82  C   UNL A   1      47.190  32.862  28.614  1.00  0.00    -0.014 A 
ATOM     83  C   UNL A   1      47.229  33.929  27.698  1.00  0.00     0.010 A 
ATOM     84  C   UNL A   1      47.654  33.070  29.926  1.00  0.00     0.010 A 
ATOM     85  C   UNL A   1      47.766  35.163  28.073  1.00  0.00     0.020 A 
ATOM     86  C   UNL A   1      48.160  34.313  30.315  1.00  0.00     0.020 A 
ATOM     87  C   UNL A   1      48.230  35.346  29.379  1.00  0.00     0.054 A 
BRANCH  87  88
ATOM     88  S   UNL A   1      48.904  36.965  29.846  1.00  0.00     0.124 S 
ATOM     89  O   UNL A   1      49.347  37.491  28.558  1.00  0.00    -0.237 OA
ATOM     90  O   UNL A   1      47.747  37.634  30.436  1.00  0.00    -0.237 OA
ATOM     91  O   UNL A   1      49.973  36.637  30.787  1.00  0.00    -0.744 OA
ENDBRANCH  87  88
ENDBRANCH  61  82
ENDBRANCH  35  36
ENDBRANCH  27  30
ENDBRANCH  25  26
ENDBRANCH  24  25
ENDBRANCH  23  24
ENDBRANCH   1  23
TORSDOF 19
ENDMDL
MODEL 3
REMARK VINA RESULT:     -10.2      1.850      8.523
REMARK SMILES C[C@@H](C(=O)NCCCCCCNC(=O)c1ccc(-c2c3nc(c(-c4ccc(S(=O)(=O)[O-])cc4)c4ccc([nH]4)c(-c4ccc(S(=O)(=O)[O-])cc4)c4nc(c(-c5ccc(S(=O)(=O)[O-])cc5)c5ccc2[nH]5)C=C4)C=C3)cc1)N(C)c1ccc(C(N)=O)nn1
REMARK SMILES IDX 8 1 7 2 6 3 5 4 3 5 4 6 2 8 1 9 75 10 76 11 77 12 78 13
REMARK SMILES IDX 85 14 79 15 84 16 80 17 81 18 82 19 83 20 9 23 10 24 11 25
REMARK SMILES IDX 12 26 13 27 14 29 15 30 16 31 74 32 17 33 73 34 18 35 19 36
REMARK SMILES IDX 20 37 67 38 21 39 72 40 66 41 68 42 22 43 71 44 65 45 64 46
REMARK SMILES IDX 23 48 53 49 34 50 52 51 35 52 38 53 51 54 69 55 36 56 37 57
REMARK SMILES IDX 50 59 70 60 39 61 24 62 25 63 33 64 26 65 32 66 27 67 28 68
REMARK SMILES IDX 29 69 30 70 31 71 54 72 55 73 63 74 56 75 62 76 57 77 58 78
REMARK SMILES IDX 59 79 60 80 61 81 40 82 41 83 49 84 42 85 48 86 43 87 44 88
REMARK SMILES IDX 45 89 46 90 47 91
REMARK H PARENT 5 7 82 21 82 22 12 28 68 47 38 58
REMARK Flexibility Score: inf
ROOT
ATOM      1  C   UNL A   1      34.406  29.321  26.790  1.00  0.00     0.002 C 
ENDROOT
BRANCH   1   2
ATOM      2  C   UNL A   1      32.992  29.918  26.810  1.00  0.00     0.021 C 
BRANCH   2   3
ATOM      3  C   UNL A   1      31.898  28.912  26.446  1.00  0.00     0.116 C 
BRANCH   3   4
ATOM      4  N   UNL A   1      31.270  29.280  25.192  1.00  0.00    -0.354 N 
ATOM      5  C   UNL A   1      31.705  29.121  23.907  1.00  0.00     0.242 C 
ATOM      6  O   UNL A   1      30.995  29.621  23.030  1.00  0.00    -0.273 OA
ATOM      7  H   UNL A   1      30.391  29.712  25.282  1.00  0.00     0.163 HD
BRANCH   5   8
ATOM      8  C   UNL A   1      32.981  28.278  23.608  1.00  0.00     0.169 C 
ATOM      9  C   UNL A   1      33.986  28.948  22.670  1.00  0.00     0.042 C 
BRANCH   8  10
ATOM     10  N   UNL A   1      32.663  26.891  23.164  1.00  0.00    -0.346 N 
ATOM     11  C   UNL A   1      33.549  26.319  22.152  1.00  0.00     0.146 C 
BRANCH  10  12
ATOM     12  C   UNL A   1      32.080  25.948  24.014  1.00  0.00     0.151 A 
ATOM     13  C   UNL A   1      32.821  24.945  24.633  1.00  0.00     0.051 A 
ATOM     14  N   UNL A   1      30.757  26.026  24.314  1.00  0.00    -0.132 NA
ATOM     15  C   UNL A   1      32.220  24.029  25.498  1.00  0.00     0.040 A 
ATOM     16  N   UNL A   1      30.133  25.119  25.156  1.00  0.00    -0.143 NA
ATOM     17  C   UNL A   1      30.867  24.142  25.726  1.00  0.00     0.150 A 
BRANCH  17  18
ATOM     18  C   UNL A   1      30.169  23.201  26.642  1.00  0.00     0.269 C 
ATOM     19  N   UNL A   1      30.350  21.867  26.399  1.00  0.00    -0.364 N 
ATOM     20  O   UNL A   1      29.464  23.589  27.569  1.00  0.00    -0.268 OA
ATOM     21  H   UNL A   1      30.920  21.576  25.650  1.00  0.00     0.160 HD
ATOM     22  H   UNL A   1      29.912  21.199  26.972  1.00  0.00     0.160 HD
ENDBRANCH  17  18
ENDBRANCH  10  12
ENDBRANCH   8  10
ENDBRANCH   5   8
ENDBRANCH   3   4
ENDBRANCH   2   3
ENDBRANCH   1   2
BRANCH   1  23
ATOM     23  C   UNL A   1      35.326  29.808  27.914  1.00  0.00     0.002 C 
BRANCH  23  24
ATOM     24  C   UNL A   1      34.845  31.069  28.636  1.00  0.00     0.021 C 
BRANCH  24  25
ATOM     25  C   UNL A   1      35.963  31.915  29.238  1.00  0.00     0.116 C 
BRANCH  25  26
ATOM     26  N   UNL A   1      36.006  31.801  30.686  1.00  0.00    -0.352 N 
ATOM     27  C   UNL A   1      36.904  31.139  31.485  1.00  0.00     0.251 C 
ATOM     28  H   UNL A   1      35.284  32.269  31.165  1.00  0.00     0.163 HD
ATOM     29  O   UNL A   1      36.646  30.964  32.671  1.00  0.00    -0.269 OA
BRANCH  27  30
ATOM     30  C   UNL A   1      38.170  30.627  30.915  1.00  0.00     0.039 A 
ATOM     31  C   UNL A   1      38.423  30.827  29.556  1.00  0.00     0.014 A 
ATOM     32  C   UNL A   1      39.091  29.932  31.703  1.00  0.00     0.014 A 
ATOM     33  C   UNL A   1      39.620  30.372  29.002  1.00  0.00     0.010 A 
ATOM     34  C   UNL A   1      40.319  29.549  31.167  1.00  0.00     0.010 A 
ATOM     35  C   UNL A   1      40.593  29.757  29.808  1.00  0.00    -0.014 A 
BRANCH  35  36
ATOM     36  C   UNL A   1      41.898  29.335  29.232  1.00  0.00     0.031 A 
ATOM     37  C   UNL A   1      43.030  30.319  29.098  1.00  0.00     0.074 A 
ATOM     38  C   UNL A   1      42.054  28.064  28.809  1.00  0.00     0.049 A 
ATOM     39  N   UNL A   1      44.235  30.127  28.624  1.00  0.00    -0.248 NA
ATOM     40  C   UNL A   1      42.772  31.702  29.536  1.00  0.00     0.031 C 
ATOM     41  C   UNL A   1      41.018  27.029  28.839  1.00  0.00     0.029 A 
ATOM     42  N   UNL A   1      43.144  27.425  28.273  1.00  0.00    -0.354 N 
ATOM     43  C   UNL A   1      44.878  31.357  28.711  1.00  0.00     0.074 A 
ATOM     44  C   UNL A   1      43.909  32.304  29.217  1.00  0.00     0.031 C 
ATOM     45  C   UNL A   1      41.531  25.878  28.374  1.00  0.00     0.029 A 
ATOM     46  C   UNL A   1      42.916  26.102  27.975  1.00  0.00     0.049 A 
ATOM     47  H   UNL A   1      44.007  27.872  28.115  1.00  0.00     0.167 HD
ATOM     48  C   UNL A   1      46.166  31.666  28.425  1.00  0.00     0.031 A 
ATOM     49  C   UNL A   1      43.728  25.171  27.437  1.00  0.00     0.031 A 
ATOM     50  C   UNL A   1      47.127  30.723  27.914  1.00  0.00     0.049 A 
ATOM     51  C   UNL A   1      45.148  25.545  27.104  1.00  0.00     0.074 A 
ATOM     52  C   UNL A   1      48.463  30.931  27.617  1.00  0.00     0.029 A 
ATOM     53  N   UNL A   1      46.858  29.392  27.629  1.00  0.00    -0.354 N 
ATOM     54  N   UNL A   1      45.752  26.701  27.251  1.00  0.00    -0.248 NA
ATOM     55  C   UNL A   1      46.000  24.485  26.549  1.00  0.00     0.031 C 
ATOM     56  C   UNL A   1      48.987  29.741  27.101  1.00  0.00     0.029 A 
ATOM     57  C   UNL A   1      47.997  28.773  27.141  1.00  0.00     0.049 A 
ATOM     58  H   UNL A   1      45.986  28.952  27.754  1.00  0.00     0.167 HD
ATOM     59  C   UNL A   1      47.062  26.497  26.831  1.00  0.00     0.074 A 
ATOM     60  C   UNL A   1      47.168  25.104  26.452  1.00  0.00     0.031 C 
ATOM     61  C   UNL A   1      48.086  27.385  26.763  1.00  0.00     0.031 A 
BRANCH  48  62
ATOM     62  C   UNL A   1      46.615  33.084  28.670  1.00  0.00    -0.014 A 
ATOM     63  C   UNL A   1      47.176  33.457  29.905  1.00  0.00     0.010 A 
ATOM     64  C   UNL A   1      46.532  34.039  27.641  1.00  0.00     0.010 A 
ATOM     65  C   UNL A   1      47.614  34.766  30.119  1.00  0.00     0.020 A 
ATOM     66  C   UNL A   1      46.997  35.343  27.841  1.00  0.00     0.020 A 
ATOM     67  C   UNL A   1      47.523  35.701  29.085  1.00  0.00     0.054 A 
BRANCH  67  68
ATOM     68  S   UNL A   1      48.136  37.383  29.381  1.00  0.00     0.124 S 
ATOM     69  O   UNL A   1      49.549  37.253  29.035  1.00  0.00    -0.237 OA
ATOM     70  O   UNL A   1      47.334  38.181  28.456  1.00  0.00    -0.237 OA
ATOM     71  O   UNL A   1      47.859  37.610  30.797  1.00  0.00    -0.744 OA
ENDBRANCH  67  68
ENDBRANCH  48  62
BRANCH  49  72
ATOM     72  C   UNL A   1      43.219  23.796  27.172  1.00  0.00    -0.014 A 
ATOM     73  C   UNL A   1      43.118  22.849  28.206  1.00  0.00     0.010 A 
ATOM     74  C   UNL A   1      42.844  23.424  25.868  1.00  0.00     0.010 A 
ATOM     75  C   UNL A   1      42.687  21.546  27.935  1.00  0.00     0.020 A 
ATOM     76  C   UNL A   1      42.379  22.134  25.599  1.00  0.00     0.020 A 
ATOM     77  C   UNL A   1      42.323  21.197  26.632  1.00  0.00     0.054 A 
BRANCH  77  78
ATOM     78  S   UNL A   1      41.746  19.508  26.303  1.00  0.00     0.124 S 
ATOM     79  O   UNL A   1      42.180  18.802  27.504  1.00  0.00    -0.237 OA
ATOM     80  O   UNL A   1      40.304  19.691  26.159  1.00  0.00    -0.237 OA
ATOM     81  O   UNL A   1      42.445  19.143  25.073  1.00  0.00    -0.744 OA
ENDBRANCH  77  78
ENDBRANCH  49  72
BRANCH  61  82
ATOM     82  C   UNL A   1      49.419  26.864  26.293  1.00  0.00    -0.014 A 
ATOM     83  C   UNL A   1      49.886  27.113  24.989  1.00  0.00     0.010 A 
ATOM     84  C   UNL A   1      50.234  26.139  27.183  1.00  0.00     0.010 A 
ATOM     85  C   UNL A   1      51.118  26.603  24.570  1.00  0.00     0.020 A 
ATOM     86  C   UNL A   1      51.482  25.658  26.778  1.00  0.00     0.020 A 
ATOM     87  C   UNL A   1      51.907  25.878  25.467  1.00  0.00     0.054 A 
BRANCH  87  88
ATOM     88  S   UNL A   1      53.511  25.246  24.904  1.00  0.00     0.124 S 
ATOM     89  O   UNL A   1      53.398  25.383  23.454  1.00  0.00    -0.237 OA
ATOM     90  O   UNL A   1      54.456  26.153  25.550  1.00  0.00    -0.237 OA
ATOM     91  O   UNL A   1      53.536  23.872  25.399  1.00  0.00    -0.744 OA
ENDBRANCH  87  88
ENDBRANCH  61  82
ENDBRANCH  35  36
ENDBRANCH  27  30
ENDBRANCH  25  26
ENDBRANCH  24  25
ENDBRANCH  23  24
ENDBRANCH   1  23
TORSDOF 19
ENDMDL
