MODEL 1
REMARK VINA RESULT:     -12.3      0.000      0.000
REMARK SMILES Cc1nc[nH]c1C(=O)N1CCC2(CC1)C[C@@H](C(=O)NCCCCCCNC(=O)c1ccc(-c3c4nc(c(-c5ccc(S(=O)(=O)[O-])cc5)c5ccc([nH]5)c(-c5ccc(S(=O)(=O)[O-])cc5)c5nc(c(-c6ccc(S(=O)(=O)[O-])cc6)c6ccc3[nH]6)C=C5)C=C4)cc1)N(C(=O)C1CC1)C2
REMARK SMILES IDX 23 1 22 2 21 3 20 4 19 5 17 6 18 7 16 9 7 10 8 11 9 12 10 13
REMARK SMILES IDX 14 14 11 15 13 16 12 17 15 18 95 19 89 20 6 21 1 22 2 23
REMARK SMILES IDX 3 24 4 25 5 26 90 28 91 29 92 30 93 31 94 32 24 33 25 34
REMARK SMILES IDX 26 35 27 36 28 38 29 39 30 40 88 41 31 42 87 43 32 44 33 45
REMARK SMILES IDX 34 46 81 47 35 48 86 49 80 50 82 51 36 52 85 53 79 54 78 55
REMARK SMILES IDX 37 57 67 58 48 59 66 60 49 61 52 62 65 63 83 64 50 65 51 66
REMARK SMILES IDX 64 68 84 69 53 70 38 71 39 72 47 73 40 74 46 75 41 76 42 77
REMARK SMILES IDX 43 78 44 79 45 80 68 81 69 82 77 83 70 84 76 85 71 86 72 87
REMARK SMILES IDX 73 88 74 89 75 90 54 91 55 92 63 93 56 94 62 95 57 96 58 97
REMARK SMILES IDX 59 98 60 99 61 100
REMARK H PARENT 19 8 5 27 26 37 82 56 52 67
REMARK Flexibility Score: inf
ROOT
ATOM      1  C   UNL A   1      38.642  23.487  26.582  1.00  0.00     0.002 C 
ENDROOT
BRANCH   1   2
ATOM      2  C   UNL A   1      37.722  22.930  25.484  1.00  0.00     0.002 C 
BRANCH   2   3
ATOM      3  C   UNL A   1      37.871  21.440  25.174  1.00  0.00     0.021 C 
BRANCH   3   4
ATOM      4  C   UNL A   1      36.572  20.655  25.253  1.00  0.00     0.116 C 
BRANCH   4   5
ATOM      5  N   UNL A   1      35.581  21.117  26.185  1.00  0.00    -0.354 N 
ATOM      6  C   UNL A   1      34.386  21.725  25.898  1.00  0.00     0.242 C 
ATOM      7  O   UNL A   1      33.461  21.505  26.690  1.00  0.00    -0.273 OA
ATOM      8  H   UNL A   1      35.784  20.979  27.138  1.00  0.00     0.163 HD
BRANCH   6   9
ATOM      9  C   UNL A   1      34.113  22.519  24.579  1.00  0.00     0.175 C 
ATOM     10  C   UNL A   1      31.274  28.683  24.578  1.00  0.00     0.272 C 
ATOM     11  O   UNL A   1      30.490  29.065  23.712  1.00  0.00    -0.267 OA
ATOM     12  N   UNL A   1      31.746  27.378  24.570  1.00  0.00    -0.337 N 
ATOM     13  C   UNL A   1      31.920  26.711  23.292  1.00  0.00     0.120 C 
ATOM     14  C   UNL A   1      31.634  26.505  25.724  1.00  0.00     0.120 C 
ATOM     15  C   UNL A   1      33.192  25.851  23.338  1.00  0.00     0.030 C 
ATOM     16  C   UNL A   1      32.823  25.557  25.788  1.00  0.00     0.030 C 
ATOM     17  C   UNL A   1      33.112  24.790  24.469  1.00  0.00    -0.006 C 
ATOM     18  C   UNL A   1      34.443  24.010  24.632  1.00  0.00     0.044 C 
ATOM     19  C   UNL A   1      32.078  23.718  24.048  1.00  0.00     0.127 C 
ATOM     20  N   UNL A   1      32.761  22.436  24.041  1.00  0.00    -0.330 N 
BRANCH  10  21
ATOM     21  C   UNL A   1      31.808  29.604  25.557  1.00  0.00     0.127 A 
ATOM     22  C   UNL A   1      34.221  28.878  26.257  1.00  0.00     0.069 C 
ATOM     23  C   UNL A   1      33.011  29.724  26.244  1.00  0.00     0.068 A 
ATOM     24  N   UNL A   1      33.047  30.894  26.970  1.00  0.00    -0.241 NA
ATOM     25  C   UNL A   1      31.918  31.506  26.714  1.00  0.00     0.197 A 
ATOM     26  N   UNL A   1      31.133  30.764  25.887  1.00  0.00    -0.340 N 
ATOM     27  H   UNL A   1      30.233  31.012  25.575  1.00  0.00     0.168 HD
ENDBRANCH  10  21
BRANCH  20  28
ATOM     28  C   UNL A   1      32.403  21.260  23.394  1.00  0.00     0.226 C 
ATOM     29  O   UNL A   1      32.143  21.256  22.195  1.00  0.00    -0.275 OA
BRANCH  28  30
ATOM     30  C   UNL A   1      32.340  19.940  24.080  1.00  0.00     0.079 C 
ATOM     31  C   UNL A   1      32.180  18.561  23.513  1.00  0.00     0.014 C 
ATOM     32  C   UNL A   1      33.515  18.991  24.056  1.00  0.00     0.014 C 
ENDBRANCH  28  30
ENDBRANCH  20  28
ENDBRANCH   6   9
ENDBRANCH   4   5
ENDBRANCH   3   4
ENDBRANCH   2   3
ENDBRANCH   1   2
BRANCH   1  33
ATOM     33  C   UNL A   1      39.897  22.667  26.899  1.00  0.00     0.021 C 
BRANCH  33  34
ATOM     34  C   UNL A   1      41.145  23.484  27.226  1.00  0.00     0.116 C 
BRANCH  34  35
ATOM     35  N   UNL A   1      41.611  24.258  26.087  1.00  0.00    -0.352 N 
ATOM     36  C   UNL A   1      41.651  25.617  25.898  1.00  0.00     0.251 C 
ATOM     37  H   UNL A   1      41.952  23.724  25.334  1.00  0.00     0.163 HD
ATOM     38  O   UNL A   1      41.900  26.068  24.783  1.00  0.00    -0.269 OA
BRANCH  36  39
ATOM     39  C   UNL A   1      41.386  26.533  27.027  1.00  0.00     0.039 A 
ATOM     40  C   UNL A   1      40.421  26.179  27.974  1.00  0.00     0.014 A 
ATOM     41  C   UNL A   1      42.066  27.749  27.138  1.00  0.00     0.014 A 
ATOM     42  C   UNL A   1      40.179  27.020  29.062  1.00  0.00     0.010 A 
ATOM     43  C   UNL A   1      41.879  28.547  28.263  1.00  0.00     0.010 A 
ATOM     44  C   UNL A   1      40.930  28.195  29.233  1.00  0.00    -0.014 A 
BRANCH  44  45
ATOM     45  C   UNL A   1      40.733  29.071  30.416  1.00  0.00     0.031 A 
ATOM     46  C   UNL A   1      41.605  28.912  31.631  1.00  0.00     0.074 A 
ATOM     47  C   UNL A   1      39.730  29.972  30.415  1.00  0.00     0.049 A 
ATOM     48  N   UNL A   1      41.557  29.554  32.772  1.00  0.00    -0.248 NA
ATOM     49  C   UNL A   1      42.652  27.880  31.566  1.00  0.00     0.031 C 
ATOM     50  C   UNL A   1      38.801  30.204  29.307  1.00  0.00     0.029 A 
ATOM     51  N   UNL A   1      39.328  30.863  31.378  1.00  0.00    -0.354 N 
ATOM     52  C   UNL A   1      42.556  28.996  33.561  1.00  0.00     0.074 A 
ATOM     53  C   UNL A   1      43.151  27.924  32.793  1.00  0.00     0.031 C 
ATOM     54  C   UNL A   1      37.966  31.202  29.638  1.00  0.00     0.029 A 
ATOM     55  C   UNL A   1      38.266  31.646  30.995  1.00  0.00     0.049 A 
ATOM     56  H   UNL A   1      39.760  30.933  32.261  1.00  0.00     0.167 HD
ATOM     57  C   UNL A   1      42.959  29.357  34.803  1.00  0.00     0.031 A 
ATOM     58  C   UNL A   1      37.607  32.615  31.661  1.00  0.00     0.031 A 
ATOM     59  C   UNL A   1      42.358  30.420  35.567  1.00  0.00     0.049 A 
ATOM     60  C   UNL A   1      38.040  32.966  33.057  1.00  0.00     0.074 A 
ATOM     61  C   UNL A   1      42.715  30.891  36.817  1.00  0.00     0.029 A 
ATOM     62  N   UNL A   1      41.268  31.171  35.152  1.00  0.00    -0.354 N 
ATOM     63  N   UNL A   1      39.025  32.468  33.766  1.00  0.00    -0.248 NA
ATOM     64  C   UNL A   1      37.275  34.019  33.740  1.00  0.00     0.031 C 
ATOM     65  C   UNL A   1      41.803  31.887  37.185  1.00  0.00     0.029 A 
ATOM     66  C   UNL A   1      40.919  32.083  36.135  1.00  0.00     0.049 A 
ATOM     67  H   UNL A   1      40.809  31.072  34.287  1.00  0.00     0.167 HD
ATOM     68  C   UNL A   1      39.019  33.169  34.967  1.00  0.00     0.074 A 
ATOM     69  C   UNL A   1      37.940  34.133  34.882  1.00  0.00     0.031 C 
ATOM     70  C   UNL A   1      39.837  33.033  36.040  1.00  0.00     0.031 A 
BRANCH  57  71
ATOM     71  C   UNL A   1      44.094  28.574  35.415  1.00  0.00    -0.014 A 
ATOM     72  C   UNL A   1      43.853  27.431  36.199  1.00  0.00     0.010 A 
ATOM     73  C   UNL A   1      45.424  28.985  35.203  1.00  0.00     0.010 A 
ATOM     74  C   UNL A   1      44.909  26.757  36.817  1.00  0.00     0.020 A 
ATOM     75  C   UNL A   1      46.487  28.292  35.790  1.00  0.00     0.020 A 
ATOM     76  C   UNL A   1      46.220  27.198  36.615  1.00  0.00     0.054 A 
BRANCH  76  77
ATOM     77  S   UNL A   1      47.571  26.318  37.446  1.00  0.00     0.124 S 
ATOM     78  O   UNL A   1      48.746  27.001  36.910  1.00  0.00    -0.237 OA
ATOM     79  O   UNL A   1      47.292  26.563  38.858  1.00  0.00    -0.237 OA
ATOM     80  O   UNL A   1      47.403  24.934  37.010  1.00  0.00    -0.744 OA
ENDBRANCH  76  77
ENDBRANCH  57  71
BRANCH  58  81
ATOM     81  C   UNL A   1      36.491  33.342  30.999  1.00  0.00    -0.014 A 
ATOM     82  C   UNL A   1      35.250  33.477  31.647  1.00  0.00     0.010 A 
ATOM     83  C   UNL A   1      36.666  33.924  29.731  1.00  0.00     0.010 A 
ATOM     84  C   UNL A   1      34.202  34.169  31.035  1.00  0.00     0.020 A 
ATOM     85  C   UNL A   1      35.631  34.642  29.127  1.00  0.00     0.020 A 
ATOM     86  C   UNL A   1      34.401  34.753  29.781  1.00  0.00     0.054 A 
BRANCH  86  87
ATOM     87  S   UNL A   1      33.046  35.698  29.031  1.00  0.00     0.124 S 
ATOM     88  O   UNL A   1      32.401  34.692  28.195  1.00  0.00    -0.237 OA
ATOM     89  O   UNL A   1      32.287  36.137  30.199  1.00  0.00    -0.237 OA
ATOM     90  O   UNL A   1      33.738  36.765  28.309  1.00  0.00    -0.744 OA
ENDBRANCH  86  87
ENDBRANCH  58  81
BRANCH  70  91
ATOM     91  C   UNL A   1      39.623  33.971  37.199  1.00  0.00    -0.014 A 
ATOM     92  C   UNL A   1      38.890  33.579  38.333  1.00  0.00     0.010 A 
ATOM     93  C   UNL A   1      40.210  35.249  37.171  1.00  0.00     0.010 A 
ATOM     94  C   UNL A   1      38.721  34.462  39.404  1.00  0.00     0.020 A 
ATOM     95  C   UNL A   1      40.070  36.123  38.252  1.00  0.00     0.020 A 
ATOM     96  C   UNL A   1      39.314  35.727  39.357  1.00  0.00     0.054 A 
BRANCH  96  97
ATOM     97  S   UNL A   1      39.118  36.834  40.780  1.00  0.00     0.124 S 
ATOM     98  O   UNL A   1      38.330  37.925  40.211  1.00  0.00    -0.237 OA
ATOM     99  O   UNL A   1      38.419  35.991  41.746  1.00  0.00    -0.237 OA
ATOM    100  O   UNL A   1      40.491  37.181  41.141  1.00  0.00    -0.744 OA
ENDBRANCH  96  97
ENDBRANCH  70  91
ENDBRANCH  44  45
ENDBRANCH  36  39
ENDBRANCH  34  35
ENDBRANCH  33  34
ENDBRANCH   1  33
TORSDOF 19
ENDMDL
MODEL 2
REMARK VINA RESULT:     -12.0      5.936     10.562
REMARK SMILES Cc1nc[nH]c1C(=O)N1CCC2(CC1)C[C@@H](C(=O)NCCCCCCNC(=O)c1ccc(-c3c4nc(c(-c5ccc(S(=O)(=O)[O-])cc5)c5ccc([nH]5)c(-c5ccc(S(=O)(=O)[O-])cc5)c5nc(c(-c6ccc(S(=O)(=O)[O-])cc6)c6ccc3[nH]6)C=C5)C=C4)cc1)N(C(=O)C1CC1)C2
REMARK SMILES IDX 23 1 22 2 21 3 20 4 19 5 17 6 18 7 16 9 7 10 8 11 9 12 10 13
REMARK SMILES IDX 14 14 11 15 13 16 12 17 15 18 95 19 89 20 6 21 1 22 2 23
REMARK SMILES IDX 3 24 4 25 5 26 90 28 91 29 92 30 93 31 94 32 24 33 25 34
REMARK SMILES IDX 26 35 27 36 28 38 29 39 30 40 88 41 31 42 87 43 32 44 33 45
REMARK SMILES IDX 34 46 81 47 35 48 86 49 80 50 82 51 36 52 85 53 79 54 78 55
REMARK SMILES IDX 37 57 67 58 48 59 66 60 49 61 52 62 65 63 83 64 50 65 51 66
REMARK SMILES IDX 64 68 84 69 53 70 38 71 39 72 47 73 40 74 46 75 41 76 42 77
REMARK SMILES IDX 43 78 44 79 45 80 68 81 69 82 77 83 70 84 76 85 71 86 72 87
REMARK SMILES IDX 73 88 74 89 75 90 54 91 55 92 63 93 56 94 62 95 57 96 58 97
REMARK SMILES IDX 59 98 60 99 61 100
REMARK H PARENT 19 8 5 27 26 37 82 56 52 67
REMARK Flexibility Score: inf
ROOT
ATOM      1  C   UNL A   1      39.230  22.945  26.258  1.00  0.00     0.002 C 
ENDROOT
BRANCH   1   2
ATOM      2  C   UNL A   1      37.968  23.089  25.391  1.00  0.00     0.002 C 
BRANCH   2   3
ATOM      3  C   UNL A   1      36.754  23.721  26.072  1.00  0.00     0.021 C 
BRANCH   3   4
ATOM      4  C   UNL A   1      35.601  22.759  26.307  1.00  0.00     0.116 C 
BRANCH   4   5
ATOM      5  N   UNL A   1      35.884  21.356  26.194  1.00  0.00    -0.354 N 
ATOM      6  C   UNL A   1      35.480  20.501  25.201  1.00  0.00     0.242 C 
ATOM      7  O   UNL A   1      36.253  19.571  24.935  1.00  0.00    -0.273 OA
ATOM      8  H   UNL A   1      36.432  20.963  26.911  1.00  0.00     0.163 HD
BRANCH   6   9
ATOM      9  C   UNL A   1      34.212  20.739  24.316  1.00  0.00     0.175 C 
ATOM     10  C   UNL A   1      30.388  26.316  24.880  1.00  0.00     0.272 C 
ATOM     11  O   UNL A   1      29.165  26.312  24.755  1.00  0.00    -0.267 OA
ATOM     12  N   UNL A   1      31.100  25.126  24.845  1.00  0.00    -0.337 N 
ATOM     13  C   UNL A   1      30.605  24.045  24.012  1.00  0.00     0.120 C 
ATOM     14  C   UNL A   1      32.011  24.735  25.906  1.00  0.00     0.120 C 
ATOM     15  C   UNL A   1      31.791  23.327  23.352  1.00  0.00     0.030 C 
ATOM     16  C   UNL A   1      33.176  23.939  25.336  1.00  0.00     0.030 C 
ATOM     17  C   UNL A   1      32.766  22.756  24.418  1.00  0.00    -0.006 C 
ATOM     18  C   UNL A   1      34.047  22.159  23.778  1.00  0.00     0.044 C 
ATOM     19  C   UNL A   1      32.073  21.553  25.103  1.00  0.00     0.127 C 
ATOM     20  N   UNL A   1      32.929  20.395  24.917  1.00  0.00    -0.330 N 
BRANCH  10  21
ATOM     21  C   UNL A   1      31.124  27.559  24.957  1.00  0.00     0.127 A 
ATOM     22  C   UNL A   1      31.512  28.224  27.456  1.00  0.00     0.069 C 
ATOM     23  C   UNL A   1      31.617  28.351  25.988  1.00  0.00     0.068 A 
ATOM     24  N   UNL A   1      32.385  29.380  25.493  1.00  0.00    -0.241 NA
ATOM     25  C   UNL A   1      32.406  29.214  24.194  1.00  0.00     0.197 A 
ATOM     26  N   UNL A   1      31.650  28.147  23.822  1.00  0.00    -0.340 N 
ATOM     27  H   UNL A   1      31.501  27.844  22.898  1.00  0.00     0.168 HD
ENDBRANCH  10  21
BRANCH  20  28
ATOM     28  C   UNL A   1      32.605  19.047  25.000  1.00  0.00     0.226 C 
ATOM     29  O   UNL A   1      32.586  18.471  26.083  1.00  0.00    -0.275 OA
BRANCH  28  30
ATOM     30  C   UNL A   1      32.231  18.224  23.817  1.00  0.00     0.079 C 
ATOM     31  C   UNL A   1      32.423  18.488  22.354  1.00  0.00     0.014 C 
ATOM     32  C   UNL A   1      33.273  17.454  23.041  1.00  0.00     0.014 C 
ENDBRANCH  28  30
ENDBRANCH  20  28
ENDBRANCH   6   9
ENDBRANCH   4   5
ENDBRANCH   3   4
ENDBRANCH   2   3
ENDBRANCH   1   2
BRANCH   1  33
ATOM     33  C   UNL A   1      39.530  21.542  26.795  1.00  0.00     0.021 C 
BRANCH  33  34
ATOM     34  C   UNL A   1      39.560  20.434  25.744  1.00  0.00     0.116 C 
BRANCH  34  35
ATOM     35  N   UNL A   1      40.535  19.402  26.058  1.00  0.00    -0.352 N 
ATOM     36  C   UNL A   1      41.879  19.504  26.317  1.00  0.00     0.251 C 
ATOM     37  H   UNL A   1      40.174  18.487  26.090  1.00  0.00     0.163 HD
ATOM     38  O   UNL A   1      42.566  18.488  26.366  1.00  0.00    -0.269 OA
BRANCH  36  39
ATOM     39  C   UNL A   1      42.498  20.830  26.526  1.00  0.00     0.039 A 
ATOM     40  C   UNL A   1      42.908  21.567  25.412  1.00  0.00     0.014 A 
ATOM     41  C   UNL A   1      42.698  21.334  27.813  1.00  0.00     0.014 A 
ATOM     42  C   UNL A   1      43.469  22.834  25.590  1.00  0.00     0.010 A 
ATOM     43  C   UNL A   1      43.184  22.626  27.985  1.00  0.00     0.010 A 
ATOM     44  C   UNL A   1      43.581  23.388  26.876  1.00  0.00    -0.014 A 
BRANCH  44  45
ATOM     45  C   UNL A   1      44.115  24.757  27.083  1.00  0.00     0.031 A 
ATOM     46  C   UNL A   1      43.195  25.879  27.481  1.00  0.00     0.074 A 
ATOM     47  C   UNL A   1      45.422  25.002  26.856  1.00  0.00     0.049 A 
ATOM     48  N   UNL A   1      43.469  27.146  27.665  1.00  0.00    -0.248 NA
ATOM     49  C   UNL A   1      41.776  25.537  27.672  1.00  0.00     0.031 C 
ATOM     50  C   UNL A   1      46.411  24.004  26.442  1.00  0.00     0.029 A 
ATOM     51  N   UNL A   1      46.142  26.167  26.945  1.00  0.00    -0.354 N 
ATOM     52  C   UNL A   1      42.258  27.752  27.982  1.00  0.00     0.074 A 
ATOM     53  C   UNL A   1      41.240  26.726  27.903  1.00  0.00     0.031 C 
ATOM     54  C   UNL A   1      47.615  24.591  26.355  1.00  0.00     0.029 A 
ATOM     55  C   UNL A   1      47.476  26.012  26.657  1.00  0.00     0.049 A 
ATOM     56  H   UNL A   1      45.739  27.031  27.191  1.00  0.00     0.167 HD
ATOM     57  C   UNL A   1      42.017  29.039  28.330  1.00  0.00     0.031 A 
ATOM     58  C   UNL A   1      48.478  26.913  26.639  1.00  0.00     0.031 A 
ATOM     59  C   UNL A   1      43.032  30.057  28.400  1.00  0.00     0.049 A 
ATOM     60  C   UNL A   1      48.179  28.346  26.982  1.00  0.00     0.074 A 
ATOM     61  C   UNL A   1      42.901  31.380  28.779  1.00  0.00     0.029 A 
ATOM     62  N   UNL A   1      44.368  29.865  28.076  1.00  0.00    -0.354 N 
ATOM     63  N   UNL A   1      47.039  28.890  27.335  1.00  0.00    -0.248 NA
ATOM     64  C   UNL A   1      49.307  29.287  26.930  1.00  0.00     0.031 C 
ATOM     65  C   UNL A   1      44.144  32.004  28.626  1.00  0.00     0.029 A 
ATOM     66  C   UNL A   1      45.065  31.053  28.216  1.00  0.00     0.049 A 
ATOM     67  H   UNL A   1      44.762  29.010  27.788  1.00  0.00     0.167 HD
ATOM     68  C   UNL A   1      47.318  30.229  27.580  1.00  0.00     0.074 A 
ATOM     69  C   UNL A   1      48.737  30.409  27.345  1.00  0.00     0.031 C 
ATOM     70  C   UNL A   1      46.477  31.220  27.972  1.00  0.00     0.031 A 
BRANCH  57  71
ATOM     71  C   UNL A   1      40.589  29.412  28.641  1.00  0.00    -0.014 A 
ATOM     72  C   UNL A   1      39.605  29.432  27.635  1.00  0.00     0.010 A 
ATOM     73  C   UNL A   1      40.223  29.749  29.958  1.00  0.00     0.010 A 
ATOM     74  C   UNL A   1      38.302  29.849  27.924  1.00  0.00     0.020 A 
ATOM     75  C   UNL A   1      38.912  30.132  30.258  1.00  0.00     0.020 A 
ATOM     76  C   UNL A   1      37.967  30.205  29.233  1.00  0.00     0.054 A 
BRANCH  76  77
ATOM     77  S   UNL A   1      36.275  30.761  29.576  1.00  0.00     0.124 S 
ATOM     78  O   UNL A   1      35.491  29.888  28.705  1.00  0.00    -0.237 OA
ATOM     79  O   UNL A   1      36.138  30.507  31.008  1.00  0.00    -0.237 OA
ATOM     80  O   UNL A   1      36.288  32.170  29.194  1.00  0.00    -0.744 OA
ENDBRANCH  76  77
ENDBRANCH  57  71
BRANCH  58  81
ATOM     81  C   UNL A   1      49.863  26.476  26.316  1.00  0.00    -0.014 A 
ATOM     82  C   UNL A   1      50.337  26.541  24.994  1.00  0.00     0.010 A 
ATOM     83  C   UNL A   1      50.724  26.015  27.329  1.00  0.00     0.010 A 
ATOM     84  C   UNL A   1      51.641  26.143  24.688  1.00  0.00     0.020 A 
ATOM     85  C   UNL A   1      52.038  25.643  27.032  1.00  0.00     0.020 A 
ATOM     86  C   UNL A   1      52.485  25.702  25.710  1.00  0.00     0.054 A 
BRANCH  86  87
ATOM     87  S   UNL A   1      54.193  25.247  25.300  1.00  0.00     0.124 S 
ATOM     88  O   UNL A   1      54.891  25.528  26.549  1.00  0.00    -0.237 OA
ATOM     89  O   UNL A   1      54.063  23.835  24.947  1.00  0.00    -0.237 OA
ATOM     90  O   UNL A   1      54.521  26.133  24.184  1.00  0.00    -0.744 OA
ENDBRANCH  86  87
ENDBRANCH  58  81
BRANCH  70  91
ATOM     91  C   UNL A   1      47.074  32.582  28.207  1.00  0.00    -0.014 A 
ATOM     92  C   UNL A   1      47.129  33.545  27.183  1.00  0.00     0.010 A 
ATOM     93  C   UNL A   1      47.542  32.920  29.489  1.00  0.00     0.010 A 
ATOM     94  C   UNL A   1      47.671  34.809  27.431  1.00  0.00     0.020 A 
ATOM     95  C   UNL A   1      48.055  34.194  29.750  1.00  0.00     0.020 A 
ATOM     96  C   UNL A   1      48.128  35.126  28.714  1.00  0.00     0.054 A 
BRANCH  96  97
ATOM     97  S   UNL A   1      48.783  36.790  29.019  1.00  0.00     0.124 S 
ATOM     98  O   UNL A   1      50.208  36.608  28.758  1.00  0.00    -0.237 OA
ATOM     99  O   UNL A   1      48.062  37.601  28.041  1.00  0.00    -0.237 OA
ATOM    100  O   UNL A   1      48.433  37.049  30.414  1.00  0.00    -0.744 OA
ENDBRANCH  96  97
ENDBRANCH  70  91
ENDBRANCH  44  45
ENDBRANCH  36  39
ENDBRANCH  34  35
ENDBRANCH  33  34
ENDBRANCH   1  33
TORSDOF 19
ENDMDL
MODEL 3
REMARK VINA RESULT:     -11.9      5.716      7.894
REMARK SMILES Cc1nc[nH]c1C(=O)N1CCC2(CC1)C[C@@H](C(=O)NCCCCCCNC(=O)c1ccc(-c3c4nc(c(-c5ccc(S(=O)(=O)[O-])cc5)c5ccc([nH]5)c(-c5ccc(S(=O)(=O)[O-])cc5)c5nc(c(-c6ccc(S(=O)(=O)[O-])cc6)c6ccc3[nH]6)C=C5)C=C4)cc1)N(C(=O)C1CC1)C2
REMARK SMILES IDX 23 1 22 2 21 3 20 4 19 5 17 6 18 7 16 9 7 10 8 11 9 12 10 13
REMARK SMILES IDX 14 14 11 15 13 16 12 17 15 18 95 19 89 20 6 21 1 22 2 23
REMARK SMILES IDX 3 24 4 25 5 26 90 28 91 29 92 30 93 31 94 32 24 33 25 34
REMARK SMILES IDX 26 35 27 36 28 38 29 39 30 40 88 41 31 42 87 43 32 44 33 45
REMARK SMILES IDX 34 46 81 47 35 48 86 49 80 50 82 51 36 52 85 53 79 54 78 55
REMARK SMILES IDX 37 57 67 58 48 59 66 60 49 61 52 62 65 63 83 64 50 65 51 66
REMARK SMILES IDX 64 68 84 69 53 70 38 71 39 72 47 73 40 74 46 75 41 76 42 77
REMARK SMILES IDX 43 78 44 79 45 80 68 81 69 82 77 83 70 84 76 85 71 86 72 87
REMARK SMILES IDX 73 88 74 89 75 90 54 91 55 92 63 93 56 94 62 95 57 96 58 97
REMARK SMILES IDX 59 98 60 99 61 100
REMARK H PARENT 19 8 5 27 26 37 82 56 52 67
REMARK Flexibility Score: inf
ROOT
ATOM      1  C   UNL A   1      39.284  22.934  26.320  1.00  0.00     0.002 C 
ENDROOT
BRANCH   1   2
ATOM      2  C   UNL A   1      38.038  23.065  25.428  1.00  0.00     0.002 C 
BRANCH   2   3
ATOM      3  C   UNL A   1      36.810  23.703  26.078  1.00  0.00     0.021 C 
BRANCH   3   4
ATOM      4  C   UNL A   1      35.648  22.746  26.283  1.00  0.00     0.116 C 
BRANCH   4   5
ATOM      5  N   UNL A   1      35.928  21.341  26.182  1.00  0.00    -0.354 N 
ATOM      6  C   UNL A   1      35.514  20.477  25.202  1.00  0.00     0.242 C 
ATOM      7  O   UNL A   1      36.283  19.543  24.939  1.00  0.00    -0.273 OA
ATOM      8  H   UNL A   1      36.481  20.955  26.899  1.00  0.00     0.163 HD
BRANCH   6   9
ATOM      9  C   UNL A   1      34.238  20.706  24.326  1.00  0.00     0.175 C 
ATOM     10  C   UNL A   1      30.427  26.296  24.863  1.00  0.00     0.272 C 
ATOM     11  O   UNL A   1      29.203  26.292  24.749  1.00  0.00    -0.267 OA
ATOM     12  N   UNL A   1      31.138  25.104  24.835  1.00  0.00    -0.337 N 
ATOM     13  C   UNL A   1      30.633  24.014  24.018  1.00  0.00     0.120 C 
ATOM     14  C   UNL A   1      32.057  24.724  25.892  1.00  0.00     0.120 C 
ATOM     15  C   UNL A   1      31.813  23.288  23.356  1.00  0.00     0.030 C 
ATOM     16  C   UNL A   1      33.216  23.919  25.320  1.00  0.00     0.030 C 
ATOM     17  C   UNL A   1      32.796  22.727  24.419  1.00  0.00    -0.006 C 
ATOM     18  C   UNL A   1      34.070  22.121  23.774  1.00  0.00     0.044 C 
ATOM     19  C   UNL A   1      32.107  21.533  25.123  1.00  0.00     0.127 C 
ATOM     20  N   UNL A   1      32.960  20.371  24.942  1.00  0.00    -0.330 N 
BRANCH  10  21
ATOM     21  C   UNL A   1      31.166  27.538  24.920  1.00  0.00     0.127 A 
ATOM     22  C   UNL A   1      31.552  28.246  27.407  1.00  0.00     0.069 C 
ATOM     23  C   UNL A   1      31.659  28.346  25.938  1.00  0.00     0.068 A 
ATOM     24  N   UNL A   1      32.430  29.365  25.426  1.00  0.00    -0.241 NA
ATOM     25  C   UNL A   1      32.453  29.177  24.130  1.00  0.00     0.197 A 
ATOM     26  N   UNL A   1      31.695  28.106  23.775  1.00  0.00    -0.340 N 
ATOM     27  H   UNL A   1      31.546  27.787  22.856  1.00  0.00     0.168 HD
ENDBRANCH  10  21
BRANCH  20  28
ATOM     28  C   UNL A   1      32.635  19.025  25.043  1.00  0.00     0.226 C 
ATOM     29  O   UNL A   1      32.629  18.459  26.132  1.00  0.00    -0.275 OA
BRANCH  28  30
ATOM     30  C   UNL A   1      32.244  18.190  23.873  1.00  0.00     0.079 C 
ATOM     31  C   UNL A   1      32.404  18.447  22.405  1.00  0.00     0.014 C 
ATOM     32  C   UNL A   1      33.277  17.425  23.080  1.00  0.00     0.014 C 
ENDBRANCH  28  30
ENDBRANCH  20  28
ENDBRANCH   6   9
ENDBRANCH   4   5
ENDBRANCH   3   4
ENDBRANCH   2   3
ENDBRANCH   1   2
BRANCH   1  33
ATOM     33  C   UNL A   1      39.604  21.528  26.838  1.00  0.00     0.021 C 
BRANCH  33  34
ATOM     34  C   UNL A   1      39.676  20.440  25.769  1.00  0.00     0.116 C 
BRANCH  34  35
ATOM     35  N   UNL A   1      40.700  19.449  26.059  1.00  0.00    -0.352 N 
ATOM     36  C   UNL A   1      42.036  19.610  26.326  1.00  0.00     0.251 C 
ATOM     37  H   UNL A   1      40.385  18.516  26.064  1.00  0.00     0.163 HD
ATOM     38  O   UNL A   1      42.773  18.629  26.350  1.00  0.00    -0.269 OA
BRANCH  36  39
ATOM     39  C   UNL A   1      42.588  20.959  26.574  1.00  0.00     0.039 A 
ATOM     40  C   UNL A   1      42.921  21.765  25.481  1.00  0.00     0.014 A 
ATOM     41  C   UNL A   1      42.802  21.418  27.876  1.00  0.00     0.014 A 
ATOM     42  C   UNL A   1      43.416  23.053  25.698  1.00  0.00     0.010 A 
ATOM     43  C   UNL A   1      43.222  22.728  28.089  1.00  0.00     0.010 A 
ATOM     44  C   UNL A   1      43.539  23.557  27.003  1.00  0.00    -0.014 A 
BRANCH  44  45
ATOM     45  C   UNL A   1      44.004  24.944  27.253  1.00  0.00     0.031 A 
ATOM     46  C   UNL A   1      45.449  25.310  27.049  1.00  0.00     0.074 A 
ATOM     47  C   UNL A   1      43.134  25.862  27.720  1.00  0.00     0.049 A 
ATOM     48  N   UNL A   1      46.049  26.455  27.256  1.00  0.00    -0.248 NA
ATOM     49  C   UNL A   1      46.343  24.241  26.574  1.00  0.00     0.031 C 
ATOM     50  C   UNL A   1      41.712  25.625  27.983  1.00  0.00     0.029 A 
ATOM     51  N   UNL A   1      43.317  27.180  28.054  1.00  0.00    -0.354 N 
ATOM     52  C   UNL A   1      47.388  26.241  26.948  1.00  0.00     0.074 A 
ATOM     53  C   UNL A   1      47.522  24.843  26.602  1.00  0.00     0.031 C 
ATOM     54  C   UNL A   1      41.146  26.770  28.396  1.00  0.00     0.029 A 
ATOM     55  C   UNL A   1      42.169  27.807  28.475  1.00  0.00     0.049 A 
ATOM     56  H   UNL A   1      44.190  27.633  27.998  1.00  0.00     0.167 HD
ATOM     57  C   UNL A   1      48.409  27.132  26.933  1.00  0.00     0.031 A 
ATOM     58  C   UNL A   1      41.962  29.076  28.878  1.00  0.00     0.031 A 
ATOM     59  C   UNL A   1      48.271  28.520  27.287  1.00  0.00     0.049 A 
ATOM     60  C   UNL A   1      43.120  30.035  28.899  1.00  0.00     0.074 A 
ATOM     61  C   UNL A   1      49.232  29.514  27.267  1.00  0.00     0.029 A 
ATOM     62  N   UNL A   1      47.096  29.109  27.732  1.00  0.00    -0.354 N 
ATOM     63  N   UNL A   1      44.367  29.831  28.549  1.00  0.00    -0.248 NA
ATOM     64  C   UNL A   1      42.838  31.400  29.364  1.00  0.00     0.031 C 
ATOM     65  C   UNL A   1      48.654  30.690  27.758  1.00  0.00     0.029 A 
ATOM     66  C   UNL A   1      47.315  30.446  28.020  1.00  0.00     0.049 A 
ATOM     67  H   UNL A   1      46.233  28.645  27.830  1.00  0.00     0.167 HD
ATOM     68  C   UNL A   1      45.012  31.050  28.720  1.00  0.00     0.074 A 
ATOM     69  C   UNL A   1      44.014  31.988  29.193  1.00  0.00     0.031 C 
ATOM     70  C   UNL A   1      46.313  31.367  28.497  1.00  0.00     0.031 A 
BRANCH  57  71
ATOM     71  C   UNL A   1      49.769  26.613  26.536  1.00  0.00    -0.014 A 
ATOM     72  C   UNL A   1      50.182  26.603  25.191  1.00  0.00     0.010 A 
ATOM     73  C   UNL A   1      50.649  26.129  27.522  1.00  0.00     0.010 A 
ATOM     74  C   UNL A   1      51.416  26.055  24.831  1.00  0.00     0.020 A 
ATOM     75  C   UNL A   1      51.900  25.613  27.169  1.00  0.00     0.020 A 
ATOM     76  C   UNL A   1      52.263  25.555  25.823  1.00  0.00     0.054 A 
BRANCH  76  77
ATOM     77  S   UNL A   1      53.850  24.831  25.326  1.00  0.00     0.124 S 
ATOM     78  O   UNL A   1      54.219  25.670  24.188  1.00  0.00    -0.237 OA
ATOM     79  O   UNL A   1      54.669  25.002  26.524  1.00  0.00    -0.237 OA
ATOM     80  O   UNL A   1      53.514  23.449  24.996  1.00  0.00    -0.744 OA
ENDBRANCH  76  77
ENDBRANCH  57  71
BRANCH  58  81
ATOM     81  C   UNL A   1      40.594  29.518  29.262  1.00  0.00    -0.014 A 
ATOM     82  C   UNL A   1      40.296  29.815  30.604  1.00  0.00     0.010 A 
ATOM     83  C   UNL A   1      39.589  29.667  28.290  1.00  0.00     0.010 A 
ATOM     84  C   UNL A   1      39.017  30.243  30.968  1.00  0.00     0.020 A 
ATOM     85  C   UNL A   1      38.317  30.122  28.645  1.00  0.00     0.020 A 
ATOM     86  C   UNL A   1      38.036  30.399  29.985  1.00  0.00     0.054 A 
BRANCH  86  87
ATOM     87  S   UNL A   1      36.399  31.012  30.471  1.00  0.00     0.124 S 
ATOM     88  O   UNL A   1      35.857  31.472  29.197  1.00  0.00    -0.237 OA
ATOM     89  O   UNL A   1      35.774  29.818  31.035  1.00  0.00    -0.237 OA
ATOM     90  O   UNL A   1      36.705  32.063  31.439  1.00  0.00    -0.744 OA
ENDBRANCH  86  87
ENDBRANCH  58  81
BRANCH  70  91
ATOM     91  C   UNL A   1      46.726  32.797  28.728  1.00  0.00    -0.014 A 
ATOM     92  C   UNL A   1      47.244  33.219  29.966  1.00  0.00     0.010 A 
ATOM     93  C   UNL A   1      46.641  33.721  27.671  1.00  0.00     0.010 A 
ATOM     94  C   UNL A   1      47.639  34.547  30.150  1.00  0.00     0.020 A 
ATOM     95  C   UNL A   1      47.065  35.041  27.841  1.00  0.00     0.020 A 
ATOM     96  C   UNL A   1      47.548  35.450  29.085  1.00  0.00     0.054 A 
BRANCH  96  97
ATOM     97  S   UNL A   1      48.112  37.155  29.338  1.00  0.00     0.124 S 
ATOM     98  O   UNL A   1      46.883  37.821  29.762  1.00  0.00    -0.237 OA
ATOM     99  O   UNL A   1      49.134  37.004  30.370  1.00  0.00    -0.237 OA
ATOM    100  O   UNL A   1      48.614  37.552  28.025  1.00  0.00    -0.744 OA
ENDBRANCH  96  97
ENDBRANCH  70  91
ENDBRANCH  44  45
ENDBRANCH  36  39
ENDBRANCH  34  35
ENDBRANCH  33  34
ENDBRANCH   1  33
TORSDOF 19
ENDMDL
