MODEL 1
REMARK VINA RESULT:     -12.3      0.000      0.000
REMARK SMILES Cc1ccc(Nc2c(Cl)cccc2Cl)c(CC(=O)NCCCCCCNC(=O)c2ccc(-c3c4nc(c(-c5ccc(S(=O)(=O)[O-])cc5)c5ccc([nH]5)c(-c5ccc(S(=O)(=O)[O-])cc5)c5nc(c(-c6ccc(S(=O)(=O)[O-])cc6)c6ccc3[nH]6)C=C5)C=C4)cc2)c1
REMARK SMILES IDX 22 1 21 2 20 3 19 4 17 5 18 6 16 8 15 9 1 10 2 11 3 12 89 13
REMARK SMILES IDX 4 14 5 15 6 16 7 18 8 19 13 20 9 21 10 22 12 23 14 24 11 25
REMARK SMILES IDX 23 26 24 27 25 28 26 29 27 30 28 32 29 33 30 34 88 35 31 36
REMARK SMILES IDX 87 37 32 38 33 39 34 40 81 41 35 42 86 43 80 44 82 45 36 46
REMARK SMILES IDX 85 47 79 48 78 49 37 51 67 52 48 53 66 54 49 55 52 56 65 57
REMARK SMILES IDX 83 58 50 59 51 60 64 62 84 63 53 64 38 65 39 66 47 67 40 68
REMARK SMILES IDX 46 69 41 70 42 71 43 72 44 73 45 74 68 75 69 76 77 77 70 78
REMARK SMILES IDX 76 79 71 80 72 81 73 82 74 83 75 84 54 85 55 86 63 87 56 88
REMARK SMILES IDX 62 89 57 90 58 91 59 92 60 93 61 94
REMARK H PARENT 19 7 6 17 26 31 82 50 52 61
REMARK Flexibility Score: inf
ROOT
ATOM      1  C   UNL A   1      34.556  21.719  25.744  1.00  0.00     0.002 C 
ENDROOT
BRANCH   1   2
ATOM      2  C   UNL A   1      34.226  22.101  27.193  1.00  0.00     0.021 C 
BRANCH   2   3
ATOM      3  C   UNL A   1      33.120  23.144  27.357  1.00  0.00     0.116 C 
BRANCH   3   4
ATOM      4  N   UNL A   1      31.800  22.547  27.415  1.00  0.00    -0.356 N 
ATOM      5  C   UNL A   1      30.644  22.956  26.821  1.00  0.00     0.224 C 
ATOM      6  O   UNL A   1      29.597  22.357  27.081  1.00  0.00    -0.275 OA
ATOM      7  H   UNL A   1      31.728  21.731  27.962  1.00  0.00     0.163 HD
BRANCH   5   8
ATOM      8  C   UNL A   1      30.635  24.135  25.864  1.00  0.00     0.137 C 
BRANCH   8   9
ATOM      9  C   UNL A   1      31.403  23.891  24.583  1.00  0.00    -0.015 A 
ATOM     10  C   UNL A   1      32.185  20.840  22.403  1.00  0.00     0.044 C 
ATOM     11  C   UNL A   1      32.146  22.245  22.925  1.00  0.00    -0.051 A 
ATOM     12  C   UNL A   1      32.852  23.251  22.271  1.00  0.00     0.005 A 
ATOM     13  C   UNL A   1      31.415  22.576  24.068  1.00  0.00     0.009 A 
ATOM     14  C   UNL A   1      32.818  24.563  22.749  1.00  0.00     0.026 A 
ATOM     15  C   UNL A   1      32.099  24.915  23.904  1.00  0.00     0.042 A 
BRANCH  15  16
ATOM     16  N   UNL A   1      32.021  26.261  24.334  1.00  0.00    -0.353 N 
ATOM     17  H   UNL A   1      32.431  26.454  25.208  1.00  0.00     0.167 HD
BRANCH  16  18
ATOM     18  C   UNL A   1      31.433  27.369  23.675  1.00  0.00     0.076 A 
ATOM     19  C   UNL A   1      30.041  27.499  23.489  1.00  0.00     0.066 A 
ATOM     20  C   UNL A   1      32.261  28.354  23.096  1.00  0.00     0.066 A 
ATOM     21  Cl  UNL A   1      28.908  26.429  24.246  1.00  0.00    -0.082 Cl
ATOM     22  C   UNL A   1      29.510  28.552  22.731  1.00  0.00     0.023 A 
ATOM     23  C   UNL A   1      31.728  29.404  22.342  1.00  0.00     0.023 A 
ATOM     24  Cl  UNL A   1      33.983  28.290  23.280  1.00  0.00    -0.082 Cl
ATOM     25  C   UNL A   1      30.353  29.498  22.151  1.00  0.00     0.003 A 
ENDBRANCH  16  18
ENDBRANCH  15  16
ENDBRANCH   8   9
ENDBRANCH   5   8
ENDBRANCH   3   4
ENDBRANCH   2   3
ENDBRANCH   1   2
BRANCH   1  26
ATOM     26  C   UNL A   1      35.604  22.581  25.028  1.00  0.00     0.002 C 
BRANCH  26  27
ATOM     27  C   UNL A   1      37.069  22.310  25.376  1.00  0.00     0.021 C 
BRANCH  27  28
ATOM     28  C   UNL A   1      37.758  23.469  26.093  1.00  0.00     0.116 C 
BRANCH  28  29
ATOM     29  N   UNL A   1      38.967  23.054  26.792  1.00  0.00    -0.352 N 
ATOM     30  C   UNL A   1      39.901  23.842  27.436  1.00  0.00     0.251 C 
ATOM     31  H   UNL A   1      39.140  22.083  26.808  1.00  0.00     0.163 HD
ATOM     32  O   UNL A   1      40.954  23.381  27.850  1.00  0.00    -0.269 OA
BRANCH  30  33
ATOM     33  C   UNL A   1      39.541  25.249  27.697  1.00  0.00     0.039 A 
ATOM     34  C   UNL A   1      40.060  26.220  26.834  1.00  0.00     0.014 A 
ATOM     35  C   UNL A   1      38.910  25.605  28.884  1.00  0.00     0.014 A 
ATOM     36  C   UNL A   1      40.100  27.550  27.244  1.00  0.00     0.010 A 
ATOM     37  C   UNL A   1      39.021  26.911  29.323  1.00  0.00     0.010 A 
ATOM     38  C   UNL A   1      39.663  27.875  28.528  1.00  0.00    -0.014 A 
BRANCH  38  39
ATOM     39  C   UNL A   1      39.922  29.155  29.180  1.00  0.00     0.031 A 
ATOM     40  C   UNL A   1      38.944  30.264  29.091  1.00  0.00     0.074 A 
ATOM     41  C   UNL A   1      41.000  29.300  29.985  1.00  0.00     0.049 A 
ATOM     42  N   UNL A   1      39.199  31.486  29.433  1.00  0.00    -0.248 NA
ATOM     43  C   UNL A   1      37.609  30.103  28.517  1.00  0.00     0.031 C 
ATOM     44  C   UNL A   1      41.183  30.313  31.023  1.00  0.00     0.029 A 
ATOM     45  N   UNL A   1      42.259  28.708  29.873  1.00  0.00    -0.354 N 
ATOM     46  C   UNL A   1      38.001  32.156  29.469  1.00  0.00     0.074 A 
ATOM     47  C   UNL A   1      37.086  31.314  28.738  1.00  0.00     0.031 C 
ATOM     48  C   UNL A   1      42.496  30.487  31.224  1.00  0.00     0.029 A 
ATOM     49  C   UNL A   1      43.190  29.707  30.216  1.00  0.00     0.049 A 
ATOM     50  H   UNL A   1      42.457  27.781  29.609  1.00  0.00     0.167 HD
ATOM     51  C   UNL A   1      37.879  33.268  30.249  1.00  0.00     0.031 A 
ATOM     52  C   UNL A   1      44.154  30.181  29.374  1.00  0.00     0.031 A 
ATOM     53  C   UNL A   1      39.177  33.782  30.697  1.00  0.00     0.049 A 
ATOM     54  C   UNL A   1      44.097  31.681  29.145  1.00  0.00     0.074 A 
ATOM     55  C   UNL A   1      39.808  33.938  31.920  1.00  0.00     0.029 A 
ATOM     56  N   UNL A   1      40.137  34.072  29.738  1.00  0.00    -0.354 N 
ATOM     57  N   UNL A   1      43.232  32.481  29.706  1.00  0.00    -0.248 NA
ATOM     58  C   UNL A   1      44.940  32.379  28.171  1.00  0.00     0.031 C 
ATOM     59  C   UNL A   1      41.164  34.318  31.677  1.00  0.00     0.029 A 
ATOM     60  C   UNL A   1      41.346  34.408  30.310  1.00  0.00     0.049 A 
ATOM     61  H   UNL A   1      39.973  34.042  28.768  1.00  0.00     0.167 HD
ATOM     62  C   UNL A   1      43.327  33.724  29.141  1.00  0.00     0.074 A 
ATOM     63  C   UNL A   1      44.428  33.621  28.202  1.00  0.00     0.031 C 
ATOM     64  C   UNL A   1      42.457  34.733  29.430  1.00  0.00     0.031 A 
BRANCH  51  65
ATOM     65  C   UNL A   1      36.554  33.797  30.771  1.00  0.00    -0.014 A 
ATOM     66  C   UNL A   1      35.536  34.161  29.864  1.00  0.00     0.010 A 
ATOM     67  C   UNL A   1      36.288  34.074  32.129  1.00  0.00     0.010 A 
ATOM     68  C   UNL A   1      34.356  34.805  30.282  1.00  0.00     0.020 A 
ATOM     69  C   UNL A   1      35.105  34.687  32.564  1.00  0.00     0.020 A 
ATOM     70  C   UNL A   1      34.155  35.076  31.633  1.00  0.00     0.054 A 
BRANCH  70  71
ATOM     71  S   UNL A   1      32.672  35.966  32.169  1.00  0.00     0.124 S 
ATOM     72  O   UNL A   1      33.200  36.850  33.205  1.00  0.00    -0.237 OA
ATOM     73  O   UNL A   1      32.230  36.622  30.941  1.00  0.00    -0.237 OA
ATOM     74  O   UNL A   1      31.789  34.907  32.655  1.00  0.00    -0.744 OA
ENDBRANCH  70  71
ENDBRANCH  51  65
BRANCH  52  75
ATOM     75  C   UNL A   1      44.621  29.188  28.370  1.00  0.00    -0.014 A 
ATOM     76  C   UNL A   1      45.364  28.087  28.849  1.00  0.00     0.010 A 
ATOM     77  C   UNL A   1      43.991  29.097  27.117  1.00  0.00     0.010 A 
ATOM     78  C   UNL A   1      45.321  26.863  28.181  1.00  0.00     0.020 A 
ATOM     79  C   UNL A   1      43.957  27.871  26.441  1.00  0.00     0.020 A 
ATOM     80  C   UNL A   1      44.560  26.749  27.017  1.00  0.00     0.054 A 
BRANCH  80  81
ATOM     81  S   UNL A   1      44.191  25.080  26.402  1.00  0.00     0.124 S 
ATOM     82  O   UNL A   1      45.269  24.852  25.445  1.00  0.00    -0.237 OA
ATOM     83  O   UNL A   1      44.258  24.292  27.632  1.00  0.00    -0.237 OA
ATOM     84  O   UNL A   1      42.856  25.222  25.829  1.00  0.00    -0.744 OA
ENDBRANCH  80  81
ENDBRANCH  52  75
BRANCH  64  85
ATOM     85  C   UNL A   1      42.551  36.112  28.837  1.00  0.00    -0.014 A 
ATOM     86  C   UNL A   1      41.923  36.453  27.628  1.00  0.00     0.010 A 
ATOM     87  C   UNL A   1      43.392  37.078  29.431  1.00  0.00     0.010 A 
ATOM     88  C   UNL A   1      42.088  37.726  27.064  1.00  0.00     0.020 A 
ATOM     89  C   UNL A   1      43.577  38.343  28.866  1.00  0.00     0.020 A 
ATOM     90  C   UNL A   1      42.908  38.666  27.691  1.00  0.00     0.054 A 
BRANCH  90  91
ATOM     91  S   UNL A   1      43.149  40.289  26.922  1.00  0.00     0.124 S 
ATOM     92  O   UNL A   1      42.077  40.338  25.930  1.00  0.00    -0.237 OA
ATOM     93  O   UNL A   1      42.991  41.189  28.061  1.00  0.00    -0.237 OA
ATOM     94  O   UNL A   1      44.498  40.215  26.367  1.00  0.00    -0.744 OA
ENDBRANCH  90  91
ENDBRANCH  64  85
ENDBRANCH  38  39
ENDBRANCH  30  33
ENDBRANCH  28  29
ENDBRANCH  27  28
ENDBRANCH  26  27
ENDBRANCH   1  26
TORSDOF 19
ENDMDL
MODEL 2
REMARK VINA RESULT:     -12.1      1.513      2.377
REMARK SMILES Cc1ccc(Nc2c(Cl)cccc2Cl)c(CC(=O)NCCCCCCNC(=O)c2ccc(-c3c4nc(c(-c5ccc(S(=O)(=O)[O-])cc5)c5ccc([nH]5)c(-c5ccc(S(=O)(=O)[O-])cc5)c5nc(c(-c6ccc(S(=O)(=O)[O-])cc6)c6ccc3[nH]6)C=C5)C=C4)cc2)c1
REMARK SMILES IDX 22 1 21 2 20 3 19 4 17 5 18 6 16 8 15 9 1 10 2 11 3 12 89 13
REMARK SMILES IDX 4 14 5 15 6 16 7 18 8 19 13 20 9 21 10 22 12 23 14 24 11 25
REMARK SMILES IDX 23 26 24 27 25 28 26 29 27 30 28 32 29 33 30 34 88 35 31 36
REMARK SMILES IDX 87 37 32 38 33 39 34 40 81 41 35 42 86 43 80 44 82 45 36 46
REMARK SMILES IDX 85 47 79 48 78 49 37 51 67 52 48 53 66 54 49 55 52 56 65 57
REMARK SMILES IDX 83 58 50 59 51 60 64 62 84 63 53 64 38 65 39 66 47 67 40 68
REMARK SMILES IDX 46 69 41 70 42 71 43 72 44 73 45 74 68 75 69 76 77 77 70 78
REMARK SMILES IDX 76 79 71 80 72 81 73 82 74 83 75 84 54 85 55 86 63 87 56 88
REMARK SMILES IDX 62 89 57 90 58 91 59 92 60 93 61 94
REMARK H PARENT 19 7 6 17 26 31 82 50 52 61
REMARK Flexibility Score: inf
ROOT
ATOM      1  C   UNL A   1      36.474  22.944  23.217  1.00  0.00     0.002 C 
ENDROOT
BRANCH   1   2
ATOM      2  C   UNL A   1      35.087  23.389  23.701  1.00  0.00     0.021 C 
BRANCH   2   3
ATOM      3  C   UNL A   1      33.937  22.449  23.340  1.00  0.00     0.116 C 
BRANCH   3   4
ATOM      4  N   UNL A   1      33.727  21.420  24.339  1.00  0.00    -0.356 N 
ATOM      5  C   UNL A   1      33.640  21.541  25.693  1.00  0.00     0.224 C 
ATOM      6  O   UNL A   1      33.558  20.518  26.378  1.00  0.00    -0.275 OA
ATOM      7  H   UNL A   1      33.638  20.503  23.990  1.00  0.00     0.163 HD
BRANCH   5   8
ATOM      8  C   UNL A   1      33.651  22.907  26.354  1.00  0.00     0.137 C 
BRANCH   8   9
ATOM      9  C   UNL A   1      32.294  23.574  26.411  1.00  0.00    -0.015 A 
ATOM     10  C   UNL A   1      28.771  22.516  27.478  1.00  0.00     0.044 C 
ATOM     11  C   UNL A   1      29.917  23.332  26.962  1.00  0.00    -0.051 A 
ATOM     12  C   UNL A   1      29.698  24.627  26.499  1.00  0.00     0.005 A 
ATOM     13  C   UNL A   1      31.217  22.821  26.928  1.00  0.00     0.009 A 
ATOM     14  C   UNL A   1      30.762  25.396  26.020  1.00  0.00     0.026 A 
ATOM     15  C   UNL A   1      32.074  24.896  25.965  1.00  0.00     0.042 A 
BRANCH  15  16
ATOM     16  N   UNL A   1      33.149  25.712  25.540  1.00  0.00    -0.353 N 
ATOM     17  H   UNL A   1      34.026  25.502  25.934  1.00  0.00     0.167 HD
BRANCH  16  18
ATOM     18  C   UNL A   1      33.132  26.793  24.622  1.00  0.00     0.076 A 
ATOM     19  C   UNL A   1      32.773  26.641  23.268  1.00  0.00     0.066 A 
ATOM     20  C   UNL A   1      33.575  28.066  25.040  1.00  0.00     0.066 A 
ATOM     21  Cl  UNL A   1      32.101  25.167  22.653  1.00  0.00    -0.082 Cl
ATOM     22  C   UNL A   1      32.882  27.711  22.369  1.00  0.00     0.023 A 
ATOM     23  C   UNL A   1      33.680  29.132  24.141  1.00  0.00     0.023 A 
ATOM     24  Cl  UNL A   1      34.025  28.356  26.687  1.00  0.00    -0.082 Cl
ATOM     25  C   UNL A   1      33.343  28.952  22.802  1.00  0.00     0.003 A 
ENDBRANCH  16  18
ENDBRANCH  15  16
ENDBRANCH   8   9
ENDBRANCH   5   8
ENDBRANCH   3   4
ENDBRANCH   2   3
ENDBRANCH   1   2
BRANCH   1  26
ATOM     26  C   UNL A   1      37.228  21.952  24.112  1.00  0.00     0.002 C 
BRANCH  26  27
ATOM     27  C   UNL A   1      37.126  22.175  25.622  1.00  0.00     0.021 C 
BRANCH  27  28
ATOM     28  C   UNL A   1      37.940  23.364  26.126  1.00  0.00     0.116 C 
BRANCH  28  29
ATOM     29  N   UNL A   1      39.120  22.955  26.876  1.00  0.00    -0.352 N 
ATOM     30  C   UNL A   1      40.007  23.744  27.582  1.00  0.00     0.251 C 
ATOM     31  H   UNL A   1      39.310  21.987  26.882  1.00  0.00     0.163 HD
ATOM     32  O   UNL A   1      41.046  23.293  28.040  1.00  0.00    -0.269 OA
BRANCH  30  33
ATOM     33  C   UNL A   1      39.609  25.139  27.853  1.00  0.00     0.039 A 
ATOM     34  C   UNL A   1      40.023  26.118  26.941  1.00  0.00     0.014 A 
ATOM     35  C   UNL A   1      39.054  25.488  29.080  1.00  0.00     0.014 A 
ATOM     36  C   UNL A   1      40.038  27.454  27.332  1.00  0.00     0.010 A 
ATOM     37  C   UNL A   1      39.144  26.804  29.493  1.00  0.00     0.010 A 
ATOM     38  C   UNL A   1      39.684  27.781  28.640  1.00  0.00    -0.014 A 
BRANCH  38  39
ATOM     39  C   UNL A   1      39.939  29.080  29.256  1.00  0.00     0.031 A 
ATOM     40  C   UNL A   1      38.967  30.190  29.116  1.00  0.00     0.074 A 
ATOM     41  C   UNL A   1      41.003  29.246  30.075  1.00  0.00     0.049 A 
ATOM     42  N   UNL A   1      39.221  31.420  29.423  1.00  0.00    -0.248 NA
ATOM     43  C   UNL A   1      37.641  30.015  28.525  1.00  0.00     0.031 C 
ATOM     44  C   UNL A   1      41.173  30.291  31.083  1.00  0.00     0.029 A 
ATOM     45  N   UNL A   1      42.261  28.646  30.003  1.00  0.00    -0.354 N 
ATOM     46  C   UNL A   1      38.026  32.096  29.417  1.00  0.00     0.074 A 
ATOM     47  C   UNL A   1      37.120  31.235  28.698  1.00  0.00     0.031 C 
ATOM     48  C   UNL A   1      42.483  30.466  31.301  1.00  0.00     0.029 A 
ATOM     49  C   UNL A   1      43.190  29.652  30.329  1.00  0.00     0.049 A 
ATOM     50  H   UNL A   1      42.459  27.710  29.772  1.00  0.00     0.167 HD
ATOM     51  C   UNL A   1      37.896  33.232  30.160  1.00  0.00     0.031 A 
ATOM     52  C   UNL A   1      44.171  30.095  29.489  1.00  0.00     0.031 A 
ATOM     53  C   UNL A   1      39.188  33.756  30.614  1.00  0.00     0.049 A 
ATOM     54  C   UNL A   1      44.124  31.587  29.213  1.00  0.00     0.074 A 
ATOM     55  C   UNL A   1      39.799  33.948  31.841  1.00  0.00     0.029 A 
ATOM     56  N   UNL A   1      40.165  34.011  29.662  1.00  0.00    -0.354 N 
ATOM     57  N   UNL A   1      43.254  32.408  29.733  1.00  0.00    -0.248 NA
ATOM     58  C   UNL A   1      44.987  32.250  28.231  1.00  0.00     0.031 C 
ATOM     59  C   UNL A   1      41.161  34.314  31.609  1.00  0.00     0.029 A 
ATOM     60  C   UNL A   1      41.366  34.361  30.243  1.00  0.00     0.049 A 
ATOM     61  H   UNL A   1      40.018  33.951  28.690  1.00  0.00     0.167 HD
ATOM     62  C   UNL A   1      43.363  33.632  29.130  1.00  0.00     0.074 A 
ATOM     63  C   UNL A   1      44.480  33.495  28.214  1.00  0.00     0.031 C 
ATOM     64  C   UNL A   1      42.493  34.653  29.373  1.00  0.00     0.031 A 
BRANCH  51  65
ATOM     65  C   UNL A   1      36.564  33.783  30.642  1.00  0.00    -0.014 A 
ATOM     66  C   UNL A   1      35.546  34.077  29.710  1.00  0.00     0.010 A 
ATOM     67  C   UNL A   1      36.292  34.148  31.977  1.00  0.00     0.010 A 
ATOM     68  C   UNL A   1      34.359  34.736  30.081  1.00  0.00     0.020 A 
ATOM     69  C   UNL A   1      35.103  34.777  32.368  1.00  0.00     0.020 A 
ATOM     70  C   UNL A   1      34.152  35.095  31.411  1.00  0.00     0.054 A 
BRANCH  70  71
ATOM     71  S   UNL A   1      32.659  36.005  31.883  1.00  0.00     0.124 S 
ATOM     72  O   UNL A   1      31.845  34.962  32.500  1.00  0.00    -0.237 OA
ATOM     73  O   UNL A   1      33.178  37.024  32.791  1.00  0.00    -0.237 OA
ATOM     74  O   UNL A   1      32.148  36.514  30.612  1.00  0.00    -0.744 OA
ENDBRANCH  70  71
ENDBRANCH  51  65
BRANCH  52  75
ATOM     75  C   UNL A   1      44.650  29.068  28.526  1.00  0.00    -0.014 A 
ATOM     76  C   UNL A   1      44.093  29.090  27.229  1.00  0.00     0.010 A 
ATOM     77  C   UNL A   1      45.882  28.423  28.733  1.00  0.00     0.010 A 
ATOM     78  C   UNL A   1      44.836  28.646  26.135  1.00  0.00     0.020 A 
ATOM     79  C   UNL A   1      46.623  27.967  27.635  1.00  0.00     0.020 A 
ATOM     80  C   UNL A   1      46.124  28.151  26.342  1.00  0.00     0.054 A 
BRANCH  80  81
ATOM     81  S   UNL A   1      47.207  27.966  24.896  1.00  0.00     0.124 S 
ATOM     82  O   UNL A   1      47.096  26.541  24.599  1.00  0.00    -0.237 OA
ATOM     83  O   UNL A   1      46.571  28.865  23.935  1.00  0.00    -0.237 OA
ATOM     84  O   UNL A   1      48.507  28.408  25.391  1.00  0.00    -0.744 OA
ENDBRANCH  80  81
ENDBRANCH  52  75
BRANCH  64  85
ATOM     85  C   UNL A   1      42.603  36.012  28.738  1.00  0.00    -0.014 A 
ATOM     86  C   UNL A   1      43.193  37.103  29.397  1.00  0.00     0.010 A 
ATOM     87  C   UNL A   1      41.992  36.257  27.489  1.00  0.00     0.010 A 
ATOM     88  C   UNL A   1      43.217  38.375  28.809  1.00  0.00     0.020 A 
ATOM     89  C   UNL A   1      41.994  37.526  26.902  1.00  0.00     0.020 A 
ATOM     90  C   UNL A   1      42.624  38.577  27.560  1.00  0.00     0.054 A 
BRANCH  90  91
ATOM     91  S   UNL A   1      42.620  40.238  26.837  1.00  0.00     0.124 S 
ATOM     92  O   UNL A   1      43.584  40.117  25.747  1.00  0.00    -0.237 OA
ATOM     93  O   UNL A   1      41.226  40.385  26.428  1.00  0.00    -0.237 OA
ATOM     94  O   UNL A   1      43.042  41.099  27.939  1.00  0.00    -0.744 OA
ENDBRANCH  90  91
ENDBRANCH  64  85
ENDBRANCH  38  39
ENDBRANCH  30  33
ENDBRANCH  28  29
ENDBRANCH  27  28
ENDBRANCH  26  27
ENDBRANCH   1  26
TORSDOF 19
ENDMDL
MODEL 3
REMARK VINA RESULT:     -12.1      4.797     11.263
REMARK SMILES Cc1ccc(Nc2c(Cl)cccc2Cl)c(CC(=O)NCCCCCCNC(=O)c2ccc(-c3c4nc(c(-c5ccc(S(=O)(=O)[O-])cc5)c5ccc([nH]5)c(-c5ccc(S(=O)(=O)[O-])cc5)c5nc(c(-c6ccc(S(=O)(=O)[O-])cc6)c6ccc3[nH]6)C=C5)C=C4)cc2)c1
REMARK SMILES IDX 22 1 21 2 20 3 19 4 17 5 18 6 16 8 15 9 1 10 2 11 3 12 89 13
REMARK SMILES IDX 4 14 5 15 6 16 7 18 8 19 13 20 9 21 10 22 12 23 14 24 11 25
REMARK SMILES IDX 23 26 24 27 25 28 26 29 27 30 28 32 29 33 30 34 88 35 31 36
REMARK SMILES IDX 87 37 32 38 33 39 34 40 81 41 35 42 86 43 80 44 82 45 36 46
REMARK SMILES IDX 85 47 79 48 78 49 37 51 67 52 48 53 66 54 49 55 52 56 65 57
REMARK SMILES IDX 83 58 50 59 51 60 64 62 84 63 53 64 38 65 39 66 47 67 40 68
REMARK SMILES IDX 46 69 41 70 42 71 43 72 44 73 45 74 68 75 69 76 77 77 70 78
REMARK SMILES IDX 76 79 71 80 72 81 73 82 74 83 75 84 54 85 55 86 63 87 56 88
REMARK SMILES IDX 62 89 57 90 58 91 59 92 60 93 61 94
REMARK H PARENT 19 7 6 17 26 31 82 50 52 61
REMARK Flexibility Score: inf
ROOT
ATOM      1  C   UNL A   1      33.965  28.600  24.274  1.00  0.00     0.002 C 
ENDROOT
BRANCH   1   2
ATOM      2  C   UNL A   1      33.659  28.007  22.892  1.00  0.00     0.021 C 
BRANCH   2   3
ATOM      3  C   UNL A   1      32.837  26.718  22.903  1.00  0.00     0.116 C 
BRANCH   3   4
ATOM      4  N   UNL A   1      33.650  25.540  22.673  1.00  0.00    -0.356 N 
ATOM      5  C   UNL A   1      34.403  24.829  23.558  1.00  0.00     0.224 C 
ATOM      6  O   UNL A   1      35.106  23.907  23.135  1.00  0.00    -0.275 OA
ATOM      7  H   UNL A   1      33.662  25.209  21.746  1.00  0.00     0.163 HD
BRANCH   5   8
ATOM      8  C   UNL A   1      34.389  25.165  25.038  1.00  0.00     0.137 C 
BRANCH   8   9
ATOM      9  C   UNL A   1      33.287  24.475  25.814  1.00  0.00    -0.015 A 
ATOM     10  C   UNL A   1      29.483  24.841  26.071  1.00  0.00     0.044 C 
ATOM     11  C   UNL A   1      30.886  24.362  26.295  1.00  0.00    -0.051 A 
ATOM     12  C   UNL A   1      31.141  23.366  27.234  1.00  0.00     0.005 A 
ATOM     13  C   UNL A   1      31.960  24.899  25.581  1.00  0.00     0.009 A 
ATOM     14  C   UNL A   1      32.445  22.911  27.446  1.00  0.00     0.026 A 
ATOM     15  C   UNL A   1      33.541  23.446  26.748  1.00  0.00     0.042 A 
BRANCH  15  16
ATOM     16  N   UNL A   1      34.844  22.927  26.927  1.00  0.00    -0.353 N 
ATOM     17  H   UNL A   1      35.301  23.197  27.756  1.00  0.00     0.167 HD
BRANCH  16  18
ATOM     18  C   UNL A   1      35.582  22.069  26.072  1.00  0.00     0.076 A 
ATOM     19  C   UNL A   1      35.085  20.833  25.614  1.00  0.00     0.066 A 
ATOM     20  C   UNL A   1      36.907  22.408  25.723  1.00  0.00     0.066 A 
ATOM     21  Cl  UNL A   1      33.440  20.351  25.869  1.00  0.00    -0.082 Cl
ATOM     22  C   UNL A   1      35.891  19.964  24.866  1.00  0.00     0.023 A 
ATOM     23  C   UNL A   1      37.708  21.540  24.974  1.00  0.00     0.023 A 
ATOM     24  Cl  UNL A   1      37.604  23.912  26.226  1.00  0.00    -0.082 Cl
ATOM     25  C   UNL A   1      37.203  20.313  24.554  1.00  0.00     0.003 A 
ENDBRANCH  16  18
ENDBRANCH  15  16
ENDBRANCH   8   9
ENDBRANCH   5   8
ENDBRANCH   3   4
ENDBRANCH   2   3
ENDBRANCH   1   2
BRANCH   1  26
ATOM     26  C   UNL A   1      32.759  29.026  25.122  1.00  0.00     0.002 C 
BRANCH  26  27
ATOM     27  C   UNL A   1      33.060  29.553  26.526  1.00  0.00     0.021 C 
BRANCH  27  28
ATOM     28  C   UNL A   1      34.523  29.407  26.939  1.00  0.00     0.116 C 
BRANCH  28  29
ATOM     29  N   UNL A   1      35.123  30.678  27.324  1.00  0.00    -0.352 N 
ATOM     30  C   UNL A   1      36.348  30.904  27.922  1.00  0.00     0.251 C 
ATOM     31  H   UNL A   1      34.586  31.481  27.130  1.00  0.00     0.163 HD
ATOM     32  O   UNL A   1      36.667  32.008  28.334  1.00  0.00    -0.269 OA
BRANCH  30  33
ATOM     33  C   UNL A   1      37.305  29.781  27.958  1.00  0.00     0.039 A 
ATOM     34  C   UNL A   1      37.316  28.977  29.103  1.00  0.00     0.014 A 
ATOM     35  C   UNL A   1      38.307  29.679  26.998  1.00  0.00     0.014 A 
ATOM     36  C   UNL A   1      38.429  28.185  29.373  1.00  0.00     0.010 A 
ATOM     37  C   UNL A   1      39.443  28.954  27.306  1.00  0.00     0.010 A 
ATOM     38  C   UNL A   1      39.528  28.249  28.518  1.00  0.00    -0.014 A 
BRANCH  38  39
ATOM     39  C   UNL A   1      40.846  27.710  28.839  1.00  0.00     0.031 A 
ATOM     40  C   UNL A   1      41.178  26.294  28.556  1.00  0.00     0.074 A 
ATOM     41  C   UNL A   1      41.826  28.534  29.278  1.00  0.00     0.049 A 
ATOM     42  N   UNL A   1      42.222  25.687  29.019  1.00  0.00    -0.248 NA
ATOM     43  C   UNL A   1      40.300  25.410  27.791  1.00  0.00     0.031 C 
ATOM     44  C   UNL A   1      43.265  28.276  29.236  1.00  0.00     0.029 A 
ATOM     45  N   UNL A   1      41.717  29.675  30.074  1.00  0.00    -0.354 N 
ATOM     46  C   UNL A   1      42.336  24.499  28.339  1.00  0.00     0.074 A 
ATOM     47  C   UNL A   1      41.045  24.302  27.726  1.00  0.00     0.031 C 
ATOM     48  C   UNL A   1      43.858  29.009  30.188  1.00  0.00     0.029 A 
ATOM     49  C   UNL A   1      42.804  29.633  30.967  1.00  0.00     0.049 A 
ATOM     50  H   UNL A   1      41.020  30.369  30.022  1.00  0.00     0.167 HD
ATOM     51  C   UNL A   1      43.556  23.899  28.241  1.00  0.00     0.031 A 
ATOM     52  C   UNL A   1      42.683  29.575  32.325  1.00  0.00     0.031 A 
ATOM     53  C   UNL A   1      44.535  24.462  29.175  1.00  0.00     0.049 A 
ATOM     54  C   UNL A   1      43.372  28.381  32.960  1.00  0.00     0.074 A 
ATOM     55  C   UNL A   1      45.728  25.156  29.056  1.00  0.00     0.029 A 
ATOM     56  N   UNL A   1      44.214  24.493  30.525  1.00  0.00    -0.354 N 
ATOM     57  N   UNL A   1      44.051  27.483  32.300  1.00  0.00    -0.248 NA
ATOM     58  C   UNL A   1      43.249  28.043  34.380  1.00  0.00     0.031 C 
ATOM     59  C   UNL A   1      46.111  25.610  30.355  1.00  0.00     0.029 A 
ATOM     60  C   UNL A   1      45.161  25.176  31.260  1.00  0.00     0.049 A 
ATOM     61  H   UNL A   1      43.409  24.078  30.910  1.00  0.00     0.167 HD
ATOM     62  C   UNL A   1      44.369  26.446  33.136  1.00  0.00     0.074 A 
ATOM     63  C   UNL A   1      43.870  26.852  34.436  1.00  0.00     0.031 C 
ATOM     64  C   UNL A   1      44.960  25.300  32.695  1.00  0.00     0.031 A 
BRANCH  51  65
ATOM     65  C   UNL A   1      43.927  22.906  27.152  1.00  0.00    -0.014 A 
ATOM     66  C   UNL A   1      42.981  21.953  26.716  1.00  0.00     0.010 A 
ATOM     67  C   UNL A   1      45.220  22.776  26.602  1.00  0.00     0.010 A 
ATOM     68  C   UNL A   1      43.320  20.912  25.832  1.00  0.00     0.020 A 
ATOM     69  C   UNL A   1      45.565  21.763  25.697  1.00  0.00     0.020 A 
ATOM     70  C   UNL A   1      44.619  20.817  25.338  1.00  0.00     0.054 A 
BRANCH  70  71
ATOM     71  S   UNL A   1      45.079  19.440  24.255  1.00  0.00     0.124 S 
ATOM     72  O   UNL A   1      46.536  19.539  24.232  1.00  0.00    -0.237 OA
ATOM     73  O   UNL A   1      44.533  18.283  24.958  1.00  0.00    -0.237 OA
ATOM     74  O   UNL A   1      44.420  19.760  22.990  1.00  0.00    -0.744 OA
ENDBRANCH  70  71
ENDBRANCH  51  65
BRANCH  52  75
ATOM     75  C   UNL A   1      41.449  30.219  32.849  1.00  0.00    -0.014 A 
ATOM     76  C   UNL A   1      40.491  29.380  33.458  1.00  0.00     0.010 A 
ATOM     77  C   UNL A   1      41.434  31.596  33.134  1.00  0.00     0.010 A 
ATOM     78  C   UNL A   1      39.664  29.871  34.468  1.00  0.00     0.020 A 
ATOM     79  C   UNL A   1      40.596  32.091  34.141  1.00  0.00     0.020 A 
ATOM     80  C   UNL A   1      39.773  31.209  34.848  1.00  0.00     0.054 A 
BRANCH  80  81
ATOM     81  S   UNL A   1      38.997  31.717  36.410  1.00  0.00     0.124 S 
ATOM     82  O   UNL A   1      38.152  30.570  36.728  1.00  0.00    -0.237 OA
ATOM     83  O   UNL A   1      40.164  31.903  37.271  1.00  0.00    -0.237 OA
ATOM     84  O   UNL A   1      38.291  32.942  36.051  1.00  0.00    -0.744 OA
ENDBRANCH  80  81
ENDBRANCH  52  75
BRANCH  64  85
ATOM     85  C   UNL A   1      45.338  24.156  33.595  1.00  0.00    -0.014 A 
ATOM     86  C   UNL A   1      46.630  24.013  34.126  1.00  0.00     0.010 A 
ATOM     87  C   UNL A   1      44.417  23.111  33.829  1.00  0.00     0.010 A 
ATOM     88  C   UNL A   1      46.971  22.898  34.904  1.00  0.00     0.020 A 
ATOM     89  C   UNL A   1      44.754  21.986  34.588  1.00  0.00     0.020 A 
ATOM     90  C   UNL A   1      46.028  21.895  35.137  1.00  0.00     0.054 A 
BRANCH  90  91
ATOM     91  S   UNL A   1      46.502  20.437  36.102  1.00  0.00     0.124 S 
ATOM     92  O   UNL A   1      46.068  19.331  35.252  1.00  0.00    -0.237 OA
ATOM     93  O   UNL A   1      47.948  20.609  36.218  1.00  0.00    -0.237 OA
ATOM     94  O   UNL A   1      45.754  20.585  37.348  1.00  0.00    -0.744 OA
ENDBRANCH  90  91
ENDBRANCH  64  85
ENDBRANCH  38  39
ENDBRANCH  30  33
ENDBRANCH  28  29
ENDBRANCH  27  28
ENDBRANCH  26  27
ENDBRANCH   1  26
TORSDOF 19
ENDMDL
