MODEL 1
REMARK VINA RESULT:     -10.2      0.000      0.000
REMARK SMILES CC(C)c1cc(=O)[nH]c(SCC(=O)NCCCCCCNC(=O)c2ccc(-c3c4nc(c(-c5ccc(S(=O)(=O)[O-])cc5)c5ccc([nH]5)c(-c5ccc(S(=O)(=O)[O-])cc5)c5nc(c(-c6ccc(S(=O)(=O)[O-])cc6)c6ccc3[nH]6)C=C5)C=C4)cc2)n1
REMARK SMILES IDX 17 1 16 2 15 3 14 4 12 5 13 6 11 8 10 9 9 10 4 11 5 12 84 13
REMARK SMILES IDX 6 14 7 15 8 16 2 18 1 19 3 20 18 21 19 22 20 23 21 24 22 25
REMARK SMILES IDX 23 27 24 28 25 29 83 30 26 31 82 32 27 33 28 34 29 35 76 36
REMARK SMILES IDX 30 37 81 38 75 39 77 40 31 41 80 42 74 43 73 44 32 46 62 47
REMARK SMILES IDX 43 48 61 49 44 50 47 51 60 52 78 53 45 54 46 55 59 57 79 58
REMARK SMILES IDX 48 59 33 60 34 61 42 62 35 63 41 64 36 65 37 66 38 67 39 68
REMARK SMILES IDX 40 69 63 70 64 71 72 72 65 73 71 74 66 75 67 76 68 77 69 78
REMARK SMILES IDX 70 79 49 80 50 81 58 82 51 83 57 84 52 85 53 86 54 87 55 88
REMARK SMILES IDX 56 89
REMARK H PARENT 14 7 8 17 21 26 77 45 47 56
REMARK Flexibility Score: inf
ROOT
ATOM      1  C   UNL A   1      31.440  29.285  24.254  1.00  0.00     0.002 C 
ENDROOT
BRANCH   1   2
ATOM      2  C   UNL A   1      32.180  28.267  23.372  1.00  0.00     0.021 C 
BRANCH   2   3
ATOM      3  C   UNL A   1      31.255  27.316  22.611  1.00  0.00     0.116 C 
BRANCH   3   4
ATOM      4  N   UNL A   1      31.932  26.753  21.459  1.00  0.00    -0.355 N 
ATOM      5  C   UNL A   1      32.599  25.575  21.310  1.00  0.00     0.230 C 
ATOM      6  O   UNL A   1      33.041  25.323  20.185  1.00  0.00    -0.274 OA
ATOM      7  H   UNL A   1      31.904  27.315  20.651  1.00  0.00     0.163 HD
BRANCH   5   8
ATOM      8  C   UNL A   1      32.659  24.547  22.424  1.00  0.00     0.178 C 
BRANCH   8   9
ATOM      9  S   UNL A   1      33.988  24.761  23.629  1.00  0.00    -0.078 SA
BRANCH   9  10
ATOM     10  C   UNL A   1      33.897  23.309  24.562  1.00  0.00     0.168 A 
ATOM     11  C   UNL A   1      33.593  21.080  24.942  1.00  0.00     0.051 A 
ATOM     12  C   UNL A   1      33.797  21.222  26.263  1.00  0.00     0.095 A 
ATOM     13  N   UNL A   1      33.624  22.151  24.071  1.00  0.00    -0.229 NA
ATOM     14  C   UNL A   1      34.083  22.559  26.800  1.00  0.00     0.251 A 
ATOM     15  O   UNL A   1      34.253  22.744  27.999  1.00  0.00    -0.269 OA
ATOM     16  N   UNL A   1      34.133  23.551  25.877  1.00  0.00    -0.301 N 
ATOM     17  H   UNL A   1      34.345  24.468  26.166  1.00  0.00     0.172 HD
BRANCH  11  18
ATOM     18  C   UNL A   1      33.291  19.711  24.322  1.00  0.00     0.032 C 
ATOM     19  C   UNL A   1      32.777  18.681  25.340  1.00  0.00     0.014 C 
ATOM     20  C   UNL A   1      32.284  19.773  23.162  1.00  0.00     0.014 C 
ENDBRANCH  11  18
ENDBRANCH   9  10
ENDBRANCH   8   9
ENDBRANCH   5   8
ENDBRANCH   3   4
ENDBRANCH   2   3
ENDBRANCH   1   2
BRANCH   1  21
ATOM     21  C   UNL A   1      31.563  29.051  25.763  1.00  0.00     0.002 C 
BRANCH  21  22
ATOM     22  C   UNL A   1      32.523  27.930  26.169  1.00  0.00     0.021 C 
BRANCH  22  23
ATOM     23  C   UNL A   1      33.702  28.384  27.023  1.00  0.00     0.116 C 
BRANCH  23  24
ATOM     24  N   UNL A   1      33.593  29.783  27.408  1.00  0.00    -0.352 N 
ATOM     25  C   UNL A   1      34.495  30.570  28.081  1.00  0.00     0.251 C 
ATOM     26  H   UNL A   1      32.755  30.228  27.148  1.00  0.00     0.163 HD
ATOM     27  O   UNL A   1      34.154  31.675  28.494  1.00  0.00    -0.269 OA
BRANCH  25  28
ATOM     28  C   UNL A   1      35.866  30.074  28.326  1.00  0.00     0.039 A 
ATOM     29  C   UNL A   1      36.813  30.165  27.304  1.00  0.00     0.014 A 
ATOM     30  C   UNL A   1      36.218  29.522  29.562  1.00  0.00     0.014 A 
ATOM     31  C   UNL A   1      38.129  29.759  27.542  1.00  0.00     0.010 A 
ATOM     32  C   UNL A   1      37.545  29.192  29.821  1.00  0.00     0.010 A 
ATOM     33  C   UNL A   1      38.515  29.303  28.813  1.00  0.00    -0.014 A 
BRANCH  33  34
ATOM     34  C   UNL A   1      39.926  28.943  29.108  1.00  0.00     0.031 A 
ATOM     35  C   UNL A   1      40.857  29.956  29.719  1.00  0.00     0.074 A 
ATOM     36  C   UNL A   1      40.386  27.719  28.774  1.00  0.00     0.049 A 
ATOM     37  N   UNL A   1      42.130  29.842  29.999  1.00  0.00    -0.248 NA
ATOM     38  C   UNL A   1      40.290  31.277  30.035  1.00  0.00     0.031 C 
ATOM     39  C   UNL A   1      39.594  26.659  28.144  1.00  0.00     0.029 A 
ATOM     40  N   UNL A   1      41.632  27.161  28.915  1.00  0.00    -0.354 N 
ATOM     41  C   UNL A   1      42.517  31.074  30.514  1.00  0.00     0.074 A 
ATOM     42  C   UNL A   1      41.359  31.938  30.453  1.00  0.00     0.031 C 
ATOM     43  C   UNL A   1      40.365  25.572  27.980  1.00  0.00     0.029 A 
ATOM     44  C   UNL A   1      41.716  25.869  28.448  1.00  0.00     0.049 A 
ATOM     45  H   UNL A   1      42.395  27.640  29.312  1.00  0.00     0.167 HD
ATOM     46  C   UNL A   1      43.721  31.447  31.012  1.00  0.00     0.031 A 
ATOM     47  C   UNL A   1      42.762  25.022  28.392  1.00  0.00     0.031 A 
ATOM     48  C   UNL A   1      44.870  30.584  31.072  1.00  0.00     0.049 A 
ATOM     49  C   UNL A   1      44.096  25.471  28.923  1.00  0.00     0.074 A 
ATOM     50  C   UNL A   1      46.122  30.854  31.598  1.00  0.00     0.029 A 
ATOM     51  N   UNL A   1      44.913  29.285  30.588  1.00  0.00    -0.354 N 
ATOM     52  N   UNL A   1      44.424  26.619  29.463  1.00  0.00    -0.248 NA
ATOM     53  C   UNL A   1      45.200  24.502  28.848  1.00  0.00     0.031 C 
ATOM     54  C   UNL A   1      46.938  29.741  31.377  1.00  0.00     0.029 A 
ATOM     55  C   UNL A   1      46.176  28.751  30.777  1.00  0.00     0.049 A 
ATOM     56  H   UNL A   1      44.157  28.813  30.169  1.00  0.00     0.167 HD
ATOM     57  C   UNL A   1      45.764  26.500  29.820  1.00  0.00     0.074 A 
ATOM     58  C   UNL A   1      46.178  25.163  29.450  1.00  0.00     0.031 C 
ATOM     59  C   UNL A   1      46.576  27.416  30.405  1.00  0.00     0.031 A 
BRANCH  46  60
ATOM     60  C   UNL A   1      43.854  32.857  31.530  1.00  0.00    -0.014 A 
ATOM     61  C   UNL A   1      44.310  33.897  30.698  1.00  0.00     0.010 A 
ATOM     62  C   UNL A   1      43.477  33.157  32.851  1.00  0.00     0.010 A 
ATOM     63  C   UNL A   1      44.428  35.199  31.191  1.00  0.00     0.020 A 
ATOM     64  C   UNL A   1      43.564  34.465  33.339  1.00  0.00     0.020 A 
ATOM     65  C   UNL A   1      44.055  35.474  32.509  1.00  0.00     0.054 A 
BRANCH  65  66
ATOM     66  S   UNL A   1      44.199  37.179  33.112  1.00  0.00     0.124 S 
ATOM     67  O   UNL A   1      43.058  37.273  34.021  1.00  0.00    -0.237 OA
ATOM     68  O   UNL A   1      45.512  37.181  33.752  1.00  0.00    -0.237 OA
ATOM     69  O   UNL A   1      44.097  37.987  31.901  1.00  0.00    -0.744 OA
ENDBRANCH  65  66
ENDBRANCH  46  60
BRANCH  47  70
ATOM     70  C   UNL A   1      42.587  23.660  27.816  1.00  0.00    -0.014 A 
ATOM     71  C   UNL A   1      42.140  22.594  28.616  1.00  0.00     0.010 A 
ATOM     72  C   UNL A   1      42.869  23.420  26.457  1.00  0.00     0.010 A 
ATOM     73  C   UNL A   1      41.999  21.311  28.077  1.00  0.00     0.020 A 
ATOM     74  C   UNL A   1      42.700  22.146  25.908  1.00  0.00     0.020 A 
ATOM     75  C   UNL A   1      42.279  21.096  26.726  1.00  0.00     0.054 A 
BRANCH  75  76
ATOM     76  S   UNL A   1      42.050  19.433  26.038  1.00  0.00     0.124 S 
ATOM     77  O   UNL A   1      40.614  19.403  25.786  1.00  0.00    -0.237 OA
ATOM     78  O   UNL A   1      42.902  19.462  24.852  1.00  0.00    -0.237 OA
ATOM     79  O   UNL A   1      42.518  18.553  27.109  1.00  0.00    -0.744 OA
ENDBRANCH  75  76
ENDBRANCH  47  70
BRANCH  59  80
ATOM     80  C   UNL A   1      47.988  26.994  30.719  1.00  0.00    -0.014 A 
ATOM     81  C   UNL A   1      49.050  27.271  29.841  1.00  0.00     0.010 A 
ATOM     82  C   UNL A   1      48.261  26.354  31.943  1.00  0.00     0.010 A 
ATOM     83  C   UNL A   1      50.355  26.888  30.166  1.00  0.00     0.020 A 
ATOM     84  C   UNL A   1      49.568  25.999  32.287  1.00  0.00     0.020 A 
ATOM     85  C   UNL A   1      50.605  26.255  31.388  1.00  0.00     0.054 A 
BRANCH  85  86
ATOM     86  S   UNL A   1      52.313  25.810  31.805  1.00  0.00     0.124 S 
ATOM     87  O   UNL A   1      52.177  24.406  32.180  1.00  0.00    -0.237 OA
ATOM     88  O   UNL A   1      53.023  26.063  30.554  1.00  0.00    -0.237 OA
ATOM     89  O   UNL A   1      52.650  26.717  32.901  1.00  0.00    -0.744 OA
ENDBRANCH  85  86
ENDBRANCH  59  80
ENDBRANCH  33  34
ENDBRANCH  25  28
ENDBRANCH  23  24
ENDBRANCH  22  23
ENDBRANCH  21  22
ENDBRANCH   1  21
TORSDOF 19
ENDMDL
MODEL 2
REMARK VINA RESULT:     -10.0      1.415      2.032
REMARK SMILES CC(C)c1cc(=O)[nH]c(SCC(=O)NCCCCCCNC(=O)c2ccc(-c3c4nc(c(-c5ccc(S(=O)(=O)[O-])cc5)c5ccc([nH]5)c(-c5ccc(S(=O)(=O)[O-])cc5)c5nc(c(-c6ccc(S(=O)(=O)[O-])cc6)c6ccc3[nH]6)C=C5)C=C4)cc2)n1
REMARK SMILES IDX 17 1 16 2 15 3 14 4 12 5 13 6 11 8 10 9 9 10 4 11 5 12 84 13
REMARK SMILES IDX 6 14 7 15 8 16 2 18 1 19 3 20 18 21 19 22 20 23 21 24 22 25
REMARK SMILES IDX 23 27 24 28 25 29 83 30 26 31 82 32 27 33 28 34 29 35 76 36
REMARK SMILES IDX 30 37 81 38 75 39 77 40 31 41 80 42 74 43 73 44 32 46 62 47
REMARK SMILES IDX 43 48 61 49 44 50 47 51 60 52 78 53 45 54 46 55 59 57 79 58
REMARK SMILES IDX 48 59 33 60 34 61 42 62 35 63 41 64 36 65 37 66 38 67 39 68
REMARK SMILES IDX 40 69 63 70 64 71 72 72 65 73 71 74 66 75 67 76 68 77 69 78
REMARK SMILES IDX 70 79 49 80 50 81 58 82 51 83 57 84 52 85 53 86 54 87 55 88
REMARK SMILES IDX 56 89
REMARK H PARENT 14 7 8 17 21 26 77 45 47 56
REMARK Flexibility Score: inf
ROOT
ATOM      1  C   UNL A   1      33.137  26.353  24.433  1.00  0.00     0.002 C 
ENDROOT
BRANCH   1   2
ATOM      2  C   UNL A   1      31.620  26.542  24.284  1.00  0.00     0.021 C 
BRANCH   2   3
ATOM      3  C   UNL A   1      30.840  26.360  25.587  1.00  0.00     0.116 C 
BRANCH   3   4
ATOM      4  N   UNL A   1      31.547  25.474  26.490  1.00  0.00    -0.355 N 
ATOM      5  C   UNL A   1      31.485  24.121  26.635  1.00  0.00     0.230 C 
ATOM      6  O   UNL A   1      32.249  23.614  27.461  1.00  0.00    -0.274 OA
ATOM      7  H   UNL A   1      32.174  25.924  27.100  1.00  0.00     0.163 HD
BRANCH   5   8
ATOM      8  C   UNL A   1      30.641  23.259  25.715  1.00  0.00     0.178 C 
BRANCH   8   9
ATOM      9  S   UNL A   1      31.326  22.948  24.072  1.00  0.00    -0.078 SA
BRANCH   9  10
ATOM     10  C   UNL A   1      32.699  21.954  24.411  1.00  0.00     0.168 A 
ATOM     11  C   UNL A   1      34.913  21.427  24.570  1.00  0.00     0.051 A 
ATOM     12  C   UNL A   1      34.641  20.181  24.996  1.00  0.00     0.095 A 
ATOM     13  N   UNL A   1      33.920  22.330  24.250  1.00  0.00    -0.229 NA
ATOM     14  C   UNL A   1      33.239  19.771  25.148  1.00  0.00     0.251 A 
ATOM     15  O   UNL A   1      32.939  18.639  25.510  1.00  0.00    -0.269 OA
ATOM     16  N   UNL A   1      32.324  20.726  24.850  1.00  0.00    -0.301 N 
ATOM     17  H   UNL A   1      31.366  20.525  24.954  1.00  0.00     0.172 HD
BRANCH  11  18
ATOM     18  C   UNL A   1      36.355  21.914  24.392  1.00  0.00     0.032 C 
ATOM     19  C   UNL A   1      36.544  22.827  23.171  1.00  0.00     0.014 C 
ATOM     20  C   UNL A   1      36.909  22.649  25.623  1.00  0.00     0.014 C 
ENDBRANCH  11  18
ENDBRANCH   9  10
ENDBRANCH   8   9
ENDBRANCH   5   8
ENDBRANCH   3   4
ENDBRANCH   2   3
ENDBRANCH   1   2
BRANCH   1  21
ATOM     21  C   UNL A   1      33.985  27.582  24.089  1.00  0.00     0.002 C 
BRANCH  21  22
ATOM     22  C   UNL A   1      33.644  28.847  24.879  1.00  0.00     0.021 C 
BRANCH  22  23
ATOM     23  C   UNL A   1      33.923  28.754  26.376  1.00  0.00     0.116 C 
BRANCH  23  24
ATOM     24  N   UNL A   1      33.712  30.025  27.053  1.00  0.00    -0.352 N 
ATOM     25  C   UNL A   1      34.503  30.654  27.982  1.00  0.00     0.251 C 
ATOM     26  H   UNL A   1      32.886  30.500  26.808  1.00  0.00     0.163 HD
ATOM     27  O   UNL A   1      34.072  31.627  28.594  1.00  0.00    -0.269 OA
BRANCH  25  28
ATOM     28  C   UNL A   1      35.862  30.143  28.260  1.00  0.00     0.039 A 
ATOM     29  C   UNL A   1      36.830  30.210  27.255  1.00  0.00     0.014 A 
ATOM     30  C   UNL A   1      36.182  29.601  29.508  1.00  0.00     0.014 A 
ATOM     31  C   UNL A   1      38.135  29.789  27.523  1.00  0.00     0.010 A 
ATOM     32  C   UNL A   1      37.500  29.256  29.797  1.00  0.00     0.010 A 
ATOM     33  C   UNL A   1      38.491  29.343  28.807  1.00  0.00    -0.014 A 
BRANCH  33  34
ATOM     34  C   UNL A   1      39.891  28.967  29.134  1.00  0.00     0.031 A 
ATOM     35  C   UNL A   1      40.814  29.966  29.778  1.00  0.00     0.074 A 
ATOM     36  C   UNL A   1      40.348  27.743  28.799  1.00  0.00     0.049 A 
ATOM     37  N   UNL A   1      42.079  29.838  30.089  1.00  0.00    -0.248 NA
ATOM     38  C   UNL A   1      40.250  31.289  30.093  1.00  0.00     0.031 C 
ATOM     39  C   UNL A   1      39.564  26.697  28.138  1.00  0.00     0.029 A 
ATOM     40  N   UNL A   1      41.585  27.172  28.965  1.00  0.00    -0.354 N 
ATOM     41  C   UNL A   1      42.463  31.061  30.626  1.00  0.00     0.074 A 
ATOM     42  C   UNL A   1      41.315  31.936  30.545  1.00  0.00     0.031 C 
ATOM     43  C   UNL A   1      40.330  25.605  27.982  1.00  0.00     0.029 A 
ATOM     44  C   UNL A   1      41.670  25.885  28.487  1.00  0.00     0.049 A 
ATOM     45  H   UNL A   1      42.343  27.641  29.386  1.00  0.00     0.167 HD
ATOM     46  C   UNL A   1      43.657  31.420  31.158  1.00  0.00     0.031 A 
ATOM     47  C   UNL A   1      42.710  25.030  28.448  1.00  0.00     0.031 A 
ATOM     48  C   UNL A   1      44.797  30.545  31.238  1.00  0.00     0.049 A 
ATOM     49  C   UNL A   1      44.035  25.461  29.017  1.00  0.00     0.074 A 
ATOM     50  C   UNL A   1      46.037  30.799  31.798  1.00  0.00     0.029 A 
ATOM     51  N   UNL A   1      44.842  29.251  30.741  1.00  0.00    -0.354 N 
ATOM     52  N   UNL A   1      44.359  26.601  29.577  1.00  0.00    -0.248 NA
ATOM     53  C   UNL A   1      45.132  24.484  28.960  1.00  0.00     0.031 C 
ATOM     54  C   UNL A   1      46.850  29.681  31.586  1.00  0.00     0.029 A 
ATOM     55  C   UNL A   1      46.095  28.704  30.957  1.00  0.00     0.049 A 
ATOM     56  H   UNL A   1      44.092  28.790  30.299  1.00  0.00     0.167 HD
ATOM     57  C   UNL A   1      45.688  26.467  29.967  1.00  0.00     0.074 A 
ATOM     58  C   UNL A   1      46.100  25.130  29.593  1.00  0.00     0.031 C 
ATOM     59  C   UNL A   1      46.492  27.370  30.581  1.00  0.00     0.031 A 
BRANCH  46  60
ATOM     60  C   UNL A   1      43.789  32.823  31.693  1.00  0.00    -0.014 A 
ATOM     61  C   UNL A   1      44.160  33.889  30.853  1.00  0.00     0.010 A 
ATOM     62  C   UNL A   1      43.496  33.088  33.043  1.00  0.00     0.010 A 
ATOM     63  C   UNL A   1      44.278  35.185  31.362  1.00  0.00     0.020 A 
ATOM     64  C   UNL A   1      43.582  34.389  33.549  1.00  0.00     0.020 A 
ATOM     65  C   UNL A   1      43.990  35.426  32.708  1.00  0.00     0.054 A 
BRANCH  65  66
ATOM     66  S   UNL A   1      44.130  37.122  33.335  1.00  0.00     0.124 S 
ATOM     67  O   UNL A   1      42.867  37.285  34.049  1.00  0.00    -0.237 OA
ATOM     68  O   UNL A   1      45.322  37.054  34.176  1.00  0.00    -0.237 OA
ATOM     69  O   UNL A   1      44.269  37.929  32.126  1.00  0.00    -0.744 OA
ENDBRANCH  65  66
ENDBRANCH  46  60
BRANCH  47  70
ATOM     70  C   UNL A   1      42.539  23.674  27.854  1.00  0.00    -0.014 A 
ATOM     71  C   UNL A   1      42.097  22.597  28.641  1.00  0.00     0.010 A 
ATOM     72  C   UNL A   1      42.818  23.454  26.492  1.00  0.00     0.010 A 
ATOM     73  C   UNL A   1      41.960  21.320  28.085  1.00  0.00     0.020 A 
ATOM     74  C   UNL A   1      42.651  22.188  25.925  1.00  0.00     0.020 A 
ATOM     75  C   UNL A   1      42.236  21.125  26.729  1.00  0.00     0.054 A 
BRANCH  75  76
ATOM     76  S   UNL A   1      42.012  19.470  26.020  1.00  0.00     0.124 S 
ATOM     77  O   UNL A   1      42.829  19.544  24.814  1.00  0.00    -0.237 OA
ATOM     78  O   UNL A   1      42.520  18.603  27.079  1.00  0.00    -0.237 OA
ATOM     79  O   UNL A   1      40.570  19.387  25.796  1.00  0.00    -0.744 OA
ENDBRANCH  75  76
ENDBRANCH  47  70
BRANCH  59  80
ATOM     80  C   UNL A   1      47.893  26.932  30.927  1.00  0.00    -0.014 A 
ATOM     81  C   UNL A   1      48.955  27.087  30.019  1.00  0.00     0.010 A 
ATOM     82  C   UNL A   1      48.155  26.404  32.205  1.00  0.00     0.010 A 
ATOM     83  C   UNL A   1      50.249  26.694  30.372  1.00  0.00     0.020 A 
ATOM     84  C   UNL A   1      49.453  26.040  32.573  1.00  0.00     0.020 A 
ATOM     85  C   UNL A   1      50.490  26.173  31.648  1.00  0.00     0.054 A 
BRANCH  85  86
ATOM     86  S   UNL A   1      52.185  25.712  32.096  1.00  0.00     0.124 S 
ATOM     87  O   UNL A   1      52.077  24.264  32.246  1.00  0.00    -0.237 OA
ATOM     88  O   UNL A   1      52.956  26.171  30.943  1.00  0.00    -0.237 OA
ATOM     89  O   UNL A   1      52.430  26.449  33.335  1.00  0.00    -0.744 OA
ENDBRANCH  85  86
ENDBRANCH  59  80
ENDBRANCH  33  34
ENDBRANCH  25  28
ENDBRANCH  23  24
ENDBRANCH  22  23
ENDBRANCH  21  22
ENDBRANCH   1  21
TORSDOF 19
ENDMDL
MODEL 3
REMARK VINA RESULT:      -9.8      4.509     10.521
REMARK SMILES CC(C)c1cc(=O)[nH]c(SCC(=O)NCCCCCCNC(=O)c2ccc(-c3c4nc(c(-c5ccc(S(=O)(=O)[O-])cc5)c5ccc([nH]5)c(-c5ccc(S(=O)(=O)[O-])cc5)c5nc(c(-c6ccc(S(=O)(=O)[O-])cc6)c6ccc3[nH]6)C=C5)C=C4)cc2)n1
REMARK SMILES IDX 17 1 16 2 15 3 14 4 12 5 13 6 11 8 10 9 9 10 4 11 5 12 84 13
REMARK SMILES IDX 6 14 7 15 8 16 2 18 1 19 3 20 18 21 19 22 20 23 21 24 22 25
REMARK SMILES IDX 23 27 24 28 25 29 83 30 26 31 82 32 27 33 28 34 29 35 76 36
REMARK SMILES IDX 30 37 81 38 75 39 77 40 31 41 80 42 74 43 73 44 32 46 62 47
REMARK SMILES IDX 43 48 61 49 44 50 47 51 60 52 78 53 45 54 46 55 59 57 79 58
REMARK SMILES IDX 48 59 33 60 34 61 42 62 35 63 41 64 36 65 37 66 38 67 39 68
REMARK SMILES IDX 40 69 63 70 64 71 72 72 65 73 71 74 66 75 67 76 68 77 69 78
REMARK SMILES IDX 70 79 49 80 50 81 58 82 51 83 57 84 52 85 53 86 54 87 55 88
REMARK SMILES IDX 56 89
REMARK H PARENT 14 7 8 17 21 26 77 45 47 56
REMARK Flexibility Score: inf
ROOT
ATOM      1  C   UNL A   1      38.271  21.937  26.043  1.00  0.00     0.002 C 
ENDROOT
BRANCH   1   2
ATOM      2  C   UNL A   1      37.638  23.335  26.095  1.00  0.00     0.021 C 
BRANCH   2   3
ATOM      3  C   UNL A   1      36.109  23.327  26.069  1.00  0.00     0.116 C 
BRANCH   3   4
ATOM      4  N   UNL A   1      35.605  21.982  25.875  1.00  0.00    -0.355 N 
ATOM      5  C   UNL A   1      34.716  21.489  24.969  1.00  0.00     0.230 C 
ATOM      6  O   UNL A   1      34.505  20.274  24.999  1.00  0.00    -0.274 OA
ATOM      7  H   UNL A   1      35.965  21.314  26.503  1.00  0.00     0.163 HD
BRANCH   5   8
ATOM      8  C   UNL A   1      34.135  22.358  23.869  1.00  0.00     0.178 C 
BRANCH   8   9
ATOM      9  S   UNL A   1      32.332  22.439  23.792  1.00  0.00    -0.078 SA
BRANCH   9  10
ATOM     10  C   UNL A   1      32.046  24.023  23.163  1.00  0.00     0.168 A 
ATOM     11  C   UNL A   1      31.188  26.136  23.123  1.00  0.00     0.051 A 
ATOM     12  C   UNL A   1      31.754  26.402  21.933  1.00  0.00     0.095 A 
ATOM     13  N   UNL A   1      31.319  24.911  23.745  1.00  0.00    -0.229 NA
ATOM     14  C   UNL A   1      32.558  25.362  21.279  1.00  0.00     0.251 A 
ATOM     15  O   UNL A   1      33.075  25.546  20.183  1.00  0.00    -0.269 OA
ATOM     16  N   UNL A   1      32.670  24.201  21.971  1.00  0.00    -0.301 N 
ATOM     17  H   UNL A   1      33.216  23.470  21.601  1.00  0.00     0.172 HD
BRANCH  11  18
ATOM     18  C   UNL A   1      30.338  27.181  23.855  1.00  0.00     0.032 C 
ATOM     19  C   UNL A   1      31.154  28.080  24.796  1.00  0.00     0.014 C 
ATOM     20  C   UNL A   1      29.537  28.090  22.909  1.00  0.00     0.014 C 
ENDBRANCH  11  18
ENDBRANCH   9  10
ENDBRANCH   8   9
ENDBRANCH   5   8
ENDBRANCH   3   4
ENDBRANCH   2   3
ENDBRANCH   1   2
BRANCH   1  21
ATOM     21  C   UNL A   1      39.803  21.914  26.037  1.00  0.00     0.002 C 
BRANCH  21  22
ATOM     22  C   UNL A   1      40.458  22.010  27.417  1.00  0.00     0.021 C 
BRANCH  22  23
ATOM     23  C   UNL A   1      41.738  22.838  27.455  1.00  0.00     0.116 C 
BRANCH  23  24
ATOM     24  N   UNL A   1      41.884  23.676  26.274  1.00  0.00    -0.352 N 
ATOM     25  C   UNL A   1      41.730  25.035  26.150  1.00  0.00     0.251 C 
ATOM     26  H   UNL A   1      42.129  23.201  25.448  1.00  0.00     0.163 HD
ATOM     27  O   UNL A   1      41.699  25.548  25.035  1.00  0.00    -0.269 OA
BRANCH  25  28
ATOM     28  C   UNL A   1      41.580  25.872  27.360  1.00  0.00     0.039 A 
ATOM     29  C   UNL A   1      42.656  26.659  27.777  1.00  0.00     0.014 A 
ATOM     30  C   UNL A   1      40.381  25.883  28.078  1.00  0.00     0.014 A 
ATOM     31  C   UNL A   1      42.507  27.503  28.881  1.00  0.00     0.010 A 
ATOM     32  C   UNL A   1      40.211  26.781  29.128  1.00  0.00     0.010 A 
ATOM     33  C   UNL A   1      41.272  27.599  29.544  1.00  0.00    -0.014 A 
BRANCH  33  34
ATOM     34  C   UNL A   1      41.072  28.549  30.668  1.00  0.00     0.031 A 
ATOM     35  C   UNL A   1      41.922  28.450  31.907  1.00  0.00     0.074 A 
ATOM     36  C   UNL A   1      40.086  29.467  30.598  1.00  0.00     0.049 A 
ATOM     37  N   UNL A   1      41.860  29.155  33.008  1.00  0.00    -0.248 NA
ATOM     38  C   UNL A   1      42.963  27.409  31.919  1.00  0.00     0.031 C 
ATOM     39  C   UNL A   1      39.170  29.643  29.468  1.00  0.00     0.029 A 
ATOM     40  N   UNL A   1      39.687  30.425  31.497  1.00  0.00    -0.354 N 
ATOM     41  C   UNL A   1      42.842  28.639  33.844  1.00  0.00     0.074 A 
ATOM     42  C   UNL A   1      43.446  27.525  33.148  1.00  0.00     0.031 C 
ATOM     43  C   UNL A   1      38.337  30.663  29.731  1.00  0.00     0.029 A 
ATOM     44  C   UNL A   1      38.626  31.185  31.063  1.00  0.00     0.049 A 
ATOM     45  H   UNL A   1      40.120  30.555  32.373  1.00  0.00     0.167 HD
ATOM     46  C   UNL A   1      43.224  29.065  35.073  1.00  0.00     0.031 A 
ATOM     47  C   UNL A   1      37.953  32.182  31.670  1.00  0.00     0.031 A 
ATOM     48  C   UNL A   1      42.621  30.175  35.763  1.00  0.00     0.049 A 
ATOM     49  C   UNL A   1      38.375  32.617  33.047  1.00  0.00     0.074 A 
ATOM     50  C   UNL A   1      42.964  30.713  36.991  1.00  0.00     0.029 A 
ATOM     51  N   UNL A   1      41.549  30.916  35.289  1.00  0.00    -0.354 N 
ATOM     52  N   UNL A   1      39.348  32.156  33.796  1.00  0.00    -0.248 NA
ATOM     53  C   UNL A   1      37.614  33.717  33.658  1.00  0.00     0.031 C 
ATOM     54  C   UNL A   1      42.061  31.738  37.287  1.00  0.00     0.029 A 
ATOM     55  C   UNL A   1      41.200  31.888  36.212  1.00  0.00     0.049 A 
ATOM     56  H   UNL A   1      41.101  30.772  34.423  1.00  0.00     0.167 HD
ATOM     57  C   UNL A   1      39.336  32.930  34.952  1.00  0.00     0.074 A 
ATOM     58  C   UNL A   1      38.270  33.898  34.795  1.00  0.00     0.031 C 
ATOM     59  C   UNL A   1      40.137  32.847  36.042  1.00  0.00     0.031 A 
BRANCH  46  60
ATOM     60  C   UNL A   1      44.346  28.322  35.752  1.00  0.00    -0.014 A 
ATOM     61  C   UNL A   1      45.686  28.717  35.584  1.00  0.00     0.010 A 
ATOM     62  C   UNL A   1      44.055  27.241  36.605  1.00  0.00     0.010 A 
ATOM     63  C   UNL A   1      46.716  28.019  36.220  1.00  0.00     0.020 A 
ATOM     64  C   UNL A   1      45.081  26.560  37.269  1.00  0.00     0.020 A 
ATOM     65  C   UNL A   1      46.406  26.944  37.058  1.00  0.00     0.054 A 
BRANCH  65  66
ATOM     66  S   UNL A   1      47.763  26.072  37.887  1.00  0.00     0.124 S 
ATOM     67  O   UNL A   1      48.931  26.588  37.177  1.00  0.00    -0.237 OA
ATOM     68  O   UNL A   1      47.625  26.513  39.273  1.00  0.00    -0.237 OA
ATOM     69  O   UNL A   1      47.466  24.662  37.652  1.00  0.00    -0.744 OA
ENDBRANCH  65  66
ENDBRANCH  46  60
BRANCH  47  70
ATOM     70  C   UNL A   1      36.813  32.843  30.976  1.00  0.00    -0.014 A 
ATOM     71  C   UNL A   1      37.042  33.815  29.987  1.00  0.00     0.010 A 
ATOM     72  C   UNL A   1      35.487  32.500  31.301  1.00  0.00     0.010 A 
ATOM     73  C   UNL A   1      35.968  34.451  29.353  1.00  0.00     0.020 A 
ATOM     74  C   UNL A   1      34.412  33.109  30.648  1.00  0.00     0.020 A 
ATOM     75  C   UNL A   1      34.660  34.092  29.687  1.00  0.00     0.054 A 
BRANCH  75  76
ATOM     76  S   UNL A   1      33.284  34.899  28.824  1.00  0.00     0.124 S 
ATOM     77  O   UNL A   1      33.965  35.964  28.096  1.00  0.00    -0.237 OA
ATOM     78  O   UNL A   1      32.747  33.815  28.006  1.00  0.00    -0.237 OA
ATOM     79  O   UNL A   1      32.411  35.340  29.910  1.00  0.00    -0.744 OA
ENDBRANCH  75  76
ENDBRANCH  47  70
BRANCH  59  80
ATOM     80  C   UNL A   1      39.922  33.856  37.142  1.00  0.00    -0.014 A 
ATOM     81  C   UNL A   1      40.429  35.163  37.048  1.00  0.00     0.010 A 
ATOM     82  C   UNL A   1      39.152  33.499  38.265  1.00  0.00     0.010 A 
ATOM     83  C   UNL A   1      40.197  36.087  38.072  1.00  0.00     0.020 A 
ATOM     84  C   UNL A   1      38.890  34.428  39.275  1.00  0.00     0.020 A 
ATOM     85  C   UNL A   1      39.428  35.713  39.178  1.00  0.00     0.054 A 
BRANCH  85  86
ATOM     86  S   UNL A   1      39.104  36.944  40.471  1.00  0.00     0.124 S 
ATOM     87  O   UNL A   1      38.539  38.049  39.702  1.00  0.00    -0.237 OA
ATOM     88  O   UNL A   1      38.170  36.245  41.350  1.00  0.00    -0.237 OA
ATOM     89  O   UNL A   1      40.423  37.197  41.047  1.00  0.00    -0.744 OA
ENDBRANCH  85  86
ENDBRANCH  59  80
ENDBRANCH  33  34
ENDBRANCH  25  28
ENDBRANCH  23  24
ENDBRANCH  22  23
ENDBRANCH  21  22
ENDBRANCH   1  21
TORSDOF 19
ENDMDL
