MODEL 1
REMARK VINA RESULT:     -12.5      0.000      0.000
REMARK SMILES Cc1cccc(OC2(C(=O)NCCCCCCNC(=O)c3ccc(-c4c5nc(c(-c6ccc(S(=O)(=O)[O-])cc6)c6ccc([nH]6)c(-c6ccc(S(=O)(=O)[O-])cc6)c6nc(c(-c7ccc(S(=O)(=O)[O-])cc7)c7ccc4[nH]7)C=C6)C=C5)cc3)CCN(C(=O)c3cnc[nH]c3=O)CC2)c1
REMARK SMILES IDX 15 1 14 2 13 3 12 4 11 5 9 6 10 7 8 9 81 10 94 11 82 12
REMARK SMILES IDX 93 13 83 14 84 15 85 16 7 17 6 18 1 19 2 20 3 21 95 22 4 23
REMARK SMILES IDX 5 24 86 25 87 26 91 27 88 28 90 29 92 30 89 31 16 33 17 34
REMARK SMILES IDX 18 35 19 36 20 38 21 39 22 40 80 41 23 42 79 43 24 44 25 45
REMARK SMILES IDX 26 46 73 47 27 48 78 49 72 50 74 51 28 52 77 53 71 54 70 55
REMARK SMILES IDX 29 57 59 58 40 59 58 60 41 61 44 62 57 63 75 64 42 65 43 66
REMARK SMILES IDX 56 68 76 69 45 70 30 71 31 72 39 73 32 74 38 75 33 76 34 77
REMARK SMILES IDX 35 78 36 79 37 80 60 81 61 82 69 83 62 84 68 85 63 86 64 87
REMARK SMILES IDX 65 88 66 89 67 90 46 91 47 92 55 93 48 94 54 95 49 96 50 97
REMARK SMILES IDX 51 98 52 99 53 100
REMARK H PARENT 11 8 90 32 18 37 74 56 44 67
REMARK Flexibility Score: inf
ROOT
ATOM      1  C   UNL A   1      34.985  22.686  26.432  1.00  0.00     0.002 C 
ENDROOT
BRANCH   1   2
ATOM      2  C   UNL A   1      33.473  22.479  26.269  1.00  0.00     0.002 C 
BRANCH   2   3
ATOM      3  C   UNL A   1      32.532  23.294  27.164  1.00  0.00     0.021 C 
BRANCH   3   4
ATOM      4  C   UNL A   1      31.557  24.257  26.474  1.00  0.00     0.116 C 
BRANCH   4   5
ATOM      5  N   UNL A   1      31.585  25.616  26.997  1.00  0.00    -0.353 N 
ATOM      6  C   UNL A   1      31.324  26.844  26.460  1.00  0.00     0.264 C 
ATOM      7  O   UNL A   1      31.243  27.759  27.293  1.00  0.00    -0.270 OA
ATOM      8  H   UNL A   1      31.850  25.659  27.943  1.00  0.00     0.163 HD
BRANCH   6   9
ATOM      9  C   UNL A   1      31.078  27.125  24.934  1.00  0.00     0.190 C 
ATOM     10  C   UNL A   1      29.783  26.481  24.421  1.00  0.00     0.080 C 
ATOM     11  C   UNL A   1      31.020  28.663  24.715  1.00  0.00     0.080 C 
ATOM     12  C   UNL A   1      29.368  26.925  23.028  1.00  0.00     0.124 C 
ATOM     13  C   UNL A   1      30.655  28.990  23.258  1.00  0.00     0.124 C 
ATOM     14  N   UNL A   1      29.372  28.372  22.961  1.00  0.00    -0.338 N 
ATOM     15  C   UNL A   1      28.178  29.061  23.051  1.00  0.00     0.261 C 
ATOM     16  O   UNL A   1      27.195  28.633  23.650  1.00  0.00    -0.269 OA
BRANCH   9  17
ATOM     17  O   UNL A   1      32.318  26.785  24.270  1.00  0.00    -0.477 OA
BRANCH  17  18
ATOM     18  C   UNL A   1      32.642  25.845  23.355  1.00  0.00     0.121 A 
ATOM     19  C   UNL A   1      32.891  22.122  22.627  1.00  0.00     0.044 C 
ATOM     20  C   UNL A   1      32.892  23.610  22.423  1.00  0.00    -0.047 A 
ATOM     21  C   UNL A   1      32.984  24.142  21.135  1.00  0.00     0.003 A 
ATOM     22  C   UNL A   1      32.761  24.474  23.524  1.00  0.00     0.049 A 
ATOM     23  C   UNL A   1      32.930  25.520  20.953  1.00  0.00     0.004 A 
ATOM     24  C   UNL A   1      32.748  26.357  22.056  1.00  0.00     0.046 A 
ENDBRANCH  17  18
ENDBRANCH   9  17
BRANCH  15  25
ATOM     25  C   UNL A   1      28.138  30.358  22.352  1.00  0.00     0.123 A 
ATOM     26  C   UNL A   1      27.825  30.414  21.050  1.00  0.00     0.132 A 
ATOM     27  C   UNL A   1      28.492  31.627  23.017  1.00  0.00     0.263 A 
ATOM     28  N   UNL A   1      27.771  31.565  20.297  1.00  0.00    -0.246 NA
ATOM     29  N   UNL A   1      28.488  32.725  22.204  1.00  0.00    -0.312 N 
ATOM     30  O   UNL A   1      28.762  31.724  24.209  1.00  0.00    -0.269 OA
ATOM     31  C   UNL A   1      28.121  32.654  20.893  1.00  0.00     0.199 A 
ATOM     32  H   UNL A   1      28.758  33.596  22.576  1.00  0.00     0.171 HD
ENDBRANCH  15  25
ENDBRANCH   6   9
ENDBRANCH   4   5
ENDBRANCH   3   4
ENDBRANCH   2   3
ENDBRANCH   1   2
BRANCH   1  33
ATOM     33  C   UNL A   1      35.901  21.995  25.420  1.00  0.00     0.021 C 
BRANCH  33  34
ATOM     34  C   UNL A   1      37.307  22.557  25.331  1.00  0.00     0.116 C 
BRANCH  34  35
ATOM     35  N   UNL A   1      38.176  22.236  26.455  1.00  0.00    -0.352 N 
ATOM     36  C   UNL A   1      39.474  22.752  26.445  1.00  0.00     0.251 C 
ATOM     37  H   UNL A   1      37.858  21.673  27.198  1.00  0.00     0.163 HD
ATOM     38  O   UNL A   1      40.455  22.180  26.021  1.00  0.00    -0.269 OA
BRANCH  36  39
ATOM     39  C   UNL A   1      39.501  24.195  26.774  1.00  0.00     0.039 A 
ATOM     40  C   UNL A   1      40.283  25.096  26.054  1.00  0.00     0.014 A 
ATOM     41  C   UNL A   1      38.926  24.545  27.997  1.00  0.00     0.014 A 
ATOM     42  C   UNL A   1      40.604  26.325  26.634  1.00  0.00     0.010 A 
ATOM     43  C   UNL A   1      39.332  25.704  28.609  1.00  0.00     0.010 A 
ATOM     44  C   UNL A   1      40.190  26.586  27.941  1.00  0.00    -0.014 A 
BRANCH  44  45
ATOM     45  C   UNL A   1      40.576  27.737  28.745  1.00  0.00     0.031 A 
ATOM     46  C   UNL A   1      39.711  28.940  28.743  1.00  0.00     0.074 A 
ATOM     47  C   UNL A   1      41.533  27.582  29.686  1.00  0.00     0.049 A 
ATOM     48  N   UNL A   1      40.010  30.064  29.298  1.00  0.00    -0.248 NA
ATOM     49  C   UNL A   1      38.419  28.969  28.059  1.00  0.00     0.031 C 
ATOM     50  C   UNL A   1      41.721  28.385  30.891  1.00  0.00     0.029 A 
ATOM     51  N   UNL A   1      42.682  26.790  29.629  1.00  0.00    -0.354 N 
ATOM     52  C   UNL A   1      38.859  30.822  29.341  1.00  0.00     0.074 A 
ATOM     53  C   UNL A   1      37.932  30.143  28.468  1.00  0.00     0.031 C 
ATOM     54  C   UNL A   1      43.001  28.279  31.281  1.00  0.00     0.029 A 
ATOM     55  C   UNL A   1      43.697  27.556  30.230  1.00  0.00     0.049 A 
ATOM     56  H   UNL A   1      42.764  25.887  29.249  1.00  0.00     0.167 HD
ATOM     57  C   UNL A   1      38.771  31.852  30.230  1.00  0.00     0.031 A 
ATOM     58  C   UNL A   1      44.794  28.023  29.561  1.00  0.00     0.031 A 
ATOM     59  C   UNL A   1      40.050  32.087  30.898  1.00  0.00     0.049 A 
ATOM     60  C   UNL A   1      44.936  29.530  29.640  1.00  0.00     0.074 A 
ATOM     61  C   UNL A   1      40.539  31.771  32.155  1.00  0.00     0.029 A 
ATOM     62  N   UNL A   1      41.144  32.478  30.136  1.00  0.00    -0.354 N 
ATOM     63  N   UNL A   1      43.960  30.341  29.945  1.00  0.00    -0.248 NA
ATOM     64  C   UNL A   1      46.180  30.240  29.366  1.00  0.00     0.031 C 
ATOM     65  C   UNL A   1      41.953  31.904  32.119  1.00  0.00     0.029 A 
ATOM     66  C   UNL A   1      42.314  32.329  30.852  1.00  0.00     0.049 A 
ATOM     67  H   UNL A   1      41.091  32.816  29.212  1.00  0.00     0.167 HD
ATOM     68  C   UNL A   1      44.412  31.635  29.941  1.00  0.00     0.074 A 
ATOM     69  C   UNL A   1      45.812  31.518  29.572  1.00  0.00     0.031 C 
ATOM     70  C   UNL A   1      43.592  32.687  30.246  1.00  0.00     0.031 A 
BRANCH  57  71
ATOM     71  C   UNL A   1      37.466  32.472  30.692  1.00  0.00    -0.014 A 
ATOM     72  C   UNL A   1      36.706  33.246  29.788  1.00  0.00     0.010 A 
ATOM     73  C   UNL A   1      36.960  32.395  32.003  1.00  0.00     0.010 A 
ATOM     74  C   UNL A   1      35.569  33.968  30.188  1.00  0.00     0.020 A 
ATOM     75  C   UNL A   1      35.841  33.130  32.426  1.00  0.00     0.020 A 
ATOM     76  C   UNL A   1      35.158  33.926  31.516  1.00  0.00     0.054 A 
BRANCH  76  77
ATOM     77  S   UNL A   1      33.732  34.914  32.039  1.00  0.00     0.124 S 
ATOM     78  O   UNL A   1      34.364  36.064  32.680  1.00  0.00    -0.237 OA
ATOM     79  O   UNL A   1      33.058  35.187  30.774  1.00  0.00    -0.237 OA
ATOM     80  O   UNL A   1      33.008  34.026  32.948  1.00  0.00    -0.744 OA
ENDBRANCH  76  77
ENDBRANCH  57  71
BRANCH  58  81
ATOM     81  C   UNL A   1      45.199  27.184  28.397  1.00  0.00    -0.014 A 
ATOM     82  C   UNL A   1      46.056  26.094  28.659  1.00  0.00     0.010 A 
ATOM     83  C   UNL A   1      44.400  27.160  27.239  1.00  0.00     0.010 A 
ATOM     84  C   UNL A   1      45.956  24.920  27.909  1.00  0.00     0.020 A 
ATOM     85  C   UNL A   1      44.311  25.987  26.475  1.00  0.00     0.020 A 
ATOM     86  C   UNL A   1      45.023  24.852  26.873  1.00  0.00     0.054 A 
BRANCH  86  87
ATOM     87  S   UNL A   1      44.590  23.206  26.225  1.00  0.00     0.124 S 
ATOM     88  O   UNL A   1      45.865  22.499  26.280  1.00  0.00    -0.237 OA
ATOM     89  O   UNL A   1      43.576  22.762  27.182  1.00  0.00    -0.237 OA
ATOM     90  O   UNL A   1      44.086  23.493  24.885  1.00  0.00    -0.744 OA
ENDBRANCH  86  87
ENDBRANCH  58  81
BRANCH  70  91
ATOM     91  C   UNL A   1      43.897  34.163  30.080  1.00  0.00    -0.014 A 
ATOM     92  C   UNL A   1      43.878  34.852  28.859  1.00  0.00     0.010 A 
ATOM     93  C   UNL A   1      44.101  34.948  31.245  1.00  0.00     0.010 A 
ATOM     94  C   UNL A   1      44.100  36.237  28.797  1.00  0.00     0.020 A 
ATOM     95  C   UNL A   1      44.278  36.333  31.199  1.00  0.00     0.020 A 
ATOM     96  C   UNL A   1      44.299  36.970  29.967  1.00  0.00     0.054 A 
BRANCH  96  97
ATOM     97  S   UNL A   1      44.508  38.765  29.876  1.00  0.00     0.124 S 
ATOM     98  O   UNL A   1      45.500  38.899  28.813  1.00  0.00    -0.237 OA
ATOM     99  O   UNL A   1      43.165  39.232  29.542  1.00  0.00    -0.237 OA
ATOM    100  O   UNL A   1      44.969  39.125  31.215  1.00  0.00    -0.744 OA
ENDBRANCH  96  97
ENDBRANCH  70  91
ENDBRANCH  44  45
ENDBRANCH  36  39
ENDBRANCH  34  35
ENDBRANCH  33  34
ENDBRANCH   1  33
TORSDOF 19
ENDMDL
MODEL 2
REMARK VINA RESULT:     -12.4      4.059     10.337
REMARK SMILES Cc1cccc(OC2(C(=O)NCCCCCCNC(=O)c3ccc(-c4c5nc(c(-c6ccc(S(=O)(=O)[O-])cc6)c6ccc([nH]6)c(-c6ccc(S(=O)(=O)[O-])cc6)c6nc(c(-c7ccc(S(=O)(=O)[O-])cc7)c7ccc4[nH]7)C=C6)C=C5)cc3)CCN(C(=O)c3cnc[nH]c3=O)CC2)c1
REMARK SMILES IDX 15 1 14 2 13 3 12 4 11 5 9 6 10 7 8 9 81 10 94 11 82 12
REMARK SMILES IDX 93 13 83 14 84 15 85 16 7 17 6 18 1 19 2 20 3 21 95 22 4 23
REMARK SMILES IDX 5 24 86 25 87 26 91 27 88 28 90 29 92 30 89 31 16 33 17 34
REMARK SMILES IDX 18 35 19 36 20 38 21 39 22 40 80 41 23 42 79 43 24 44 25 45
REMARK SMILES IDX 26 46 73 47 27 48 78 49 72 50 74 51 28 52 77 53 71 54 70 55
REMARK SMILES IDX 29 57 59 58 40 59 58 60 41 61 44 62 57 63 75 64 42 65 43 66
REMARK SMILES IDX 56 68 76 69 45 70 30 71 31 72 39 73 32 74 38 75 33 76 34 77
REMARK SMILES IDX 35 78 36 79 37 80 60 81 61 82 69 83 62 84 68 85 63 86 64 87
REMARK SMILES IDX 65 88 66 89 67 90 46 91 47 92 55 93 48 94 54 95 49 96 50 97
REMARK SMILES IDX 51 98 52 99 53 100
REMARK H PARENT 11 8 90 32 18 37 74 56 44 67
REMARK Flexibility Score: inf
ROOT
ATOM      1  C   UNL A   1      33.205  27.968  25.673  1.00  0.00     0.002 C 
ENDROOT
BRANCH   1   2
ATOM      2  C   UNL A   1      31.964  27.551  26.474  1.00  0.00     0.002 C 
BRANCH   2   3
ATOM      3  C   UNL A   1      31.153  26.349  25.976  1.00  0.00     0.021 C 
BRANCH   3   4
ATOM      4  C   UNL A   1      31.806  24.964  26.078  1.00  0.00     0.116 C 
BRANCH   4   5
ATOM      5  N   UNL A   1      30.860  23.860  26.170  1.00  0.00    -0.353 N 
ATOM      6  C   UNL A   1      30.943  22.519  25.930  1.00  0.00     0.264 C 
ATOM      7  O   UNL A   1      29.972  21.866  26.340  1.00  0.00    -0.270 OA
ATOM      8  H   UNL A   1      29.967  24.143  26.471  1.00  0.00     0.163 HD
BRANCH   6   9
ATOM      9  C   UNL A   1      32.163  21.800  25.251  1.00  0.00     0.190 C 
ATOM     10  C   UNL A   1      32.652  22.534  23.996  1.00  0.00     0.080 C 
ATOM     11  C   UNL A   1      33.321  21.703  26.284  1.00  0.00     0.080 C 
ATOM     12  C   UNL A   1      33.975  22.029  23.446  1.00  0.00     0.124 C 
ATOM     13  C   UNL A   1      34.584  21.121  25.631  1.00  0.00     0.124 C 
ATOM     14  N   UNL A   1      34.953  21.974  24.513  1.00  0.00    -0.338 N 
ATOM     15  C   UNL A   1      35.895  22.980  24.626  1.00  0.00     0.261 C 
ATOM     16  O   UNL A   1      35.705  24.129  24.236  1.00  0.00    -0.269 OA
BRANCH   9  17
ATOM     17  O   UNL A   1      31.776  20.411  25.121  1.00  0.00    -0.477 OA
BRANCH  17  18
ATOM     18  C   UNL A   1      32.389  19.333  24.587  1.00  0.00     0.121 A 
ATOM     19  C   UNL A   1      34.017  15.971  25.298  1.00  0.00     0.044 C 
ATOM     20  C   UNL A   1      33.433  17.133  24.546  1.00  0.00    -0.047 A 
ATOM     21  C   UNL A   1      33.245  17.054  23.165  1.00  0.00     0.003 A 
ATOM     22  C   UNL A   1      33.037  18.292  25.237  1.00  0.00     0.049 A 
ATOM     23  C   UNL A   1      32.654  18.115  22.488  1.00  0.00     0.004 A 
ATOM     24  C   UNL A   1      32.221  19.236  23.200  1.00  0.00     0.046 A 
ENDBRANCH  17  18
ENDBRANCH   9  17
BRANCH  15  25
ATOM     25  C   UNL A   1      37.178  22.582  25.233  1.00  0.00     0.123 A 
ATOM     26  C   UNL A   1      37.730  21.399  24.930  1.00  0.00     0.132 A 
ATOM     27  C   UNL A   1      37.876  23.419  26.226  1.00  0.00     0.263 A 
ATOM     28  N   UNL A   1      38.913  20.922  25.446  1.00  0.00    -0.246 NA
ATOM     29  N   UNL A   1      39.009  22.865  26.753  1.00  0.00    -0.312 N 
ATOM     30  O   UNL A   1      37.503  24.536  26.566  1.00  0.00    -0.269 OA
ATOM     31  C   UNL A   1      39.484  21.656  26.339  1.00  0.00     0.199 A 
ATOM     32  H   UNL A   1      39.497  23.353  27.455  1.00  0.00     0.171 HD
ENDBRANCH  15  25
ENDBRANCH   6   9
ENDBRANCH   4   5
ENDBRANCH   3   4
ENDBRANCH   2   3
ENDBRANCH   1   2
BRANCH   1  33
ATOM     33  C   UNL A   1      34.217  28.878  26.370  1.00  0.00     0.021 C 
BRANCH  33  34
ATOM     34  C   UNL A   1      33.627  30.092  27.061  1.00  0.00     0.116 C 
BRANCH  34  35
ATOM     35  N   UNL A   1      34.551  31.199  27.268  1.00  0.00    -0.352 N 
ATOM     36  C   UNL A   1      35.113  31.352  28.537  1.00  0.00     0.251 C 
ATOM     37  H   UNL A   1      34.771  31.820  26.535  1.00  0.00     0.163 HD
ATOM     38  O   UNL A   1      34.677  32.058  29.419  1.00  0.00    -0.269 OA
BRANCH  36  39
ATOM     39  C   UNL A   1      36.175  30.354  28.797  1.00  0.00     0.039 A 
ATOM     40  C   UNL A   1      36.275  29.695  30.021  1.00  0.00     0.014 A 
ATOM     41  C   UNL A   1      37.213  30.320  27.865  1.00  0.00     0.014 A 
ATOM     42  C   UNL A   1      37.490  29.101  30.371  1.00  0.00     0.010 A 
ATOM     43  C   UNL A   1      38.435  29.833  28.256  1.00  0.00     0.010 A 
ATOM     44  C   UNL A   1      38.584  29.245  29.517  1.00  0.00    -0.014 A 
BRANCH  44  45
ATOM     45  C   UNL A   1      39.951  28.834  29.805  1.00  0.00     0.031 A 
ATOM     46  C   UNL A   1      40.413  27.500  29.356  1.00  0.00     0.074 A 
ATOM     47  C   UNL A   1      40.841  29.770  30.204  1.00  0.00     0.049 A 
ATOM     48  N   UNL A   1      41.545  26.968  29.667  1.00  0.00    -0.248 NA
ATOM     49  C   UNL A   1      39.584  26.628  28.526  1.00  0.00     0.031 C 
ATOM     50  C   UNL A   1      42.294  29.719  30.063  1.00  0.00     0.029 A 
ATOM     51  N   UNL A   1      40.623  30.875  31.029  1.00  0.00    -0.354 N 
ATOM     52  C   UNL A   1      41.733  25.883  28.837  1.00  0.00     0.074 A 
ATOM     53  C   UNL A   1      40.446  25.654  28.225  1.00  0.00     0.031 C 
ATOM     54  C   UNL A   1      42.842  30.524  30.987  1.00  0.00     0.029 A 
ATOM     55  C   UNL A   1      41.759  30.959  31.854  1.00  0.00     0.049 A 
ATOM     56  H   UNL A   1      39.840  31.469  31.032  1.00  0.00     0.167 HD
ATOM     57  C   UNL A   1      42.993  25.399  28.646  1.00  0.00     0.031 A 
ATOM     58  C   UNL A   1      41.730  30.781  33.209  1.00  0.00     0.031 A 
ATOM     59  C   UNL A   1      43.952  26.049  29.538  1.00  0.00     0.049 A 
ATOM     60  C   UNL A   1      42.654  29.676  33.679  1.00  0.00     0.074 A 
ATOM     61  C   UNL A   1      44.900  27.042  29.355  1.00  0.00     0.029 A 
ATOM     62  N   UNL A   1      43.805  25.891  30.911  1.00  0.00    -0.354 N 
ATOM     63  N   UNL A   1      43.121  28.735  32.905  1.00  0.00    -0.248 NA
ATOM     64  C   UNL A   1      43.110  29.536  35.058  1.00  0.00     0.031 C 
ATOM     65  C   UNL A   1      45.268  27.534  30.635  1.00  0.00     0.029 A 
ATOM     66  C   UNL A   1      44.566  26.820  31.591  1.00  0.00     0.049 A 
ATOM     67  H   UNL A   1      43.237  25.210  31.339  1.00  0.00     0.167 HD
ATOM     68  C   UNL A   1      43.934  27.899  33.627  1.00  0.00     0.074 A 
ATOM     69  C   UNL A   1      43.893  28.444  34.973  1.00  0.00     0.031 C 
ATOM     70  C   UNL A   1      44.569  26.834  33.050  1.00  0.00     0.031 A 
BRANCH  57  71
ATOM     71  C   UNL A   1      43.406  24.533  27.470  1.00  0.00    -0.014 A 
ATOM     72  C   UNL A   1      42.904  23.218  27.367  1.00  0.00     0.010 A 
ATOM     73  C   UNL A   1      44.325  24.916  26.476  1.00  0.00     0.010 A 
ATOM     74  C   UNL A   1      43.359  22.315  26.390  1.00  0.00     0.020 A 
ATOM     75  C   UNL A   1      44.809  24.020  25.509  1.00  0.00     0.020 A 
ATOM     76  C   UNL A   1      44.332  22.716  25.480  1.00  0.00     0.054 A 
BRANCH  76  77
ATOM     77  S   UNL A   1      44.962  21.526  24.268  1.00  0.00     0.124 S 
ATOM     78  O   UNL A   1      46.400  21.552  24.520  1.00  0.00    -0.237 OA
ATOM     79  O   UNL A   1      44.275  20.295  24.649  1.00  0.00    -0.237 OA
ATOM     80  O   UNL A   1      44.554  22.090  22.982  1.00  0.00    -0.744 OA
ENDBRANCH  76  77
ENDBRANCH  57  71
BRANCH  58  81
ATOM     81  C   UNL A   1      40.426  31.134  33.840  1.00  0.00    -0.014 A 
ATOM     82  C   UNL A   1      40.169  32.505  34.058  1.00  0.00     0.010 A 
ATOM     83  C   UNL A   1      39.341  30.243  33.753  1.00  0.00     0.010 A 
ATOM     84  C   UNL A   1      38.867  33.003  33.969  1.00  0.00     0.020 A 
ATOM     85  C   UNL A   1      38.032  30.741  33.681  1.00  0.00     0.020 A 
ATOM     86  C   UNL A   1      37.819  32.123  33.700  1.00  0.00     0.054 A 
BRANCH  86  87
ATOM     87  S   UNL A   1      36.237  32.829  33.141  1.00  0.00     0.124 S 
ATOM     88  O   UNL A   1      36.665  33.890  32.236  1.00  0.00    -0.237 OA
ATOM     89  O   UNL A   1      35.598  31.674  32.508  1.00  0.00    -0.237 OA
ATOM     90  O   UNL A   1      35.609  33.274  34.382  1.00  0.00    -0.744 OA
ENDBRANCH  86  87
ENDBRANCH  58  81
BRANCH  70  91
ATOM     91  C   UNL A   1      45.317  25.721  33.758  1.00  0.00    -0.014 A 
ATOM     92  C   UNL A   1      46.658  25.790  34.163  1.00  0.00     0.010 A 
ATOM     93  C   UNL A   1      44.595  24.566  34.157  1.00  0.00     0.010 A 
ATOM     94  C   UNL A   1      47.259  24.744  34.882  1.00  0.00     0.020 A 
ATOM     95  C   UNL A   1      45.170  23.540  34.911  1.00  0.00     0.020 A 
ATOM     96  C   UNL A   1      46.513  23.625  35.251  1.00  0.00     0.054 A 
BRANCH  96  97
ATOM     97  S   UNL A   1      47.282  22.320  36.242  1.00  0.00     0.124 S 
ATOM     98  O   UNL A   1      48.620  22.861  36.463  1.00  0.00    -0.237 OA
ATOM     99  O   UNL A   1      46.426  22.263  37.424  1.00  0.00    -0.237 OA
ATOM    100  O   UNL A   1      47.213  21.146  35.375  1.00  0.00    -0.744 OA
ENDBRANCH  96  97
ENDBRANCH  70  91
ENDBRANCH  44  45
ENDBRANCH  36  39
ENDBRANCH  34  35
ENDBRANCH  33  34
ENDBRANCH   1  33
TORSDOF 19
ENDMDL
MODEL 3
REMARK VINA RESULT:     -12.2      2.377      3.894
REMARK SMILES Cc1cccc(OC2(C(=O)NCCCCCCNC(=O)c3ccc(-c4c5nc(c(-c6ccc(S(=O)(=O)[O-])cc6)c6ccc([nH]6)c(-c6ccc(S(=O)(=O)[O-])cc6)c6nc(c(-c7ccc(S(=O)(=O)[O-])cc7)c7ccc4[nH]7)C=C6)C=C5)cc3)CCN(C(=O)c3cnc[nH]c3=O)CC2)c1
REMARK SMILES IDX 15 1 14 2 13 3 12 4 11 5 9 6 10 7 8 9 81 10 94 11 82 12
REMARK SMILES IDX 93 13 83 14 84 15 85 16 7 17 6 18 1 19 2 20 3 21 95 22 4 23
REMARK SMILES IDX 5 24 86 25 87 26 91 27 88 28 90 29 92 30 89 31 16 33 17 34
REMARK SMILES IDX 18 35 19 36 20 38 21 39 22 40 80 41 23 42 79 43 24 44 25 45
REMARK SMILES IDX 26 46 73 47 27 48 78 49 72 50 74 51 28 52 77 53 71 54 70 55
REMARK SMILES IDX 29 57 59 58 40 59 58 60 41 61 44 62 57 63 75 64 42 65 43 66
REMARK SMILES IDX 56 68 76 69 45 70 30 71 31 72 39 73 32 74 38 75 33 76 34 77
REMARK SMILES IDX 35 78 36 79 37 80 60 81 61 82 69 83 62 84 68 85 63 86 64 87
REMARK SMILES IDX 65 88 66 89 67 90 46 91 47 92 55 93 48 94 54 95 49 96 50 97
REMARK SMILES IDX 51 98 52 99 53 100
REMARK H PARENT 11 8 90 32 18 37 74 56 44 67
REMARK Flexibility Score: inf
ROOT
ATOM      1  C   UNL A   1      39.334  22.903  26.438  1.00  0.00     0.002 C 
ENDROOT
BRANCH   1   2
ATOM      2  C   UNL A   1      38.606  21.678  25.868  1.00  0.00     0.002 C 
BRANCH   2   3
ATOM      3  C   UNL A   1      37.227  21.890  25.231  1.00  0.00     0.021 C 
BRANCH   3   4
ATOM      4  C   UNL A   1      36.433  23.131  25.659  1.00  0.00     0.116 C 
BRANCH   4   5
ATOM      5  N   UNL A   1      35.571  22.922  26.814  1.00  0.00    -0.353 N 
ATOM      6  C   UNL A   1      34.219  22.825  26.983  1.00  0.00     0.264 C 
ATOM      7  O   UNL A   1      33.873  22.420  28.102  1.00  0.00    -0.270 OA
ATOM      8  H   UNL A   1      36.071  22.833  27.656  1.00  0.00     0.163 HD
BRANCH   6   9
ATOM      9  C   UNL A   1      33.150  23.126  25.872  1.00  0.00     0.190 C 
ATOM     10  C   UNL A   1      31.725  23.210  26.437  1.00  0.00     0.080 C 
ATOM     11  C   UNL A   1      33.517  24.469  25.180  1.00  0.00     0.080 C 
ATOM     12  C   UNL A   1      30.691  23.743  25.461  1.00  0.00     0.124 C 
ATOM     13  C   UNL A   1      32.431  24.874  24.171  1.00  0.00     0.124 C 
ATOM     14  N   UNL A   1      31.167  24.982  24.881  1.00  0.00    -0.338 N 
ATOM     15  C   UNL A   1      30.685  26.187  25.358  1.00  0.00     0.261 C 
ATOM     16  O   UNL A   1      30.278  26.344  26.506  1.00  0.00    -0.269 OA
BRANCH   9  17
ATOM     17  O   UNL A   1      33.408  22.175  24.813  1.00  0.00    -0.477 OA
BRANCH  17  18
ATOM     18  C   UNL A   1      33.007  20.902  24.603  1.00  0.00     0.121 A 
ATOM     19  C   UNL A   1      32.155  18.262  22.003  1.00  0.00     0.044 C 
ATOM     20  C   UNL A   1      32.445  18.905  23.330  1.00  0.00    -0.047 A 
ATOM     21  C   UNL A   1      32.575  18.120  24.477  1.00  0.00     0.003 A 
ATOM     22  C   UNL A   1      32.625  20.296  23.416  1.00  0.00     0.049 A 
ATOM     23  C   UNL A   1      32.896  18.719  25.690  1.00  0.00     0.004 A 
ATOM     24  C   UNL A   1      33.121  20.097  25.744  1.00  0.00     0.046 A 
ENDBRANCH  17  18
ENDBRANCH   9  17
BRANCH  15  25
ATOM     25  C   UNL A   1      30.662  27.292  24.383  1.00  0.00     0.123 A 
ATOM     26  C   UNL A   1      29.810  27.263  23.349  1.00  0.00     0.132 A 
ATOM     27  C   UNL A   1      31.594  28.433  24.458  1.00  0.00     0.263 A 
ATOM     28  N   UNL A   1      29.712  28.230  22.375  1.00  0.00    -0.246 NA
ATOM     29  N   UNL A   1      31.497  29.325  23.428  1.00  0.00    -0.312 N 
ATOM     30  O   UNL A   1      32.398  28.603  25.367  1.00  0.00    -0.269 OA
ATOM     31  C   UNL A   1      30.563  29.197  22.444  1.00  0.00     0.199 A 
ATOM     32  H   UNL A   1      32.122  30.086  23.394  1.00  0.00     0.171 HD
ENDBRANCH  15  25
ENDBRANCH   6   9
ENDBRANCH   4   5
ENDBRANCH   3   4
ENDBRANCH   2   3
ENDBRANCH   1   2
BRANCH   1  33
ATOM     33  C   UNL A   1      40.234  22.681  27.655  1.00  0.00     0.021 C 
BRANCH  33  34
ATOM     34  C   UNL A   1      41.307  21.623  27.482  1.00  0.00     0.116 C 
BRANCH  34  35
ATOM     35  N   UNL A   1      42.557  21.887  28.180  1.00  0.00    -0.352 N 
ATOM     36  C   UNL A   1      43.434  22.818  27.620  1.00  0.00     0.251 C 
ATOM     37  H   UNL A   1      42.776  21.423  29.021  1.00  0.00     0.163 HD
ATOM     38  O   UNL A   1      44.354  22.559  26.875  1.00  0.00    -0.269 OA
BRANCH  36  39
ATOM     39  C   UNL A   1      42.971  24.209  27.824  1.00  0.00     0.039 A 
ATOM     40  C   UNL A   1      42.833  25.098  26.759  1.00  0.00     0.014 A 
ATOM     41  C   UNL A   1      42.951  24.651  29.148  1.00  0.00     0.014 A 
ATOM     42  C   UNL A   1      42.807  26.469  27.023  1.00  0.00     0.010 A 
ATOM     43  C   UNL A   1      43.036  25.998  29.395  1.00  0.00     0.010 A 
ATOM     44  C   UNL A   1      42.988  26.910  28.334  1.00  0.00    -0.014 A 
BRANCH  44  45
ATOM     45  C   UNL A   1      43.152  28.294  28.755  1.00  0.00     0.031 A 
ATOM     46  C   UNL A   1      41.946  29.112  29.027  1.00  0.00     0.074 A 
ATOM     47  C   UNL A   1      44.370  28.709  29.167  1.00  0.00     0.049 A 
ATOM     48  N   UNL A   1      41.953  30.378  29.268  1.00  0.00    -0.248 NA
ATOM     49  C   UNL A   1      40.600  28.544  29.007  1.00  0.00     0.031 C 
ATOM     50  C   UNL A   1      44.662  29.822  30.067  1.00  0.00     0.029 A 
ATOM     51  N   UNL A   1      45.622  28.341  28.673  1.00  0.00    -0.354 N 
ATOM     52  C   UNL A   1      40.707  30.711  29.755  1.00  0.00     0.074 A 
ATOM     53  C   UNL A   1      39.877  29.565  29.473  1.00  0.00     0.031 C 
ATOM     54  C   UNL A   1      45.918  30.238  29.840  1.00  0.00     0.029 A 
ATOM     55  C   UNL A   1      46.387  29.522  28.665  1.00  0.00     0.049 A 
ATOM     56  H   UNL A   1      45.910  27.444  28.389  1.00  0.00     0.167 HD
ATOM     57  C   UNL A   1      40.558  31.857  30.478  1.00  0.00     0.031 A 
ATOM     58  C   UNL A   1      46.854  30.117  27.527  1.00  0.00     0.031 A 
ATOM     59  C   UNL A   1      41.782  32.657  30.463  1.00  0.00     0.049 A 
ATOM     60  C   UNL A   1      46.394  31.554  27.382  1.00  0.00     0.074 A 
ATOM     61  C   UNL A   1      42.796  32.862  31.384  1.00  0.00     0.029 A 
ATOM     62  N   UNL A   1      42.241  33.159  29.252  1.00  0.00    -0.354 N 
ATOM     63  N   UNL A   1      45.372  32.062  28.014  1.00  0.00    -0.248 NA
ATOM     64  C   UNL A   1      47.037  32.524  26.502  1.00  0.00     0.031 C 
ATOM     65  C   UNL A   1      43.903  33.424  30.695  1.00  0.00     0.029 A 
ATOM     66  C   UNL A   1      43.548  33.587  29.367  1.00  0.00     0.049 A 
ATOM     67  H   UNL A   1      41.708  33.202  28.425  1.00  0.00     0.167 HD
ATOM     68  C   UNL A   1      45.224  33.382  27.676  1.00  0.00     0.074 A 
ATOM     69  C   UNL A   1      46.293  33.623  26.723  1.00  0.00     0.031 C 
ATOM     70  C   UNL A   1      44.234  34.158  28.214  1.00  0.00     0.031 A 
BRANCH  57  71
ATOM     71  C   UNL A   1      39.399  32.128  31.420  1.00  0.00    -0.014 A 
ATOM     72  C   UNL A   1      38.178  32.609  30.897  1.00  0.00     0.010 A 
ATOM     73  C   UNL A   1      39.455  32.000  32.820  1.00  0.00     0.010 A 
ATOM     74  C   UNL A   1      37.118  33.020  31.723  1.00  0.00     0.020 A 
ATOM     75  C   UNL A   1      38.416  32.429  33.660  1.00  0.00     0.020 A 
ATOM     76  C   UNL A   1      37.255  32.951  33.106  1.00  0.00     0.054 A 
BRANCH  76  77
ATOM     77  S   UNL A   1      35.910  33.547  34.165  1.00  0.00     0.124 S 
ATOM     78  O   UNL A   1      35.979  34.994  33.976  1.00  0.00    -0.237 OA
ATOM     79  O   UNL A   1      34.741  32.889  33.589  1.00  0.00    -0.237 OA
ATOM     80  O   UNL A   1      36.287  33.083  35.500  1.00  0.00    -0.744 OA
ENDBRANCH  76  77
ENDBRANCH  57  71
BRANCH  58  81
ATOM     81  C   UNL A   1      47.085  29.173  26.396  1.00  0.00    -0.014 A 
ATOM     82  C   UNL A   1      48.182  28.293  26.509  1.00  0.00     0.010 A 
ATOM     83  C   UNL A   1      46.020  28.830  25.542  1.00  0.00     0.010 A 
ATOM     84  C   UNL A   1      48.118  27.010  25.961  1.00  0.00     0.020 A 
ATOM     85  C   UNL A   1      45.964  27.547  24.977  1.00  0.00     0.020 A 
ATOM     86  C   UNL A   1      46.971  26.622  25.268  1.00  0.00     0.054 A 
BRANCH  86  87
ATOM     87  S   UNL A   1      46.717  24.845  24.968  1.00  0.00     0.124 S 
ATOM     88  O   UNL A   1      47.636  24.574  23.868  1.00  0.00    -0.237 OA
ATOM     89  O   UNL A   1      47.085  24.265  26.260  1.00  0.00    -0.237 OA
ATOM     90  O   UNL A   1      45.297  24.757  24.638  1.00  0.00    -0.744 OA
ENDBRANCH  86  87
ENDBRANCH  58  81
BRANCH  70  91
ATOM     91  C   UNL A   1      43.828  35.553  27.780  1.00  0.00    -0.014 A 
ATOM     92  C   UNL A   1      42.612  35.877  27.161  1.00  0.00     0.010 A 
ATOM     93  C   UNL A   1      44.672  36.642  28.124  1.00  0.00     0.010 A 
ATOM     94  C   UNL A   1      42.279  37.207  26.856  1.00  0.00     0.020 A 
ATOM     95  C   UNL A   1      44.329  37.972  27.867  1.00  0.00     0.020 A 
ATOM     96  C   UNL A   1      43.139  38.246  27.210  1.00  0.00     0.054 A 
BRANCH  96  97
ATOM     97  S   UNL A   1      42.660  39.960  26.878  1.00  0.00     0.124 S 
ATOM     98  O   UNL A   1      43.781  40.434  26.072  1.00  0.00    -0.237 OA
ATOM     99  O   UNL A   1      41.394  39.811  26.164  1.00  0.00    -0.237 OA
ATOM    100  O   UNL A   1      42.548  40.549  28.210  1.00  0.00    -0.744 OA
ENDBRANCH  96  97
ENDBRANCH  70  91
ENDBRANCH  44  45
ENDBRANCH  36  39
ENDBRANCH  34  35
ENDBRANCH  33  34
ENDBRANCH   1  33
TORSDOF 19
ENDMDL
