MODEL 1
REMARK VINA RESULT:     -11.1      0.000      0.000
REMARK SMILES Cc1cc(C)c2c(c1)C=C(C(=O)NCCCCCCNC(=O)c1ccc(-c3c4nc(c(-c5ccc(S(=O)(=O)[O-])cc5)c5ccc([nH]5)c(-c5ccc(S(=O)(=O)[O-])cc5)c5nc(c(-c6ccc(S(=O)(=O)[O-])cc6)c6ccc3[nH]6)C=C5)C=C4)cc1)[C@@H](C(F)(F)F)O2
REMARK SMILES IDX 17 1 16 2 15 3 14 4 13 5 11 6 12 7 10 9 1 10 2 11 3 12 8 13
REMARK SMILES IDX 4 14 7 15 5 16 6 17 9 18 88 19 83 20 84 21 85 22 86 23 87 24
REMARK SMILES IDX 18 25 19 26 20 27 21 28 22 30 23 31 24 32 82 33 25 34 81 35
REMARK SMILES IDX 26 36 27 37 28 38 75 39 29 40 80 41 74 42 76 43 30 44 79 45
REMARK SMILES IDX 73 46 72 47 31 49 61 50 42 51 60 52 43 53 46 54 59 55 77 56
REMARK SMILES IDX 44 57 45 58 58 60 78 61 47 62 32 63 33 64 41 65 34 66 40 67
REMARK SMILES IDX 35 68 36 69 37 70 38 71 39 72 62 73 63 74 71 75 64 76 70 77
REMARK SMILES IDX 65 78 66 79 67 80 68 81 69 82 48 83 49 84 57 85 50 86 56 87
REMARK SMILES IDX 51 88 52 89 53 90 54 91 55 92
REMARK H PARENT 13 8 20 29 76 48 46 59
REMARK Flexibility Score: inf
ROOT
ATOM      1  C   UNL A   1      35.147  22.679  26.423  1.00  0.00     0.002 C 
ENDROOT
BRANCH   1   2
ATOM      2  C   UNL A   1      34.174  21.507  26.238  1.00  0.00     0.002 C 
BRANCH   2   3
ATOM      3  C   UNL A   1      33.662  21.308  24.808  1.00  0.00     0.021 C 
BRANCH   3   4
ATOM      4  C   UNL A   1      32.141  21.299  24.699  1.00  0.00     0.116 C 
BRANCH   4   5
ATOM      5  N   UNL A   1      31.515  21.943  25.843  1.00  0.00    -0.352 N 
ATOM      6  C   UNL A   1      31.361  23.204  26.307  1.00  0.00     0.251 C 
ATOM      7  O   UNL A   1      30.709  23.301  27.353  1.00  0.00    -0.270 OA
ATOM      8  H   UNL A   1      31.091  21.283  26.439  1.00  0.00     0.163 HD
BRANCH   6   9
ATOM      9  C   UNL A   1      31.906  24.435  25.662  1.00  0.00     0.067 C 
ATOM     10  C   UNL A   1      34.004  30.066  27.112  1.00  0.00     0.044 C 
ATOM     11  C   UNL A   1      33.703  28.898  26.221  1.00  0.00    -0.050 A 
ATOM     12  C   UNL A   1      33.935  28.973  24.840  1.00  0.00     0.010 A 
ATOM     13  C   UNL A   1      33.172  27.721  26.767  1.00  0.00     0.015 A 
ATOM     14  C   UNL A   1      33.649  27.886  24.006  1.00  0.00    -0.008 A 
ATOM     15  C   UNL A   1      32.873  26.631  25.945  1.00  0.00     0.018 A 
ATOM     16  C   UNL A   1      33.899  27.967  22.528  1.00  0.00     0.048 C 
ATOM     17  C   UNL A   1      33.108  26.725  24.572  1.00  0.00     0.130 A 
ATOM     18  C   UNL A   1      32.353  25.387  26.502  1.00  0.00     0.025 C 
ATOM     19  O   UNL A   1      32.871  25.682  23.725  1.00  0.00    -0.475 OA
ATOM     20  C   UNL A   1      31.941  24.668  24.179  1.00  0.00     0.314 C 
BRANCH  20  21
ATOM     21  C   UNL A   1      30.549  24.958  23.590  1.00  0.00     0.429 C 
ATOM     22  F   UNL A   1      29.726  25.463  24.542  1.00  0.00    -0.167 F 
ATOM     23  F   UNL A   1      30.587  25.876  22.595  1.00  0.00    -0.167 F 
ATOM     24  F   UNL A   1      29.957  23.854  23.082  1.00  0.00    -0.167 F 
ENDBRANCH  20  21
ENDBRANCH   6   9
ENDBRANCH   4   5
ENDBRANCH   3   4
ENDBRANCH   2   3
ENDBRANCH   1   2
BRANCH   1  25
ATOM     25  C   UNL A   1      35.383  23.541  25.178  1.00  0.00     0.021 C 
BRANCH  25  26
ATOM     26  C   UNL A   1      36.840  23.918  24.934  1.00  0.00     0.116 C 
BRANCH  26  27
ATOM     27  N   UNL A   1      37.739  22.829  25.278  1.00  0.00    -0.352 N 
ATOM     28  C   UNL A   1      38.933  22.867  25.943  1.00  0.00     0.251 C 
ATOM     29  H   UNL A   1      37.445  21.935  24.990  1.00  0.00     0.163 HD
ATOM     30  O   UNL A   1      39.673  21.882  25.927  1.00  0.00    -0.269 OA
BRANCH  28  31
ATOM     31  C   UNL A   1      39.335  24.083  26.679  1.00  0.00     0.039 A 
ATOM     32  C   UNL A   1      40.150  25.021  26.042  1.00  0.00     0.014 A 
ATOM     33  C   UNL A   1      38.949  24.273  28.011  1.00  0.00     0.014 A 
ATOM     34  C   UNL A   1      40.554  26.168  26.728  1.00  0.00     0.010 A 
ATOM     35  C   UNL A   1      39.300  25.446  28.673  1.00  0.00     0.010 A 
ATOM     36  C   UNL A   1      40.121  26.394  28.044  1.00  0.00    -0.014 A 
BRANCH  36  37
ATOM     37  C   UNL A   1      40.553  27.595  28.798  1.00  0.00     0.031 A 
ATOM     38  C   UNL A   1      41.910  27.620  29.448  1.00  0.00     0.074 A 
ATOM     39  C   UNL A   1      39.716  28.642  28.930  1.00  0.00     0.049 A 
ATOM     40  N   UNL A   1      42.446  28.543  30.203  1.00  0.00    -0.248 NA
ATOM     41  C   UNL A   1      42.771  26.444  29.233  1.00  0.00     0.031 C 
ATOM     42  C   UNL A   1      38.373  28.730  28.354  1.00  0.00     0.029 A 
ATOM     43  N   UNL A   1      39.872  29.833  29.593  1.00  0.00    -0.354 N 
ATOM     44  C   UNL A   1      43.698  28.057  30.562  1.00  0.00     0.074 A 
ATOM     45  C   UNL A   1      43.824  26.739  29.983  1.00  0.00     0.031 C 
ATOM     46  C   UNL A   1      37.839  29.922  28.667  1.00  0.00     0.029 A 
ATOM     47  C   UNL A   1      38.781  30.664  29.498  1.00  0.00     0.049 A 
ATOM     48  H   UNL A   1      40.689  30.070  30.089  1.00  0.00     0.167 HD
ATOM     49  C   UNL A   1      44.665  28.664  31.291  1.00  0.00     0.031 A 
ATOM     50  C   UNL A   1      38.563  31.883  30.029  1.00  0.00     0.031 A 
ATOM     51  C   UNL A   1      44.537  29.979  31.858  1.00  0.00     0.049 A 
ATOM     52  C   UNL A   1      39.638  32.519  30.866  1.00  0.00     0.074 A 
ATOM     53  C   UNL A   1      45.472  30.696  32.586  1.00  0.00     0.029 A 
ATOM     54  N   UNL A   1      43.410  30.779  31.759  1.00  0.00    -0.354 N 
ATOM     55  N   UNL A   1      40.826  32.056  31.173  1.00  0.00    -0.248 NA
ATOM     56  C   UNL A   1      39.344  33.846  31.425  1.00  0.00     0.031 C 
ATOM     57  C   UNL A   1      44.890  31.909  32.969  1.00  0.00     0.029 A 
ATOM     58  C   UNL A   1      43.615  31.972  32.431  1.00  0.00     0.049 A 
ATOM     59  H   UNL A   1      42.585  30.536  31.280  1.00  0.00     0.167 HD
ATOM     60  C   UNL A   1      41.428  33.041  31.946  1.00  0.00     0.074 A 
ATOM     61  C   UNL A   1      40.482  34.134  32.042  1.00  0.00     0.031 C 
ATOM     62  C   UNL A   1      42.655  33.043  32.527  1.00  0.00     0.031 A 
BRANCH  49  63
ATOM     63  C   UNL A   1      45.946  27.907  31.516  1.00  0.00    -0.014 A 
ATOM     64  C   UNL A   1      46.097  27.052  32.623  1.00  0.00     0.010 A 
ATOM     65  C   UNL A   1      46.996  28.011  30.585  1.00  0.00     0.010 A 
ATOM     66  C   UNL A   1      47.281  26.337  32.810  1.00  0.00     0.020 A 
ATOM     67  C   UNL A   1      48.173  27.277  30.754  1.00  0.00     0.020 A 
ATOM     68  C   UNL A   1      48.313  26.452  31.873  1.00  0.00     0.054 A 
BRANCH  68  69
ATOM     69  S   UNL A   1      49.825  25.483  32.124  1.00  0.00     0.124 S 
ATOM     70  O   UNL A   1      50.753  26.495  32.623  1.00  0.00    -0.237 OA
ATOM     71  O   UNL A   1      49.402  24.481  33.100  1.00  0.00    -0.237 OA
ATOM     72  O   UNL A   1      50.129  24.963  30.793  1.00  0.00    -0.744 OA
ENDBRANCH  68  69
ENDBRANCH  49  63
BRANCH  50  73
ATOM     73  C   UNL A   1      37.276  32.585  29.770  1.00  0.00    -0.014 A 
ATOM     74  C   UNL A   1      36.163  32.356  30.599  1.00  0.00     0.010 A 
ATOM     75  C   UNL A   1      37.162  33.500  28.708  1.00  0.00     0.010 A 
ATOM     76  C   UNL A   1      34.957  33.022  30.363  1.00  0.00     0.020 A 
ATOM     77  C   UNL A   1      35.966  34.188  28.486  1.00  0.00     0.020 A 
ATOM     78  C   UNL A   1      34.867  33.938  29.311  1.00  0.00     0.054 A 
BRANCH  78  79
ATOM     79  S   UNL A   1      33.309  34.833  29.063  1.00  0.00     0.124 S 
ATOM     80  O   UNL A   1      32.745  34.840  30.409  1.00  0.00    -0.237 OA
ATOM     81  O   UNL A   1      33.766  36.126  28.561  1.00  0.00    -0.237 OA
ATOM     82  O   UNL A   1      32.594  34.013  28.089  1.00  0.00    -0.744 OA
ENDBRANCH  78  79
ENDBRANCH  50  73
BRANCH  62  83
ATOM     83  C   UNL A   1      43.046  34.268  33.309  1.00  0.00    -0.014 A 
ATOM     84  C   UNL A   1      42.964  34.288  34.713  1.00  0.00     0.010 A 
ATOM     85  C   UNL A   1      43.551  35.394  32.634  1.00  0.00     0.010 A 
ATOM     86  C   UNL A   1      43.347  35.427  35.425  1.00  0.00     0.020 A 
ATOM     87  C   UNL A   1      43.960  36.524  33.344  1.00  0.00     0.020 A 
ATOM     88  C   UNL A   1      43.842  36.539  34.736  1.00  0.00     0.054 A 
BRANCH  88  89
ATOM     89  S   UNL A   1      44.361  37.992  35.689  1.00  0.00     0.124 S 
ATOM     90  O   UNL A   1      43.556  37.863  36.901  1.00  0.00    -0.237 OA
ATOM     91  O   UNL A   1      45.793  37.767  35.859  1.00  0.00    -0.237 OA
ATOM     92  O   UNL A   1      44.011  39.117  34.825  1.00  0.00    -0.744 OA
ENDBRANCH  88  89
ENDBRANCH  62  83
ENDBRANCH  36  37
ENDBRANCH  28  31
ENDBRANCH  26  27
ENDBRANCH  25  26
ENDBRANCH   1  25
TORSDOF 17
ENDMDL
MODEL 2
REMARK VINA RESULT:     -11.1      1.557      2.080
REMARK SMILES Cc1cc(C)c2c(c1)C=C(C(=O)NCCCCCCNC(=O)c1ccc(-c3c4nc(c(-c5ccc(S(=O)(=O)[O-])cc5)c5ccc([nH]5)c(-c5ccc(S(=O)(=O)[O-])cc5)c5nc(c(-c6ccc(S(=O)(=O)[O-])cc6)c6ccc3[nH]6)C=C5)C=C4)cc1)[C@@H](C(F)(F)F)O2
REMARK SMILES IDX 17 1 16 2 15 3 14 4 13 5 11 6 12 7 10 9 1 10 2 11 3 12 8 13
REMARK SMILES IDX 4 14 7 15 5 16 6 17 9 18 88 19 83 20 84 21 85 22 86 23 87 24
REMARK SMILES IDX 18 25 19 26 20 27 21 28 22 30 23 31 24 32 82 33 25 34 81 35
REMARK SMILES IDX 26 36 27 37 28 38 75 39 29 40 80 41 74 42 76 43 30 44 79 45
REMARK SMILES IDX 73 46 72 47 31 49 61 50 42 51 60 52 43 53 46 54 59 55 77 56
REMARK SMILES IDX 44 57 45 58 58 60 78 61 47 62 32 63 33 64 41 65 34 66 40 67
REMARK SMILES IDX 35 68 36 69 37 70 38 71 39 72 62 73 63 74 71 75 64 76 70 77
REMARK SMILES IDX 65 78 66 79 67 80 68 81 69 82 48 83 49 84 57 85 50 86 56 87
REMARK SMILES IDX 51 88 52 89 53 90 54 91 55 92
REMARK H PARENT 13 8 20 29 76 48 46 59
REMARK Flexibility Score: inf
ROOT
ATOM      1  C   UNL A   1      35.579  22.461  23.828  1.00  0.00     0.002 C 
ENDROOT
BRANCH   1   2
ATOM      2  C   UNL A   1      34.099  22.573  23.441  1.00  0.00     0.002 C 
BRANCH   2   3
ATOM      3  C   UNL A   1      33.115  22.004  24.466  1.00  0.00     0.021 C 
BRANCH   3   4
ATOM      4  C   UNL A   1      31.678  22.472  24.259  1.00  0.00     0.116 C 
BRANCH   4   5
ATOM      5  N   UNL A   1      30.995  22.691  25.524  1.00  0.00    -0.352 N 
ATOM      6  C   UNL A   1      30.604  23.750  26.267  1.00  0.00     0.251 C 
ATOM      7  O   UNL A   1      30.005  23.466  27.312  1.00  0.00    -0.270 OA
ATOM      8  H   UNL A   1      30.754  21.838  25.954  1.00  0.00     0.163 HD
BRANCH   6   9
ATOM      9  C   UNL A   1      30.839  25.183  25.920  1.00  0.00     0.067 C 
ATOM     10  C   UNL A   1      28.846  29.550  22.024  1.00  0.00     0.044 C 
ATOM     11  C   UNL A   1      29.619  28.986  23.179  1.00  0.00    -0.050 A 
ATOM     12  C   UNL A   1      30.519  29.786  23.897  1.00  0.00     0.010 A 
ATOM     13  C   UNL A   1      29.454  27.642  23.541  1.00  0.00     0.015 A 
ATOM     14  C   UNL A   1      31.245  29.261  24.971  1.00  0.00    -0.008 A 
ATOM     15  C   UNL A   1      30.179  27.100  24.605  1.00  0.00     0.018 A 
ATOM     16  C   UNL A   1      32.208  30.119  25.740  1.00  0.00     0.048 C 
ATOM     17  C   UNL A   1      31.072  27.912  25.307  1.00  0.00     0.130 A 
ATOM     18  C   UNL A   1      29.993  25.714  25.017  1.00  0.00     0.025 C 
ATOM     19  O   UNL A   1      31.780  27.451  26.378  1.00  0.00    -0.475 OA
ATOM     20  C   UNL A   1      31.957  26.016  26.478  1.00  0.00     0.314 C 
BRANCH  20  21
ATOM     21  C   UNL A   1      33.331  25.634  25.896  1.00  0.00     0.429 C 
ATOM     22  F   UNL A   1      33.238  25.420  24.561  1.00  0.00    -0.167 F 
ATOM     23  F   UNL A   1      34.254  26.610  26.062  1.00  0.00    -0.167 F 
ATOM     24  F   UNL A   1      33.840  24.514  26.455  1.00  0.00    -0.167 F 
ENDBRANCH  20  21
ENDBRANCH   6   9
ENDBRANCH   4   5
ENDBRANCH   3   4
ENDBRANCH   2   3
ENDBRANCH   1   2
BRANCH   1  25
ATOM     25  C   UNL A   1      36.238  23.765  24.293  1.00  0.00     0.021 C 
BRANCH  25  26
ATOM     26  C   UNL A   1      36.733  23.746  25.735  1.00  0.00     0.116 C 
BRANCH  26  27
ATOM     27  N   UNL A   1      37.798  22.774  25.922  1.00  0.00    -0.352 N 
ATOM     28  C   UNL A   1      39.083  22.966  26.350  1.00  0.00     0.251 C 
ATOM     29  H   UNL A   1      37.560  21.843  25.710  1.00  0.00     0.163 HD
ATOM     30  O   UNL A   1      39.914  22.067  26.211  1.00  0.00    -0.269 OA
BRANCH  28  31
ATOM     31  C   UNL A   1      39.474  24.245  26.977  1.00  0.00     0.039 A 
ATOM     32  C   UNL A   1      40.169  25.187  26.216  1.00  0.00     0.014 A 
ATOM     33  C   UNL A   1      39.198  24.494  28.326  1.00  0.00     0.014 A 
ATOM     34  C   UNL A   1      40.561  26.394  26.796  1.00  0.00     0.010 A 
ATOM     35  C   UNL A   1      39.534  25.723  28.887  1.00  0.00     0.010 A 
ATOM     36  C   UNL A   1      40.235  26.676  28.133  1.00  0.00    -0.014 A 
BRANCH  36  37
ATOM     37  C   UNL A   1      40.658  27.943  28.775  1.00  0.00     0.031 A 
ATOM     38  C   UNL A   1      42.051  28.069  29.329  1.00  0.00     0.074 A 
ATOM     39  C   UNL A   1      39.784  28.961  28.894  1.00  0.00     0.049 A 
ATOM     40  N   UNL A   1      42.591  29.063  29.985  1.00  0.00    -0.248 NA
ATOM     41  C   UNL A   1      42.951  26.919  29.136  1.00  0.00     0.031 C 
ATOM     42  C   UNL A   1      38.404  28.952  28.404  1.00  0.00     0.029 A 
ATOM     43  N   UNL A   1      39.927  30.199  29.465  1.00  0.00    -0.354 N 
ATOM     44  C   UNL A   1      43.885  28.656  30.290  1.00  0.00     0.074 A 
ATOM     45  C   UNL A   1      44.034  27.308  29.792  1.00  0.00     0.031 C 
ATOM     46  C   UNL A   1      37.836  30.139  28.673  1.00  0.00     0.029 A 
ATOM     47  C   UNL A   1      38.794  30.975  29.388  1.00  0.00     0.049 A 
ATOM     48  H   UNL A   1      40.761  30.504  29.889  1.00  0.00     0.167 HD
ATOM     49  C   UNL A   1      44.867  29.352  30.911  1.00  0.00     0.031 A 
ATOM     50  C   UNL A   1      38.554  32.218  29.851  1.00  0.00     0.031 A 
ATOM     51  C   UNL A   1      44.715  30.697  31.398  1.00  0.00     0.049 A 
ATOM     52  C   UNL A   1      39.650  32.955  30.571  1.00  0.00     0.074 A 
ATOM     53  C   UNL A   1      45.660  31.500  32.012  1.00  0.00     0.029 A 
ATOM     54  N   UNL A   1      43.548  31.440  31.321  1.00  0.00    -0.354 N 
ATOM     55  N   UNL A   1      40.876  32.564  30.827  1.00  0.00    -0.248 NA
ATOM     56  C   UNL A   1      39.331  34.303  31.060  1.00  0.00     0.031 C 
ATOM     57  C   UNL A   1      45.049  32.711  32.353  1.00  0.00     0.029 A 
ATOM     58  C   UNL A   1      43.740  32.684  31.899  1.00  0.00     0.049 A 
ATOM     59  H   UNL A   1      42.706  31.130  30.917  1.00  0.00     0.167 HD
ATOM     60  C   UNL A   1      41.480  33.624  31.492  1.00  0.00     0.074 A 
ATOM     61  C   UNL A   1      40.491  34.680  31.579  1.00  0.00     0.031 C 
ATOM     62  C   UNL A   1      42.739  33.717  31.988  1.00  0.00     0.031 A 
BRANCH  49  63
ATOM     63  C   UNL A   1      46.194  28.667  31.099  1.00  0.00    -0.014 A 
ATOM     64  C   UNL A   1      46.445  27.874  32.234  1.00  0.00     0.010 A 
ATOM     65  C   UNL A   1      47.186  28.773  30.108  1.00  0.00     0.010 A 
ATOM     66  C   UNL A   1      47.671  27.225  32.387  1.00  0.00     0.020 A 
ATOM     67  C   UNL A   1      48.405  28.104  30.244  1.00  0.00     0.020 A 
ATOM     68  C   UNL A   1      48.644  27.342  31.390  1.00  0.00     0.054 A 
BRANCH  68  69
ATOM     69  S   UNL A   1      50.213  26.456  31.601  1.00  0.00     0.124 S 
ATOM     70  O   UNL A   1      49.756  25.100  31.898  1.00  0.00    -0.237 OA
ATOM     71  O   UNL A   1      50.856  26.633  30.302  1.00  0.00    -0.237 OA
ATOM     72  O   UNL A   1      50.857  27.152  32.712  1.00  0.00    -0.744 OA
ENDBRANCH  68  69
ENDBRANCH  49  63
BRANCH  50  73
ATOM     73  C   UNL A   1      37.222  32.846  29.634  1.00  0.00    -0.014 A 
ATOM     74  C   UNL A   1      36.231  32.772  30.629  1.00  0.00     0.010 A 
ATOM     75  C   UNL A   1      36.944  33.537  28.441  1.00  0.00     0.010 A 
ATOM     76  C   UNL A   1      34.983  33.370  30.430  1.00  0.00     0.020 A 
ATOM     77  C   UNL A   1      35.707  34.158  28.250  1.00  0.00     0.020 A 
ATOM     78  C   UNL A   1      34.731  34.064  29.244  1.00  0.00     0.054 A 
BRANCH  78  79
ATOM     79  S   UNL A   1      33.124  34.881  29.035  1.00  0.00     0.124 S 
ATOM     80  O   UNL A   1      32.485  34.041  28.027  1.00  0.00    -0.237 OA
ATOM     81  O   UNL A   1      32.556  34.801  30.379  1.00  0.00    -0.237 OA
ATOM     82  O   UNL A   1      33.479  36.228  28.597  1.00  0.00    -0.744 OA
ENDBRANCH  78  79
ENDBRANCH  50  73
BRANCH  62  83
ATOM     83  C   UNL A   1      43.122  35.008  32.660  1.00  0.00    -0.014 A 
ATOM     84  C   UNL A   1      42.908  35.201  34.036  1.00  0.00     0.010 A 
ATOM     85  C   UNL A   1      43.752  36.022  31.915  1.00  0.00     0.010 A 
ATOM     86  C   UNL A   1      43.284  36.398  34.648  1.00  0.00     0.020 A 
ATOM     87  C   UNL A   1      44.155  37.210  32.528  1.00  0.00     0.020 A 
ATOM     88  C   UNL A   1      43.905  37.397  33.889  1.00  0.00     0.054 A 
BRANCH  88  89
ATOM     89  S   UNL A   1      44.412  38.929  34.717  1.00  0.00     0.124 S 
ATOM     90  O   UNL A   1      43.432  39.886  34.209  1.00  0.00    -0.237 OA
ATOM     91  O   UNL A   1      44.281  38.587  36.130  1.00  0.00    -0.237 OA
ATOM     92  O   UNL A   1      45.782  39.136  34.256  1.00  0.00    -0.744 OA
ENDBRANCH  88  89
ENDBRANCH  62  83
ENDBRANCH  36  37
ENDBRANCH  28  31
ENDBRANCH  26  27
ENDBRANCH  25  26
ENDBRANCH   1  25
TORSDOF 17
ENDMDL
MODEL 3
REMARK VINA RESULT:     -11.1      2.589      9.060
REMARK SMILES Cc1cc(C)c2c(c1)C=C(C(=O)NCCCCCCNC(=O)c1ccc(-c3c4nc(c(-c5ccc(S(=O)(=O)[O-])cc5)c5ccc([nH]5)c(-c5ccc(S(=O)(=O)[O-])cc5)c5nc(c(-c6ccc(S(=O)(=O)[O-])cc6)c6ccc3[nH]6)C=C5)C=C4)cc1)[C@@H](C(F)(F)F)O2
REMARK SMILES IDX 17 1 16 2 15 3 14 4 13 5 11 6 12 7 10 9 1 10 2 11 3 12 8 13
REMARK SMILES IDX 4 14 7 15 5 16 6 17 9 18 88 19 83 20 84 21 85 22 86 23 87 24
REMARK SMILES IDX 18 25 19 26 20 27 21 28 22 30 23 31 24 32 82 33 25 34 81 35
REMARK SMILES IDX 26 36 27 37 28 38 75 39 29 40 80 41 74 42 76 43 30 44 79 45
REMARK SMILES IDX 73 46 72 47 31 49 61 50 42 51 60 52 43 53 46 54 59 55 77 56
REMARK SMILES IDX 44 57 45 58 58 60 78 61 47 62 32 63 33 64 41 65 34 66 40 67
REMARK SMILES IDX 35 68 36 69 37 70 38 71 39 72 62 73 63 74 71 75 64 76 70 77
REMARK SMILES IDX 65 78 66 79 67 80 68 81 69 82 48 83 49 84 57 85 50 86 56 87
REMARK SMILES IDX 51 88 52 89 53 90 54 91 55 92
REMARK H PARENT 13 8 20 29 76 48 46 59
REMARK Flexibility Score: inf
ROOT
ATOM      1  C   UNL A   1      31.608  28.313  25.529  1.00  0.00     0.002 C 
ENDROOT
BRANCH   1   2
ATOM      2  C   UNL A   1      30.566  27.649  24.618  1.00  0.00     0.002 C 
BRANCH   2   3
ATOM      3  C   UNL A   1      30.812  27.819  23.117  1.00  0.00     0.021 C 
BRANCH   3   4
ATOM      4  C   UNL A   1      32.290  27.853  22.740  1.00  0.00     0.116 C 
BRANCH   4   5
ATOM      5  N   UNL A   1      32.606  26.875  21.712  1.00  0.00    -0.352 N 
ATOM      6  C   UNL A   1      33.008  25.585  21.664  1.00  0.00     0.251 C 
ATOM      7  O   UNL A   1      33.139  25.118  20.526  1.00  0.00    -0.270 OA
ATOM      8  H   UNL A   1      32.498  27.254  20.810  1.00  0.00     0.163 HD
BRANCH   6   9
ATOM      9  C   UNL A   1      33.294  24.724  22.851  1.00  0.00     0.067 C 
ATOM     10  C   UNL A   1      37.416  20.588  24.879  1.00  0.00     0.044 C 
ATOM     11  C   UNL A   1      36.235  21.508  24.964  1.00  0.00    -0.050 A 
ATOM     12  C   UNL A   1      35.443  21.551  26.120  1.00  0.00     0.010 A 
ATOM     13  C   UNL A   1      35.907  22.327  23.875  1.00  0.00     0.015 A 
ATOM     14  C   UNL A   1      34.338  22.404  26.200  1.00  0.00    -0.008 A 
ATOM     15  C   UNL A   1      34.800  23.178  23.936  1.00  0.00     0.018 A 
ATOM     16  C   UNL A   1      33.491  22.450  27.440  1.00  0.00     0.048 C 
ATOM     17  C   UNL A   1      34.022  23.205  25.095  1.00  0.00     0.130 A 
ATOM     18  C   UNL A   1      34.466  24.061  22.825  1.00  0.00     0.025 C 
ATOM     19  O   UNL A   1      32.952  24.041  25.229  1.00  0.00    -0.475 OA
ATOM     20  C   UNL A   1      32.353  24.539  24.007  1.00  0.00     0.314 C 
BRANCH  20  21
ATOM     21  C   UNL A   1      31.136  23.667  23.649  1.00  0.00     0.429 C 
ATOM     22  F   UNL A   1      31.489  22.695  22.771  1.00  0.00    -0.167 F 
ATOM     23  F   UNL A   1      30.615  23.034  24.727  1.00  0.00    -0.167 F 
ATOM     24  F   UNL A   1      30.132  24.378  23.089  1.00  0.00    -0.167 F 
ENDBRANCH  20  21
ENDBRANCH   6   9
ENDBRANCH   4   5
ENDBRANCH   3   4
ENDBRANCH   2   3
ENDBRANCH   1   2
BRANCH   1  25
ATOM     25  C   UNL A   1      32.538  27.350  26.276  1.00  0.00     0.021 C 
BRANCH  25  26
ATOM     26  C   UNL A   1      33.754  28.010  26.917  1.00  0.00     0.116 C 
BRANCH  26  27
ATOM     27  N   UNL A   1      33.540  29.432  27.128  1.00  0.00    -0.352 N 
ATOM     28  C   UNL A   1      34.329  30.341  27.778  1.00  0.00     0.251 C 
ATOM     29  H   UNL A   1      32.707  29.794  26.747  1.00  0.00     0.163 HD
ATOM     30  O   UNL A   1      33.872  31.447  28.072  1.00  0.00    -0.269 OA
BRANCH  28  31
ATOM     31  C   UNL A   1      35.723  29.999  28.128  1.00  0.00     0.039 A 
ATOM     32  C   UNL A   1      36.709  30.094  27.144  1.00  0.00     0.014 A 
ATOM     33  C   UNL A   1      36.046  29.539  29.409  1.00  0.00     0.014 A 
ATOM     34  C   UNL A   1      38.029  29.759  27.452  1.00  0.00     0.010 A 
ATOM     35  C   UNL A   1      37.371  29.264  29.733  1.00  0.00     0.010 A 
ATOM     36  C   UNL A   1      38.371  29.354  28.753  1.00  0.00    -0.014 A 
BRANCH  36  37
ATOM     37  C   UNL A   1      39.762  28.975  29.097  1.00  0.00     0.031 A 
ATOM     38  C   UNL A   1      40.658  29.968  29.786  1.00  0.00     0.074 A 
ATOM     39  C   UNL A   1      40.230  27.758  28.758  1.00  0.00     0.049 A 
ATOM     40  N   UNL A   1      41.920  29.856  30.109  1.00  0.00    -0.248 NA
ATOM     41  C   UNL A   1      40.060  31.267  30.142  1.00  0.00     0.031 C 
ATOM     42  C   UNL A   1      39.459  26.714  28.080  1.00  0.00     0.029 A 
ATOM     43  N   UNL A   1      41.467  27.195  28.938  1.00  0.00    -0.354 N 
ATOM     44  C   UNL A   1      42.269  31.067  30.696  1.00  0.00     0.074 A 
ATOM     45  C   UNL A   1      41.102  31.917  30.641  1.00  0.00     0.031 C 
ATOM     46  C   UNL A   1      40.235  25.628  27.924  1.00  0.00     0.029 A 
ATOM     47  C   UNL A   1      41.565  25.912  28.452  1.00  0.00     0.049 A 
ATOM     48  H   UNL A   1      42.215  27.664  29.373  1.00  0.00     0.167 HD
ATOM     49  C   UNL A   1      43.450  31.430  31.250  1.00  0.00     0.031 A 
ATOM     50  C   UNL A   1      42.612  25.064  28.428  1.00  0.00     0.031 A 
ATOM     51  C   UNL A   1      44.606  30.576  31.310  1.00  0.00     0.049 A 
ATOM     52  C   UNL A   1      43.924  25.505  29.017  1.00  0.00     0.074 A 
ATOM     53  C   UNL A   1      45.840  30.839  31.879  1.00  0.00     0.029 A 
ATOM     54  N   UNL A   1      44.672  29.294  30.788  1.00  0.00    -0.354 N 
ATOM     55  N   UNL A   1      44.228  26.645  29.591  1.00  0.00    -0.248 NA
ATOM     56  C   UNL A   1      45.033  24.544  28.958  1.00  0.00     0.031 C 
ATOM     57  C   UNL A   1      46.668  29.734  31.657  1.00  0.00     0.029 A 
ATOM     58  C   UNL A   1      45.932  28.760  31.000  1.00  0.00     0.049 A 
ATOM     59  H   UNL A   1      43.932  28.830  30.334  1.00  0.00     0.167 HD
ATOM     60  C   UNL A   1      45.558  26.531  29.977  1.00  0.00     0.074 A 
ATOM     61  C   UNL A   1      45.993  25.204  29.591  1.00  0.00     0.031 C 
ATOM     62  C   UNL A   1      46.350  27.442  30.596  1.00  0.00     0.031 A 
BRANCH  49  63
ATOM     63  C   UNL A   1      43.549  32.813  31.836  1.00  0.00    -0.014 A 
ATOM     64  C   UNL A   1      43.925  33.910  31.041  1.00  0.00     0.010 A 
ATOM     65  C   UNL A   1      43.214  33.029  33.185  1.00  0.00     0.010 A 
ATOM     66  C   UNL A   1      43.991  35.193  31.589  1.00  0.00     0.020 A 
ATOM     67  C   UNL A   1      43.253  34.315  33.732  1.00  0.00     0.020 A 
ATOM     68  C   UNL A   1      43.653  35.388  32.932  1.00  0.00     0.054 A 
BRANCH  68  69
ATOM     69  S   UNL A   1      43.714  37.071  33.605  1.00  0.00     0.124 S 
ATOM     70  O   UNL A   1      43.731  37.882  32.389  1.00  0.00    -0.237 OA
ATOM     71  O   UNL A   1      42.486  37.144  34.392  1.00  0.00    -0.237 OA
ATOM     72  O   UNL A   1      44.951  37.090  34.382  1.00  0.00    -0.744 OA
ENDBRANCH  68  69
ENDBRANCH  49  63
BRANCH  50  73
ATOM     73  C   UNL A   1      42.454  23.707  27.837  1.00  0.00    -0.014 A 
ATOM     74  C   UNL A   1      42.664  23.503  26.461  1.00  0.00     0.010 A 
ATOM     75  C   UNL A   1      42.115  22.609  28.648  1.00  0.00     0.010 A 
ATOM     76  C   UNL A   1      42.526  22.227  25.907  1.00  0.00     0.020 A 
ATOM     77  C   UNL A   1      42.002  21.328  28.101  1.00  0.00     0.020 A 
ATOM     78  C   UNL A   1      42.200  21.147  26.731  1.00  0.00     0.054 A 
BRANCH  78  79
ATOM     79  S   UNL A   1      42.085  19.492  25.996  1.00  0.00     0.124 S 
ATOM     80  O   UNL A   1      42.604  18.647  27.068  1.00  0.00    -0.237 OA
ATOM     81  O   UNL A   1      40.655  19.367  25.727  1.00  0.00    -0.237 OA
ATOM     82  O   UNL A   1      42.929  19.585  24.808  1.00  0.00    -0.744 OA
ENDBRANCH  78  79
ENDBRANCH  50  73
BRANCH  62  83
ATOM     83  C   UNL A   1      47.765  27.031  30.901  1.00  0.00    -0.014 A 
ATOM     84  C   UNL A   1      48.819  27.356  30.029  1.00  0.00     0.010 A 
ATOM     85  C   UNL A   1      48.052  26.356  32.102  1.00  0.00     0.010 A 
ATOM     86  C   UNL A   1      50.129  26.981  30.335  1.00  0.00     0.020 A 
ATOM     87  C   UNL A   1      49.364  26.005  32.425  1.00  0.00     0.020 A 
ATOM     88  C   UNL A   1      50.394  26.306  31.532  1.00  0.00     0.054 A 
BRANCH  88  89
ATOM     89  S   UNL A   1      52.108  25.861  31.918  1.00  0.00     0.124 S 
ATOM     90  O   UNL A   1      52.724  25.845  30.594  1.00  0.00    -0.237 OA
ATOM     91  O   UNL A   1      52.532  26.949  32.795  1.00  0.00    -0.237 OA
ATOM     92  O   UNL A   1      51.990  24.557  32.566  1.00  0.00    -0.744 OA
ENDBRANCH  88  89
ENDBRANCH  62  83
ENDBRANCH  36  37
ENDBRANCH  28  31
ENDBRANCH  26  27
ENDBRANCH  25  26
ENDBRANCH   1  25
TORSDOF 17
ENDMDL
