MODEL 1
REMARK VINA RESULT:     -10.6      0.000      0.000
REMARK SMILES O=C(CC1CC[NH+](C[C@H]2Cc3ccccc3O2)CC1)NCCCCCCNC(=O)c1ccc(-c2c3nc(c(-c4ccc(S(=O)(=O)[O-])cc4)c4ccc([nH]4)c(-c4ccc(S(=O)(=O)[O-])cc4)c4nc(c(-c5ccc(S(=O)(=O)[O-])cc5)c5ccc2[nH]5)C=C4)C=C3)cc1
REMARK SMILES IDX 23 1 22 2 21 3 20 4 1 5 2 6 3 8 4 9 5 10 19 11 6 12 18 13
REMARK SMILES IDX 7 14 8 16 9 17 10 18 17 19 11 20 16 21 12 22 15 23 13 24
REMARK SMILES IDX 14 25 24 26 25 27 26 28 27 29 28 30 29 32 30 33 31 34 89 35
REMARK SMILES IDX 32 36 88 37 33 38 34 39 35 40 82 41 36 42 87 43 81 44 83 45
REMARK SMILES IDX 37 46 86 47 80 48 79 49 38 51 68 52 49 53 67 54 50 55 53 56
REMARK SMILES IDX 66 57 84 58 51 59 52 60 65 62 85 63 54 64 39 65 40 66 48 67
REMARK SMILES IDX 41 68 47 69 42 70 43 71 44 72 45 73 46 74 69 75 70 76 78 77
REMARK SMILES IDX 71 78 77 79 72 80 73 81 74 82 75 83 76 84 55 85 56 86 64 87
REMARK SMILES IDX 57 88 63 89 58 90 59 91 60 92 61 93 62 94
REMARK H PARENT 20 7 7 15 27 31 83 50 53 61
REMARK Flexibility Score: inf
ROOT
ATOM      1  C   UNL A   1      41.356  21.815  27.498  1.00  0.00     0.002 C 
ENDROOT
BRANCH   1   2
ATOM      2  C   UNL A   1      40.133  22.648  27.082  1.00  0.00     0.021 C 
BRANCH   2   3
ATOM      3  C   UNL A   1      39.201  21.984  26.061  1.00  0.00     0.116 C 
BRANCH   3   4
ATOM      4  N   UNL A   1      37.809  22.215  26.381  1.00  0.00    -0.356 N 
ATOM      5  O   UNL A   1      37.214  23.320  24.460  1.00  0.00    -0.275 OA
ATOM      6  C   UNL A   1      36.921  22.865  25.559  1.00  0.00     0.220 C 
ATOM      7  H   UNL A   1      37.476  21.885  27.247  1.00  0.00     0.163 HD
BRANCH   6   8
ATOM      8  C   UNL A   1      35.531  23.015  26.162  1.00  0.00     0.104 C 
BRANCH   8   9
ATOM      9  C   UNL A   1      34.747  21.708  26.389  1.00  0.00     0.009 C 
ATOM     10  C   UNL A   1      33.901  21.359  25.149  1.00  0.00     0.066 C 
ATOM     11  C   UNL A   1      33.779  21.732  27.578  1.00  0.00     0.066 C 
ATOM     12  C   UNL A   1      32.722  22.324  24.947  1.00  0.00     0.262 C 
ATOM     13  C   UNL A   1      32.643  22.738  27.378  1.00  0.00     0.262 C 
ATOM     14  N   UNL A   1      31.903  22.540  26.140  1.00  0.00    -0.332 N 
ATOM     15  H   UNL A   1      31.450  21.636  26.274  1.00  0.00     0.348 HD
BRANCH  14  16
ATOM     16  C   UNL A   1      30.796  23.505  25.946  1.00  0.00     0.308 C 
BRANCH  16  17
ATOM     17  C   UNL A   1      30.886  25.043  26.234  1.00  0.00     0.232 C 
ATOM     18  C   UNL A   1      32.164  25.782  25.805  1.00  0.00     0.090 C 
ATOM     19  O   UNL A   1      29.732  25.750  25.702  1.00  0.00    -0.484 OA
ATOM     20  C   UNL A   1      31.631  26.555  24.660  1.00  0.00    -0.002 A 
ATOM     21  C   UNL A   1      30.247  26.523  24.694  1.00  0.00     0.123 A 
ATOM     22  C   UNL A   1      32.294  27.241  23.659  1.00  0.00     0.007 A 
ATOM     23  C   UNL A   1      29.474  27.138  23.728  1.00  0.00     0.047 A 
ATOM     24  C   UNL A   1      31.535  27.837  22.647  1.00  0.00     0.001 A 
ATOM     25  C   UNL A   1      30.131  27.782  22.679  1.00  0.00     0.004 A 
ENDBRANCH  16  17
ENDBRANCH  14  16
ENDBRANCH   8   9
ENDBRANCH   6   8
ENDBRANCH   3   4
ENDBRANCH   2   3
ENDBRANCH   1   2
BRANCH   1  26
ATOM     26  C   UNL A   1      42.484  22.601  28.171  1.00  0.00     0.002 C 
BRANCH  26  27
ATOM     27  C   UNL A   1      43.756  22.744  27.333  1.00  0.00     0.021 C 
BRANCH  27  28
ATOM     28  C   UNL A   1      44.067  24.167  26.877  1.00  0.00     0.116 C 
BRANCH  28  29
ATOM     29  N   UNL A   1      43.147  24.637  25.854  1.00  0.00    -0.352 N 
ATOM     30  C   UNL A   1      42.131  25.558  25.955  1.00  0.00     0.251 C 
ATOM     31  H   UNL A   1      43.267  24.237  24.961  1.00  0.00     0.163 HD
ATOM     32  O   UNL A   1      41.340  25.701  25.029  1.00  0.00    -0.269 OA
BRANCH  30  33
ATOM     33  C   UNL A   1      41.982  26.358  27.193  1.00  0.00     0.039 A 
ATOM     34  C   UNL A   1      42.757  27.509  27.353  1.00  0.00     0.014 A 
ATOM     35  C   UNL A   1      41.079  25.978  28.189  1.00  0.00     0.014 A 
ATOM     36  C   UNL A   1      42.578  28.313  28.481  1.00  0.00     0.010 A 
ATOM     37  C   UNL A   1      40.849  26.819  29.275  1.00  0.00     0.010 A 
ATOM     38  C   UNL A   1      41.596  27.996  29.435  1.00  0.00    -0.014 A 
BRANCH  38  39
ATOM     39  C   UNL A   1      41.331  28.887  30.596  1.00  0.00     0.031 A 
ATOM     40  C   UNL A   1      42.158  28.769  31.849  1.00  0.00     0.074 A 
ATOM     41  C   UNL A   1      40.307  29.764  30.545  1.00  0.00     0.049 A 
ATOM     42  N   UNL A   1      42.040  29.420  32.978  1.00  0.00    -0.248 NA
ATOM     43  C   UNL A   1      43.245  27.776  31.841  1.00  0.00     0.031 C 
ATOM     44  C   UNL A   1      39.407  29.950  29.404  1.00  0.00     0.029 A 
ATOM     45  N   UNL A   1      39.846  30.659  31.478  1.00  0.00    -0.354 N 
ATOM     46  C   UNL A   1      43.025  28.908  33.816  1.00  0.00     0.074 A 
ATOM     47  C   UNL A   1      43.697  27.858  33.084  1.00  0.00     0.031 C 
ATOM     48  C   UNL A   1      38.522  30.917  29.694  1.00  0.00     0.029 A 
ATOM     49  C   UNL A   1      38.759  31.389  31.055  1.00  0.00     0.049 A 
ATOM     50  H   UNL A   1      40.255  30.768  32.367  1.00  0.00     0.167 HD
ATOM     51  C   UNL A   1      43.353  29.292  35.073  1.00  0.00     0.031 A 
ATOM     52  C   UNL A   1      38.027  32.324  31.691  1.00  0.00     0.031 A 
ATOM     53  C   UNL A   1      42.685  30.341  35.798  1.00  0.00     0.049 A 
ATOM     54  C   UNL A   1      38.396  32.714  33.098  1.00  0.00     0.074 A 
ATOM     55  C   UNL A   1      42.979  30.836  37.058  1.00  0.00     0.029 A 
ATOM     56  N   UNL A   1      41.592  31.056  35.334  1.00  0.00    -0.354 N 
ATOM     57  N   UNL A   1      39.374  32.265  33.847  1.00  0.00    -0.248 NA
ATOM     58  C   UNL A   1      37.571  33.746  33.739  1.00  0.00     0.031 C 
ATOM     59  C   UNL A   1      42.026  31.807  37.378  1.00  0.00     0.029 A 
ATOM     60  C   UNL A   1      41.181  31.967  36.292  1.00  0.00     0.049 A 
ATOM     61  H   UNL A   1      41.170  30.933  34.452  1.00  0.00     0.167 HD
ATOM     62  C   UNL A   1      39.299  32.980  35.037  1.00  0.00     0.074 A 
ATOM     63  C   UNL A   1      38.192  33.904  34.900  1.00  0.00     0.031 C 
ATOM     64  C   UNL A   1      40.077  32.882  36.143  1.00  0.00     0.031 A 
BRANCH  51  65
ATOM     65  C   UNL A   1      44.486  28.567  35.753  1.00  0.00    -0.014 A 
ATOM     66  C   UNL A   1      45.789  29.099  35.760  1.00  0.00     0.010 A 
ATOM     67  C   UNL A   1      44.236  27.366  36.442  1.00  0.00     0.010 A 
ATOM     68  C   UNL A   1      46.826  28.425  36.411  1.00  0.00     0.020 A 
ATOM     69  C   UNL A   1      45.264  26.704  37.120  1.00  0.00     0.020 A 
ATOM     70  C   UNL A   1      46.557  27.231  37.088  1.00  0.00     0.054 A 
BRANCH  70  71
ATOM     71  S   UNL A   1      47.917  26.398  37.951  1.00  0.00     0.124 S 
ATOM     72  O   UNL A   1      48.131  25.221  37.111  1.00  0.00    -0.237 OA
ATOM     73  O   UNL A   1      48.981  27.398  37.912  1.00  0.00    -0.237 OA
ATOM     74  O   UNL A   1      47.371  26.123  39.277  1.00  0.00    -0.744 OA
ENDBRANCH  70  71
ENDBRANCH  51  65
BRANCH  52  75
ATOM     75  C   UNL A   1      36.871  32.964  31.003  1.00  0.00    -0.014 A 
ATOM     76  C   UNL A   1      35.551  32.616  31.344  1.00  0.00     0.010 A 
ATOM     77  C   UNL A   1      37.084  33.925  29.997  1.00  0.00     0.010 A 
ATOM     78  C   UNL A   1      34.468  33.196  30.676  1.00  0.00     0.020 A 
ATOM     79  C   UNL A   1      36.003  34.532  29.350  1.00  0.00     0.020 A 
ATOM     80  C   UNL A   1      34.702  34.152  29.683  1.00  0.00     0.054 A 
BRANCH  80  81
ATOM     81  S   UNL A   1      33.282  34.921  28.857  1.00  0.00     0.124 S 
ATOM     82  O   UNL A   1      32.417  35.251  29.987  1.00  0.00    -0.237 OA
ATOM     83  O   UNL A   1      33.893  36.058  28.173  1.00  0.00    -0.237 OA
ATOM     84  O   UNL A   1      32.787  33.865  27.976  1.00  0.00    -0.744 OA
ENDBRANCH  80  81
ENDBRANCH  52  75
BRANCH  64  85
ATOM     85  C   UNL A   1      39.788  33.824  37.283  1.00  0.00    -0.014 A 
ATOM     86  C   UNL A   1      38.970  33.442  38.361  1.00  0.00     0.010 A 
ATOM     87  C   UNL A   1      40.393  35.095  37.301  1.00  0.00     0.010 A 
ATOM     88  C   UNL A   1      38.734  34.326  39.418  1.00  0.00     0.020 A 
ATOM     89  C   UNL A   1      40.185  35.969  38.371  1.00  0.00     0.020 A 
ATOM     90  C   UNL A   1      39.346  35.583  39.417  1.00  0.00     0.054 A 
BRANCH  90  91
ATOM     91  S   UNL A   1      39.059  36.693  40.822  1.00  0.00     0.124 S 
ATOM     92  O   UNL A   1      40.420  36.992  41.257  1.00  0.00    -0.237 OA
ATOM     93  O   UNL A   1      38.336  37.805  40.208  1.00  0.00    -0.237 OA
ATOM     94  O   UNL A   1      38.273  35.883  41.751  1.00  0.00    -0.744 OA
ENDBRANCH  90  91
ENDBRANCH  64  85
ENDBRANCH  38  39
ENDBRANCH  30  33
ENDBRANCH  28  29
ENDBRANCH  27  28
ENDBRANCH  26  27
ENDBRANCH   1  26
TORSDOF 19
ENDMDL
MODEL 2
REMARK VINA RESULT:     -10.3      0.578      8.109
REMARK SMILES O=C(CC1CC[NH+](C[C@H]2Cc3ccccc3O2)CC1)NCCCCCCNC(=O)c1ccc(-c2c3nc(c(-c4ccc(S(=O)(=O)[O-])cc4)c4ccc([nH]4)c(-c4ccc(S(=O)(=O)[O-])cc4)c4nc(c(-c5ccc(S(=O)(=O)[O-])cc5)c5ccc2[nH]5)C=C4)C=C3)cc1
REMARK SMILES IDX 23 1 22 2 21 3 20 4 1 5 2 6 3 8 4 9 5 10 19 11 6 12 18 13
REMARK SMILES IDX 7 14 8 16 9 17 10 18 17 19 11 20 16 21 12 22 15 23 13 24
REMARK SMILES IDX 14 25 24 26 25 27 26 28 27 29 28 30 29 32 30 33 31 34 89 35
REMARK SMILES IDX 32 36 88 37 33 38 34 39 35 40 82 41 36 42 87 43 81 44 83 45
REMARK SMILES IDX 37 46 86 47 80 48 79 49 38 51 68 52 49 53 67 54 50 55 53 56
REMARK SMILES IDX 66 57 84 58 51 59 52 60 65 62 85 63 54 64 39 65 40 66 48 67
REMARK SMILES IDX 41 68 47 69 42 70 43 71 44 72 45 73 46 74 69 75 70 76 78 77
REMARK SMILES IDX 71 78 77 79 72 80 73 81 74 82 75 83 76 84 55 85 56 86 64 87
REMARK SMILES IDX 57 88 63 89 58 90 59 91 60 92 61 93 62 94
REMARK H PARENT 20 7 7 15 27 31 83 50 53 61
REMARK Flexibility Score: inf
ROOT
ATOM      1  C   UNL A   1      41.452  21.890  27.471  1.00  0.00     0.002 C 
ENDROOT
BRANCH   1   2
ATOM      2  C   UNL A   1      40.194  22.671  27.062  1.00  0.00     0.021 C 
BRANCH   2   3
ATOM      3  C   UNL A   1      39.252  21.945  26.095  1.00  0.00     0.116 C 
BRANCH   3   4
ATOM      4  N   UNL A   1      37.863  22.193  26.416  1.00  0.00    -0.356 N 
ATOM      5  O   UNL A   1      37.382  23.620  24.684  1.00  0.00    -0.275 OA
ATOM      6  C   UNL A   1      37.033  23.012  25.688  1.00  0.00     0.220 C 
ATOM      7  H   UNL A   1      37.487  21.747  27.209  1.00  0.00     0.163 HD
BRANCH   6   8
ATOM      8  C   UNL A   1      35.633  23.136  26.275  1.00  0.00     0.104 C 
BRANCH   8   9
ATOM      9  C   UNL A   1      34.750  21.876  26.190  1.00  0.00     0.009 C 
ATOM     10  C   UNL A   1      34.062  21.786  24.814  1.00  0.00     0.066 C 
ATOM     11  C   UNL A   1      33.632  21.798  27.236  1.00  0.00     0.066 C 
ATOM     12  C   UNL A   1      32.981  22.862  24.622  1.00  0.00     0.262 C 
ATOM     13  C   UNL A   1      32.595  22.910  27.059  1.00  0.00     0.262 C 
ATOM     14  N   UNL A   1      32.021  22.961  25.722  1.00  0.00    -0.332 N 
ATOM     15  H   UNL A   1      31.501  22.086  25.652  1.00  0.00     0.348 HD
BRANCH  14  16
ATOM     16  C   UNL A   1      31.010  24.029  25.547  1.00  0.00     0.308 C 
BRANCH  16  17
ATOM     17  C   UNL A   1      31.148  25.492  26.091  1.00  0.00     0.232 C 
ATOM     18  C   UNL A   1      32.535  26.155  26.032  1.00  0.00     0.090 C 
ATOM     19  O   UNL A   1      30.176  26.380  25.475  1.00  0.00    -0.484 OA
ATOM     20  C   UNL A   1      32.296  27.134  24.948  1.00  0.00    -0.002 A 
ATOM     21  C   UNL A   1      30.934  27.236  24.718  1.00  0.00     0.123 A 
ATOM     22  C   UNL A   1      33.192  27.888  24.211  1.00  0.00     0.007 A 
ATOM     23  C   UNL A   1      30.414  28.059  23.737  1.00  0.00     0.047 A 
ATOM     24  C   UNL A   1      32.693  28.697  23.185  1.00  0.00     0.001 A 
ATOM     25  C   UNL A   1      31.310  28.779  22.947  1.00  0.00     0.004 A 
ENDBRANCH  16  17
ENDBRANCH  14  16
ENDBRANCH   8   9
ENDBRANCH   6   8
ENDBRANCH   3   4
ENDBRANCH   2   3
ENDBRANCH   1   2
BRANCH   1  26
ATOM     26  C   UNL A   1      42.419  22.641  28.389  1.00  0.00     0.002 C 
BRANCH  26  27
ATOM     27  C   UNL A   1      43.809  22.883  27.799  1.00  0.00     0.021 C 
BRANCH  27  28
ATOM     28  C   UNL A   1      44.111  24.338  27.447  1.00  0.00     0.116 C 
BRANCH  28  29
ATOM     29  N   UNL A   1      43.430  24.769  26.236  1.00  0.00    -0.352 N 
ATOM     30  C   UNL A   1      42.443  25.714  26.084  1.00  0.00     0.251 C 
ATOM     31  H   UNL A   1      43.717  24.320  25.407  1.00  0.00     0.163 HD
ATOM     32  O   UNL A   1      41.860  25.821  25.010  1.00  0.00    -0.269 OA
BRANCH  30  33
ATOM     33  C   UNL A   1      42.069  26.581  27.225  1.00  0.00     0.039 A 
ATOM     34  C   UNL A   1      41.138  26.113  28.154  1.00  0.00     0.014 A 
ATOM     35  C   UNL A   1      42.638  27.848  27.381  1.00  0.00     0.014 A 
ATOM     36  C   UNL A   1      40.827  26.888  29.275  1.00  0.00     0.010 A 
ATOM     37  C   UNL A   1      42.384  28.586  28.535  1.00  0.00     0.010 A 
ATOM     38  C   UNL A   1      41.475  28.116  29.495  1.00  0.00    -0.014 A 
BRANCH  38  39
ATOM     39  C   UNL A   1      41.223  28.912  30.725  1.00  0.00     0.031 A 
ATOM     40  C   UNL A   1      40.089  29.901  30.771  1.00  0.00     0.074 A 
ATOM     41  C   UNL A   1      42.052  28.788  31.782  1.00  0.00     0.049 A 
ATOM     42  N   UNL A   1      39.748  30.720  31.734  1.00  0.00    -0.248 NA
ATOM     43  C   UNL A   1      39.238  29.998  29.574  1.00  0.00     0.031 C 
ATOM     44  C   UNL A   1      43.211  27.894  31.852  1.00  0.00     0.029 A 
ATOM     45  N   UNL A   1      42.052  29.422  33.000  1.00  0.00    -0.354 N 
ATOM     46  C   UNL A   1      38.657  31.436  31.254  1.00  0.00     0.074 A 
ATOM     47  C   UNL A   1      38.425  30.992  29.898  1.00  0.00     0.031 C 
ATOM     48  C   UNL A   1      43.790  28.016  33.056  1.00  0.00     0.029 A 
ATOM     49  C   UNL A   1      43.077  29.027  33.829  1.00  0.00     0.049 A 
ATOM     50  H   UNL A   1      41.381  30.095  33.257  1.00  0.00     0.167 HD
ATOM     51  C   UNL A   1      37.905  32.364  31.892  1.00  0.00     0.031 A 
ATOM     52  C   UNL A   1      43.414  29.439  35.067  1.00  0.00     0.031 A 
ATOM     53  C   UNL A   1      38.135  32.802  33.244  1.00  0.00     0.049 A 
ATOM     54  C   UNL A   1      42.577  30.491  35.744  1.00  0.00     0.074 A 
ATOM     55  C   UNL A   1      37.396  33.701  33.994  1.00  0.00     0.029 A 
ATOM     56  N   UNL A   1      39.182  32.377  34.049  1.00  0.00    -0.354 N 
ATOM     57  N   UNL A   1      41.509  31.107  35.298  1.00  0.00    -0.248 NA
ATOM     58  C   UNL A   1      42.984  30.895  37.097  1.00  0.00     0.031 C 
ATOM     59  C   UNL A   1      38.030  33.864  35.229  1.00  0.00     0.029 A 
ATOM     60  C   UNL A   1      39.124  33.016  35.276  1.00  0.00     0.049 A 
ATOM     61  H   UNL A   1      39.865  31.718  33.785  1.00  0.00     0.167 HD
ATOM     62  C   UNL A   1      41.099  31.949  36.326  1.00  0.00     0.074 A 
ATOM     63  C   UNL A   1      42.024  31.749  37.423  1.00  0.00     0.031 C 
ATOM     64  C   UNL A   1      40.051  32.808  36.360  1.00  0.00     0.031 A 
BRANCH  51  65
ATOM     65  C   UNL A   1      36.757  32.980  31.132  1.00  0.00    -0.014 A 
ATOM     66  C   UNL A   1      35.422  32.701  31.480  1.00  0.00     0.010 A 
ATOM     67  C   UNL A   1      37.015  33.891  30.091  1.00  0.00     0.010 A 
ATOM     68  C   UNL A   1      34.369  33.293  30.778  1.00  0.00     0.020 A 
ATOM     69  C   UNL A   1      35.965  34.509  29.406  1.00  0.00     0.020 A 
ATOM     70  C   UNL A   1      34.647  34.194  29.745  1.00  0.00     0.054 A 
BRANCH  70  71
ATOM     71  S   UNL A   1      33.259  34.972  28.875  1.00  0.00     0.124 S 
ATOM     72  O   UNL A   1      32.347  35.277  29.975  1.00  0.00    -0.237 OA
ATOM     73  O   UNL A   1      33.886  36.129  28.241  1.00  0.00    -0.237 OA
ATOM     74  O   UNL A   1      32.798  33.934  27.956  1.00  0.00    -0.744 OA
ENDBRANCH  70  71
ENDBRANCH  51  65
BRANCH  52  75
ATOM     75  C   UNL A   1      44.600  28.853  35.753  1.00  0.00    -0.014 A 
ATOM     76  C   UNL A   1      45.874  29.427  35.599  1.00  0.00     0.010 A 
ATOM     77  C   UNL A   1      44.461  27.711  36.564  1.00  0.00     0.010 A 
ATOM     78  C   UNL A   1      46.990  28.857  36.221  1.00  0.00     0.020 A 
ATOM     79  C   UNL A   1      45.568  27.157  37.213  1.00  0.00     0.020 A 
ATOM     80  C   UNL A   1      46.829  27.725  37.025  1.00  0.00     0.054 A 
BRANCH  80  81
ATOM     81  S   UNL A   1      48.284  27.026  37.853  1.00  0.00     0.124 S 
ATOM     82  O   UNL A   1      47.951  25.605  37.900  1.00  0.00    -0.237 OA
ATOM     83  O   UNL A   1      49.368  27.393  36.945  1.00  0.00    -0.237 OA
ATOM     84  O   UNL A   1      48.303  27.709  39.145  1.00  0.00    -0.744 OA
ENDBRANCH  80  81
ENDBRANCH  52  75
BRANCH  64  85
ATOM     85  C   UNL A   1      39.819  33.573  37.637  1.00  0.00    -0.014 A 
ATOM     86  C   UNL A   1      40.231  34.910  37.776  1.00  0.00     0.010 A 
ATOM     87  C   UNL A   1      39.127  32.958  38.697  1.00  0.00     0.010 A 
ATOM     88  C   UNL A   1      39.985  35.606  38.964  1.00  0.00     0.020 A 
ATOM     89  C   UNL A   1      38.851  33.660  39.873  1.00  0.00     0.020 A 
ATOM     90  C   UNL A   1      39.294  34.977  40.004  1.00  0.00     0.054 A 
BRANCH  90  91
ATOM     91  S   UNL A   1      38.949  35.916  41.516  1.00  0.00     0.124 S 
ATOM     92  O   UNL A   1      38.972  37.293  41.031  1.00  0.00    -0.237 OA
ATOM     93  O   UNL A   1      37.636  35.410  41.913  1.00  0.00    -0.237 OA
ATOM     94  O   UNL A   1      40.047  35.553  42.409  1.00  0.00    -0.744 OA
ENDBRANCH  90  91
ENDBRANCH  64  85
ENDBRANCH  38  39
ENDBRANCH  30  33
ENDBRANCH  28  29
ENDBRANCH  27  28
ENDBRANCH  26  27
ENDBRANCH   1  26
TORSDOF 19
ENDMDL
MODEL 3
REMARK VINA RESULT:     -10.2      1.304      2.235
REMARK SMILES O=C(CC1CC[NH+](C[C@H]2Cc3ccccc3O2)CC1)NCCCCCCNC(=O)c1ccc(-c2c3nc(c(-c4ccc(S(=O)(=O)[O-])cc4)c4ccc([nH]4)c(-c4ccc(S(=O)(=O)[O-])cc4)c4nc(c(-c5ccc(S(=O)(=O)[O-])cc5)c5ccc2[nH]5)C=C4)C=C3)cc1
REMARK SMILES IDX 23 1 22 2 21 3 20 4 1 5 2 6 3 8 4 9 5 10 19 11 6 12 18 13
REMARK SMILES IDX 7 14 8 16 9 17 10 18 17 19 11 20 16 21 12 22 15 23 13 24
REMARK SMILES IDX 14 25 24 26 25 27 26 28 27 29 28 30 29 32 30 33 31 34 89 35
REMARK SMILES IDX 32 36 88 37 33 38 34 39 35 40 82 41 36 42 87 43 81 44 83 45
REMARK SMILES IDX 37 46 86 47 80 48 79 49 38 51 68 52 49 53 67 54 50 55 53 56
REMARK SMILES IDX 66 57 84 58 51 59 52 60 65 62 85 63 54 64 39 65 40 66 48 67
REMARK SMILES IDX 41 68 47 69 42 70 43 71 44 72 45 73 46 74 69 75 70 76 78 77
REMARK SMILES IDX 71 78 77 79 72 80 73 81 74 82 75 83 76 84 55 85 56 86 64 87
REMARK SMILES IDX 57 88 63 89 58 90 59 91 60 92 61 93 62 94
REMARK H PARENT 20 7 7 15 27 31 83 50 53 61
REMARK Flexibility Score: inf
ROOT
ATOM      1  C   UNL A   1      39.404  22.070  25.823  1.00  0.00     0.002 C 
ENDROOT
BRANCH   1   2
ATOM      2  C   UNL A   1      37.875  22.036  25.973  1.00  0.00     0.021 C 
BRANCH   2   3
ATOM      3  C   UNL A   1      37.088  21.864  24.668  1.00  0.00     0.116 C 
BRANCH   3   4
ATOM      4  N   UNL A   1      35.808  22.535  24.726  1.00  0.00    -0.356 N 
ATOM      5  O   UNL A   1      34.489  20.687  25.059  1.00  0.00    -0.275 OA
ATOM      6  C   UNL A   1      34.606  21.898  24.916  1.00  0.00     0.220 C 
ATOM      7  H   UNL A   1      35.797  23.514  24.620  1.00  0.00     0.163 HD
BRANCH   6   8
ATOM      8  C   UNL A   1      33.407  22.837  24.884  1.00  0.00     0.104 C 
BRANCH   8   9
ATOM      9  C   UNL A   1      32.264  22.444  23.929  1.00  0.00     0.009 C 
ATOM     10  C   UNL A   1      32.749  22.458  22.466  1.00  0.00     0.066 C 
ATOM     11  C   UNL A   1      31.033  23.357  23.982  1.00  0.00     0.066 C 
ATOM     12  C   UNL A   1      33.029  23.878  21.949  1.00  0.00     0.262 C 
ATOM     13  C   UNL A   1      31.347  24.780  23.514  1.00  0.00     0.262 C 
ATOM     14  N   UNL A   1      31.948  24.835  22.189  1.00  0.00    -0.332 N 
ATOM     15  H   UNL A   1      31.205  24.501  21.575  1.00  0.00     0.348 HD
BRANCH  14  16
ATOM     16  C   UNL A   1      32.245  26.210  21.726  1.00  0.00     0.308 C 
BRANCH  16  17
ATOM     17  C   UNL A   1      33.279  27.178  22.395  1.00  0.00     0.232 C 
ATOM     18  C   UNL A   1      32.832  28.621  22.686  1.00  0.00     0.090 C 
ATOM     19  O   UNL A   1      33.833  26.604  23.611  1.00  0.00    -0.484 OA
ATOM     20  C   UNL A   1      32.723  28.555  24.161  1.00  0.00    -0.002 A 
ATOM     21  C   UNL A   1      33.348  27.405  24.613  1.00  0.00     0.123 A 
ATOM     22  C   UNL A   1      32.127  29.429  25.052  1.00  0.00     0.007 A 
ATOM     23  C   UNL A   1      33.380  27.063  25.951  1.00  0.00     0.047 A 
ATOM     24  C   UNL A   1      32.110  29.084  26.408  1.00  0.00     0.001 A 
ATOM     25  C   UNL A   1      32.730  27.905  26.855  1.00  0.00     0.004 A 
ENDBRANCH  16  17
ENDBRANCH  14  16
ENDBRANCH   8   9
ENDBRANCH   6   8
ENDBRANCH   3   4
ENDBRANCH   2   3
ENDBRANCH   1   2
BRANCH   1  26
ATOM     26  C   UNL A   1      40.193  21.869  27.119  1.00  0.00     0.002 C 
BRANCH  26  27
ATOM     27  C   UNL A   1      41.702  21.701  26.933  1.00  0.00     0.021 C 
BRANCH  27  28
ATOM     28  C   UNL A   1      42.516  22.980  27.109  1.00  0.00     0.116 C 
BRANCH  28  29
ATOM     29  N   UNL A   1      42.453  23.845  25.941  1.00  0.00    -0.352 N 
ATOM     30  C   UNL A   1      42.132  25.179  25.864  1.00  0.00     0.251 C 
ATOM     31  H   UNL A   1      42.670  23.412  25.083  1.00  0.00     0.163 HD
ATOM     32  O   UNL A   1      41.957  25.704  24.770  1.00  0.00    -0.269 OA
BRANCH  30  33
ATOM     33  C   UNL A   1      41.974  25.973  27.105  1.00  0.00     0.039 A 
ATOM     34  C   UNL A   1      42.917  26.959  27.402  1.00  0.00     0.014 A 
ATOM     35  C   UNL A   1      40.899  25.748  27.969  1.00  0.00     0.014 A 
ATOM     36  C   UNL A   1      42.744  27.764  28.532  1.00  0.00     0.010 A 
ATOM     37  C   UNL A   1      40.689  26.599  29.052  1.00  0.00     0.010 A 
ATOM     38  C   UNL A   1      41.609  27.617  29.347  1.00  0.00    -0.014 A 
BRANCH  38  39
ATOM     39  C   UNL A   1      41.364  28.522  30.501  1.00  0.00     0.031 A 
ATOM     40  C   UNL A   1      42.192  28.399  31.752  1.00  0.00     0.074 A 
ATOM     41  C   UNL A   1      40.356  29.417  30.445  1.00  0.00     0.049 A 
ATOM     42  N   UNL A   1      42.090  29.062  32.876  1.00  0.00    -0.248 NA
ATOM     43  C   UNL A   1      43.260  27.387  31.749  1.00  0.00     0.031 C 
ATOM     44  C   UNL A   1      39.456  29.611  29.305  1.00  0.00     0.029 A 
ATOM     45  N   UNL A   1      39.915  30.329  31.372  1.00  0.00    -0.354 N 
ATOM     46  C   UNL A   1      43.068  28.540  33.715  1.00  0.00     0.074 A 
ATOM     47  C   UNL A   1      43.718  27.471  32.990  1.00  0.00     0.031 C 
ATOM     48  C   UNL A   1      38.591  30.597  29.590  1.00  0.00     0.029 A 
ATOM     49  C   UNL A   1      38.840  31.075  30.945  1.00  0.00     0.049 A 
ATOM     50  H   UNL A   1      40.328  30.438  32.259  1.00  0.00     0.167 HD
ATOM     51  C   UNL A   1      43.407  28.927  34.968  1.00  0.00     0.031 A 
ATOM     52  C   UNL A   1      38.128  32.029  31.576  1.00  0.00     0.031 A 
ATOM     53  C   UNL A   1      42.761  29.995  35.686  1.00  0.00     0.049 A 
ATOM     54  C   UNL A   1      38.508  32.424  32.978  1.00  0.00     0.074 A 
ATOM     55  C   UNL A   1      43.067  30.495  36.941  1.00  0.00     0.029 A 
ATOM     56  N   UNL A   1      41.679  30.726  35.219  1.00  0.00    -0.354 N 
ATOM     57  N   UNL A   1      39.480  31.963  33.729  1.00  0.00    -0.248 NA
ATOM     58  C   UNL A   1      37.704  33.477  33.613  1.00  0.00     0.031 C 
ATOM     59  C   UNL A   1      42.133  31.486  37.256  1.00  0.00     0.029 A 
ATOM     60  C   UNL A   1      41.288  31.652  36.171  1.00  0.00     0.049 A 
ATOM     61  H   UNL A   1      41.253  30.603  34.339  1.00  0.00     0.167 HD
ATOM     62  C   UNL A   1      39.422  32.690  34.913  1.00  0.00     0.074 A 
ATOM     63  C   UNL A   1      38.332  33.633  34.771  1.00  0.00     0.031 C 
ATOM     64  C   UNL A   1      40.201  32.587  36.017  1.00  0.00     0.031 A 
BRANCH  51  65
ATOM     65  C   UNL A   1      44.529  28.187  35.651  1.00  0.00    -0.014 A 
ATOM     66  C   UNL A   1      44.278  27.034  36.418  1.00  0.00     0.010 A 
ATOM     67  C   UNL A   1      45.858  28.618  35.481  1.00  0.00     0.010 A 
ATOM     68  C   UNL A   1      45.329  26.348  37.030  1.00  0.00     0.020 A 
ATOM     69  C   UNL A   1      46.915  27.916  36.067  1.00  0.00     0.020 A 
ATOM     70  C   UNL A   1      46.643  26.793  36.851  1.00  0.00     0.054 A 
BRANCH  70  71
ATOM     71  S   UNL A   1      47.989  25.862  37.631  1.00  0.00     0.124 S 
ATOM     72  O   UNL A   1      47.785  26.165  39.046  1.00  0.00    -0.237 OA
ATOM     73  O   UNL A   1      47.697  24.486  37.235  1.00  0.00    -0.237 OA
ATOM     74  O   UNL A   1      49.196  26.434  37.041  1.00  0.00    -0.744 OA
ENDBRANCH  70  71
ENDBRANCH  51  65
BRANCH  52  75
ATOM     75  C   UNL A   1      36.981  32.684  30.886  1.00  0.00    -0.014 A 
ATOM     76  C   UNL A   1      35.689  32.135  30.962  1.00  0.00     0.010 A 
ATOM     77  C   UNL A   1      37.177  33.864  30.144  1.00  0.00     0.010 A 
ATOM     78  C   UNL A   1      34.620  32.736  30.289  1.00  0.00     0.020 A 
ATOM     79  C   UNL A   1      36.105  34.486  29.497  1.00  0.00     0.020 A 
ATOM     80  C   UNL A   1      34.836  33.909  29.561  1.00  0.00     0.054 A 
BRANCH  80  81
ATOM     81  S   UNL A   1      33.428  34.693  28.729  1.00  0.00     0.124 S 
ATOM     82  O   UNL A   1      34.069  35.802  28.028  1.00  0.00    -0.237 OA
ATOM     83  O   UNL A   1      32.924  33.615  27.881  1.00  0.00    -0.237 OA
ATOM     84  O   UNL A   1      32.547  35.073  29.831  1.00  0.00    -0.744 OA
ENDBRANCH  80  81
ENDBRANCH  52  75
BRANCH  64  85
ATOM     85  C   UNL A   1      39.933  33.543  37.150  1.00  0.00    -0.014 A 
ATOM     86  C   UNL A   1      40.550  34.805  37.206  1.00  0.00     0.010 A 
ATOM     87  C   UNL A   1      39.004  33.191  38.148  1.00  0.00     0.010 A 
ATOM     88  C   UNL A   1      40.269  35.684  38.257  1.00  0.00     0.020 A 
ATOM     89  C   UNL A   1      38.697  34.079  39.181  1.00  0.00     0.020 A 
ATOM     90  C   UNL A   1      39.342  35.316  39.236  1.00  0.00     0.054 A 
BRANCH  90  91
ATOM     91  S   UNL A   1      38.961  36.492  40.563  1.00  0.00     0.124 S 
ATOM     92  O   UNL A   1      40.265  36.668  41.197  1.00  0.00    -0.237 OA
ATOM     93  O   UNL A   1      38.457  37.650  39.828  1.00  0.00    -0.237 OA
ATOM     94  O   UNL A   1      37.966  35.792  41.373  1.00  0.00    -0.744 OA
ENDBRANCH  90  91
ENDBRANCH  64  85
ENDBRANCH  38  39
ENDBRANCH  30  33
ENDBRANCH  28  29
ENDBRANCH  27  28
ENDBRANCH  26  27
ENDBRANCH   1  26
TORSDOF 19
ENDMDL
