MODEL 1
REMARK VINA RESULT:     -10.9      0.000      0.000
REMARK SMILES CCCC1(CCC)C[NH+]([C@H](C(=O)NCCCCCCNC(=O)c2ccc(-c3c4nc(c(-c5ccc(S(=O)(=O)[O-])cc5)c5ccc([nH]5)c(-c5ccc(S(=O)(=O)[O-])cc5)c5nc(c(-c6ccc(S(=O)(=O)[O-])cc6)c6ccc3[nH]6)C=C5)C=C4)cc2)C2CCCCC2)C1
REMARK SMILES IDX 16 1 15 2 14 3 13 4 11 5 12 6 10 8 9 9 4 10 8 11 89 12 3 14
REMARK SMILES IDX 2 15 1 16 5 17 6 18 7 19 83 20 84 21 88 22 85 23 87 24 86 25
REMARK SMILES IDX 17 26 18 27 19 28 20 29 21 30 22 32 23 33 24 34 82 35 25 36
REMARK SMILES IDX 81 37 26 38 27 39 28 40 75 41 29 42 80 43 74 44 76 45 30 46
REMARK SMILES IDX 79 47 73 48 72 49 31 51 61 52 42 53 60 54 43 55 46 56 59 57
REMARK SMILES IDX 77 58 44 59 45 60 58 62 78 63 47 64 32 65 33 66 41 67 34 68
REMARK SMILES IDX 40 69 35 70 36 71 37 72 38 73 39 74 62 75 63 76 71 77 64 78
REMARK SMILES IDX 70 79 65 80 66 81 67 82 68 83 69 84 48 85 49 86 57 87 50 88
REMARK SMILES IDX 56 89 51 90 52 91 53 92 54 93 55 94
REMARK H PARENT 13 7 9 13 20 31 76 50 46 61
REMARK Flexibility Score: inf
ROOT
ATOM      1  C   UNL A   1      31.886  29.154  26.432  1.00  0.00     0.002 C 
ENDROOT
BRANCH   1   2
ATOM      2  C   UNL A   1      31.345  27.783  26.850  1.00  0.00     0.021 C 
BRANCH   2   3
ATOM      3  C   UNL A   1      32.370  26.642  26.739  1.00  0.00     0.116 C 
BRANCH   3   4
ATOM      4  N   UNL A   1      31.685  25.375  26.862  1.00  0.00    -0.351 N 
ATOM      5  C   UNL A   1      31.506  24.373  25.955  1.00  0.00     0.278 C 
ATOM      6  O   UNL A   1      30.427  23.777  26.074  1.00  0.00    -0.268 OA
ATOM      7  H   UNL A   1      31.281  25.209  27.745  1.00  0.00     0.163 HD
BRANCH   5   8
ATOM      8  C   UNL A   1      32.606  23.922  24.898  1.00  0.00     0.277 C 
BRANCH   8   9
ATOM      9  N   UNL A   1      32.340  22.459  24.748  1.00  0.00    -0.323 N 
ATOM     10  C   UNL A   1      33.396  20.603  24.537  1.00  0.00     0.068 C 
ATOM     11  C   UNL A   1      32.832  21.502  25.722  1.00  0.00     0.275 C 
ATOM     12  C   UNL A   1      33.061  21.833  23.655  1.00  0.00     0.275 C 
ATOM     13  H   UNL A   1      31.327  22.572  24.729  1.00  0.00     0.348 HD
BRANCH  10  14
ATOM     14  C   UNL A   1      34.885  20.307  24.848  1.00  0.00     0.018 C 
BRANCH  14  15
ATOM     15  C   UNL A   1      35.852  21.483  24.625  1.00  0.00    -0.002 C 
ATOM     16  C   UNL A   1      37.253  21.334  25.210  1.00  0.00     0.004 C 
ENDBRANCH  14  15
ENDBRANCH  10  14
BRANCH  10  17
ATOM     17  C   UNL A   1      32.620  19.434  23.899  1.00  0.00     0.018 C 
BRANCH  17  18
ATOM     18  C   UNL A   1      33.101  18.005  24.279  1.00  0.00    -0.002 C 
ATOM     19  C   UNL A   1      33.718  17.100  23.219  1.00  0.00     0.004 C 
ENDBRANCH  17  18
ENDBRANCH  10  17
ENDBRANCH   8   9
BRANCH   8  20
ATOM     20  C   UNL A   1      32.692  24.821  23.586  1.00  0.00     0.057 C 
ATOM     21  C   UNL A   1      31.344  25.419  23.101  1.00  0.00     0.010 C 
ATOM     22  C   UNL A   1      33.768  25.927  23.730  1.00  0.00     0.010 C 
ATOM     23  C   UNL A   1      31.473  26.449  21.985  1.00  0.00     0.001 C 
ATOM     24  C   UNL A   1      33.793  26.997  22.640  1.00  0.00     0.001 C 
ATOM     25  C   UNL A   1      32.410  27.570  22.382  1.00  0.00     0.000 C 
ENDBRANCH   8  20
ENDBRANCH   5   8
ENDBRANCH   3   4
ENDBRANCH   2   3
ENDBRANCH   1   2
BRANCH   1  26
ATOM     26  C   UNL A   1      33.415  29.229  26.363  1.00  0.00     0.002 C 
BRANCH  26  27
ATOM     27  C   UNL A   1      34.062  30.273  27.281  1.00  0.00     0.021 C 
BRANCH  27  28
ATOM     28  C   UNL A   1      35.403  29.858  27.885  1.00  0.00     0.116 C 
BRANCH  28  29
ATOM     29  N   UNL A   1      35.448  30.121  29.314  1.00  0.00    -0.352 N 
ATOM     30  C   UNL A   1      36.430  29.821  30.225  1.00  0.00     0.251 C 
ATOM     31  H   UNL A   1      34.659  30.580  29.682  1.00  0.00     0.163 HD
ATOM     32  O   UNL A   1      36.179  29.865  31.425  1.00  0.00    -0.269 OA
BRANCH  30  33
ATOM     33  C   UNL A   1      37.788  29.449  29.765  1.00  0.00     0.039 A 
ATOM     34  C   UNL A   1      38.706  28.953  30.694  1.00  0.00     0.014 A 
ATOM     35  C   UNL A   1      38.176  29.647  28.437  1.00  0.00     0.014 A 
ATOM     36  C   UNL A   1      40.002  28.625  30.285  1.00  0.00     0.010 A 
ATOM     37  C   UNL A   1      39.445  29.254  28.016  1.00  0.00     0.010 A 
ATOM     38  C   UNL A   1      40.378  28.759  28.939  1.00  0.00    -0.014 A 
BRANCH  38  39
ATOM     39  C   UNL A   1      41.753  28.424  28.488  1.00  0.00     0.031 A 
ATOM     40  C   UNL A   1      42.812  29.494  28.433  1.00  0.00     0.074 A 
ATOM     41  C   UNL A   1      42.039  27.170  28.084  1.00  0.00     0.049 A 
ATOM     42  N   UNL A   1      44.060  29.403  28.047  1.00  0.00    -0.248 NA
ATOM     43  C   UNL A   1      42.410  30.849  28.842  1.00  0.00     0.031 C 
ATOM     44  C   UNL A   1      41.093  26.051  28.060  1.00  0.00     0.029 A 
ATOM     45  N   UNL A   1      43.210  26.626  27.619  1.00  0.00    -0.354 N 
ATOM     46  C   UNL A   1      44.580  30.688  28.142  1.00  0.00     0.074 A 
ATOM     47  C   UNL A   1      43.502  31.549  28.576  1.00  0.00     0.031 C 
ATOM     48  C   UNL A   1      41.732  24.947  27.642  1.00  0.00     0.029 A 
ATOM     49  C   UNL A   1      43.118  25.284  27.332  1.00  0.00     0.049 A 
ATOM     50  H   UNL A   1      44.037  27.146  27.502  1.00  0.00     0.167 HD
ATOM     51  C   UNL A   1      45.846  31.113  27.907  1.00  0.00     0.031 A 
ATOM     52  C   UNL A   1      44.047  24.421  26.877  1.00  0.00     0.031 A 
ATOM     53  C   UNL A   1      46.920  30.251  27.491  1.00  0.00     0.049 A 
ATOM     54  C   UNL A   1      45.445  24.915  26.621  1.00  0.00     0.074 A 
ATOM     55  C   UNL A   1      48.251  30.569  27.290  1.00  0.00     0.029 A 
ATOM     56  N   UNL A   1      46.785  28.899  27.210  1.00  0.00    -0.354 N 
ATOM     57  N   UNL A   1      45.935  26.122  26.781  1.00  0.00    -0.248 NA
ATOM     58  C   UNL A   1      46.417  23.926  26.136  1.00  0.00     0.031 C 
ATOM     59  C   UNL A   1      48.911  29.421  26.837  1.00  0.00     0.029 A 
ATOM     60  C   UNL A   1      48.003  28.374  26.812  1.00  0.00     0.049 A 
ATOM     61  H   UNL A   1      45.946  28.389  27.281  1.00  0.00     0.167 HD
ATOM     62  C   UNL A   1      47.283  26.028  26.451  1.00  0.00     0.074 A 
ATOM     63  C   UNL A   1      47.529  24.646  26.088  1.00  0.00     0.031 C 
ATOM     64  C   UNL A   1      48.232  26.997  26.454  1.00  0.00     0.031 A 
BRANCH  51  65
ATOM     65  C   UNL A   1      46.125  32.584  28.076  1.00  0.00    -0.014 A 
ATOM     66  C   UNL A   1      46.539  33.114  29.313  1.00  0.00     0.010 A 
ATOM     67  C   UNL A   1      45.982  33.452  26.978  1.00  0.00     0.010 A 
ATOM     68  C   UNL A   1      46.743  34.488  29.464  1.00  0.00     0.020 A 
ATOM     69  C   UNL A   1      46.216  34.823  27.116  1.00  0.00     0.020 A 
ATOM     70  C   UNL A   1      46.570  35.336  28.365  1.00  0.00     0.054 A 
BRANCH  70  71
ATOM     71  S   UNL A   1      46.833  37.117  28.589  1.00  0.00     0.124 S 
ATOM     72  O   UNL A   1      47.020  37.567  27.211  1.00  0.00    -0.237 OA
ATOM     73  O   UNL A   1      45.591  37.548  29.226  1.00  0.00    -0.237 OA
ATOM     74  O   UNL A   1      48.021  37.189  29.434  1.00  0.00    -0.744 OA
ENDBRANCH  70  71
ENDBRANCH  51  65
BRANCH  52  75
ATOM     75  C   UNL A   1      43.695  22.990  26.678  1.00  0.00    -0.014 A 
ATOM     76  C   UNL A   1      42.956  22.302  27.658  1.00  0.00     0.010 A 
ATOM     77  C   UNL A   1      44.074  22.311  25.505  1.00  0.00     0.010 A 
ATOM     78  C   UNL A   1      42.615  20.958  27.475  1.00  0.00     0.020 A 
ATOM     79  C   UNL A   1      43.712  20.976  25.308  1.00  0.00     0.020 A 
ATOM     80  C   UNL A   1      42.992  20.305  26.298  1.00  0.00     0.054 A 
BRANCH  80  81
ATOM     81  S   UNL A   1      42.485  18.579  26.058  1.00  0.00     0.124 S 
ATOM     82  O   UNL A   1      41.078  18.723  25.701  1.00  0.00    -0.237 OA
ATOM     83  O   UNL A   1      43.370  18.137  24.984  1.00  0.00    -0.237 OA
ATOM     84  O   UNL A   1      42.742  17.964  27.359  1.00  0.00    -0.744 OA
ENDBRANCH  80  81
ENDBRANCH  52  75
BRANCH  64  85
ATOM     85  C   UNL A   1      49.636  26.589  26.093  1.00  0.00    -0.014 A 
ATOM     86  C   UNL A   1      50.141  26.768  24.793  1.00  0.00     0.010 A 
ATOM     87  C   UNL A   1      50.476  26.055  27.088  1.00  0.00     0.010 A 
ATOM     88  C   UNL A   1      51.449  26.387  24.486  1.00  0.00     0.020 A 
ATOM     89  C   UNL A   1      51.794  25.699  26.792  1.00  0.00     0.020 A 
ATOM     90  C   UNL A   1      52.267  25.852  25.488  1.00  0.00     0.054 A 
BRANCH  90  91
ATOM     91  S   UNL A   1      53.972  25.396  25.072  1.00  0.00     0.124 S 
ATOM     92  O   UNL A   1      54.709  25.887  26.232  1.00  0.00    -0.237 OA
ATOM     93  O   UNL A   1      53.895  23.943  24.945  1.00  0.00    -0.237 OA
ATOM     94  O   UNL A   1      54.227  26.111  23.823  1.00  0.00    -0.744 OA
ENDBRANCH  90  91
ENDBRANCH  64  85
ENDBRANCH  38  39
ENDBRANCH  30  33
ENDBRANCH  28  29
ENDBRANCH  27  28
ENDBRANCH  26  27
ENDBRANCH   1  26
TORSDOF 22
ENDMDL
MODEL 2
REMARK VINA RESULT:     -10.6      0.873      8.103
REMARK SMILES CCCC1(CCC)C[NH+]([C@H](C(=O)NCCCCCCNC(=O)c2ccc(-c3c4nc(c(-c5ccc(S(=O)(=O)[O-])cc5)c5ccc([nH]5)c(-c5ccc(S(=O)(=O)[O-])cc5)c5nc(c(-c6ccc(S(=O)(=O)[O-])cc6)c6ccc3[nH]6)C=C5)C=C4)cc2)C2CCCCC2)C1
REMARK SMILES IDX 16 1 15 2 14 3 13 4 11 5 12 6 10 8 9 9 4 10 8 11 89 12 3 14
REMARK SMILES IDX 2 15 1 16 5 17 6 18 7 19 83 20 84 21 88 22 85 23 87 24 86 25
REMARK SMILES IDX 17 26 18 27 19 28 20 29 21 30 22 32 23 33 24 34 82 35 25 36
REMARK SMILES IDX 81 37 26 38 27 39 28 40 75 41 29 42 80 43 74 44 76 45 30 46
REMARK SMILES IDX 79 47 73 48 72 49 31 51 61 52 42 53 60 54 43 55 46 56 59 57
REMARK SMILES IDX 77 58 44 59 45 60 58 62 78 63 47 64 32 65 33 66 41 67 34 68
REMARK SMILES IDX 40 69 35 70 36 71 37 72 38 73 39 74 62 75 63 76 71 77 64 78
REMARK SMILES IDX 70 79 65 80 66 81 67 82 68 83 69 84 48 85 49 86 57 87 50 88
REMARK SMILES IDX 56 89 51 90 52 91 53 92 54 93 55 94
REMARK H PARENT 13 7 9 13 20 31 76 50 46 61
REMARK Flexibility Score: inf
ROOT
ATOM      1  C   UNL A   1      32.076  30.086  26.631  1.00  0.00     0.002 C 
ENDROOT
BRANCH   1   2
ATOM      2  C   UNL A   1      31.406  28.708  26.613  1.00  0.00     0.021 C 
BRANCH   2   3
ATOM      3  C   UNL A   1      32.246  27.593  27.258  1.00  0.00     0.116 C 
BRANCH   3   4
ATOM      4  N   UNL A   1      31.510  26.350  27.201  1.00  0.00    -0.351 N 
ATOM      5  C   UNL A   1      31.257  25.518  26.150  1.00  0.00     0.278 C 
ATOM      6  O   UNL A   1      30.156  24.953  26.214  1.00  0.00    -0.268 OA
ATOM      7  H   UNL A   1      31.128  26.057  28.060  1.00  0.00     0.163 HD
BRANCH   5   8
ATOM      8  C   UNL A   1      32.300  25.205  24.992  1.00  0.00     0.277 C 
BRANCH   8   9
ATOM      9  N   UNL A   1      32.132  23.734  24.785  1.00  0.00    -0.323 N 
ATOM     10  C   UNL A   1      33.309  21.951  24.586  1.00  0.00     0.068 C 
ATOM     11  C   UNL A   1      32.623  22.777  25.759  1.00  0.00     0.275 C 
ATOM     12  C   UNL A   1      32.952  23.186  23.720  1.00  0.00     0.275 C 
ATOM     13  H   UNL A   1      31.117  23.788  24.709  1.00  0.00     0.348 HD
BRANCH  10  14
ATOM     14  C   UNL A   1      34.792  21.733  24.978  1.00  0.00     0.018 C 
BRANCH  14  15
ATOM     15  C   UNL A   1      35.753  22.867  24.578  1.00  0.00    -0.002 C 
ATOM     16  C   UNL A   1      36.641  22.612  23.363  1.00  0.00     0.004 C 
ENDBRANCH  14  15
ENDBRANCH  10  14
BRANCH  10  17
ATOM     17  C   UNL A   1      32.643  20.760  23.870  1.00  0.00     0.018 C 
BRANCH  17  18
ATOM     18  C   UNL A   1      33.286  19.366  24.120  1.00  0.00    -0.002 C 
ATOM     19  C   UNL A   1      32.788  18.488  25.262  1.00  0.00     0.004 C 
ENDBRANCH  17  18
ENDBRANCH  10  17
ENDBRANCH   8   9
BRANCH   8  20
ATOM     20  C   UNL A   1      32.215  26.169  23.726  1.00  0.00     0.057 C 
ATOM     21  C   UNL A   1      30.835  26.839  23.493  1.00  0.00     0.010 C 
ATOM     22  C   UNL A   1      33.347  27.226  23.746  1.00  0.00     0.010 C 
ATOM     23  C   UNL A   1      30.828  27.921  22.419  1.00  0.00     0.001 C 
ATOM     24  C   UNL A   1      33.245  28.350  22.717  1.00  0.00     0.001 C 
ATOM     25  C   UNL A   1      31.864  28.985  22.712  1.00  0.00     0.000 C 
ENDBRANCH   8  20
ENDBRANCH   5   8
ENDBRANCH   3   4
ENDBRANCH   2   3
ENDBRANCH   1   2
BRANCH   1  26
ATOM     26  C   UNL A   1      33.561  30.066  26.256  1.00  0.00     0.002 C 
BRANCH  26  27
ATOM     27  C   UNL A   1      34.506  30.697  27.287  1.00  0.00     0.021 C 
BRANCH  27  28
ATOM     28  C   UNL A   1      35.508  29.731  27.918  1.00  0.00     0.116 C 
BRANCH  28  29
ATOM     29  N   UNL A   1      35.526  29.853  29.366  1.00  0.00    -0.352 N 
ATOM     30  C   UNL A   1      36.511  29.510  30.259  1.00  0.00     0.251 C 
ATOM     31  H   UNL A   1      34.713  30.238  29.765  1.00  0.00     0.163 HD
ATOM     32  O   UNL A   1      36.245  29.424  31.453  1.00  0.00    -0.269 OA
BRANCH  30  33
ATOM     33  C   UNL A   1      37.889  29.246  29.785  1.00  0.00     0.039 A 
ATOM     34  C   UNL A   1      38.819  28.703  30.675  1.00  0.00     0.014 A 
ATOM     35  C   UNL A   1      38.282  29.590  28.489  1.00  0.00     0.014 A 
ATOM     36  C   UNL A   1      40.133  28.476  30.256  1.00  0.00     0.010 A 
ATOM     37  C   UNL A   1      39.572  29.298  28.050  1.00  0.00     0.010 A 
ATOM     38  C   UNL A   1      40.517  28.758  28.935  1.00  0.00    -0.014 A 
BRANCH  38  39
ATOM     39  C   UNL A   1      41.910  28.530  28.475  1.00  0.00     0.031 A 
ATOM     40  C   UNL A   1      42.335  27.166  27.998  1.00  0.00     0.074 A 
ATOM     41  C   UNL A   1      42.806  29.535  28.526  1.00  0.00     0.049 A 
ATOM     42  N   UNL A   1      43.509  26.765  27.579  1.00  0.00    -0.248 NA
ATOM     43  C   UNL A   1      41.314  26.106  28.018  1.00  0.00     0.031 C 
ATOM     44  C   UNL A   1      42.528  30.895  28.997  1.00  0.00     0.029 A 
ATOM     45  N   UNL A   1      44.133  29.570  28.177  1.00  0.00    -0.354 N 
ATOM     46  C   UNL A   1      43.373  25.407  27.313  1.00  0.00     0.074 A 
ATOM     47  C   UNL A   1      42.018  25.043  27.661  1.00  0.00     0.031 C 
ATOM     48  C   UNL A   1      43.638  31.639  28.870  1.00  0.00     0.029 A 
ATOM     49  C   UNL A   1      44.716  30.804  28.346  1.00  0.00     0.049 A 
ATOM     50  H   UNL A   1      44.621  28.786  27.837  1.00  0.00     0.167 HD
ATOM     51  C   UNL A   1      44.287  24.543  26.806  1.00  0.00     0.031 A 
ATOM     52  C   UNL A   1      45.974  31.218  28.101  1.00  0.00     0.031 A 
ATOM     53  C   UNL A   1      45.629  24.914  26.445  1.00  0.00     0.049 A 
ATOM     54  C   UNL A   1      46.972  30.242  27.540  1.00  0.00     0.074 A 
ATOM     55  C   UNL A   1      46.612  24.131  25.864  1.00  0.00     0.029 A 
ATOM     56  N   UNL A   1      46.180  26.173  26.633  1.00  0.00    -0.354 N 
ATOM     57  N   UNL A   1      46.805  28.978  27.231  1.00  0.00    -0.248 NA
ATOM     58  C   UNL A   1      48.325  30.755  27.284  1.00  0.00     0.031 C 
ATOM     59  C   UNL A   1      47.773  24.903  25.747  1.00  0.00     0.029 A 
ATOM     60  C   UNL A   1      47.496  26.183  26.203  1.00  0.00     0.049 A 
ATOM     61  H   UNL A   1      45.706  26.945  27.017  1.00  0.00     0.167 HD
ATOM     62  C   UNL A   1      48.023  28.554  26.709  1.00  0.00     0.074 A 
ATOM     63  C   UNL A   1      48.912  29.698  26.740  1.00  0.00     0.031 C 
ATOM     64  C   UNL A   1      48.370  27.329  26.241  1.00  0.00     0.031 A 
BRANCH  51  65
ATOM     65  C   UNL A   1      43.863  23.108  26.635  1.00  0.00    -0.014 A 
ATOM     66  C   UNL A   1      44.435  22.287  25.645  1.00  0.00     0.010 A 
ATOM     67  C   UNL A   1      42.882  22.565  27.485  1.00  0.00     0.010 A 
ATOM     68  C   UNL A   1      43.992  20.974  25.468  1.00  0.00     0.020 A 
ATOM     69  C   UNL A   1      42.457  21.242  27.332  1.00  0.00     0.020 A 
ATOM     70  C   UNL A   1      42.997  20.463  26.308  1.00  0.00     0.054 A 
BRANCH  70  71
ATOM     71  S   UNL A   1      42.432  18.757  26.053  1.00  0.00     0.124 S 
ATOM     72  O   UNL A   1      43.281  18.324  24.945  1.00  0.00    -0.237 OA
ATOM     73  O   UNL A   1      42.713  18.129  27.342  1.00  0.00    -0.237 OA
ATOM     74  O   UNL A   1      41.015  18.906  25.731  1.00  0.00    -0.744 OA
ENDBRANCH  70  71
ENDBRANCH  51  65
BRANCH  52  75
ATOM     75  C   UNL A   1      46.347  32.638  28.341  1.00  0.00    -0.014 A 
ATOM     76  C   UNL A   1      46.924  33.020  29.565  1.00  0.00     0.010 A 
ATOM     77  C   UNL A   1      46.148  33.613  27.345  1.00  0.00     0.010 A 
ATOM     78  C   UNL A   1      47.284  34.351  29.795  1.00  0.00     0.020 A 
ATOM     79  C   UNL A   1      46.530  34.939  27.562  1.00  0.00     0.020 A 
ATOM     80  C   UNL A   1      47.088  35.303  28.789  1.00  0.00     0.054 A 
BRANCH  80  81
ATOM     81  S   UNL A   1      47.618  37.012  29.089  1.00  0.00     0.124 S 
ATOM     82  O   UNL A   1      48.220  36.915  30.414  1.00  0.00    -0.237 OA
ATOM     83  O   UNL A   1      48.545  37.252  27.987  1.00  0.00    -0.237 OA
ATOM     84  O   UNL A   1      46.371  37.772  29.022  1.00  0.00    -0.744 OA
ENDBRANCH  80  81
ENDBRANCH  52  75
BRANCH  64  85
ATOM     85  C   UNL A   1      49.760  27.172  25.684  1.00  0.00    -0.014 A 
ATOM     86  C   UNL A   1      50.789  26.579  26.436  1.00  0.00     0.010 A 
ATOM     87  C   UNL A   1      50.025  27.589  24.366  1.00  0.00     0.010 A 
ATOM     88  C   UNL A   1      52.069  26.440  25.893  1.00  0.00     0.020 A 
ATOM     89  C   UNL A   1      51.296  27.426  23.810  1.00  0.00     0.020 A 
ATOM     90  C   UNL A   1      52.314  26.867  24.583  1.00  0.00     0.054 A 
BRANCH  90  91
ATOM     91  S   UNL A   1      53.976  26.645  23.889  1.00  0.00     0.124 S 
ATOM     92  O   UNL A   1      54.544  27.982  24.028  1.00  0.00    -0.237 OA
ATOM     93  O   UNL A   1      54.553  25.622  24.757  1.00  0.00    -0.237 OA
ATOM     94  O   UNL A   1      53.722  26.215  22.515  1.00  0.00    -0.744 OA
ENDBRANCH  90  91
ENDBRANCH  64  85
ENDBRANCH  38  39
ENDBRANCH  30  33
ENDBRANCH  28  29
ENDBRANCH  27  28
ENDBRANCH  26  27
ENDBRANCH   1  26
TORSDOF 22
ENDMDL
MODEL 3
REMARK VINA RESULT:     -10.5      5.131      6.807
REMARK SMILES CCCC1(CCC)C[NH+]([C@H](C(=O)NCCCCCCNC(=O)c2ccc(-c3c4nc(c(-c5ccc(S(=O)(=O)[O-])cc5)c5ccc([nH]5)c(-c5ccc(S(=O)(=O)[O-])cc5)c5nc(c(-c6ccc(S(=O)(=O)[O-])cc6)c6ccc3[nH]6)C=C5)C=C4)cc2)C2CCCCC2)C1
REMARK SMILES IDX 16 1 15 2 14 3 13 4 11 5 12 6 10 8 9 9 4 10 8 11 89 12 3 14
REMARK SMILES IDX 2 15 1 16 5 17 6 18 7 19 83 20 84 21 88 22 85 23 87 24 86 25
REMARK SMILES IDX 17 26 18 27 19 28 20 29 21 30 22 32 23 33 24 34 82 35 25 36
REMARK SMILES IDX 81 37 26 38 27 39 28 40 75 41 29 42 80 43 74 44 76 45 30 46
REMARK SMILES IDX 79 47 73 48 72 49 31 51 61 52 42 53 60 54 43 55 46 56 59 57
REMARK SMILES IDX 77 58 44 59 45 60 58 62 78 63 47 64 32 65 33 66 41 67 34 68
REMARK SMILES IDX 40 69 35 70 36 71 37 72 38 73 39 74 62 75 63 76 71 77 64 78
REMARK SMILES IDX 70 79 65 80 66 81 67 82 68 83 69 84 48 85 49 86 57 87 50 88
REMARK SMILES IDX 56 89 51 90 52 91 53 92 54 93 55 94
REMARK H PARENT 13 7 9 13 20 31 76 50 46 61
REMARK Flexibility Score: inf
ROOT
ATOM      1  C   UNL A   1      31.627  25.831  26.549  1.00  0.00     0.002 C 
ENDROOT
BRANCH   1   2
ATOM      2  C   UNL A   1      31.913  24.358  26.858  1.00  0.00     0.021 C 
BRANCH   2   3
ATOM      3  C   UNL A   1      30.874  23.382  26.282  1.00  0.00     0.116 C 
BRANCH   3   4
ATOM      4  N   UNL A   1      30.592  23.745  24.911  1.00  0.00    -0.351 N 
ATOM      5  C   UNL A   1      31.411  23.796  23.822  1.00  0.00     0.278 C 
ATOM      6  O   UNL A   1      31.118  24.692  23.018  1.00  0.00    -0.268 OA
ATOM      7  H   UNL A   1      29.656  23.995  24.735  1.00  0.00     0.163 HD
BRANCH   5   8
ATOM      8  C   UNL A   1      32.577  22.753  23.535  1.00  0.00     0.277 C 
BRANCH   8   9
ATOM      9  N   UNL A   1      33.767  23.410  24.155  1.00  0.00    -0.323 N 
ATOM     10  C   UNL A   1      35.812  22.988  24.654  1.00  0.00     0.068 C 
ATOM     11  C   UNL A   1      35.005  23.576  23.416  1.00  0.00     0.275 C 
ATOM     12  C   UNL A   1      34.405  22.624  25.196  1.00  0.00     0.275 C 
ATOM     13  H   UNL A   1      33.271  24.276  24.364  1.00  0.00     0.348 HD
BRANCH  10  14
ATOM     14  C   UNL A   1      36.712  21.845  24.121  1.00  0.00     0.018 C 
BRANCH  14  15
ATOM     15  C   UNL A   1      36.712  20.558  24.964  1.00  0.00    -0.002 C 
ATOM     16  C   UNL A   1      37.975  19.703  24.904  1.00  0.00     0.004 C 
ENDBRANCH  14  15
ENDBRANCH  10  14
BRANCH  10  17
ATOM     17  C   UNL A   1      36.447  23.857  25.757  1.00  0.00     0.018 C 
BRANCH  17  18
ATOM     18  C   UNL A   1      37.999  23.956  25.740  1.00  0.00    -0.002 C 
ATOM     19  C   UNL A   1      38.795  23.700  27.014  1.00  0.00     0.004 C 
ENDBRANCH  17  18
ENDBRANCH  10  17
ENDBRANCH   8   9
BRANCH   8  20
ATOM     20  C   UNL A   1      32.246  21.244  23.926  1.00  0.00     0.057 C 
ATOM     21  C   UNL A   1      32.387  20.214  22.774  1.00  0.00     0.010 C 
ATOM     22  C   UNL A   1      33.053  20.796  25.171  1.00  0.00     0.010 C 
ATOM     23  C   UNL A   1      32.286  18.757  23.211  1.00  0.00     0.001 C 
ATOM     24  C   UNL A   1      33.005  19.308  25.512  1.00  0.00     0.001 C 
ATOM     25  C   UNL A   1      33.293  18.442  24.296  1.00  0.00     0.000 C 
ENDBRANCH   8  20
ENDBRANCH   5   8
ENDBRANCH   3   4
ENDBRANCH   2   3
ENDBRANCH   1   2
BRANCH   1  26
ATOM     26  C   UNL A   1      32.867  26.643  26.162  1.00  0.00     0.002 C 
BRANCH  26  27
ATOM     27  C   UNL A   1      32.700  28.166  26.226  1.00  0.00     0.021 C 
BRANCH  27  28
ATOM     28  C   UNL A   1      34.006  28.954  26.315  1.00  0.00     0.116 C 
BRANCH  28  29
ATOM     29  N   UNL A   1      33.762  30.362  26.581  1.00  0.00    -0.352 N 
ATOM     30  C   UNL A   1      34.316  31.179  27.535  1.00  0.00     0.251 C 
ATOM     31  H   UNL A   1      33.102  30.793  25.991  1.00  0.00     0.163 HD
ATOM     32  O   UNL A   1      33.791  32.257  27.792  1.00  0.00    -0.269 OA
BRANCH  30  33
ATOM     33  C   UNL A   1      35.545  30.765  28.251  1.00  0.00     0.039 A 
ATOM     34  C   UNL A   1      36.774  31.297  27.852  1.00  0.00     0.014 A 
ATOM     35  C   UNL A   1      35.496  29.808  29.269  1.00  0.00     0.014 A 
ATOM     36  C   UNL A   1      37.948  30.895  28.494  1.00  0.00     0.010 A 
ATOM     37  C   UNL A   1      36.658  29.462  29.956  1.00  0.00     0.010 A 
ATOM     38  C   UNL A   1      37.899  29.985  29.562  1.00  0.00    -0.014 A 
BRANCH  38  39
ATOM     39  C   UNL A   1      39.137  29.540  30.251  1.00  0.00     0.031 A 
ATOM     40  C   UNL A   1      39.570  30.206  31.531  1.00  0.00     0.074 A 
ATOM     41  C   UNL A   1      39.897  28.571  29.705  1.00  0.00     0.049 A 
ATOM     42  N   UNL A   1      40.628  29.975  32.266  1.00  0.00    -0.248 NA
ATOM     43  C   UNL A   1      38.714  31.291  32.039  1.00  0.00     0.031 C 
ATOM     44  C   UNL A   1      39.604  27.868  28.453  1.00  0.00     0.029 A 
ATOM     45  N   UNL A   1      41.071  28.006  30.135  1.00  0.00    -0.354 N 
ATOM     46  C   UNL A   1      40.578  30.900  33.303  1.00  0.00     0.074 A 
ATOM     47  C   UNL A   1      39.412  31.725  33.077  1.00  0.00     0.031 C 
ATOM     48  C   UNL A   1      40.551  26.941  28.238  1.00  0.00     0.029 A 
ATOM     49  C   UNL A   1      41.537  27.008  29.313  1.00  0.00     0.049 A 
ATOM     50  H   UNL A   1      41.536  28.289  30.955  1.00  0.00     0.167 HD
ATOM     51  C   UNL A   1      41.416  31.039  34.361  1.00  0.00     0.031 A 
ATOM     52  C   UNL A   1      42.632  26.228  29.415  1.00  0.00     0.031 A 
ATOM     53  C   UNL A   1      42.565  30.205  34.591  1.00  0.00     0.049 A 
ATOM     54  C   UNL A   1      43.548  26.402  30.596  1.00  0.00     0.074 A 
ATOM     55  C   UNL A   1      43.439  30.221  35.664  1.00  0.00     0.029 A 
ATOM     56  N   UNL A   1      43.002  29.206  33.733  1.00  0.00    -0.354 N 
ATOM     57  N   UNL A   1      43.446  27.237  31.602  1.00  0.00    -0.248 NA
ATOM     58  C   UNL A   1      44.719  25.516  30.658  1.00  0.00     0.031 C 
ATOM     59  C   UNL A   1      44.435  29.266  35.430  1.00  0.00     0.029 A 
ATOM     60  C   UNL A   1      44.148  28.616  34.239  1.00  0.00     0.049 A 
ATOM     61  H   UNL A   1      42.564  28.956  32.889  1.00  0.00     0.167 HD
ATOM     62  C   UNL A   1      44.522  26.953  32.437  1.00  0.00     0.074 A 
ATOM     63  C   UNL A   1      45.255  25.866  31.820  1.00  0.00     0.031 C 
ATOM     64  C   UNL A   1      44.867  27.535  33.612  1.00  0.00     0.031 A 
BRANCH  51  65
ATOM     65  C   UNL A   1      41.124  32.152  35.333  1.00  0.00    -0.014 A 
ATOM     66  C   UNL A   1      40.274  31.956  36.437  1.00  0.00     0.010 A 
ATOM     67  C   UNL A   1      41.717  33.415  35.147  1.00  0.00     0.010 A 
ATOM     68  C   UNL A   1      39.974  33.015  37.299  1.00  0.00     0.020 A 
ATOM     69  C   UNL A   1      41.445  34.468  36.024  1.00  0.00     0.020 A 
ATOM     70  C   UNL A   1      40.556  34.268  37.081  1.00  0.00     0.054 A 
BRANCH  70  71
ATOM     71  S   UNL A   1      40.144  35.628  38.208  1.00  0.00     0.124 S 
ATOM     72  O   UNL A   1      39.002  35.079  38.936  1.00  0.00    -0.237 OA
ATOM     73  O   UNL A   1      41.370  35.782  38.988  1.00  0.00    -0.237 OA
ATOM     74  O   UNL A   1      39.836  36.740  37.312  1.00  0.00    -0.744 OA
ENDBRANCH  70  71
ENDBRANCH  51  65
BRANCH  52  75
ATOM     75  C   UNL A   1      42.894  25.181  28.392  1.00  0.00    -0.014 A 
ATOM     76  C   UNL A   1      42.430  23.868  28.591  1.00  0.00     0.010 A 
ATOM     77  C   UNL A   1      43.586  25.489  27.207  1.00  0.00     0.010 A 
ATOM     78  C   UNL A   1      42.666  22.879  27.630  1.00  0.00     0.020 A 
ATOM     79  C   UNL A   1      43.801  24.510  26.233  1.00  0.00     0.020 A 
ATOM     80  C   UNL A   1      43.347  23.209  26.454  1.00  0.00     0.054 A 
BRANCH  80  81
ATOM     81  S   UNL A   1      43.588  21.924  25.196  1.00  0.00     0.124 S 
ATOM     82  O   UNL A   1      42.468  21.026  25.460  1.00  0.00    -0.237 OA
ATOM     83  O   UNL A   1      43.512  22.683  23.951  1.00  0.00    -0.237 OA
ATOM     84  O   UNL A   1      44.910  21.385  25.509  1.00  0.00    -0.744 OA
ENDBRANCH  80  81
ENDBRANCH  52  75
BRANCH  64  85
ATOM     85  C   UNL A   1      46.068  26.981  34.331  1.00  0.00    -0.014 A 
ATOM     86  C   UNL A   1      47.361  27.482  34.095  1.00  0.00     0.010 A 
ATOM     87  C   UNL A   1      45.891  25.967  35.291  1.00  0.00     0.010 A 
ATOM     88  C   UNL A   1      48.458  26.955  34.779  1.00  0.00     0.020 A 
ATOM     89  C   UNL A   1      46.982  25.456  35.998  1.00  0.00     0.020 A 
ATOM     90  C   UNL A   1      48.261  25.942  35.725  1.00  0.00     0.054 A 
BRANCH  90  91
ATOM     91  S   UNL A   1      49.698  25.296  36.625  1.00  0.00     0.124 S 
ATOM     92  O   UNL A   1      49.235  25.343  38.009  1.00  0.00    -0.237 OA
ATOM     93  O   UNL A   1      49.857  23.959  36.060  1.00  0.00    -0.237 OA
ATOM     94  O   UNL A   1      50.766  26.237  36.293  1.00  0.00    -0.744 OA
ENDBRANCH  90  91
ENDBRANCH  64  85
ENDBRANCH  38  39
ENDBRANCH  30  33
ENDBRANCH  28  29
ENDBRANCH  27  28
ENDBRANCH  26  27
ENDBRANCH   1  26
TORSDOF 22
ENDMDL
