MODEL 1
REMARK VINA RESULT:     -12.2      0.000      0.000
REMARK SMILES Cc1nc2scc(C)n2c1CNc1ccc(C(=O)NCCCCCCNC(=O)c2ccc(-c3c4nc(c(-c5ccc(S(=O)(=O)[O-])cc5)c5ccc([nH]5)c(-c5ccc(S(=O)(=O)[O-])cc5)c5nc(c(-c6ccc(S(=O)(=O)[O-])cc6)c6ccc3[nH]6)C=C5)C=C4)cc2)cc1
REMARK SMILES IDX 22 1 21 2 20 3 19 4 17 5 18 6 16 8 13 9 14 10 90 11 15 12
REMARK SMILES IDX 89 13 12 14 11 16 10 17 1 18 2 19 3 20 4 21 9 22 5 23 7 24
REMARK SMILES IDX 6 25 8 26 23 27 24 28 25 29 26 30 27 31 28 33 29 34 30 35
REMARK SMILES IDX 88 36 31 37 87 38 32 39 33 40 34 41 81 42 35 43 86 44 80 45
REMARK SMILES IDX 82 46 36 47 85 48 79 49 78 50 37 52 67 53 48 54 66 55 49 56
REMARK SMILES IDX 52 57 65 58 83 59 50 60 51 61 64 63 84 64 53 65 38 66 39 67
REMARK SMILES IDX 47 68 40 69 46 70 41 71 42 72 43 73 44 74 45 75 68 76 69 77
REMARK SMILES IDX 77 78 70 79 76 80 71 81 72 82 73 83 74 84 75 85 54 86 55 87
REMARK SMILES IDX 63 88 56 89 62 90 57 91 58 92 59 93 60 94 61 95
REMARK H PARENT 19 7 12 15 26 32 82 51 52 62
REMARK Flexibility Score: inf
ROOT
ATOM      1  C   UNL A   1      34.240  25.981  25.306  1.00  0.00     0.002 C 
ENDROOT
BRANCH   1   2
ATOM      2  C   UNL A   1      34.953  24.732  25.842  1.00  0.00     0.021 C 
BRANCH   2   3
ATOM      3  C   UNL A   1      35.620  23.909  24.739  1.00  0.00     0.116 C 
BRANCH   3   4
ATOM      4  N   UNL A   1      35.260  22.512  24.878  1.00  0.00    -0.352 N 
ATOM      5  C   UNL A   1      34.061  21.848  24.835  1.00  0.00     0.251 C 
ATOM      6  O   UNL A   1      34.088  20.629  25.011  1.00  0.00    -0.269 OA
ATOM      7  H   UNL A   1      36.032  21.921  25.035  1.00  0.00     0.163 HD
BRANCH   5   8
ATOM      8  C   UNL A   1      32.773  22.505  24.471  1.00  0.00     0.039 A 
ATOM      9  C   UNL A   1      30.612  24.144  23.682  1.00  0.00     0.034 A 
ATOM     10  C   UNL A   1      31.535  23.684  22.742  1.00  0.00     0.026 A 
ATOM     11  C   UNL A   1      30.705  23.656  24.985  1.00  0.00     0.026 A 
ATOM     12  C   UNL A   1      32.624  22.901  23.136  1.00  0.00     0.016 A 
ATOM     13  C   UNL A   1      31.739  22.791  25.359  1.00  0.00     0.016 A 
BRANCH   9  14
ATOM     14  N   UNL A   1      29.730  25.146  23.332  1.00  0.00    -0.379 N 
ATOM     15  H   UNL A   1      29.127  25.013  22.566  1.00  0.00     0.160 HD
BRANCH  14  16
ATOM     16  C   UNL A   1      29.678  26.391  24.072  1.00  0.00     0.169 C 
BRANCH  16  17
ATOM     17  C   UNL A   1      29.966  27.583  23.232  1.00  0.00     0.066 A 
ATOM     18  C   UNL A   1      32.452  27.251  22.548  1.00  0.00     0.069 C 
ATOM     19  C   UNL A   1      31.149  27.960  22.592  1.00  0.00     0.062 A 
ATOM     20  N   UNL A   1      31.006  29.156  21.922  1.00  0.00    -0.224 NA
ATOM     21  C   UNL A   1      29.769  29.484  22.154  1.00  0.00     0.194 A 
ATOM     22  N   UNL A   1      29.066  28.576  22.900  1.00  0.00    -0.290 N 
ATOM     23  S   UNL A   1      28.791  30.832  21.668  1.00  0.00    -0.105 S 
ATOM     24  C   UNL A   1      27.725  28.907  23.080  1.00  0.00     0.032 A 
ATOM     25  C   UNL A   1      27.427  30.082  22.485  1.00  0.00     0.090 A 
ATOM     26  C   UNL A   1      26.715  28.080  23.789  1.00  0.00     0.066 C 
ENDBRANCH  16  17
ENDBRANCH  14  16
ENDBRANCH   9  14
ENDBRANCH   5   8
ENDBRANCH   3   4
ENDBRANCH   2   3
ENDBRANCH   1   2
BRANCH   1  27
ATOM     27  C   UNL A   1      32.894  26.306  25.976  1.00  0.00     0.002 C 
BRANCH  27  28
ATOM     28  C   UNL A   1      32.866  27.571  26.849  1.00  0.00     0.021 C 
BRANCH  28  29
ATOM     29  C   UNL A   1      33.978  28.548  26.510  1.00  0.00     0.116 C 
BRANCH  29  30
ATOM     30  N   UNL A   1      33.572  29.936  26.747  1.00  0.00    -0.352 N 
ATOM     31  C   UNL A   1      34.184  30.901  27.529  1.00  0.00     0.251 C 
ATOM     32  H   UNL A   1      32.750  30.222  26.287  1.00  0.00     0.163 HD
ATOM     33  O   UNL A   1      33.560  31.865  27.936  1.00  0.00    -0.269 OA
BRANCH  31  34
ATOM     34  C   UNL A   1      35.617  30.745  27.831  1.00  0.00     0.039 A 
ATOM     35  C   UNL A   1      36.390  31.774  28.382  1.00  0.00     0.014 A 
ATOM     36  C   UNL A   1      36.182  29.506  27.550  1.00  0.00     0.014 A 
ATOM     37  C   UNL A   1      37.726  31.515  28.683  1.00  0.00     0.010 A 
ATOM     38  C   UNL A   1      37.405  29.189  28.057  1.00  0.00     0.010 A 
ATOM     39  C   UNL A   1      38.219  30.215  28.512  1.00  0.00    -0.014 A 
BRANCH  39  40
ATOM     40  C   UNL A   1      39.568  29.819  28.883  1.00  0.00     0.031 A 
ATOM     41  C   UNL A   1      39.785  29.799  30.351  1.00  0.00     0.074 A 
ATOM     42  C   UNL A   1      40.387  29.216  27.989  1.00  0.00     0.049 A 
ATOM     43  N   UNL A   1      40.481  30.625  31.059  1.00  0.00    -0.248 NA
ATOM     44  C   UNL A   1      38.959  28.879  31.159  1.00  0.00     0.031 C 
ATOM     45  C   UNL A   1      40.097  28.855  26.591  1.00  0.00     0.029 A 
ATOM     46  N   UNL A   1      41.609  28.658  28.177  1.00  0.00    -0.354 N 
ATOM     47  C   UNL A   1      40.406  30.143  32.363  1.00  0.00     0.074 A 
ATOM     48  C   UNL A   1      39.256  29.278  32.396  1.00  0.00     0.031 C 
ATOM     49  C   UNL A   1      40.991  27.935  26.162  1.00  0.00     0.029 A 
ATOM     50  C   UNL A   1      42.006  27.762  27.185  1.00  0.00     0.049 A 
ATOM     51  H   UNL A   1      42.173  28.869  28.955  1.00  0.00     0.167 HD
ATOM     52  C   UNL A   1      41.481  30.209  33.200  1.00  0.00     0.031 A 
ATOM     53  C   UNL A   1      43.067  26.910  27.230  1.00  0.00     0.031 A 
ATOM     54  C   UNL A   1      42.502  31.077  32.663  1.00  0.00     0.049 A 
ATOM     55  C   UNL A   1      43.964  27.411  28.303  1.00  0.00     0.074 A 
ATOM     56  C   UNL A   1      42.548  32.398  32.262  1.00  0.00     0.029 A 
ATOM     57  N   UNL A   1      43.578  30.459  32.065  1.00  0.00    -0.354 N 
ATOM     58  N   UNL A   1      44.574  28.562  28.245  1.00  0.00    -0.248 NA
ATOM     59  C   UNL A   1      43.775  26.872  29.641  1.00  0.00     0.031 C 
ATOM     60  C   UNL A   1      43.347  32.393  31.081  1.00  0.00     0.029 A 
ATOM     61  C   UNL A   1      43.830  31.098  30.879  1.00  0.00     0.049 A 
ATOM     62  H   UNL A   1      44.079  29.692  32.426  1.00  0.00     0.167 HD
ATOM     63  C   UNL A   1      44.444  29.097  29.520  1.00  0.00     0.074 A 
ATOM     64  C   UNL A   1      44.018  27.975  30.358  1.00  0.00     0.031 C 
ATOM     65  C   UNL A   1      44.399  30.449  29.716  1.00  0.00     0.031 A 
BRANCH  52  66
ATOM     66  C   UNL A   1      41.815  29.144  34.228  1.00  0.00    -0.014 A 
ATOM     67  C   UNL A   1      42.171  27.860  33.765  1.00  0.00     0.010 A 
ATOM     68  C   UNL A   1      41.521  29.261  35.602  1.00  0.00     0.010 A 
ATOM     69  C   UNL A   1      42.121  26.741  34.605  1.00  0.00     0.020 A 
ATOM     70  C   UNL A   1      41.512  28.159  36.459  1.00  0.00     0.020 A 
ATOM     71  C   UNL A   1      41.772  26.899  35.945  1.00  0.00     0.054 A 
BRANCH  71  72
ATOM     72  S   UNL A   1      41.597  25.439  36.995  1.00  0.00     0.124 S 
ATOM     73  O   UNL A   1      40.379  25.748  37.735  1.00  0.00    -0.237 OA
ATOM     74  O   UNL A   1      41.491  24.366  36.011  1.00  0.00    -0.237 OA
ATOM     75  O   UNL A   1      42.829  25.438  37.783  1.00  0.00    -0.744 OA
ENDBRANCH  71  72
ENDBRANCH  52  66
BRANCH  53  76
ATOM     76  C   UNL A   1      43.186  25.535  26.667  1.00  0.00    -0.014 A 
ATOM     77  C   UNL A   1      43.297  25.314  25.278  1.00  0.00     0.010 A 
ATOM     78  C   UNL A   1      43.485  24.450  27.516  1.00  0.00     0.010 A 
ATOM     79  C   UNL A   1      43.752  24.082  24.766  1.00  0.00     0.020 A 
ATOM     80  C   UNL A   1      43.935  23.220  27.015  1.00  0.00     0.020 A 
ATOM     81  C   UNL A   1      44.091  23.048  25.642  1.00  0.00     0.054 A 
BRANCH  81  82
ATOM     82  S   UNL A   1      44.855  21.526  24.994  1.00  0.00     0.124 S 
ATOM     83  O   UNL A   1      46.237  21.653  25.446  1.00  0.00    -0.237 OA
ATOM     84  O   UNL A   1      44.072  20.477  25.639  1.00  0.00    -0.237 OA
ATOM     85  O   UNL A   1      44.664  21.636  23.548  1.00  0.00    -0.744 OA
ENDBRANCH  81  82
ENDBRANCH  53  76
BRANCH  65  86
ATOM     86  C   UNL A   1      44.784  31.363  28.576  1.00  0.00    -0.014 A 
ATOM     87  C   UNL A   1      43.869  31.940  27.670  1.00  0.00     0.010 A 
ATOM     88  C   UNL A   1      46.122  31.793  28.539  1.00  0.00     0.010 A 
ATOM     89  C   UNL A   1      44.294  32.906  26.743  1.00  0.00     0.020 A 
ATOM     90  C   UNL A   1      46.545  32.767  27.633  1.00  0.00     0.020 A 
ATOM     91  C   UNL A   1      45.632  33.314  26.733  1.00  0.00     0.054 A 
BRANCH  91  92
ATOM     92  S   UNL A   1      46.178  34.593  25.567  1.00  0.00     0.124 S 
ATOM     93  O   UNL A   1      45.788  35.827  26.243  1.00  0.00    -0.237 OA
ATOM     94  O   UNL A   1      47.617  34.356  25.472  1.00  0.00    -0.237 OA
ATOM     95  O   UNL A   1      45.429  34.295  24.347  1.00  0.00    -0.744 OA
ENDBRANCH  91  92
ENDBRANCH  65  86
ENDBRANCH  39  40
ENDBRANCH  31  34
ENDBRANCH  29  30
ENDBRANCH  28  29
ENDBRANCH  27  28
ENDBRANCH   1  27
TORSDOF 19
ENDMDL
MODEL 2
REMARK VINA RESULT:     -12.0      2.347      8.812
REMARK SMILES Cc1nc2scc(C)n2c1CNc1ccc(C(=O)NCCCCCCNC(=O)c2ccc(-c3c4nc(c(-c5ccc(S(=O)(=O)[O-])cc5)c5ccc([nH]5)c(-c5ccc(S(=O)(=O)[O-])cc5)c5nc(c(-c6ccc(S(=O)(=O)[O-])cc6)c6ccc3[nH]6)C=C5)C=C4)cc2)cc1
REMARK SMILES IDX 22 1 21 2 20 3 19 4 17 5 18 6 16 8 13 9 14 10 90 11 15 12
REMARK SMILES IDX 89 13 12 14 11 16 10 17 1 18 2 19 3 20 4 21 9 22 5 23 7 24
REMARK SMILES IDX 6 25 8 26 23 27 24 28 25 29 26 30 27 31 28 33 29 34 30 35
REMARK SMILES IDX 88 36 31 37 87 38 32 39 33 40 34 41 81 42 35 43 86 44 80 45
REMARK SMILES IDX 82 46 36 47 85 48 79 49 78 50 37 52 67 53 48 54 66 55 49 56
REMARK SMILES IDX 52 57 65 58 83 59 50 60 51 61 64 63 84 64 53 65 38 66 39 67
REMARK SMILES IDX 47 68 40 69 46 70 41 71 42 72 43 73 44 74 45 75 68 76 69 77
REMARK SMILES IDX 77 78 70 79 76 80 71 81 72 82 73 83 74 84 75 85 54 86 55 87
REMARK SMILES IDX 63 88 56 89 62 90 57 91 58 92 59 93 60 94 61 95
REMARK H PARENT 19 7 12 15 26 32 82 51 52 62
REMARK Flexibility Score: inf
ROOT
ATOM      1  C   UNL A   1      35.441  20.409  24.895  1.00  0.00     0.002 C 
ENDROOT
BRANCH   1   2
ATOM      2  C   UNL A   1      33.974  20.392  25.346  1.00  0.00     0.021 C 
BRANCH   2   3
ATOM      3  C   UNL A   1      33.066  21.236  24.449  1.00  0.00     0.116 C 
BRANCH   3   4
ATOM      4  N   UNL A   1      31.788  21.449  25.100  1.00  0.00    -0.352 N 
ATOM      5  C   UNL A   1      31.279  22.484  25.842  1.00  0.00     0.251 C 
ATOM      6  O   UNL A   1      30.136  22.349  26.280  1.00  0.00    -0.269 OA
ATOM      7  H   UNL A   1      31.160  20.700  24.986  1.00  0.00     0.163 HD
BRANCH   5   8
ATOM      8  C   UNL A   1      31.987  23.782  26.031  1.00  0.00     0.039 A 
ATOM      9  C   UNL A   1      33.119  26.369  25.961  1.00  0.00     0.034 A 
ATOM     10  C   UNL A   1      31.752  26.197  26.182  1.00  0.00     0.026 A 
ATOM     11  C   UNL A   1      33.924  25.231  25.922  1.00  0.00     0.026 A 
ATOM     12  C   UNL A   1      31.185  24.920  26.183  1.00  0.00     0.016 A 
ATOM     13  C   UNL A   1      33.370  23.951  26.023  1.00  0.00     0.016 A 
BRANCH   9  14
ATOM     14  N   UNL A   1      33.606  27.626  25.668  1.00  0.00    -0.379 N 
ATOM     15  H   UNL A   1      33.815  28.247  26.402  1.00  0.00     0.160 HD
BRANCH  14  16
ATOM     16  C   UNL A   1      33.815  28.048  24.298  1.00  0.00     0.169 C 
BRANCH  16  17
ATOM     17  C   UNL A   1      32.603  27.905  23.450  1.00  0.00     0.066 A 
ATOM     18  C   UNL A   1      33.174  25.884  21.918  1.00  0.00     0.069 C 
ATOM     19  C   UNL A   1      32.331  26.994  22.427  1.00  0.00     0.062 A 
ATOM     20  N   UNL A   1      31.088  27.209  21.872  1.00  0.00    -0.224 NA
ATOM     21  C   UNL A   1      30.629  28.223  22.546  1.00  0.00     0.194 A 
ATOM     22  N   UNL A   1      31.460  28.675  23.536  1.00  0.00    -0.290 N 
ATOM     23  S   UNL A   1      29.137  29.106  22.486  1.00  0.00    -0.105 S 
ATOM     24  C   UNL A   1      30.924  29.713  24.295  1.00  0.00     0.032 A 
ATOM     25  C   UNL A   1      29.694  30.056  23.856  1.00  0.00     0.090 A 
ATOM     26  C   UNL A   1      31.573  30.354  25.467  1.00  0.00     0.066 C 
ENDBRANCH  16  17
ENDBRANCH  14  16
ENDBRANCH   9  14
ENDBRANCH   5   8
ENDBRANCH   3   4
ENDBRANCH   2   3
ENDBRANCH   1   2
BRANCH   1  27
ATOM     27  C   UNL A   1      36.342  21.417  25.629  1.00  0.00     0.002 C 
BRANCH  27  28
ATOM     28  C   UNL A   1      37.775  21.554  25.090  1.00  0.00     0.021 C 
BRANCH  28  29
ATOM     29  C   UNL A   1      38.742  22.116  26.118  1.00  0.00     0.116 C 
BRANCH  29  30
ATOM     30  N   UNL A   1      40.059  21.479  26.028  1.00  0.00    -0.352 N 
ATOM     31  C   UNL A   1      41.311  22.068  26.013  1.00  0.00     0.251 C 
ATOM     32  H   UNL A   1      40.052  20.496  25.972  1.00  0.00     0.163 HD
ATOM     33  O   UNL A   1      42.277  21.475  25.562  1.00  0.00    -0.269 OA
BRANCH  31  34
ATOM     34  C   UNL A   1      41.451  23.420  26.581  1.00  0.00     0.039 A 
ATOM     35  C   UNL A   1      40.980  24.566  25.930  1.00  0.00     0.014 A 
ATOM     36  C   UNL A   1      42.076  23.513  27.819  1.00  0.00     0.014 A 
ATOM     37  C   UNL A   1      41.111  25.797  26.571  1.00  0.00     0.010 A 
ATOM     38  C   UNL A   1      41.989  24.668  28.536  1.00  0.00     0.010 A 
ATOM     39  C   UNL A   1      41.621  25.830  27.876  1.00  0.00    -0.014 A 
BRANCH  39  40
ATOM     40  C   UNL A   1      41.710  27.048  28.665  1.00  0.00     0.031 A 
ATOM     41  C   UNL A   1      42.904  27.867  28.337  1.00  0.00     0.074 A 
ATOM     42  C   UNL A   1      40.639  27.512  29.352  1.00  0.00     0.049 A 
ATOM     43  N   UNL A   1      43.964  28.042  29.053  1.00  0.00    -0.248 NA
ATOM     44  C   UNL A   1      43.030  28.381  26.958  1.00  0.00     0.031 C 
ATOM     45  C   UNL A   1      39.285  26.939  29.418  1.00  0.00     0.029 A 
ATOM     46  N   UNL A   1      40.485  28.680  30.023  1.00  0.00    -0.354 N 
ATOM     47  C   UNL A   1      44.754  28.926  28.325  1.00  0.00     0.074 A 
ATOM     48  C   UNL A   1      44.276  28.858  26.970  1.00  0.00     0.031 C 
ATOM     49  C   UNL A   1      38.414  27.875  29.860  1.00  0.00     0.029 A 
ATOM     50  C   UNL A   1      39.162  29.052  30.262  1.00  0.00     0.049 A 
ATOM     51  H   UNL A   1      41.248  29.225  30.320  1.00  0.00     0.167 HD
ATOM     52  C   UNL A   1      45.488  29.892  28.951  1.00  0.00     0.031 A 
ATOM     53  C   UNL A   1      38.720  30.258  30.712  1.00  0.00     0.031 A 
ATOM     54  C   UNL A   1      45.555  29.650  30.373  1.00  0.00     0.049 A 
ATOM     55  C   UNL A   1      39.895  30.938  31.317  1.00  0.00     0.074 A 
ATOM     56  C   UNL A   1      45.984  28.604  31.166  1.00  0.00     0.029 A 
ATOM     57  N   UNL A   1      44.721  30.410  31.163  1.00  0.00    -0.354 N 
ATOM     58  N   UNL A   1      40.513  30.490  32.375  1.00  0.00    -0.248 NA
ATOM     59  C   UNL A   1      40.681  31.810  30.458  1.00  0.00     0.031 C 
ATOM     60  C   UNL A   1      45.021  28.523  32.214  1.00  0.00     0.029 A 
ATOM     61  C   UNL A   1      44.118  29.578  32.068  1.00  0.00     0.049 A 
ATOM     62  H   UNL A   1      44.582  31.382  31.089  1.00  0.00     0.167 HD
ATOM     63  C   UNL A   1      41.863  30.646  32.089  1.00  0.00     0.074 A 
ATOM     64  C   UNL A   1      41.903  31.542  30.932  1.00  0.00     0.031 C 
ATOM     65  C   UNL A   1      42.799  29.804  32.621  1.00  0.00     0.031 A 
BRANCH  52  66
ATOM     66  C   UNL A   1      45.723  31.276  28.376  1.00  0.00    -0.014 A 
ATOM     67  C   UNL A   1      44.609  31.996  27.899  1.00  0.00     0.010 A 
ATOM     68  C   UNL A   1      46.995  31.774  28.025  1.00  0.00     0.010 A 
ATOM     69  C   UNL A   1      44.759  33.081  27.026  1.00  0.00     0.020 A 
ATOM     70  C   UNL A   1      47.158  32.883  27.192  1.00  0.00     0.020 A 
ATOM     71  C   UNL A   1      46.037  33.504  26.665  1.00  0.00     0.054 A 
BRANCH  71  72
ATOM     72  S   UNL A   1      46.225  34.829  25.450  1.00  0.00     0.124 S 
ATOM     73  O   UNL A   1      47.623  34.683  25.064  1.00  0.00    -0.237 OA
ATOM     74  O   UNL A   1      45.241  34.456  24.438  1.00  0.00    -0.237 OA
ATOM     75  O   UNL A   1      45.903  36.035  26.211  1.00  0.00    -0.744 OA
ENDBRANCH  71  72
ENDBRANCH  52  66
BRANCH  53  76
ATOM     76  C   UNL A   1      37.472  30.990  30.354  1.00  0.00    -0.014 A 
ATOM     77  C   UNL A   1      36.602  31.492  31.344  1.00  0.00     0.010 A 
ATOM     78  C   UNL A   1      37.280  31.451  29.035  1.00  0.00     0.010 A 
ATOM     79  C   UNL A   1      35.628  32.465  31.039  1.00  0.00     0.020 A 
ATOM     80  C   UNL A   1      36.311  32.416  28.722  1.00  0.00     0.020 A 
ATOM     81  C   UNL A   1      35.505  32.937  29.731  1.00  0.00     0.054 A 
BRANCH  81  82
ATOM     82  S   UNL A   1      34.379  34.325  29.371  1.00  0.00     0.124 S 
ATOM     83  O   UNL A   1      35.196  35.176  28.512  1.00  0.00    -0.237 OA
ATOM     84  O   UNL A   1      33.254  33.662  28.720  1.00  0.00    -0.237 OA
ATOM     85  O   UNL A   1      34.086  34.878  30.693  1.00  0.00    -0.744 OA
ENDBRANCH  81  82
ENDBRANCH  53  76
BRANCH  65  86
ATOM     86  C   UNL A   1      42.392  28.884  33.749  1.00  0.00    -0.014 A 
ATOM     87  C   UNL A   1      41.662  27.689  33.582  1.00  0.00     0.010 A 
ATOM     88  C   UNL A   1      42.935  29.163  35.015  1.00  0.00     0.010 A 
ATOM     89  C   UNL A   1      41.469  26.812  34.663  1.00  0.00     0.020 A 
ATOM     90  C   UNL A   1      42.764  28.287  36.087  1.00  0.00     0.020 A 
ATOM     91  C   UNL A   1      42.024  27.119  35.910  1.00  0.00     0.054 A 
BRANCH  91  92
ATOM     92  S   UNL A   1      41.815  25.969  37.299  1.00  0.00     0.124 S 
ATOM     93  O   UNL A   1      42.126  24.678  36.692  1.00  0.00    -0.237 OA
ATOM     94  O   UNL A   1      42.788  26.456  38.275  1.00  0.00    -0.237 OA
ATOM     95  O   UNL A   1      40.418  26.146  37.691  1.00  0.00    -0.744 OA
ENDBRANCH  91  92
ENDBRANCH  65  86
ENDBRANCH  39  40
ENDBRANCH  31  34
ENDBRANCH  29  30
ENDBRANCH  28  29
ENDBRANCH  27  28
ENDBRANCH   1  27
TORSDOF 19
ENDMDL
MODEL 3
REMARK VINA RESULT:     -12.0      2.537      4.551
REMARK SMILES Cc1nc2scc(C)n2c1CNc1ccc(C(=O)NCCCCCCNC(=O)c2ccc(-c3c4nc(c(-c5ccc(S(=O)(=O)[O-])cc5)c5ccc([nH]5)c(-c5ccc(S(=O)(=O)[O-])cc5)c5nc(c(-c6ccc(S(=O)(=O)[O-])cc6)c6ccc3[nH]6)C=C5)C=C4)cc2)cc1
REMARK SMILES IDX 22 1 21 2 20 3 19 4 17 5 18 6 16 8 13 9 14 10 90 11 15 12
REMARK SMILES IDX 89 13 12 14 11 16 10 17 1 18 2 19 3 20 4 21 9 22 5 23 7 24
REMARK SMILES IDX 6 25 8 26 23 27 24 28 25 29 26 30 27 31 28 33 29 34 30 35
REMARK SMILES IDX 88 36 31 37 87 38 32 39 33 40 34 41 81 42 35 43 86 44 80 45
REMARK SMILES IDX 82 46 36 47 85 48 79 49 78 50 37 52 67 53 48 54 66 55 49 56
REMARK SMILES IDX 52 57 65 58 83 59 50 60 51 61 64 63 84 64 53 65 38 66 39 67
REMARK SMILES IDX 47 68 40 69 46 70 41 71 42 72 43 73 44 74 45 75 68 76 69 77
REMARK SMILES IDX 77 78 70 79 76 80 71 81 72 82 73 83 74 84 75 85 54 86 55 87
REMARK SMILES IDX 63 88 56 89 62 90 57 91 58 92 59 93 60 94 61 95
REMARK H PARENT 19 7 12 15 26 32 82 51 52 62
REMARK Flexibility Score: inf
ROOT
ATOM      1  C   UNL A   1      33.968  30.860  27.784  1.00  0.00     0.002 C 
ENDROOT
BRANCH   1   2
ATOM      2  C   UNL A   1      34.674  29.671  27.118  1.00  0.00     0.021 C 
BRANCH   2   3
ATOM      3  C   UNL A   1      33.802  28.971  26.074  1.00  0.00     0.116 C 
BRANCH   3   4
ATOM      4  N   UNL A   1      32.608  29.754  25.821  1.00  0.00    -0.352 N 
ATOM      5  C   UNL A   1      31.526  29.568  25.000  1.00  0.00     0.251 C 
ATOM      6  O   UNL A   1      30.664  30.447  25.001  1.00  0.00    -0.269 OA
ATOM      7  H   UNL A   1      32.566  30.586  26.345  1.00  0.00     0.163 HD
BRANCH   5   8
ATOM      8  C   UNL A   1      31.296  28.320  24.217  1.00  0.00     0.039 A 
ATOM      9  C   UNL A   1      31.260  25.786  22.970  1.00  0.00     0.034 A 
ATOM     10  C   UNL A   1      30.943  25.916  24.322  1.00  0.00     0.026 A 
ATOM     11  C   UNL A   1      31.450  26.950  22.226  1.00  0.00     0.026 A 
ATOM     12  C   UNL A   1      30.994  27.164  24.949  1.00  0.00     0.016 A 
ATOM     13  C   UNL A   1      31.403  28.209  22.832  1.00  0.00     0.016 A 
BRANCH   9  14
ATOM     14  N   UNL A   1      31.495  24.531  22.446  1.00  0.00    -0.379 N 
ATOM     15  H   UNL A   1      30.754  24.034  22.031  1.00  0.00     0.160 HD
BRANCH  14  16
ATOM     16  C   UNL A   1      32.813  23.932  22.499  1.00  0.00     0.169 C 
BRANCH  16  17
ATOM     17  C   UNL A   1      32.900  22.790  23.446  1.00  0.00     0.066 A 
ATOM     18  C   UNL A   1      31.924  20.802  22.086  1.00  0.00     0.069 C 
ATOM     19  C   UNL A   1      32.511  21.459  23.280  1.00  0.00     0.062 A 
ATOM     20  N   UNL A   1      32.747  20.714  24.416  1.00  0.00    -0.224 NA
ATOM     21  C   UNL A   1      33.264  21.578  25.239  1.00  0.00     0.194 A 
ATOM     22  N   UNL A   1      33.426  22.836  24.723  1.00  0.00    -0.290 N 
ATOM     23  S   UNL A   1      33.849  21.457  26.868  1.00  0.00    -0.105 S 
ATOM     24  C   UNL A   1      34.046  23.730  25.592  1.00  0.00     0.032 A 
ATOM     25  C   UNL A   1      34.330  23.146  26.775  1.00  0.00     0.090 A 
ATOM     26  C   UNL A   1      34.404  25.137  25.279  1.00  0.00     0.066 C 
ENDBRANCH  16  17
ENDBRANCH  14  16
ENDBRANCH   9  14
ENDBRANCH   5   8
ENDBRANCH   3   4
ENDBRANCH   2   3
ENDBRANCH   1   2
BRANCH   1  27
ATOM     27  C   UNL A   1      34.779  32.167  27.822  1.00  0.00     0.002 C 
BRANCH  27  28
ATOM     28  C   UNL A   1      33.965  33.458  28.001  1.00  0.00     0.021 C 
BRANCH  28  29
ATOM     29  C   UNL A   1      34.780  34.594  28.595  1.00  0.00     0.116 C 
BRANCH  29  30
ATOM     30  N   UNL A   1      34.341  34.924  29.954  1.00  0.00    -0.352 N 
ATOM     31  C   UNL A   1      34.565  34.234  31.133  1.00  0.00     0.251 C 
ATOM     32  H   UNL A   1      33.814  35.751  30.040  1.00  0.00     0.163 HD
ATOM     33  O   UNL A   1      33.846  34.401  32.103  1.00  0.00    -0.269 OA
BRANCH  31  34
ATOM     34  C   UNL A   1      35.713  33.313  31.193  1.00  0.00     0.039 A 
ATOM     35  C   UNL A   1      35.565  31.921  31.220  1.00  0.00     0.014 A 
ATOM     36  C   UNL A   1      36.976  33.893  31.213  1.00  0.00     0.014 A 
ATOM     37  C   UNL A   1      36.712  31.129  31.223  1.00  0.00     0.010 A 
ATOM     38  C   UNL A   1      38.077  33.126  30.979  1.00  0.00     0.010 A 
ATOM     39  C   UNL A   1      37.963  31.749  31.104  1.00  0.00    -0.014 A 
BRANCH  39  40
ATOM     40  C   UNL A   1      39.211  31.012  31.003  1.00  0.00     0.031 A 
ATOM     41  C   UNL A   1      39.851  30.767  32.320  1.00  0.00     0.074 A 
ATOM     42  C   UNL A   1      39.537  30.346  29.869  1.00  0.00     0.049 A 
ATOM     43  N   UNL A   1      40.916  31.321  32.796  1.00  0.00    -0.248 NA
ATOM     44  C   UNL A   1      39.101  29.974  33.315  1.00  0.00     0.031 C 
ATOM     45  C   UNL A   1      38.754  30.231  28.627  1.00  0.00     0.029 A 
ATOM     46  N   UNL A   1      40.571  29.503  29.630  1.00  0.00    -0.354 N 
ATOM     47  C   UNL A   1      41.119  30.717  34.034  1.00  0.00     0.074 A 
ATOM     48  C   UNL A   1      39.852  30.144  34.404  1.00  0.00     0.031 C 
ATOM     49  C   UNL A   1      39.208  29.187  27.897  1.00  0.00     0.029 A 
ATOM     50  C   UNL A   1      40.405  28.663  28.528  1.00  0.00     0.049 A 
ATOM     51  H   UNL A   1      41.379  29.483  30.191  1.00  0.00     0.167 HD
ATOM     52  C   UNL A   1      42.376  30.433  34.481  1.00  0.00     0.031 A 
ATOM     53  C   UNL A   1      41.173  27.591  28.195  1.00  0.00     0.031 A 
ATOM     54  C   UNL A   1      43.373  31.099  33.676  1.00  0.00     0.049 A 
ATOM     55  C   UNL A   1      42.451  27.739  28.939  1.00  0.00     0.074 A 
ATOM     56  C   UNL A   1      43.633  32.412  33.334  1.00  0.00     0.029 A 
ATOM     57  N   UNL A   1      44.021  30.325  32.739  1.00  0.00    -0.354 N 
ATOM     58  N   UNL A   1      43.289  28.717  28.731  1.00  0.00    -0.248 NA
ATOM     59  C   UNL A   1      42.544  27.104  30.244  1.00  0.00     0.031 C 
ATOM     60  C   UNL A   1      44.007  32.362  31.959  1.00  0.00     0.029 A 
ATOM     61  C   UNL A   1      44.056  31.024  31.561  1.00  0.00     0.049 A 
ATOM     62  H   UNL A   1      44.392  29.426  32.888  1.00  0.00     0.167 HD
ATOM     63  C   UNL A   1      43.693  29.112  29.999  1.00  0.00     0.074 A 
ATOM     64  C   UNL A   1      43.268  28.027  30.886  1.00  0.00     0.031 C 
ATOM     65  C   UNL A   1      44.059  30.405  30.252  1.00  0.00     0.031 A 
BRANCH  52  66
ATOM     66  C   UNL A   1      42.721  29.205  35.303  1.00  0.00    -0.014 A 
ATOM     67  C   UNL A   1      43.652  29.348  36.353  1.00  0.00     0.010 A 
ATOM     68  C   UNL A   1      42.401  27.887  34.918  1.00  0.00     0.010 A 
ATOM     69  C   UNL A   1      44.308  28.241  36.903  1.00  0.00     0.020 A 
ATOM     70  C   UNL A   1      43.016  26.773  35.490  1.00  0.00     0.020 A 
ATOM     71  C   UNL A   1      43.997  26.960  36.451  1.00  0.00     0.054 A 
BRANCH  71  72
ATOM     72  S   UNL A   1      44.928  25.544  37.081  1.00  0.00     0.124 S 
ATOM     73  O   UNL A   1      44.480  25.487  38.468  1.00  0.00    -0.237 OA
ATOM     74  O   UNL A   1      44.465  24.464  36.216  1.00  0.00    -0.237 OA
ATOM     75  O   UNL A   1      46.322  25.941  36.885  1.00  0.00    -0.744 OA
ENDBRANCH  71  72
ENDBRANCH  52  66
BRANCH  53  76
ATOM     76  C   UNL A   1      40.758  26.302  27.570  1.00  0.00    -0.014 A 
ATOM     77  C   UNL A   1      41.476  25.741  26.493  1.00  0.00     0.010 A 
ATOM     78  C   UNL A   1      39.823  25.472  28.223  1.00  0.00     0.010 A 
ATOM     79  C   UNL A   1      41.313  24.388  26.131  1.00  0.00     0.020 A 
ATOM     80  C   UNL A   1      39.653  24.127  27.866  1.00  0.00     0.020 A 
ATOM     81  C   UNL A   1      40.417  23.582  26.836  1.00  0.00     0.054 A 
BRANCH  81  82
ATOM     82  S   UNL A   1      40.342  21.794  26.494  1.00  0.00     0.124 S 
ATOM     83  O   UNL A   1      40.410  21.216  27.833  1.00  0.00    -0.237 OA
ATOM     84  O   UNL A   1      39.062  21.654  25.808  1.00  0.00    -0.237 OA
ATOM     85  O   UNL A   1      41.518  21.557  25.657  1.00  0.00    -0.744 OA
ENDBRANCH  81  82
ENDBRANCH  53  76
BRANCH  65  86
ATOM     86  C   UNL A   1      44.301  31.334  29.085  1.00  0.00    -0.014 A 
ATOM     87  C   UNL A   1      43.404  32.338  28.664  1.00  0.00     0.010 A 
ATOM     88  C   UNL A   1      45.581  31.296  28.506  1.00  0.00     0.010 A 
ATOM     89  C   UNL A   1      43.780  33.264  27.675  1.00  0.00     0.020 A 
ATOM     90  C   UNL A   1      45.967  32.224  27.538  1.00  0.00     0.020 A 
ATOM     91  C   UNL A   1      45.062  33.199  27.120  1.00  0.00     0.054 A 
BRANCH  91  92
ATOM     92  S   UNL A   1      45.569  34.418  25.874  1.00  0.00     0.124 S 
ATOM     93  O   UNL A   1      45.168  35.682  26.484  1.00  0.00    -0.237 OA
ATOM     94  O   UNL A   1      47.011  34.199  25.771  1.00  0.00    -0.237 OA
ATOM     95  O   UNL A   1      44.808  34.037  24.684  1.00  0.00    -0.744 OA
ENDBRANCH  91  92
ENDBRANCH  65  86
ENDBRANCH  39  40
ENDBRANCH  31  34
ENDBRANCH  29  30
ENDBRANCH  28  29
ENDBRANCH  27  28
ENDBRANCH   1  27
TORSDOF 19
ENDMDL
