MODEL 1
REMARK VINA RESULT:     -10.4      0.000      0.000
REMARK SMILES CC1(C)S[C@H](c2ccc(-c3cccc([N+](=O)[O-])c3)o2)[NH2+][C@@H]1C(=O)NCCCCCCNC(=O)c1ccc(-c2c3nc(c(-c4ccc(S(=O)(=O)[O-])cc4)c4ccc([nH]4)c(-c4ccc(S(=O)(=O)[O-])cc4)c4nc(c(-c5ccc(S(=O)(=O)[O-])cc5)c5ccc2[nH]5)C=C4)C=C3)cc1
REMARK SMILES IDX 27 1 26 2 25 3 24 4 22 5 23 6 21 8 1 9 2 10 3 11 4 12 5 13
REMARK SMILES IDX 20 14 6 17 7 18 19 19 8 20 9 21 10 22 11 23 18 24 12 25
REMARK SMILES IDX 14 26 13 27 15 28 16 29 17 30 28 31 29 32 30 33 31 34 32 35
REMARK SMILES IDX 33 37 34 38 35 39 93 40 36 41 92 42 37 43 38 44 39 45 86 46
REMARK SMILES IDX 40 47 91 48 85 49 87 50 41 51 90 52 84 53 83 54 42 56 72 57
REMARK SMILES IDX 53 58 71 59 54 60 57 61 70 62 88 63 55 64 56 65 69 67 89 68
REMARK SMILES IDX 58 69 43 70 44 71 52 72 45 73 51 74 46 75 47 76 48 77 49 78
REMARK SMILES IDX 50 79 73 80 74 81 82 82 75 83 81 84 76 85 77 86 78 87 79 88
REMARK SMILES IDX 80 89 59 90 60 91 68 92 61 93 67 94 62 95 63 96 64 97 65 98
REMARK SMILES IDX 66 99
REMARK H PARENT 24 7 20 15 20 16 31 36 87 55 57 66
REMARK Flexibility Score: inf
ROOT
ATOM      1  C   UNL A   1      35.301  30.571  27.899  1.00  0.00     0.002 C 
ENDROOT
BRANCH   1   2
ATOM      2  C   UNL A   1      34.118  29.886  27.218  1.00  0.00     0.021 C 
BRANCH   2   3
ATOM      3  C   UNL A   1      34.362  28.432  26.816  1.00  0.00     0.116 C 
BRANCH   3   4
ATOM      4  N   UNL A   1      33.147  27.636  26.784  1.00  0.00    -0.351 N 
ATOM      5  C   UNL A   1      32.491  27.156  25.677  1.00  0.00     0.279 C 
ATOM      6  O   UNL A   1      31.547  26.390  25.867  1.00  0.00    -0.268 OA
ATOM      7  H   UNL A   1      32.747  27.416  27.657  1.00  0.00     0.163 HD
BRANCH   5   8
ATOM      8  C   UNL A   1      32.905  27.702  24.289  1.00  0.00     0.289 C 
ATOM      9  C   UNL A   1      32.449  29.321  22.397  1.00  0.00     0.030 C 
ATOM     10  C   UNL A   1      31.815  28.290  23.357  1.00  0.00     0.078 C 
ATOM     11  C   UNL A   1      30.603  28.947  24.021  1.00  0.00     0.030 C 
ATOM     12  S   UNL A   1      31.258  26.860  22.373  1.00  0.00    -0.078 SA
ATOM     13  C   UNL A   1      32.698  25.847  22.775  1.00  0.00     0.311 C 
ATOM     14  N   UNL A   1      33.659  26.662  23.523  1.00  0.00    -0.317 N 
ATOM     15  H   UNL A   1      34.305  27.113  22.876  1.00  0.00     0.348 HD
ATOM     16  H   UNL A   1      34.191  26.074  24.164  1.00  0.00     0.348 HD
BRANCH  13  17
ATOM     17  C   UNL A   1      32.319  24.521  23.369  1.00  0.00     0.172 A 
ATOM     18  C   UNL A   1      31.071  24.039  23.726  1.00  0.00     0.054 A 
ATOM     19  O   UNL A   1      33.263  23.548  23.605  1.00  0.00    -0.454 OA
ATOM     20  C   UNL A   1      31.250  22.714  24.173  1.00  0.00     0.051 A 
ATOM     21  C   UNL A   1      32.599  22.445  24.081  1.00  0.00     0.134 A 
BRANCH  21  22
ATOM     22  C   UNL A   1      33.368  21.226  24.301  1.00  0.00     0.024 A 
ATOM     23  C   UNL A   1      34.665  21.248  24.834  1.00  0.00     0.012 A 
ATOM     24  C   UNL A   1      32.805  19.990  23.939  1.00  0.00     0.097 A 
ATOM     25  C   UNL A   1      35.391  20.057  25.001  1.00  0.00     0.008 A 
ATOM     26  C   UNL A   1      33.545  18.807  24.083  1.00  0.00     0.270 A 
ATOM     27  C   UNL A   1      34.834  18.831  24.624  1.00  0.00     0.085 A 
BRANCH  26  28
ATOM     28  N   UNL A   1      32.977  17.538  23.610  1.00  0.00     0.062 N 
ATOM     29  O   UNL A   1      32.899  16.608  24.424  1.00  0.00    -0.258 OA
ATOM     30  O   UNL A   1      32.600  17.485  22.432  1.00  0.00    -0.258 OA
ENDBRANCH  26  28
ENDBRANCH  21  22
ENDBRANCH  13  17
ENDBRANCH   5   8
ENDBRANCH   3   4
ENDBRANCH   2   3
ENDBRANCH   1   2
BRANCH   1  31
ATOM     31  C   UNL A   1      35.192  32.087  27.979  1.00  0.00     0.002 C 
BRANCH  31  32
ATOM     32  C   UNL A   1      33.791  32.679  27.974  1.00  0.00     0.021 C 
BRANCH  32  33
ATOM     33  C   UNL A   1      33.766  34.190  27.861  1.00  0.00     0.116 C 
BRANCH  33  34
ATOM     34  N   UNL A   1      33.015  34.836  28.929  1.00  0.00    -0.352 N 
ATOM     35  C   UNL A   1      33.261  34.830  30.281  1.00  0.00     0.251 C 
ATOM     36  H   UNL A   1      32.223  35.345  28.643  1.00  0.00     0.163 HD
ATOM     37  O   UNL A   1      32.469  35.351  31.053  1.00  0.00    -0.269 OA
BRANCH  35  38
ATOM     38  C   UNL A   1      34.490  34.176  30.785  1.00  0.00     0.039 A 
ATOM     39  C   UNL A   1      35.732  34.747  30.506  1.00  0.00     0.014 A 
ATOM     40  C   UNL A   1      34.404  33.012  31.552  1.00  0.00     0.014 A 
ATOM     41  C   UNL A   1      36.885  34.164  31.035  1.00  0.00     0.010 A 
ATOM     42  C   UNL A   1      35.535  32.511  32.177  1.00  0.00     0.010 A 
ATOM     43  C   UNL A   1      36.794  33.055  31.893  1.00  0.00    -0.014 A 
BRANCH  43  44
ATOM     44  C   UNL A   1      38.004  32.410  32.457  1.00  0.00     0.031 A 
ATOM     45  C   UNL A   1      38.511  32.832  33.813  1.00  0.00     0.074 A 
ATOM     46  C   UNL A   1      38.670  31.486  31.736  1.00  0.00     0.049 A 
ATOM     47  N   UNL A   1      39.557  32.405  34.473  1.00  0.00    -0.248 NA
ATOM     48  C   UNL A   1      37.766  33.898  34.507  1.00  0.00     0.031 C 
ATOM     49  C   UNL A   1      38.313  31.043  30.386  1.00  0.00     0.029 A 
ATOM     50  N   UNL A   1      39.785  30.749  32.043  1.00  0.00    -0.354 N 
ATOM     51  C   UNL A   1      39.603  33.161  35.639  1.00  0.00     0.074 A 
ATOM     52  C   UNL A   1      38.529  34.124  35.564  1.00  0.00     0.031 C 
ATOM     53  C   UNL A   1      39.162  30.076  30.002  1.00  0.00     0.029 A 
ATOM     54  C   UNL A   1      40.145  29.859  31.059  1.00  0.00     0.049 A 
ATOM     55  H   UNL A   1      40.280  30.847  32.888  1.00  0.00     0.167 HD
ATOM     56  C   UNL A   1      40.440  33.044  36.697  1.00  0.00     0.031 A 
ATOM     57  C   UNL A   1      41.150  28.963  31.018  1.00  0.00     0.031 A 
ATOM     58  C   UNL A   1      41.491  32.066  36.775  1.00  0.00     0.049 A 
ATOM     59  C   UNL A   1      42.058  28.839  32.211  1.00  0.00     0.074 A 
ATOM     60  C   UNL A   1      42.356  31.815  37.824  1.00  0.00     0.029 A 
ATOM     61  N   UNL A   1      41.815  31.173  35.763  1.00  0.00    -0.354 N 
ATOM     62  N   UNL A   1      42.038  29.512  33.339  1.00  0.00    -0.248 NA
ATOM     63  C   UNL A   1      43.113  27.821  32.133  1.00  0.00     0.031 C 
ATOM     64  C   UNL A   1      43.242  30.808  37.425  1.00  0.00     0.029 A 
ATOM     65  C   UNL A   1      42.884  30.386  36.153  1.00  0.00     0.049 A 
ATOM     66  H   UNL A   1      41.352  31.109  34.898  1.00  0.00     0.167 HD
ATOM     67  C   UNL A   1      43.062  28.981  34.115  1.00  0.00     0.074 A 
ATOM     68  C   UNL A   1      43.662  27.913  33.336  1.00  0.00     0.031 C 
ATOM     69  C   UNL A   1      43.473  29.340  35.357  1.00  0.00     0.031 A 
BRANCH  56  70
ATOM     70  C   UNL A   1      40.247  33.997  37.848  1.00  0.00    -0.014 A 
ATOM     71  C   UNL A   1      40.965  35.206  37.923  1.00  0.00     0.010 A 
ATOM     72  C   UNL A   1      39.318  33.694  38.859  1.00  0.00     0.010 A 
ATOM     73  C   UNL A   1      40.791  36.070  39.007  1.00  0.00     0.020 A 
ATOM     74  C   UNL A   1      39.115  34.572  39.929  1.00  0.00     0.020 A 
ATOM     75  C   UNL A   1      39.868  35.746  40.005  1.00  0.00     0.054 A 
BRANCH  75  76
ATOM     76  S   UNL A   1      39.643  36.899  41.387  1.00  0.00     0.124 S 
ATOM     77  O   UNL A   1      38.893  37.982  40.757  1.00  0.00    -0.237 OA
ATOM     78  O   UNL A   1      38.895  36.097  42.353  1.00  0.00    -0.237 OA
ATOM     79  O   UNL A   1      41.007  37.235  41.785  1.00  0.00    -0.744 OA
ENDBRANCH  75  76
ENDBRANCH  56  70
BRANCH  57  80
ATOM     80  C   UNL A   1      41.328  28.095  29.821  1.00  0.00    -0.014 A 
ATOM     81  C   UNL A   1      42.272  28.423  28.831  1.00  0.00     0.010 A 
ATOM     82  C   UNL A   1      40.557  26.928  29.668  1.00  0.00     0.010 A 
ATOM     83  C   UNL A   1      42.425  27.615  27.700  1.00  0.00     0.020 A 
ATOM     84  C   UNL A   1      40.729  26.101  28.554  1.00  0.00     0.020 A 
ATOM     85  C   UNL A   1      41.654  26.457  27.570  1.00  0.00     0.054 A 
BRANCH  85  86
ATOM     86  S   UNL A   1      41.898  25.400  26.115  1.00  0.00     0.124 S 
ATOM     87  O   UNL A   1      43.183  24.773  26.409  1.00  0.00    -0.237 OA
ATOM     88  O   UNL A   1      40.735  24.518  26.168  1.00  0.00    -0.237 OA
ATOM     89  O   UNL A   1      41.903  26.347  25.002  1.00  0.00    -0.744 OA
ENDBRANCH  85  86
ENDBRANCH  57  80
BRANCH  69  90
ATOM     90  C   UNL A   1      44.609  28.554  35.957  1.00  0.00    -0.014 A 
ATOM     91  C   UNL A   1      45.946  28.960  35.792  1.00  0.00     0.010 A 
ATOM     92  C   UNL A   1      44.331  27.404  36.718  1.00  0.00     0.010 A 
ATOM     93  C   UNL A   1      46.985  28.199  36.329  1.00  0.00     0.020 A 
ATOM     94  C   UNL A   1      45.367  26.660  37.288  1.00  0.00     0.020 A 
ATOM     95  C   UNL A   1      46.689  27.050  37.070  1.00  0.00     0.054 A 
BRANCH  95  96
ATOM     96  S   UNL A   1      48.056  26.084  37.764  1.00  0.00     0.124 S 
ATOM     97  O   UNL A   1      47.353  24.964  38.383  1.00  0.00    -0.237 OA
ATOM     98  O   UNL A   1      48.849  25.753  36.582  1.00  0.00    -0.237 OA
ATOM     99  O   UNL A   1      48.697  27.009  38.696  1.00  0.00    -0.744 OA
ENDBRANCH  95  96
ENDBRANCH  69  90
ENDBRANCH  43  44
ENDBRANCH  35  38
ENDBRANCH  33  34
ENDBRANCH  32  33
ENDBRANCH  31  32
ENDBRANCH   1  31
TORSDOF 19
ENDMDL
MODEL 2
REMARK VINA RESULT:     -10.1      5.956     11.946
REMARK SMILES CC1(C)S[C@H](c2ccc(-c3cccc([N+](=O)[O-])c3)o2)[NH2+][C@@H]1C(=O)NCCCCCCNC(=O)c1ccc(-c2c3nc(c(-c4ccc(S(=O)(=O)[O-])cc4)c4ccc([nH]4)c(-c4ccc(S(=O)(=O)[O-])cc4)c4nc(c(-c5ccc(S(=O)(=O)[O-])cc5)c5ccc2[nH]5)C=C4)C=C3)cc1
REMARK SMILES IDX 27 1 26 2 25 3 24 4 22 5 23 6 21 8 1 9 2 10 3 11 4 12 5 13
REMARK SMILES IDX 20 14 6 17 7 18 19 19 8 20 9 21 10 22 11 23 18 24 12 25
REMARK SMILES IDX 14 26 13 27 15 28 16 29 17 30 28 31 29 32 30 33 31 34 32 35
REMARK SMILES IDX 33 37 34 38 35 39 93 40 36 41 92 42 37 43 38 44 39 45 86 46
REMARK SMILES IDX 40 47 91 48 85 49 87 50 41 51 90 52 84 53 83 54 42 56 72 57
REMARK SMILES IDX 53 58 71 59 54 60 57 61 70 62 88 63 55 64 56 65 69 67 89 68
REMARK SMILES IDX 58 69 43 70 44 71 52 72 45 73 51 74 46 75 47 76 48 77 49 78
REMARK SMILES IDX 50 79 73 80 74 81 82 82 75 83 81 84 76 85 77 86 78 87 79 88
REMARK SMILES IDX 80 89 59 90 60 91 68 92 61 93 67 94 62 95 63 96 64 97 65 98
REMARK SMILES IDX 66 99
REMARK H PARENT 24 7 20 15 20 16 31 36 87 55 57 66
REMARK Flexibility Score: inf
ROOT
ATOM      1  C   UNL A   1      47.755  25.727  24.654  1.00  0.00     0.002 C 
ENDROOT
BRANCH   1   2
ATOM      2  C   UNL A   1      46.854  26.909  24.299  1.00  0.00     0.021 C 
BRANCH   2   3
ATOM      3  C   UNL A   1      45.798  27.249  25.349  1.00  0.00     0.116 C 
BRANCH   3   4
ATOM      4  N   UNL A   1      44.450  26.893  24.940  1.00  0.00    -0.351 N 
ATOM      5  C   UNL A   1      43.707  25.816  25.356  1.00  0.00     0.279 C 
ATOM      6  O   UNL A   1      42.533  25.762  24.988  1.00  0.00    -0.268 OA
ATOM      7  H   UNL A   1      44.019  27.493  24.288  1.00  0.00     0.163 HD
BRANCH   5   8
ATOM      8  C   UNL A   1      44.425  24.696  26.147  1.00  0.00     0.289 C 
ATOM      9  C   UNL A   1      45.396  22.358  26.156  1.00  0.00     0.030 C 
ATOM     10  C   UNL A   1      44.179  23.218  25.750  1.00  0.00     0.078 C 
ATOM     11  C   UNL A   1      43.865  22.928  24.281  1.00  0.00     0.030 C 
ATOM     12  S   UNL A   1      42.758  22.716  26.777  1.00  0.00    -0.078 SA
ATOM     13  C   UNL A   1      42.925  24.098  27.928  1.00  0.00     0.311 C 
ATOM     14  N   UNL A   1      44.151  24.835  27.611  1.00  0.00    -0.317 N 
ATOM     15  H   UNL A   1      44.931  24.450  28.144  1.00  0.00     0.348 HD
ATOM     16  H   UNL A   1      44.040  25.819  27.853  1.00  0.00     0.348 HD
BRANCH  13  17
ATOM     17  C   UNL A   1      41.660  24.898  28.052  1.00  0.00     0.172 A 
ATOM     18  C   UNL A   1      40.383  24.604  27.604  1.00  0.00     0.054 A 
ATOM     19  O   UNL A   1      41.638  26.101  28.720  1.00  0.00    -0.454 OA
ATOM     20  C   UNL A   1      39.542  25.650  28.033  1.00  0.00     0.051 A 
ATOM     21  C   UNL A   1      40.339  26.543  28.716  1.00  0.00     0.134 A 
BRANCH  21  22
ATOM     22  C   UNL A   1      40.027  27.753  29.468  1.00  0.00     0.024 A 
ATOM     23  C   UNL A   1      40.823  28.905  29.392  1.00  0.00     0.012 A 
ATOM     24  C   UNL A   1      38.909  27.757  30.320  1.00  0.00     0.097 A 
ATOM     25  C   UNL A   1      40.513  30.042  30.156  1.00  0.00     0.008 A 
ATOM     26  C   UNL A   1      38.620  28.885  31.101  1.00  0.00     0.270 A 
ATOM     27  C   UNL A   1      39.411  30.036  31.016  1.00  0.00     0.085 A 
BRANCH  26  28
ATOM     28  N   UNL A   1      37.505  28.836  32.055  1.00  0.00     0.062 N 
ATOM     29  O   UNL A   1      37.631  28.099  33.043  1.00  0.00    -0.258 OA
ATOM     30  O   UNL A   1      36.518  29.545  31.818  1.00  0.00    -0.258 OA
ENDBRANCH  26  28
ENDBRANCH  21  22
ENDBRANCH  13  17
ENDBRANCH   5   8
ENDBRANCH   3   4
ENDBRANCH   2   3
ENDBRANCH   1   2
BRANCH   1  31
ATOM     31  C   UNL A   1      48.709  25.986  25.811  1.00  0.00     0.002 C 
BRANCH  31  32
ATOM     32  C   UNL A   1      50.195  26.008  25.488  1.00  0.00     0.021 C 
BRANCH  32  33
ATOM     33  C   UNL A   1      51.015  26.856  26.439  1.00  0.00     0.116 C 
BRANCH  33  34
ATOM     34  N   UNL A   1      51.550  28.062  25.821  1.00  0.00    -0.352 N 
ATOM     35  C   UNL A   1      51.071  29.349  25.885  1.00  0.00     0.251 C 
ATOM     36  H   UNL A   1      52.365  27.937  25.283  1.00  0.00     0.163 HD
ATOM     37  O   UNL A   1      51.595  30.234  25.224  1.00  0.00    -0.269 OA
BRANCH  35  38
ATOM     38  C   UNL A   1      49.912  29.640  26.757  1.00  0.00     0.039 A 
ATOM     39  C   UNL A   1      48.623  29.375  26.293  1.00  0.00     0.014 A 
ATOM     40  C   UNL A   1      50.108  30.154  28.041  1.00  0.00     0.014 A 
ATOM     41  C   UNL A   1      47.535  29.592  27.140  1.00  0.00     0.010 A 
ATOM     42  C   UNL A   1      49.040  30.248  28.919  1.00  0.00     0.010 A 
ATOM     43  C   UNL A   1      47.736  30.008  28.467  1.00  0.00    -0.014 A 
BRANCH  43  44
ATOM     44  C   UNL A   1      46.596  30.258  29.382  1.00  0.00     0.031 A 
ATOM     45  C   UNL A   1      46.214  29.213  30.400  1.00  0.00     0.074 A 
ATOM     46  C   UNL A   1      45.881  31.395  29.270  1.00  0.00     0.049 A 
ATOM     47  N   UNL A   1      45.243  29.231  31.277  1.00  0.00    -0.248 NA
ATOM     48  C   UNL A   1      47.003  27.967  30.413  1.00  0.00     0.031 C 
ATOM     49  C   UNL A   1      46.116  32.451  28.282  1.00  0.00     0.029 A 
ATOM     50  N   UNL A   1      44.814  31.853  29.998  1.00  0.00    -0.354 N 
ATOM     51  C   UNL A   1      45.296  28.000  31.923  1.00  0.00     0.074 A 
ATOM     52  C   UNL A   1      46.340  27.231  31.290  1.00  0.00     0.031 C 
ATOM     53  C   UNL A   1      45.251  33.455  28.499  1.00  0.00     0.029 A 
ATOM     54  C   UNL A   1      44.378  33.099  29.611  1.00  0.00     0.049 A 
ATOM     55  H   UNL A   1      44.400  31.340  30.729  1.00  0.00     0.167 HD
ATOM     56  C   UNL A   1      44.565  27.561  32.975  1.00  0.00     0.031 A 
ATOM     57  C   UNL A   1      43.389  33.869  30.105  1.00  0.00     0.031 A 
ATOM     58  C   UNL A   1      43.543  28.343  33.617  1.00  0.00     0.049 A 
ATOM     59  C   UNL A   1      42.601  33.366  31.284  1.00  0.00     0.074 A 
ATOM     60  C   UNL A   1      42.786  28.023  34.729  1.00  0.00     0.029 A 
ATOM     61  N   UNL A   1      43.140  29.605  33.205  1.00  0.00    -0.354 N 
ATOM     62  N   UNL A   1      42.717  32.230  31.932  1.00  0.00    -0.248 NA
ATOM     63  C   UNL A   1      41.561  34.260  31.811  1.00  0.00     0.031 C 
ATOM     64  C   UNL A   1      41.884  29.069  34.956  1.00  0.00     0.029 A 
ATOM     65  C   UNL A   1      42.127  30.068  34.025  1.00  0.00     0.049 A 
ATOM     66  H   UNL A   1      43.520  30.098  32.443  1.00  0.00     0.167 HD
ATOM     67  C   UNL A   1      41.780  32.283  32.959  1.00  0.00     0.074 A 
ATOM     68  C   UNL A   1      41.128  33.575  32.860  1.00  0.00     0.031 C 
ATOM     69  C   UNL A   1      41.483  31.351  33.900  1.00  0.00     0.031 A 
BRANCH  56  70
ATOM     70  C   UNL A   1      44.850  26.174  33.491  1.00  0.00    -0.014 A 
ATOM     71  C   UNL A   1      45.431  25.972  34.758  1.00  0.00     0.010 A 
ATOM     72  C   UNL A   1      44.510  25.054  32.713  1.00  0.00     0.010 A 
ATOM     73  C   UNL A   1      45.709  24.681  35.215  1.00  0.00     0.020 A 
ATOM     74  C   UNL A   1      44.755  23.758  33.180  1.00  0.00     0.020 A 
ATOM     75  C   UNL A   1      45.370  23.582  34.422  1.00  0.00     0.054 A 
BRANCH  75  76
ATOM     76  S   UNL A   1      45.718  21.917  35.051  1.00  0.00     0.124 S 
ATOM     77  O   UNL A   1      46.016  22.182  36.456  1.00  0.00    -0.237 OA
ATOM     78  O   UNL A   1      44.464  21.211  34.798  1.00  0.00    -0.237 OA
ATOM     79  O   UNL A   1      46.853  21.471  34.247  1.00  0.00    -0.744 OA
ENDBRANCH  75  76
ENDBRANCH  56  70
BRANCH  57  80
ATOM     80  C   UNL A   1      43.113  35.204  29.507  1.00  0.00    -0.014 A 
ATOM     81  C   UNL A   1      42.166  35.347  28.477  1.00  0.00     0.010 A 
ATOM     82  C   UNL A   1      43.792  36.345  29.971  1.00  0.00     0.010 A 
ATOM     83  C   UNL A   1      41.921  36.599  27.906  1.00  0.00     0.020 A 
ATOM     84  C   UNL A   1      43.528  37.604  29.423  1.00  0.00     0.020 A 
ATOM     85  C   UNL A   1      42.602  37.721  28.384  1.00  0.00     0.054 A 
BRANCH  85  86
ATOM     86  S   UNL A   1      42.238  39.343  27.658  1.00  0.00     0.124 S 
ATOM     87  O   UNL A   1      43.574  39.906  27.488  1.00  0.00    -0.237 OA
ATOM     88  O   UNL A   1      41.540  38.986  26.425  1.00  0.00    -0.237 OA
ATOM     89  O   UNL A   1      41.408  39.993  28.669  1.00  0.00    -0.744 OA
ENDBRANCH  85  86
ENDBRANCH  57  80
BRANCH  69  90
ATOM     90  C   UNL A   1      40.423  31.708  34.908  1.00  0.00    -0.014 A 
ATOM     91  C   UNL A   1      40.743  32.398  36.091  1.00  0.00     0.010 A 
ATOM     92  C   UNL A   1      39.082  31.368  34.655  1.00  0.00     0.010 A 
ATOM     93  C   UNL A   1      39.750  32.690  37.028  1.00  0.00     0.020 A 
ATOM     94  C   UNL A   1      38.080  31.691  35.573  1.00  0.00     0.020 A 
ATOM     95  C   UNL A   1      38.425  32.330  36.764  1.00  0.00     0.054 A 
BRANCH  95  96
ATOM     96  S   UNL A   1      37.153  32.728  37.993  1.00  0.00     0.124 S 
ATOM     97  O   UNL A   1      36.144  33.400  37.179  1.00  0.00    -0.237 OA
ATOM     98  O   UNL A   1      36.776  31.413  38.504  1.00  0.00    -0.237 OA
ATOM     99  O   UNL A   1      37.852  33.584  38.950  1.00  0.00    -0.744 OA
ENDBRANCH  95  96
ENDBRANCH  69  90
ENDBRANCH  43  44
ENDBRANCH  35  38
ENDBRANCH  33  34
ENDBRANCH  32  33
ENDBRANCH  31  32
ENDBRANCH   1  31
TORSDOF 19
ENDMDL
MODEL 3
REMARK VINA RESULT:      -9.9      1.894      2.460
REMARK SMILES CC1(C)S[C@H](c2ccc(-c3cccc([N+](=O)[O-])c3)o2)[NH2+][C@@H]1C(=O)NCCCCCCNC(=O)c1ccc(-c2c3nc(c(-c4ccc(S(=O)(=O)[O-])cc4)c4ccc([nH]4)c(-c4ccc(S(=O)(=O)[O-])cc4)c4nc(c(-c5ccc(S(=O)(=O)[O-])cc5)c5ccc2[nH]5)C=C4)C=C3)cc1
REMARK SMILES IDX 27 1 26 2 25 3 24 4 22 5 23 6 21 8 1 9 2 10 3 11 4 12 5 13
REMARK SMILES IDX 20 14 6 17 7 18 19 19 8 20 9 21 10 22 11 23 18 24 12 25
REMARK SMILES IDX 14 26 13 27 15 28 16 29 17 30 28 31 29 32 30 33 31 34 32 35
REMARK SMILES IDX 33 37 34 38 35 39 93 40 36 41 92 42 37 43 38 44 39 45 86 46
REMARK SMILES IDX 40 47 91 48 85 49 87 50 41 51 90 52 84 53 83 54 42 56 72 57
REMARK SMILES IDX 53 58 71 59 54 60 57 61 70 62 88 63 55 64 56 65 69 67 89 68
REMARK SMILES IDX 58 69 43 70 44 71 52 72 45 73 51 74 46 75 47 76 48 77 49 78
REMARK SMILES IDX 50 79 73 80 74 81 82 82 75 83 81 84 76 85 77 86 78 87 79 88
REMARK SMILES IDX 80 89 59 90 60 91 68 92 61 93 67 94 62 95 63 96 64 97 65 98
REMARK SMILES IDX 66 99
REMARK H PARENT 24 7 20 15 20 16 31 36 87 55 57 66
REMARK Flexibility Score: inf
ROOT
ATOM      1  C   UNL A   1      35.339  30.648  28.107  1.00  0.00     0.002 C 
ENDROOT
BRANCH   1   2
ATOM      2  C   UNL A   1      34.075  29.960  27.593  1.00  0.00     0.021 C 
BRANCH   2   3
ATOM      3  C   UNL A   1      34.320  28.824  26.602  1.00  0.00     0.116 C 
BRANCH   3   4
ATOM      4  N   UNL A   1      33.317  27.775  26.676  1.00  0.00    -0.351 N 
ATOM      5  C   UNL A   1      32.613  27.217  25.637  1.00  0.00     0.279 C 
ATOM      6  O   UNL A   1      31.900  26.248  25.894  1.00  0.00    -0.268 OA
ATOM      7  H   UNL A   1      33.119  27.423  27.574  1.00  0.00     0.163 HD
BRANCH   5   8
ATOM      8  C   UNL A   1      32.671  27.917  24.257  1.00  0.00     0.289 C 
ATOM      9  C   UNL A   1      31.434  29.138  22.416  1.00  0.00     0.030 C 
ATOM     10  C   UNL A   1      31.407  27.915  23.360  1.00  0.00     0.078 C 
ATOM     11  C   UNL A   1      30.048  27.890  24.061  1.00  0.00     0.030 C 
ATOM     12  S   UNL A   1      31.588  26.409  22.347  1.00  0.00    -0.078 SA
ATOM     13  C   UNL A   1      33.349  26.218  22.699  1.00  0.00     0.311 C 
ATOM     14  N   UNL A   1      33.814  27.385  23.452  1.00  0.00    -0.317 N 
ATOM     15  H   UNL A   1      34.141  28.103  22.806  1.00  0.00     0.348 HD
ATOM     16  H   UNL A   1      34.582  27.121  24.068  1.00  0.00     0.348 HD
BRANCH  13  17
ATOM     17  C   UNL A   1      33.678  24.866  23.263  1.00  0.00     0.172 A 
ATOM     18  C   UNL A   1      32.910  23.714  23.299  1.00  0.00     0.054 A 
ATOM     19  O   UNL A   1      34.908  24.604  23.821  1.00  0.00    -0.454 OA
ATOM     20  C   UNL A   1      33.704  22.703  23.876  1.00  0.00     0.051 A 
ATOM     21  C   UNL A   1      34.919  23.280  24.178  1.00  0.00     0.134 A 
BRANCH  21  22
ATOM     22  C   UNL A   1      36.164  22.720  24.690  1.00  0.00     0.024 A 
ATOM     23  C   UNL A   1      36.518  21.378  24.490  1.00  0.00     0.012 A 
ATOM     24  C   UNL A   1      37.026  23.543  25.436  1.00  0.00     0.097 A 
ATOM     25  C   UNL A   1      37.709  20.863  25.026  1.00  0.00     0.008 A 
ATOM     26  C   UNL A   1      38.201  23.016  25.993  1.00  0.00     0.270 A 
ATOM     27  C   UNL A   1      38.555  21.680  25.782  1.00  0.00     0.085 A 
BRANCH  26  28
ATOM     28  N   UNL A   1      39.038  23.866  26.848  1.00  0.00     0.062 N 
ATOM     29  O   UNL A   1      40.259  23.862  26.639  1.00  0.00    -0.258 OA
ATOM     30  O   UNL A   1      38.468  24.542  27.716  1.00  0.00    -0.258 OA
ENDBRANCH  26  28
ENDBRANCH  21  22
ENDBRANCH  13  17
ENDBRANCH   5   8
ENDBRANCH   3   4
ENDBRANCH   2   3
ENDBRANCH   1   2
BRANCH   1  31
ATOM     31  C   UNL A   1      35.225  32.160  28.240  1.00  0.00     0.002 C 
BRANCH  31  32
ATOM     32  C   UNL A   1      33.823  32.740  28.347  1.00  0.00     0.021 C 
BRANCH  32  33
ATOM     33  C   UNL A   1      33.794  34.248  28.492  1.00  0.00     0.116 C 
BRANCH  33  34
ATOM     34  N   UNL A   1      33.038  34.702  29.651  1.00  0.00    -0.352 N 
ATOM     35  C   UNL A   1      33.349  34.579  30.984  1.00  0.00     0.251 C 
ATOM     36  H   UNL A   1      32.189  35.158  29.452  1.00  0.00     0.163 HD
ATOM     37  O   UNL A   1      32.550  34.937  31.838  1.00  0.00    -0.269 OA
BRANCH  35  38
ATOM     38  C   UNL A   1      34.656  34.001  31.367  1.00  0.00     0.039 A 
ATOM     39  C   UNL A   1      35.822  34.728  31.130  1.00  0.00     0.014 A 
ATOM     40  C   UNL A   1      34.719  32.748  31.981  1.00  0.00     0.014 A 
ATOM     41  C   UNL A   1      37.048  34.209  31.548  1.00  0.00     0.010 A 
ATOM     42  C   UNL A   1      35.919  32.295  32.507  1.00  0.00     0.010 A 
ATOM     43  C   UNL A   1      37.104  32.998  32.261  1.00  0.00    -0.014 A 
BRANCH  43  44
ATOM     44  C   UNL A   1      38.395  32.419  32.704  1.00  0.00     0.031 A 
ATOM     45  C   UNL A   1      38.899  32.702  34.097  1.00  0.00     0.074 A 
ATOM     46  C   UNL A   1      39.130  31.683  31.848  1.00  0.00     0.049 A 
ATOM     47  N   UNL A   1      40.007  32.305  34.670  1.00  0.00    -0.248 NA
ATOM     48  C   UNL A   1      38.069  33.573  34.949  1.00  0.00     0.031 C 
ATOM     49  C   UNL A   1      38.776  31.395  30.456  1.00  0.00     0.029 A 
ATOM     50  N   UNL A   1      40.327  31.038  32.026  1.00  0.00    -0.354 N 
ATOM     51  C   UNL A   1      40.011  32.893  35.930  1.00  0.00     0.074 A 
ATOM     52  C   UNL A   1      38.839  33.732  36.013  1.00  0.00     0.031 C 
ATOM     53  C   UNL A   1      39.710  30.590  29.923  1.00  0.00     0.029 A 
ATOM     54  C   UNL A   1      40.746  30.338  30.919  1.00  0.00     0.049 A 
ATOM     55  H   UNL A   1      40.837  31.072  32.868  1.00  0.00     0.167 HD
ATOM     56  C   UNL A   1      40.892  32.724  36.945  1.00  0.00     0.031 A 
ATOM     57  C   UNL A   1      41.839  29.573  30.733  1.00  0.00     0.031 A 
ATOM     58  C   UNL A   1      42.043  31.866  36.864  1.00  0.00     0.049 A 
ATOM     59  C   UNL A   1      42.795  29.386  31.879  1.00  0.00     0.074 A 
ATOM     60  C   UNL A   1      42.966  31.569  37.850  1.00  0.00     0.029 A 
ATOM     61  N   UNL A   1      42.426  31.163  35.730  1.00  0.00    -0.354 N 
ATOM     62  N   UNL A   1      42.742  29.889  33.091  1.00  0.00    -0.248 NA
ATOM     63  C   UNL A   1      43.949  28.511  31.639  1.00  0.00     0.031 C 
ATOM     64  C   UNL A   1      43.940  30.731  37.296  1.00  0.00     0.029 A 
ATOM     65  C   UNL A   1      43.585  30.453  35.985  1.00  0.00     0.049 A 
ATOM     66  H   UNL A   1      41.943  31.169  34.873  1.00  0.00     0.167 HD
ATOM     67  C   UNL A   1      43.843  29.372  33.765  1.00  0.00     0.074 A 
ATOM     68  C   UNL A   1      44.525  28.496  32.832  1.00  0.00     0.031 C 
ATOM     69  C   UNL A   1      44.255  29.598  35.037  1.00  0.00     0.031 A 
BRANCH  56  70
ATOM     70  C   UNL A   1      40.638  33.481  38.223  1.00  0.00    -0.014 A 
ATOM     71  C   UNL A   1      39.670  33.046  39.148  1.00  0.00     0.010 A 
ATOM     72  C   UNL A   1      41.393  34.629  38.519  1.00  0.00     0.010 A 
ATOM     73  C   UNL A   1      39.430  33.769  40.319  1.00  0.00     0.020 A 
ATOM     74  C   UNL A   1      41.181  35.337  39.706  1.00  0.00     0.020 A 
ATOM     75  C   UNL A   1      40.187  34.912  40.590  1.00  0.00     0.054 A 
BRANCH  75  76
ATOM     76  S   UNL A   1      39.874  35.817  42.130  1.00  0.00     0.124 S 
ATOM     77  O   UNL A   1      39.137  36.983  41.650  1.00  0.00    -0.237 OA
ATOM     78  O   UNL A   1      39.093  34.859  42.910  1.00  0.00    -0.237 OA
ATOM     79  O   UNL A   1      41.211  36.095  42.648  1.00  0.00    -0.744 OA
ENDBRANCH  75  76
ENDBRANCH  56  70
BRANCH  57  80
ATOM     80  C   UNL A   1      42.067  28.904  29.422  1.00  0.00    -0.014 A 
ATOM     81  C   UNL A   1      42.776  29.557  28.398  1.00  0.00     0.010 A 
ATOM     82  C   UNL A   1      41.582  27.604  29.193  1.00  0.00     0.010 A 
ATOM     83  C   UNL A   1      42.975  28.934  27.163  1.00  0.00     0.020 A 
ATOM     84  C   UNL A   1      41.806  26.964  27.970  1.00  0.00     0.020 A 
ATOM     85  C   UNL A   1      42.490  27.639  26.957  1.00  0.00     0.054 A 
BRANCH  85  86
ATOM     86  S   UNL A   1      42.795  26.832  25.361  1.00  0.00     0.124 S 
ATOM     87  O   UNL A   1      44.011  26.072  25.633  1.00  0.00    -0.237 OA
ATOM     88  O   UNL A   1      41.582  26.040  25.171  1.00  0.00    -0.237 OA
ATOM     89  O   UNL A   1      42.950  27.952  24.436  1.00  0.00    -0.744 OA
ENDBRANCH  85  86
ENDBRANCH  57  80
BRANCH  69  90
ATOM     90  C   UNL A   1      45.489  28.867  35.499  1.00  0.00    -0.014 A 
ATOM     91  C   UNL A   1      46.771  29.256  35.072  1.00  0.00     0.010 A 
ATOM     92  C   UNL A   1      45.361  27.789  36.393  1.00  0.00     0.010 A 
ATOM     93  C   UNL A   1      47.898  28.544  35.486  1.00  0.00     0.020 A 
ATOM     94  C   UNL A   1      46.490  27.096  36.838  1.00  0.00     0.020 A 
ATOM     95  C   UNL A   1      47.749  27.464  36.363  1.00  0.00     0.054 A 
BRANCH  95  96
ATOM     96  S   UNL A   1      49.229  26.562  36.893  1.00  0.00     0.124 S 
ATOM     97  O   UNL A   1      49.096  26.587  38.347  1.00  0.00    -0.237 OA
ATOM     98  O   UNL A   1      49.049  25.254  36.267  1.00  0.00    -0.237 OA
ATOM     99  O   UNL A   1      50.330  27.356  36.354  1.00  0.00    -0.744 OA
ENDBRANCH  95  96
ENDBRANCH  69  90
ENDBRANCH  43  44
ENDBRANCH  35  38
ENDBRANCH  33  34
ENDBRANCH  32  33
ENDBRANCH  31  32
ENDBRANCH   1  31
TORSDOF 19
ENDMDL
