MODEL 1
REMARK VINA RESULT:     -12.4      0.000      0.000
REMARK SMILES Cc1ccc(NC(=O)C[C@H]2SC[C@H](C(=O)NCCCCCCNC(=O)c3ccc(-c4c5nc(c(-c6ccc(S(=O)(=O)[O-])cc6)c6ccc([nH]6)c(-c6ccc(S(=O)(=O)[O-])cc6)c6nc(c(-c7ccc(S(=O)(=O)[O-])cc7)c7ccc4[nH]7)C=C6)C=C5)cc3)NC2=O)cc1
REMARK SMILES IDX 19 1 18 2 17 3 16 4 14 5 15 6 13 8 10 9 11 10 87 11 12 12
REMARK SMILES IDX 86 13 88 14 9 16 7 17 6 18 8 20 5 21 1 22 2 23 3 24 90 25
REMARK SMILES IDX 4 26 89 27 20 28 21 29 22 30 23 31 24 32 25 34 26 35 27 36
REMARK SMILES IDX 85 37 28 38 84 39 29 40 30 41 31 42 78 43 32 44 83 45 77 46
REMARK SMILES IDX 79 47 33 48 82 49 76 50 75 51 34 53 64 54 45 55 63 56 46 57
REMARK SMILES IDX 49 58 62 59 80 60 47 61 48 62 61 64 81 65 50 66 35 67 36 68
REMARK SMILES IDX 44 69 37 70 43 71 38 72 39 73 40 74 41 75 42 76 65 77 66 78
REMARK SMILES IDX 74 79 67 80 73 81 68 82 69 83 70 84 71 85 72 86 51 87 52 88
REMARK SMILES IDX 60 89 53 90 59 91 54 92 55 93 56 94 57 95 58 96
REMARK H PARENT 16 7 86 15 6 19 23 33 79 52 49 63
REMARK Flexibility Score: inf
ROOT
ATOM      1  C   UNL A   1      33.701  24.595  26.137  1.00  0.00     0.002 C 
ENDROOT
BRANCH   1   2
ATOM      2  C   UNL A   1      34.554  23.380  26.533  1.00  0.00     0.021 C 
BRANCH   2   3
ATOM      3  C   UNL A   1      34.849  22.393  25.401  1.00  0.00     0.116 C 
BRANCH   3   4
ATOM      4  N   UNL A   1      33.939  21.262  25.434  1.00  0.00    -0.354 N 
ATOM      5  C   UNL A   1      32.729  21.065  24.845  1.00  0.00     0.243 C 
ATOM      6  O   UNL A   1      32.175  19.976  25.027  1.00  0.00    -0.273 OA
ATOM      7  H   UNL A   1      34.255  20.504  25.978  1.00  0.00     0.163 HD
BRANCH   5   8
ATOM      8  C   UNL A   1      32.084  22.115  23.926  1.00  0.00     0.181 C 
ATOM      9  C   UNL A   1      32.079  24.949  22.851  1.00  0.00     0.145 C 
ATOM     10  S   UNL A   1      30.476  24.332  23.529  1.00  0.00    -0.145 SA
ATOM     11  C   UNL A   1      32.869  23.781  22.240  1.00  0.00     0.234 C 
ATOM     12  C   UNL A   1      31.159  23.079  24.664  1.00  0.00     0.105 C 
ATOM     13  N   UNL A   1      33.105  22.705  23.060  1.00  0.00    -0.343 N 
ATOM     14  O   UNL A   1      33.392  23.782  21.130  1.00  0.00    -0.274 OA
ATOM     15  H   UNL A   1      34.007  22.311  23.065  1.00  0.00     0.164 HD
BRANCH   9  16
ATOM     16  C   UNL A   1      31.827  26.193  21.991  1.00  0.00     0.124 C 
BRANCH  16  17
ATOM     17  C   UNL A   1      32.845  27.314  22.006  1.00  0.00     0.226 C 
ATOM     18  N   UNL A   1      32.564  28.585  22.396  1.00  0.00    -0.326 N 
ATOM     19  H   UNL A   1      33.359  29.165  22.438  1.00  0.00     0.169 HD
ATOM     20  O   UNL A   1      34.007  27.081  21.649  1.00  0.00    -0.275 OA
BRANCH  18  21
ATOM     21  C   UNL A   1      31.382  29.243  22.751  1.00  0.00     0.041 A 
ATOM     22  C   UNL A   1      27.722  31.394  23.524  1.00  0.00     0.044 C 
ATOM     23  C   UNL A   1      28.976  30.618  23.251  1.00  0.00    -0.051 A 
ATOM     24  C   UNL A   1      29.824  30.250  24.303  1.00  0.00     0.005 A 
ATOM     25  C   UNL A   1      29.330  30.269  21.946  1.00  0.00     0.005 A 
ATOM     26  C   UNL A   1      31.017  29.560  24.056  1.00  0.00     0.026 A 
ATOM     27  C   UNL A   1      30.514  29.571  21.702  1.00  0.00     0.026 A 
ENDBRANCH  18  21
ENDBRANCH  16  17
ENDBRANCH   9  16
ENDBRANCH   5   8
ENDBRANCH   3   4
ENDBRANCH   2   3
ENDBRANCH   1   2
BRANCH   1  28
ATOM     28  C   UNL A   1      34.461  25.873  25.752  1.00  0.00     0.002 C 
BRANCH  28  29
ATOM     29  C   UNL A   1      33.652  27.171  25.774  1.00  0.00     0.021 C 
BRANCH  29  30
ATOM     30  C   UNL A   1      34.445  28.379  26.263  1.00  0.00     0.116 C 
BRANCH  30  31
ATOM     31  N   UNL A   1      33.717  29.633  26.142  1.00  0.00    -0.352 N 
ATOM     32  C   UNL A   1      33.752  30.718  27.007  1.00  0.00     0.251 C 
ATOM     33  H   UNL A   1      33.133  29.722  25.355  1.00  0.00     0.163 HD
ATOM     34  O   UNL A   1      32.971  31.637  26.938  1.00  0.00    -0.269 OA
BRANCH  32  35
ATOM     35  C   UNL A   1      34.881  30.754  27.964  1.00  0.00     0.039 A 
ATOM     36  C   UNL A   1      35.661  31.916  27.991  1.00  0.00     0.014 A 
ATOM     37  C   UNL A   1      35.299  29.588  28.598  1.00  0.00     0.014 A 
ATOM     38  C   UNL A   1      36.948  31.863  28.519  1.00  0.00     0.010 A 
ATOM     39  C   UNL A   1      36.604  29.514  29.047  1.00  0.00     0.010 A 
ATOM     40  C   UNL A   1      37.442  30.637  28.968  1.00  0.00    -0.014 A 
BRANCH  40  41
ATOM     41  C   UNL A   1      38.847  30.413  29.288  1.00  0.00     0.031 A 
ATOM     42  C   UNL A   1      39.516  29.156  28.886  1.00  0.00     0.074 A 
ATOM     43  C   UNL A   1      39.570  31.374  29.908  1.00  0.00     0.049 A 
ATOM     44  N   UNL A   1      40.518  28.636  29.517  1.00  0.00    -0.248 NA
ATOM     45  C   UNL A   1      39.073  28.360  27.746  1.00  0.00     0.031 C 
ATOM     46  C   UNL A   1      41.024  31.422  30.035  1.00  0.00     0.029 A 
ATOM     47  N   UNL A   1      39.124  32.400  30.742  1.00  0.00    -0.354 N 
ATOM     48  C   UNL A   1      41.031  27.645  28.711  1.00  0.00     0.074 A 
ATOM     49  C   UNL A   1      40.049  27.450  27.668  1.00  0.00     0.031 C 
ATOM     50  C   UNL A   1      41.336  32.185  31.093  1.00  0.00     0.029 A 
ATOM     51  C   UNL A   1      40.090  32.537  31.753  1.00  0.00     0.049 A 
ATOM     52  H   UNL A   1      38.297  32.923  30.643  1.00  0.00     0.167 HD
ATOM     53  C   UNL A   1      42.305  27.199  28.891  1.00  0.00     0.031 A 
ATOM     54  C   UNL A   1      39.837  32.408  33.088  1.00  0.00     0.031 A 
ATOM     55  C   UNL A   1      42.974  27.852  30.009  1.00  0.00     0.049 A 
ATOM     56  C   UNL A   1      40.705  31.365  33.761  1.00  0.00     0.074 A 
ATOM     57  C   UNL A   1      43.880  28.897  30.079  1.00  0.00     0.029 A 
ATOM     58  N   UNL A   1      42.525  27.631  31.305  1.00  0.00    -0.354 N 
ATOM     59  N   UNL A   1      41.397  30.471  33.115  1.00  0.00    -0.248 NA
ATOM     60  C   UNL A   1      40.805  31.203  35.210  1.00  0.00     0.031 C 
ATOM     61  C   UNL A   1      43.937  29.342  31.422  1.00  0.00     0.029 A 
ATOM     62  C   UNL A   1      43.075  28.559  32.169  1.00  0.00     0.049 A 
ATOM     63  H   UNL A   1      41.904  26.915  31.570  1.00  0.00     0.167 HD
ATOM     64  C   UNL A   1      41.993  29.616  34.005  1.00  0.00     0.074 A 
ATOM     65  C   UNL A   1      41.610  30.129  35.307  1.00  0.00     0.031 C 
ATOM     66  C   UNL A   1      42.734  28.549  33.583  1.00  0.00     0.031 A 
BRANCH  53  67
ATOM     67  C   UNL A   1      43.029  26.417  27.822  1.00  0.00    -0.014 A 
ATOM     68  C   UNL A   1      43.252  25.036  28.001  1.00  0.00     0.010 A 
ATOM     69  C   UNL A   1      43.562  26.996  26.655  1.00  0.00     0.010 A 
ATOM     70  C   UNL A   1      44.060  24.297  27.127  1.00  0.00     0.020 A 
ATOM     71  C   UNL A   1      44.403  26.276  25.791  1.00  0.00     0.020 A 
ATOM     72  C   UNL A   1      44.659  24.930  26.044  1.00  0.00     0.054 A 
BRANCH  72  73
ATOM     73  S   UNL A   1      45.789  23.978  24.996  1.00  0.00     0.124 S 
ATOM     74  O   UNL A   1      46.713  25.003  24.516  1.00  0.00    -0.237 OA
ATOM     75  O   UNL A   1      46.352  23.015  25.938  1.00  0.00    -0.237 OA
ATOM     76  O   UNL A   1      44.916  23.410  23.970  1.00  0.00    -0.744 OA
ENDBRANCH  72  73
ENDBRANCH  53  67
BRANCH  54  77
ATOM     77  C   UNL A   1      38.437  32.715  33.484  1.00  0.00    -0.014 A 
ATOM     78  C   UNL A   1      38.053  34.071  33.536  1.00  0.00     0.010 A 
ATOM     79  C   UNL A   1      37.443  31.726  33.390  1.00  0.00     0.010 A 
ATOM     80  C   UNL A   1      36.720  34.438  33.337  1.00  0.00     0.020 A 
ATOM     81  C   UNL A   1      36.105  32.092  33.195  1.00  0.00     0.020 A 
ATOM     82  C   UNL A   1      35.766  33.447  33.110  1.00  0.00     0.054 A 
BRANCH  82  83
ATOM     83  S   UNL A   1      34.127  33.962  32.512  1.00  0.00     0.124 S 
ATOM     84  O   UNL A   1      34.082  35.366  32.907  1.00  0.00    -0.237 OA
ATOM     85  O   UNL A   1      34.236  33.714  31.075  1.00  0.00    -0.237 OA
ATOM     86  O   UNL A   1      33.215  33.076  33.228  1.00  0.00    -0.744 OA
ENDBRANCH  82  83
ENDBRANCH  54  77
BRANCH  66  87
ATOM     87  C   UNL A   1      43.283  27.436  34.444  1.00  0.00    -0.014 A 
ATOM     88  C   UNL A   1      42.673  26.181  34.606  1.00  0.00     0.010 A 
ATOM     89  C   UNL A   1      44.556  27.606  35.043  1.00  0.00     0.010 A 
ATOM     90  C   UNL A   1      43.274  25.171  35.373  1.00  0.00     0.020 A 
ATOM     91  C   UNL A   1      45.184  26.593  35.773  1.00  0.00     0.020 A 
ATOM     92  C   UNL A   1      44.525  25.384  35.954  1.00  0.00     0.054 A 
BRANCH  92  93
ATOM     93  S   UNL A   1      45.322  24.052  36.887  1.00  0.00     0.124 S 
ATOM     94  O   UNL A   1      46.737  24.366  36.708  1.00  0.00    -0.237 OA
ATOM     95  O   UNL A   1      44.804  24.243  38.240  1.00  0.00    -0.237 OA
ATOM     96  O   UNL A   1      44.858  22.840  36.217  1.00  0.00    -0.744 OA
ENDBRANCH  92  93
ENDBRANCH  66  87
ENDBRANCH  40  41
ENDBRANCH  32  35
ENDBRANCH  30  31
ENDBRANCH  29  30
ENDBRANCH  28  29
ENDBRANCH   1  28
TORSDOF 19
ENDMDL
MODEL 2
REMARK VINA RESULT:     -12.2      3.465      8.974
REMARK SMILES Cc1ccc(NC(=O)C[C@H]2SC[C@H](C(=O)NCCCCCCNC(=O)c3ccc(-c4c5nc(c(-c6ccc(S(=O)(=O)[O-])cc6)c6ccc([nH]6)c(-c6ccc(S(=O)(=O)[O-])cc6)c6nc(c(-c7ccc(S(=O)(=O)[O-])cc7)c7ccc4[nH]7)C=C6)C=C5)cc3)NC2=O)cc1
REMARK SMILES IDX 19 1 18 2 17 3 16 4 14 5 15 6 13 8 10 9 11 10 87 11 12 12
REMARK SMILES IDX 86 13 88 14 9 16 7 17 6 18 8 20 5 21 1 22 2 23 3 24 90 25
REMARK SMILES IDX 4 26 89 27 20 28 21 29 22 30 23 31 24 32 25 34 26 35 27 36
REMARK SMILES IDX 85 37 28 38 84 39 29 40 30 41 31 42 78 43 32 44 83 45 77 46
REMARK SMILES IDX 79 47 33 48 82 49 76 50 75 51 34 53 64 54 45 55 63 56 46 57
REMARK SMILES IDX 49 58 62 59 80 60 47 61 48 62 61 64 81 65 50 66 35 67 36 68
REMARK SMILES IDX 44 69 37 70 43 71 38 72 39 73 40 74 41 75 42 76 65 77 66 78
REMARK SMILES IDX 74 79 67 80 73 81 68 82 69 83 70 84 71 85 72 86 51 87 52 88
REMARK SMILES IDX 60 89 53 90 59 91 54 92 55 93 56 94 57 95 58 96
REMARK H PARENT 16 7 86 15 6 19 23 33 79 52 49 63
REMARK Flexibility Score: inf
ROOT
ATOM      1  C   UNL A   1      35.951  23.260  25.934  1.00  0.00     0.002 C 
ENDROOT
BRANCH   1   2
ATOM      2  C   UNL A   1      35.932  21.724  25.935  1.00  0.00     0.021 C 
BRANCH   2   3
ATOM      3  C   UNL A   1      35.266  21.078  24.717  1.00  0.00     0.116 C 
BRANCH   3   4
ATOM      4  N   UNL A   1      33.942  20.577  25.041  1.00  0.00    -0.354 N 
ATOM      5  C   UNL A   1      32.731  21.196  25.076  1.00  0.00     0.243 C 
ATOM      6  O   UNL A   1      31.746  20.510  25.367  1.00  0.00    -0.273 OA
ATOM      7  H   UNL A   1      33.917  19.622  25.277  1.00  0.00     0.163 HD
BRANCH   5   8
ATOM      8  C   UNL A   1      32.557  22.677  24.704  1.00  0.00     0.181 C 
ATOM      9  C   UNL A   1      30.741  25.098  24.524  1.00  0.00     0.145 C 
ATOM     10  S   UNL A   1      31.670  24.661  22.990  1.00  0.00    -0.145 SA
ATOM     11  C   UNL A   1      31.567  24.713  25.760  1.00  0.00     0.234 C 
ATOM     12  C   UNL A   1      31.901  22.886  23.342  1.00  0.00     0.105 C 
ATOM     13  N   UNL A   1      31.984  23.407  25.836  1.00  0.00    -0.343 N 
ATOM     14  O   UNL A   1      31.786  25.442  26.723  1.00  0.00    -0.274 OA
ATOM     15  H   UNL A   1      31.894  22.937  26.697  1.00  0.00     0.164 HD
BRANCH   9  16
ATOM     16  C   UNL A   1      30.212  26.532  24.412  1.00  0.00     0.124 C 
BRANCH  16  17
ATOM     17  C   UNL A   1      30.735  27.424  23.305  1.00  0.00     0.226 C 
ATOM     18  N   UNL A   1      31.688  28.375  23.487  1.00  0.00    -0.326 N 
ATOM     19  H   UNL A   1      31.983  28.797  22.648  1.00  0.00     0.169 HD
ATOM     20  O   UNL A   1      30.285  27.293  22.159  1.00  0.00    -0.275 OA
BRANCH  18  21
ATOM     21  C   UNL A   1      32.338  28.880  24.618  1.00  0.00     0.041 A 
ATOM     22  C   UNL A   1      34.163  30.728  28.063  1.00  0.00     0.044 C 
ATOM     23  C   UNL A   1      33.508  30.069  26.886  1.00  0.00    -0.051 A 
ATOM     24  C   UNL A   1      34.144  29.014  26.222  1.00  0.00     0.005 A 
ATOM     25  C   UNL A   1      32.267  30.509  26.421  1.00  0.00     0.005 A 
ATOM     26  C   UNL A   1      33.559  28.417  25.098  1.00  0.00     0.026 A 
ATOM     27  C   UNL A   1      31.680  29.906  25.308  1.00  0.00     0.026 A 
ENDBRANCH  18  21
ENDBRANCH  16  17
ENDBRANCH   9  16
ENDBRANCH   5   8
ENDBRANCH   3   4
ENDBRANCH   2   3
ENDBRANCH   1   2
BRANCH   1  28
ATOM     28  C   UNL A   1      37.331  23.931  25.871  1.00  0.00     0.002 C 
BRANCH  28  29
ATOM     29  C   UNL A   1      38.524  23.056  26.262  1.00  0.00     0.021 C 
BRANCH  29  30
ATOM     30  C   UNL A   1      39.557  23.778  27.122  1.00  0.00     0.116 C 
BRANCH  30  31
ATOM     31  N   UNL A   1      40.689  24.282  26.361  1.00  0.00    -0.352 N 
ATOM     32  C   UNL A   1      40.974  25.603  26.042  1.00  0.00     0.251 C 
ATOM     33  H   UNL A   1      41.328  23.607  26.035  1.00  0.00     0.163 HD
ATOM     34  O   UNL A   1      41.824  25.915  25.242  1.00  0.00    -0.269 OA
BRANCH  32  35
ATOM     35  C   UNL A   1      40.253  26.633  26.823  1.00  0.00     0.039 A 
ATOM     36  C   UNL A   1      40.645  27.964  26.642  1.00  0.00     0.014 A 
ATOM     37  C   UNL A   1      39.423  26.260  27.876  1.00  0.00     0.014 A 
ATOM     38  C   UNL A   1      40.336  28.905  27.620  1.00  0.00     0.010 A 
ATOM     39  C   UNL A   1      39.188  27.175  28.885  1.00  0.00     0.010 A 
ATOM     40  C   UNL A   1      39.681  28.485  28.778  1.00  0.00    -0.014 A 
BRANCH  40  41
ATOM     41  C   UNL A   1      39.548  29.319  29.967  1.00  0.00     0.031 A 
ATOM     42  C   UNL A   1      38.830  30.612  29.900  1.00  0.00     0.074 A 
ATOM     43  C   UNL A   1      40.033  28.897  31.157  1.00  0.00     0.049 A 
ATOM     44  N   UNL A   1      39.078  31.618  30.673  1.00  0.00    -0.248 NA
ATOM     45  C   UNL A   1      37.788  30.881  28.914  1.00  0.00     0.031 C 
ATOM     46  C   UNL A   1      39.734  29.465  32.469  1.00  0.00     0.029 A 
ATOM     47  N   UNL A   1      41.070  27.998  31.408  1.00  0.00    -0.354 N 
ATOM     48  C   UNL A   1      38.052  32.519  30.503  1.00  0.00     0.074 A 
ATOM     49  C   UNL A   1      37.328  32.061  29.339  1.00  0.00     0.031 C 
ATOM     50  C   UNL A   1      40.732  29.154  33.308  1.00  0.00     0.029 A 
ATOM     51  C   UNL A   1      41.763  28.493  32.525  1.00  0.00     0.049 A 
ATOM     52  H   UNL A   1      41.276  27.179  30.901  1.00  0.00     0.167 HD
ATOM     53  C   UNL A   1      37.800  33.466  31.449  1.00  0.00     0.031 A 
ATOM     54  C   UNL A   1      43.090  28.810  32.535  1.00  0.00     0.031 A 
ATOM     55  C   UNL A   1      38.740  33.409  32.561  1.00  0.00     0.049 A 
ATOM     56  C   UNL A   1      43.359  30.236  32.967  1.00  0.00     0.074 A 
ATOM     57  C   UNL A   1      38.658  32.859  33.831  1.00  0.00     0.029 A 
ATOM     58  N   UNL A   1      40.077  33.720  32.351  1.00  0.00    -0.354 N 
ATOM     59  N   UNL A   1      42.444  31.160  33.030  1.00  0.00    -0.248 NA
ATOM     60  C   UNL A   1      44.687  30.750  33.294  1.00  0.00     0.031 C 
ATOM     61  C   UNL A   1      39.966  32.793  34.367  1.00  0.00     0.029 A 
ATOM     62  C   UNL A   1      40.840  33.313  33.430  1.00  0.00     0.049 A 
ATOM     63  H   UNL A   1      40.431  34.168  31.549  1.00  0.00     0.167 HD
ATOM     64  C   UNL A   1      43.018  32.360  33.357  1.00  0.00     0.074 A 
ATOM     65  C   UNL A   1      44.425  32.048  33.533  1.00  0.00     0.031 C 
ATOM     66  C   UNL A   1      42.282  33.507  33.433  1.00  0.00     0.031 A 
BRANCH  53  67
ATOM     67  C   UNL A   1      36.486  34.207  31.498  1.00  0.00    -0.014 A 
ATOM     68  C   UNL A   1      36.229  35.100  32.558  1.00  0.00     0.010 A 
ATOM     69  C   UNL A   1      35.447  34.018  30.567  1.00  0.00     0.010 A 
ATOM     70  C   UNL A   1      34.971  35.684  32.747  1.00  0.00     0.020 A 
ATOM     71  C   UNL A   1      34.171  34.568  30.764  1.00  0.00     0.020 A 
ATOM     72  C   UNL A   1      33.937  35.388  31.866  1.00  0.00     0.054 A 
BRANCH  72  73
ATOM     73  S   UNL A   1      32.290  36.065  32.198  1.00  0.00     0.124 S 
ATOM     74  O   UNL A   1      32.559  37.054  33.239  1.00  0.00    -0.237 OA
ATOM     75  O   UNL A   1      31.906  36.608  30.897  1.00  0.00    -0.237 OA
ATOM     76  O   UNL A   1      31.520  34.902  32.639  1.00  0.00    -0.744 OA
ENDBRANCH  72  73
ENDBRANCH  53  67
BRANCH  54  77
ATOM     77  C   UNL A   1      43.910  28.067  31.541  1.00  0.00    -0.014 A 
ATOM     78  C   UNL A   1      44.273  26.740  31.852  1.00  0.00     0.010 A 
ATOM     79  C   UNL A   1      43.956  28.494  30.203  1.00  0.00     0.010 A 
ATOM     80  C   UNL A   1      44.519  25.816  30.834  1.00  0.00     0.020 A 
ATOM     81  C   UNL A   1      44.207  27.569  29.180  1.00  0.00     0.020 A 
ATOM     82  C   UNL A   1      44.428  26.226  29.503  1.00  0.00     0.054 A 
BRANCH  82  83
ATOM     83  S   UNL A   1      44.406  24.941  28.216  1.00  0.00     0.124 S 
ATOM     84  O   UNL A   1      43.124  24.287  28.454  1.00  0.00    -0.237 OA
ATOM     85  O   UNL A   1      44.491  25.736  26.991  1.00  0.00    -0.237 OA
ATOM     86  O   UNL A   1      45.588  24.142  28.520  1.00  0.00    -0.744 OA
ENDBRANCH  82  83
ENDBRANCH  54  77
BRANCH  66  87
ATOM     87  C   UNL A   1      42.815  34.912  33.598  1.00  0.00    -0.014 A 
ATOM     88  C   UNL A   1      43.475  35.634  32.592  1.00  0.00     0.010 A 
ATOM     89  C   UNL A   1      42.535  35.607  34.801  1.00  0.00     0.010 A 
ATOM     90  C   UNL A   1      43.888  36.960  32.796  1.00  0.00     0.020 A 
ATOM     91  C   UNL A   1      42.902  36.940  35.000  1.00  0.00     0.020 A 
ATOM     92  C   UNL A   1      43.601  37.604  34.000  1.00  0.00     0.054 A 
BRANCH  92  93
ATOM     93  S   UNL A   1      44.079  39.336  34.231  1.00  0.00     0.124 S 
ATOM     94  O   UNL A   1      42.935  40.042  33.660  1.00  0.00    -0.237 OA
ATOM     95  O   UNL A   1      44.224  39.446  35.680  1.00  0.00    -0.237 OA
ATOM     96  O   UNL A   1      45.326  39.450  33.478  1.00  0.00    -0.744 OA
ENDBRANCH  92  93
ENDBRANCH  66  87
ENDBRANCH  40  41
ENDBRANCH  32  35
ENDBRANCH  30  31
ENDBRANCH  29  30
ENDBRANCH  28  29
ENDBRANCH   1  28
TORSDOF 19
ENDMDL
MODEL 3
REMARK VINA RESULT:     -11.9      6.171     10.644
REMARK SMILES Cc1ccc(NC(=O)C[C@H]2SC[C@H](C(=O)NCCCCCCNC(=O)c3ccc(-c4c5nc(c(-c6ccc(S(=O)(=O)[O-])cc6)c6ccc([nH]6)c(-c6ccc(S(=O)(=O)[O-])cc6)c6nc(c(-c7ccc(S(=O)(=O)[O-])cc7)c7ccc4[nH]7)C=C6)C=C5)cc3)NC2=O)cc1
REMARK SMILES IDX 19 1 18 2 17 3 16 4 14 5 15 6 13 8 10 9 11 10 87 11 12 12
REMARK SMILES IDX 86 13 88 14 9 16 7 17 6 18 8 20 5 21 1 22 2 23 3 24 90 25
REMARK SMILES IDX 4 26 89 27 20 28 21 29 22 30 23 31 24 32 25 34 26 35 27 36
REMARK SMILES IDX 85 37 28 38 84 39 29 40 30 41 31 42 78 43 32 44 83 45 77 46
REMARK SMILES IDX 79 47 33 48 82 49 76 50 75 51 34 53 64 54 45 55 63 56 46 57
REMARK SMILES IDX 49 58 62 59 80 60 47 61 48 62 61 64 81 65 50 66 35 67 36 68
REMARK SMILES IDX 44 69 37 70 43 71 38 72 39 73 40 74 41 75 42 76 65 77 66 78
REMARK SMILES IDX 74 79 67 80 73 81 68 82 69 83 70 84 71 85 72 86 51 87 52 88
REMARK SMILES IDX 60 89 53 90 59 91 54 92 55 93 56 94 57 95 58 96
REMARK H PARENT 16 7 86 15 6 19 23 33 79 52 49 63
REMARK Flexibility Score: inf
ROOT
ATOM      1  C   UNL A   1      40.702  33.178  30.256  1.00  0.00     0.002 C 
ENDROOT
BRANCH   1   2
ATOM      2  C   UNL A   1      42.180  33.433  29.922  1.00  0.00     0.021 C 
BRANCH   2   3
ATOM      3  C   UNL A   1      42.475  34.778  29.254  1.00  0.00     0.116 C 
BRANCH   3   4
ATOM      4  N   UNL A   1      43.213  34.603  28.014  1.00  0.00    -0.354 N 
ATOM      5  C   UNL A   1      43.771  35.508  27.166  1.00  0.00     0.243 C 
ATOM      6  O   UNL A   1      44.373  35.071  26.180  1.00  0.00    -0.273 OA
ATOM      7  H   UNL A   1      43.328  33.664  27.742  1.00  0.00     0.163 HD
BRANCH   5   8
ATOM      8  C   UNL A   1      43.731  37.020  27.439  1.00  0.00     0.181 C 
ATOM      9  C   UNL A   1      43.621  39.840  26.333  1.00  0.00     0.145 C 
ATOM     10  S   UNL A   1      44.957  39.498  27.561  1.00  0.00    -0.145 SA
ATOM     11  C   UNL A   1      42.392  38.974  26.647  1.00  0.00     0.234 C 
ATOM     12  C   UNL A   1      45.088  37.700  27.283  1.00  0.00     0.105 C 
ATOM     13  N   UNL A   1      42.601  37.619  26.727  1.00  0.00    -0.343 N 
ATOM     14  O   UNL A   1      41.237  39.381  26.721  1.00  0.00    -0.274 OA
ATOM     15  H   UNL A   1      41.958  37.021  26.283  1.00  0.00     0.164 HD
BRANCH   9  16
ATOM     16  C   UNL A   1      43.434  41.355  26.189  1.00  0.00     0.124 C 
BRANCH  16  17
ATOM     17  C   UNL A   1      42.899  41.908  24.885  1.00  0.00     0.226 C 
ATOM     18  N   UNL A   1      43.609  42.719  24.059  1.00  0.00    -0.326 N 
ATOM     19  H   UNL A   1      43.150  42.908  23.209  1.00  0.00     0.169 HD
ATOM     20  O   UNL A   1      41.749  41.615  24.530  1.00  0.00    -0.275 OA
BRANCH  18  21
ATOM     21  C   UNL A   1      44.858  43.340  24.162  1.00  0.00     0.041 A 
ATOM     22  C   UNL A   1      48.849  44.942  24.507  1.00  0.00     0.044 C 
ATOM     23  C   UNL A   1      47.464  44.389  24.354  1.00  0.00    -0.051 A 
ATOM     24  C   UNL A   1      46.349  45.175  24.671  1.00  0.00     0.005 A 
ATOM     25  C   UNL A   1      47.262  43.079  23.915  1.00  0.00     0.005 A 
ATOM     26  C   UNL A   1      45.053  44.657  24.568  1.00  0.00     0.026 A 
ATOM     27  C   UNL A   1      45.969  42.567  23.803  1.00  0.00     0.026 A 
ENDBRANCH  18  21
ENDBRANCH  16  17
ENDBRANCH   9  16
ENDBRANCH   5   8
ENDBRANCH   3   4
ENDBRANCH   2   3
ENDBRANCH   1   2
BRANCH   1  28
ATOM     28  C   UNL A   1      39.720  34.316  29.941  1.00  0.00     0.002 C 
BRANCH  28  29
ATOM     29  C   UNL A   1      38.360  33.896  29.378  1.00  0.00     0.021 C 
BRANCH  29  30
ATOM     30  C   UNL A   1      37.997  32.445  29.675  1.00  0.00     0.116 C 
BRANCH  30  31
ATOM     31  N   UNL A   1      36.628  32.109  29.315  1.00  0.00    -0.352 N 
ATOM     32  C   UNL A   1      36.189  31.007  28.593  1.00  0.00     0.251 C 
ATOM     33  H   UNL A   1      35.933  32.735  29.618  1.00  0.00     0.163 HD
ATOM     34  O   UNL A   1      35.062  30.907  28.170  1.00  0.00    -0.269 OA
BRANCH  32  35
ATOM     35  C   UNL A   1      37.151  29.889  28.459  1.00  0.00     0.039 A 
ATOM     36  C   UNL A   1      37.343  29.073  29.580  1.00  0.00     0.014 A 
ATOM     37  C   UNL A   1      38.011  29.832  27.367  1.00  0.00     0.014 A 
ATOM     38  C   UNL A   1      38.502  28.308  29.676  1.00  0.00     0.010 A 
ATOM     39  C   UNL A   1      39.199  29.137  27.499  1.00  0.00     0.010 A 
ATOM     40  C   UNL A   1      39.464  28.411  28.671  1.00  0.00    -0.014 A 
BRANCH  40  41
ATOM     41  C   UNL A   1      40.812  27.870  28.798  1.00  0.00     0.031 A 
ATOM     42  C   UNL A   1      41.096  26.466  28.426  1.00  0.00     0.074 A 
ATOM     43  C   UNL A   1      41.831  28.660  29.208  1.00  0.00     0.049 A 
ATOM     44  N   UNL A   1      42.041  25.755  28.949  1.00  0.00    -0.248 NA
ATOM     45  C   UNL A   1      40.296  25.737  27.447  1.00  0.00     0.031 C 
ATOM     46  C   UNL A   1      43.257  28.359  29.113  1.00  0.00     0.029 A 
ATOM     47  N   UNL A   1      41.781  29.811  29.995  1.00  0.00    -0.354 N 
ATOM     48  C   UNL A   1      42.169  24.624  28.176  1.00  0.00     0.074 A 
ATOM     49  C   UNL A   1      41.008  24.613  27.315  1.00  0.00     0.031 C 
ATOM     50  C   UNL A   1      43.910  29.084  30.033  1.00  0.00     0.029 A 
ATOM     51  C   UNL A   1      42.907  29.768  30.834  1.00  0.00     0.049 A 
ATOM     52  H   UNL A   1      41.092  30.514  29.969  1.00  0.00     0.167 HD
ATOM     53  C   UNL A   1      43.317  23.892  28.207  1.00  0.00     0.031 A 
ATOM     54  C   UNL A   1      42.858  29.783  32.198  1.00  0.00     0.031 A 
ATOM     55  C   UNL A   1      44.295  24.426  29.145  1.00  0.00     0.049 A 
ATOM     56  C   UNL A   1      43.561  28.602  32.833  1.00  0.00     0.074 A 
ATOM     57  C   UNL A   1      45.418  25.221  28.978  1.00  0.00     0.029 A 
ATOM     58  N   UNL A   1      44.031  24.398  30.509  1.00  0.00    -0.354 N 
ATOM     59  N   UNL A   1      43.910  27.530  32.181  1.00  0.00    -0.248 NA
ATOM     60  C   UNL A   1      43.863  28.506  34.259  1.00  0.00     0.031 C 
ATOM     61  C   UNL A   1      45.799  25.717  30.247  1.00  0.00     0.029 A 
ATOM     62  C   UNL A   1      44.918  25.213  31.187  1.00  0.00     0.049 A 
ATOM     63  H   UNL A   1      43.314  23.872  30.931  1.00  0.00     0.167 HD
ATOM     64  C   UNL A   1      44.432  26.608  33.051  1.00  0.00     0.074 A 
ATOM     65  C   UNL A   1      44.401  27.276  34.340  1.00  0.00     0.031 C 
ATOM     66  C   UNL A   1      44.825  25.371  32.630  1.00  0.00     0.031 A 
BRANCH  53  67
ATOM     67  C   UNL A   1      43.650  22.895  27.124  1.00  0.00    -0.014 A 
ATOM     68  C   UNL A   1      42.837  21.756  26.951  1.00  0.00     0.010 A 
ATOM     69  C   UNL A   1      44.780  22.994  26.291  1.00  0.00     0.010 A 
ATOM     70  C   UNL A   1      43.190  20.718  26.081  1.00  0.00     0.020 A 
ATOM     71  C   UNL A   1      45.165  21.946  25.441  1.00  0.00     0.020 A 
ATOM     72  C   UNL A   1      44.372  20.804  25.353  1.00  0.00     0.054 A 
BRANCH  72  73
ATOM     73  S   UNL A   1      44.863  19.398  24.322  1.00  0.00     0.124 S 
ATOM     74  O   UNL A   1      44.476  19.838  22.983  1.00  0.00    -0.237 OA
ATOM     75  O   UNL A   1      46.300  19.317  24.567  1.00  0.00    -0.237 OA
ATOM     76  O   UNL A   1      44.076  18.286  24.854  1.00  0.00    -0.744 OA
ENDBRANCH  72  73
ENDBRANCH  53  67
BRANCH  54  77
ATOM     77  C   UNL A   1      41.653  30.445  32.764  1.00  0.00    -0.014 A 
ATOM     78  C   UNL A   1      40.504  29.654  32.966  1.00  0.00     0.010 A 
ATOM     79  C   UNL A   1      41.777  31.663  33.456  1.00  0.00     0.010 A 
ATOM     80  C   UNL A   1      39.577  29.991  33.955  1.00  0.00     0.020 A 
ATOM     81  C   UNL A   1      40.845  32.004  34.446  1.00  0.00     0.020 A 
ATOM     82  C   UNL A   1      39.786  31.134  34.727  1.00  0.00     0.054 A 
BRANCH  82  83
ATOM     83  S   UNL A   1      38.769  31.354  36.218  1.00  0.00     0.124 S 
ATOM     84  O   UNL A   1      37.650  32.143  35.715  1.00  0.00    -0.237 OA
ATOM     85  O   UNL A   1      38.455  29.972  36.579  1.00  0.00    -0.237 OA
ATOM     86  O   UNL A   1      39.667  32.046  37.137  1.00  0.00    -0.744 OA
ENDBRANCH  82  83
ENDBRANCH  54  77
BRANCH  66  87
ATOM     87  C   UNL A   1      45.237  24.209  33.505  1.00  0.00    -0.014 A 
ATOM     88  C   UNL A   1      46.248  24.266  34.477  1.00  0.00     0.010 A 
ATOM     89  C   UNL A   1      44.486  23.009  33.437  1.00  0.00     0.010 A 
ATOM     90  C   UNL A   1      46.535  23.163  35.297  1.00  0.00     0.020 A 
ATOM     91  C   UNL A   1      44.734  21.921  34.277  1.00  0.00     0.020 A 
ATOM     92  C   UNL A   1      45.778  21.996  35.191  1.00  0.00     0.054 A 
BRANCH  92  93
ATOM     93  S   UNL A   1      46.111  20.603  36.298  1.00  0.00     0.124 S 
ATOM     94  O   UNL A   1      45.208  19.581  35.775  1.00  0.00    -0.237 OA
ATOM     95  O   UNL A   1      47.534  20.349  36.087  1.00  0.00    -0.237 OA
ATOM     96  O   UNL A   1      45.769  21.125  37.618  1.00  0.00    -0.744 OA
ENDBRANCH  92  93
ENDBRANCH  66  87
ENDBRANCH  40  41
ENDBRANCH  32  35
ENDBRANCH  30  31
ENDBRANCH  29  30
ENDBRANCH  28  29
ENDBRANCH   1  28
TORSDOF 19
ENDMDL
