MODEL 1
REMARK VINA RESULT:     -11.7      0.000      0.000
REMARK SMILES C=C(C(=O)NCCCCCCNC(=O)c1ccc(-c2c3nc(c(-c4ccc(S(=O)(=O)[O-])cc4)c4ccc([nH]4)c(-c4ccc(S(=O)(=O)[O-])cc4)c4nc(c(-c5ccc(S(=O)(=O)[O-])cc5)c5ccc2[nH]5)C=C4)C=C3)cc1)[C@@H]1CC[C@]2(C)C[C@@H](O)CC(=C)[C@H]2C1
REMARK SMILES IDX 9 1 8 2 7 3 6 4 5 5 3 6 4 7 2 9 1 10 75 11 76 12 87 13 77 14
REMARK SMILES IDX 86 15 78 16 84 17 79 18 80 19 83 20 85 21 81 22 82 23 10 25
REMARK SMILES IDX 11 26 12 27 13 28 14 30 15 31 16 32 74 33 17 34 73 35 18 36
REMARK SMILES IDX 19 37 20 38 67 39 21 40 72 41 66 42 68 43 22 44 71 45 65 46
REMARK SMILES IDX 64 47 23 49 53 50 34 51 52 52 35 53 38 54 51 55 69 56 36 57
REMARK SMILES IDX 37 58 50 60 70 61 39 62 24 63 25 64 33 65 26 66 32 67 27 68
REMARK SMILES IDX 28 69 29 70 30 71 31 72 54 73 55 74 63 75 56 76 62 77 57 78
REMARK SMILES IDX 58 79 59 80 60 81 61 82 40 83 41 84 49 85 42 86 48 87 43 88
REMARK SMILES IDX 44 89 45 90 46 91 47 92
REMARK H PARENT 5 8 82 24 12 29 68 48 38 59
REMARK Flexibility Score: inf
ROOT
ATOM      1  C   UNL A   1      36.612  22.362  25.858  1.00  0.00     0.002 C 
ENDROOT
BRANCH   1   2
ATOM      2  C   UNL A   1      36.837  21.114  24.998  1.00  0.00     0.002 C 
BRANCH   2   3
ATOM      3  C   UNL A   1      35.702  20.089  24.958  1.00  0.00     0.021 C 
BRANCH   3   4
ATOM      4  C   UNL A   1      34.320  20.576  25.385  1.00  0.00     0.116 C 
BRANCH   4   5
ATOM      5  N   UNL A   1      33.384  20.708  24.281  1.00  0.00    -0.352 N 
ATOM      6  C   UNL A   1      33.011  21.784  23.530  1.00  0.00     0.246 C 
ATOM      7  O   UNL A   1      32.198  21.604  22.622  1.00  0.00    -0.270 OA
ATOM      8  H   UNL A   1      32.937  19.868  24.031  1.00  0.00     0.163 HD
BRANCH   6   9
ATOM      9  C   UNL A   1      33.524  23.172  23.803  1.00  0.00     0.013 C 
ATOM     10  C   UNL A   1      34.428  23.710  22.960  1.00  0.00     0.018 C 
BRANCH   9  11
ATOM     11  C   UNL A   1      32.757  23.975  24.871  1.00  0.00     0.025 C 
ATOM     12  C   UNL A   1      31.230  24.086  24.655  1.00  0.00     0.009 C 
ATOM     13  C   UNL A   1      33.317  25.385  25.193  1.00  0.00     0.017 C 
ATOM     14  C   UNL A   1      30.852  25.132  23.601  1.00  0.00     0.008 C 
ATOM     15  C   UNL A   1      32.929  26.463  24.165  1.00  0.00     0.021 C 
ATOM     16  C   UNL A   1      31.391  26.548  23.930  1.00  0.00    -0.024 C 
ATOM     17  C   UNL A   1      33.462  27.870  24.429  1.00  0.00    -0.071 C 
ATOM     18  C   UNL A   1      30.621  27.079  25.167  1.00  0.00     0.012 C 
ATOM     19  C   UNL A   1      31.131  27.482  22.708  1.00  0.00     0.039 C 
ATOM     20  C   UNL A   1      33.278  28.804  23.249  1.00  0.00     0.062 C 
ATOM     21  C   UNL A   1      34.018  28.294  25.577  1.00  0.00     0.008 C 
ATOM     22  C   UNL A   1      31.816  28.860  22.775  1.00  0.00     0.119 C 
BRANCH  22  23
ATOM     23  O   UNL A   1      31.047  29.753  23.583  1.00  0.00    -0.393 OA
ATOM     24  H   UNL A   1      30.749  30.502  23.043  1.00  0.00     0.210 HD
ENDBRANCH  22  23
ENDBRANCH   9  11
ENDBRANCH   6   9
ENDBRANCH   4   5
ENDBRANCH   3   4
ENDBRANCH   2   3
ENDBRANCH   1   2
BRANCH   1  25
ATOM     25  C   UNL A   1      37.343  23.636  25.425  1.00  0.00     0.021 C 
BRANCH  25  26
ATOM     26  C   UNL A   1      38.280  24.257  26.459  1.00  0.00     0.116 C 
BRANCH  26  27
ATOM     27  N   UNL A   1      39.677  24.174  26.071  1.00  0.00    -0.352 N 
ATOM     28  C   UNL A   1      40.742  24.945  26.461  1.00  0.00     0.251 C 
ATOM     29  H   UNL A   1      39.892  23.456  25.433  1.00  0.00     0.163 HD
ATOM     30  O   UNL A   1      41.824  24.815  25.886  1.00  0.00    -0.269 OA
BRANCH  28  31
ATOM     31  C   UNL A   1      40.604  25.941  27.548  1.00  0.00     0.039 A 
ATOM     32  C   UNL A   1      39.660  25.710  28.552  1.00  0.00     0.014 A 
ATOM     33  C   UNL A   1      41.362  27.117  27.563  1.00  0.00     0.014 A 
ATOM     34  C   UNL A   1      39.508  26.631  29.592  1.00  0.00     0.010 A 
ATOM     35  C   UNL A   1      41.253  28.005  28.634  1.00  0.00     0.010 A 
ATOM     36  C   UNL A   1      40.318  27.777  29.655  1.00  0.00    -0.014 A 
BRANCH  36  37
ATOM     37  C   UNL A   1      40.194  28.731  30.786  1.00  0.00     0.031 A 
ATOM     38  C   UNL A   1      41.091  28.616  31.989  1.00  0.00     0.074 A 
ATOM     39  C   UNL A   1      39.246  29.687  30.743  1.00  0.00     0.049 A 
ATOM     40  N   UNL A   1      41.148  29.381  33.050  1.00  0.00    -0.248 NA
ATOM     41  C   UNL A   1      42.030  27.484  32.015  1.00  0.00     0.031 C 
ATOM     42  C   UNL A   1      38.283  29.874  29.656  1.00  0.00     0.029 A 
ATOM     43  N   UNL A   1      38.942  30.688  31.631  1.00  0.00    -0.354 N 
ATOM     44  C   UNL A   1      42.114  28.816  33.876  1.00  0.00     0.074 A 
ATOM     45  C   UNL A   1      42.585  27.619  33.211  1.00  0.00     0.031 C 
ATOM     46  C   UNL A   1      37.524  30.950  29.921  1.00  0.00     0.029 A 
ATOM     47  C   UNL A   1      37.926  31.511  31.207  1.00  0.00     0.049 A 
ATOM     48  H   UNL A   1      39.406  30.805  32.491  1.00  0.00     0.167 HD
ATOM     49  C   UNL A   1      42.578  29.258  35.070  1.00  0.00     0.031 A 
ATOM     50  C   UNL A   1      37.388  32.604  31.780  1.00  0.00     0.031 A 
ATOM     51  C   UNL A   1      42.116  30.454  35.723  1.00  0.00     0.049 A 
ATOM     52  C   UNL A   1      37.931  33.088  33.095  1.00  0.00     0.074 A 
ATOM     53  C   UNL A   1      42.576  31.029  36.895  1.00  0.00     0.029 A 
ATOM     54  N   UNL A   1      41.083  31.259  35.263  1.00  0.00    -0.354 N 
ATOM     55  N   UNL A   1      38.900  32.584  33.820  1.00  0.00    -0.248 NA
ATOM     56  C   UNL A   1      37.314  34.294  33.660  1.00  0.00     0.031 C 
ATOM     57  C   UNL A   1      41.789  32.155  37.170  1.00  0.00     0.029 A 
ATOM     58  C   UNL A   1      40.872  32.308  36.142  1.00  0.00     0.049 A 
ATOM     59  H   UNL A   1      40.576  31.105  34.434  1.00  0.00     0.167 HD
ATOM     60  C   UNL A   1      39.024  33.425  34.920  1.00  0.00     0.074 A 
ATOM     61  C   UNL A   1      38.042  34.478  34.752  1.00  0.00     0.031 C 
ATOM     62  C   UNL A   1      39.875  33.335  35.972  1.00  0.00     0.031 A 
BRANCH  49  63
ATOM     63  C   UNL A   1      43.633  28.426  35.753  1.00  0.00    -0.014 A 
ATOM     64  C   UNL A   1      43.284  27.380  36.627  1.00  0.00     0.010 A 
ATOM     65  C   UNL A   1      44.993  28.686  35.507  1.00  0.00     0.010 A 
ATOM     66  C   UNL A   1      44.276  26.646  37.285  1.00  0.00     0.020 A 
ATOM     67  C   UNL A   1      45.988  27.936  36.143  1.00  0.00     0.020 A 
ATOM     68  C   UNL A   1      45.621  26.936  37.045  1.00  0.00     0.054 A 
BRANCH  68  69
ATOM     69  S   UNL A   1      46.891  25.973  37.915  1.00  0.00     0.124 S 
ATOM     70  O   UNL A   1      47.153  24.896  36.963  1.00  0.00    -0.237 OA
ATOM     71  O   UNL A   1      47.972  26.941  38.080  1.00  0.00    -0.237 OA
ATOM     72  O   UNL A   1      46.229  25.565  39.151  1.00  0.00    -0.744 OA
ENDBRANCH  68  69
ENDBRANCH  49  63
BRANCH  50  73
ATOM     73  C   UNL A   1      36.302  33.344  31.083  1.00  0.00    -0.014 A 
ATOM     74  C   UNL A   1      35.098  33.628  31.751  1.00  0.00     0.010 A 
ATOM     75  C   UNL A   1      36.475  33.797  29.763  1.00  0.00     0.010 A 
ATOM     76  C   UNL A   1      34.083  34.343  31.111  1.00  0.00     0.020 A 
ATOM     77  C   UNL A   1      35.473  34.533  29.126  1.00  0.00     0.020 A 
ATOM     78  C   UNL A   1      34.278  34.795  29.802  1.00  0.00     0.054 A 
BRANCH  78  79
ATOM     79  S   UNL A   1      32.978  35.785  29.014  1.00  0.00     0.124 S 
ATOM     80  O   UNL A   1      33.750  36.844  28.373  1.00  0.00    -0.237 OA
ATOM     81  O   UNL A   1      32.351  34.822  28.111  1.00  0.00    -0.237 OA
ATOM     82  O   UNL A   1      32.144  36.206  30.138  1.00  0.00    -0.744 OA
ENDBRANCH  78  79
ENDBRANCH  50  73
BRANCH  62  83
ATOM     83  C   UNL A   1      39.783  34.416  37.016  1.00  0.00    -0.014 A 
ATOM     84  C   UNL A   1      40.472  35.633  36.863  1.00  0.00     0.010 A 
ATOM     85  C   UNL A   1      38.990  34.215  38.160  1.00  0.00     0.010 A 
ATOM     86  C   UNL A   1      40.408  36.610  37.860  1.00  0.00     0.020 A 
ATOM     87  C   UNL A   1      38.902  35.201  39.145  1.00  0.00     0.020 A 
ATOM     88  C   UNL A   1      39.630  36.384  38.999  1.00  0.00     0.054 A 
BRANCH  88  89
ATOM     89  S   UNL A   1      39.555  37.668  40.279  1.00  0.00     0.124 S 
ATOM     90  O   UNL A   1      38.997  36.934  41.411  1.00  0.00    -0.237 OA
ATOM     91  O   UNL A   1      40.953  38.068  40.417  1.00  0.00    -0.237 OA
ATOM     92  O   UNL A   1      38.678  38.683  39.698  1.00  0.00    -0.744 OA
ENDBRANCH  88  89
ENDBRANCH  62  83
ENDBRANCH  36  37
ENDBRANCH  28  31
ENDBRANCH  26  27
ENDBRANCH  25  26
ENDBRANCH   1  25
TORSDOF 18
ENDMDL
MODEL 2
REMARK VINA RESULT:     -11.4      6.547     12.064
REMARK SMILES C=C(C(=O)NCCCCCCNC(=O)c1ccc(-c2c3nc(c(-c4ccc(S(=O)(=O)[O-])cc4)c4ccc([nH]4)c(-c4ccc(S(=O)(=O)[O-])cc4)c4nc(c(-c5ccc(S(=O)(=O)[O-])cc5)c5ccc2[nH]5)C=C4)C=C3)cc1)[C@@H]1CC[C@]2(C)C[C@@H](O)CC(=C)[C@H]2C1
REMARK SMILES IDX 9 1 8 2 7 3 6 4 5 5 3 6 4 7 2 9 1 10 75 11 76 12 87 13 77 14
REMARK SMILES IDX 86 15 78 16 84 17 79 18 80 19 83 20 85 21 81 22 82 23 10 25
REMARK SMILES IDX 11 26 12 27 13 28 14 30 15 31 16 32 74 33 17 34 73 35 18 36
REMARK SMILES IDX 19 37 20 38 67 39 21 40 72 41 66 42 68 43 22 44 71 45 65 46
REMARK SMILES IDX 64 47 23 49 53 50 34 51 52 52 35 53 38 54 51 55 69 56 36 57
REMARK SMILES IDX 37 58 50 60 70 61 39 62 24 63 25 64 33 65 26 66 32 67 27 68
REMARK SMILES IDX 28 69 29 70 30 71 31 72 54 73 55 74 63 75 56 76 62 77 57 78
REMARK SMILES IDX 58 79 59 80 60 81 61 82 40 83 41 84 49 85 42 86 48 87 43 88
REMARK SMILES IDX 44 89 45 90 46 91 47 92
REMARK H PARENT 5 8 82 24 12 29 68 48 38 59
REMARK Flexibility Score: inf
ROOT
ATOM      1  C   UNL A   1      33.274  29.917  27.087  1.00  0.00     0.002 C 
ENDROOT
BRANCH   1   2
ATOM      2  C   UNL A   1      32.301  28.735  27.146  1.00  0.00     0.002 C 
BRANCH   2   3
ATOM      3  C   UNL A   1      32.122  27.922  25.861  1.00  0.00     0.021 C 
BRANCH   3   4
ATOM      4  C   UNL A   1      33.276  27.008  25.460  1.00  0.00     0.116 C 
BRANCH   4   5
ATOM      5  N   UNL A   1      33.803  27.285  24.135  1.00  0.00    -0.352 N 
ATOM      6  C   UNL A   1      33.322  27.009  22.889  1.00  0.00     0.246 C 
ATOM      7  O   UNL A   1      33.976  27.387  21.916  1.00  0.00    -0.270 OA
ATOM      8  H   UNL A   1      34.667  27.757  24.137  1.00  0.00     0.163 HD
BRANCH   6   9
ATOM      9  C   UNL A   1      32.053  26.228  22.672  1.00  0.00     0.013 C 
ATOM     10  C   UNL A   1      30.909  26.898  22.434  1.00  0.00     0.018 C 
BRANCH   9  11
ATOM     11  C   UNL A   1      32.225  24.712  22.459  1.00  0.00     0.025 C 
ATOM     12  C   UNL A   1      31.295  23.809  23.299  1.00  0.00     0.009 C 
ATOM     13  C   UNL A   1      33.675  24.171  22.568  1.00  0.00     0.017 C 
ATOM     14  C   UNL A   1      31.764  23.656  24.750  1.00  0.00     0.008 C 
ATOM     15  C   UNL A   1      34.164  23.980  24.016  1.00  0.00     0.021 C 
ATOM     16  C   UNL A   1      33.204  23.094  24.866  1.00  0.00    -0.024 C 
ATOM     17  C   UNL A   1      35.590  23.458  24.183  1.00  0.00    -0.071 C 
ATOM     18  C   UNL A   1      33.182  21.614  24.402  1.00  0.00     0.012 C 
ATOM     19  C   UNL A   1      33.657  23.171  26.357  1.00  0.00     0.039 C 
ATOM     20  C   UNL A   1      36.093  23.558  25.609  1.00  0.00     0.062 C 
ATOM     21  C   UNL A   1      36.349  22.929  23.209  1.00  0.00     0.008 C 
ATOM     22  C   UNL A   1      35.146  22.874  26.610  1.00  0.00     0.119 C 
BRANCH  22  23
ATOM     23  O   UNL A   1      35.368  21.463  26.646  1.00  0.00    -0.393 OA
ATOM     24  H   UNL A   1      35.213  21.088  25.764  1.00  0.00     0.210 HD
ENDBRANCH  22  23
ENDBRANCH   9  11
ENDBRANCH   6   9
ENDBRANCH   4   5
ENDBRANCH   3   4
ENDBRANCH   2   3
ENDBRANCH   1   2
BRANCH   1  25
ATOM     25  C   UNL A   1      34.750  29.606  27.351  1.00  0.00     0.021 C 
BRANCH  25  26
ATOM     26  C   UNL A   1      35.550  30.696  28.059  1.00  0.00     0.116 C 
BRANCH  26  27
ATOM     27  N   UNL A   1      35.521  30.563  29.505  1.00  0.00    -0.352 N 
ATOM     28  C   UNL A   1      36.483  30.093  30.362  1.00  0.00     0.251 C 
ATOM     29  H   UNL A   1      34.684  30.855  29.935  1.00  0.00     0.163 HD
ATOM     30  O   UNL A   1      36.198  29.907  31.546  1.00  0.00    -0.269 OA
BRANCH  28  31
ATOM     31  C   UNL A   1      37.850  29.790  29.879  1.00  0.00     0.039 A 
ATOM     32  C   UNL A   1      38.840  29.490  30.819  1.00  0.00     0.014 A 
ATOM     33  C   UNL A   1      38.173  29.841  28.519  1.00  0.00     0.014 A 
ATOM     34  C   UNL A   1      40.139  29.198  30.393  1.00  0.00     0.010 A 
ATOM     35  C   UNL A   1      39.454  29.490  28.092  1.00  0.00     0.010 A 
ATOM     36  C   UNL A   1      40.453  29.173  29.025  1.00  0.00    -0.014 A 
BRANCH  36  37
ATOM     37  C   UNL A   1      41.820  28.812  28.568  1.00  0.00     0.031 A 
ATOM     38  C   UNL A   1      42.912  29.846  28.520  1.00  0.00     0.074 A 
ATOM     39  C   UNL A   1      42.069  27.551  28.163  1.00  0.00     0.049 A 
ATOM     40  N   UNL A   1      44.169  29.701  28.184  1.00  0.00    -0.248 NA
ATOM     41  C   UNL A   1      42.541  31.225  28.875  1.00  0.00     0.031 C 
ATOM     42  C   UNL A   1      41.084  26.468  28.115  1.00  0.00     0.029 A 
ATOM     43  N   UNL A   1      43.228  26.964  27.723  1.00  0.00    -0.354 N 
ATOM     44  C   UNL A   1      44.734  30.969  28.270  1.00  0.00     0.074 A 
ATOM     45  C   UNL A   1      43.672  31.877  28.648  1.00  0.00     0.031 C 
ATOM     46  C   UNL A   1      41.691  25.340  27.712  1.00  0.00     0.029 A 
ATOM     47  C   UNL A   1      43.098  25.625  27.446  1.00  0.00     0.049 A 
ATOM     48  H   UNL A   1      44.075  27.456  27.615  1.00  0.00     0.167 HD
ATOM     49  C   UNL A   1      46.021  31.343  28.068  1.00  0.00     0.031 A 
ATOM     50  C   UNL A   1      44.009  24.722  27.039  1.00  0.00     0.031 A 
ATOM     51  C   UNL A   1      47.078  30.437  27.704  1.00  0.00     0.049 A 
ATOM     52  C   UNL A   1      45.434  25.154  26.839  1.00  0.00     0.074 A 
ATOM     53  C   UNL A   1      48.428  30.702  27.551  1.00  0.00     0.029 A 
ATOM     54  N   UNL A   1      46.904  29.088  27.429  1.00  0.00    -0.354 N 
ATOM     55  N   UNL A   1      45.965  26.342  27.004  1.00  0.00    -0.248 NA
ATOM     56  C   UNL A   1      46.384  24.119  26.411  1.00  0.00     0.031 C 
ATOM     57  C   UNL A   1      49.063  29.525  27.137  1.00  0.00     0.029 A 
ATOM     58  C   UNL A   1      48.116  28.515  27.080  1.00  0.00     0.049 A 
ATOM     59  H   UNL A   1      46.045  28.610  27.475  1.00  0.00     0.167 HD
ATOM     60  C   UNL A   1      47.317  26.194  26.719  1.00  0.00     0.074 A 
ATOM     61  C   UNL A   1      47.523  24.797  26.390  1.00  0.00     0.031 C 
ATOM     62  C   UNL A   1      48.300  27.128  26.732  1.00  0.00     0.031 A 
BRANCH  49  63
ATOM     63  C   UNL A   1      46.349  32.806  28.223  1.00  0.00    -0.014 A 
ATOM     64  C   UNL A   1      46.306  33.683  27.124  1.00  0.00     0.010 A 
ATOM     65  C   UNL A   1      46.692  33.313  29.489  1.00  0.00     0.010 A 
ATOM     66  C   UNL A   1      46.655  35.029  27.278  1.00  0.00     0.020 A 
ATOM     67  C   UNL A   1      47.015  34.664  29.652  1.00  0.00     0.020 A 
ATOM     68  C   UNL A   1      47.016  35.508  28.539  1.00  0.00     0.054 A 
BRANCH  68  69
ATOM     69  S   UNL A   1      47.469  37.257  28.713  1.00  0.00     0.124 S 
ATOM     70  O   UNL A   1      47.970  37.570  27.378  1.00  0.00    -0.237 OA
ATOM     71  O   UNL A   1      46.199  37.884  29.070  1.00  0.00    -0.237 OA
ATOM     72  O   UNL A   1      48.475  37.250  29.772  1.00  0.00    -0.744 OA
ENDBRANCH  68  69
ENDBRANCH  49  63
BRANCH  50  73
ATOM     73  C   UNL A   1      43.606  23.304  26.840  1.00  0.00    -0.014 A 
ATOM     74  C   UNL A   1      43.055  22.569  27.904  1.00  0.00     0.010 A 
ATOM     75  C   UNL A   1      43.739  22.690  25.581  1.00  0.00     0.010 A 
ATOM     76  C   UNL A   1      42.651  21.244  27.717  1.00  0.00     0.020 A 
ATOM     77  C   UNL A   1      43.316  21.373  25.383  1.00  0.00     0.020 A 
ATOM     78  C   UNL A   1      42.781  20.655  26.456  1.00  0.00     0.054 A 
BRANCH  78  79
ATOM     79  S   UNL A   1      42.185  18.958  26.216  1.00  0.00     0.124 S 
ATOM     80  O   UNL A   1      43.064  18.475  25.156  1.00  0.00    -0.237 OA
ATOM     81  O   UNL A   1      42.392  18.361  27.533  1.00  0.00    -0.237 OA
ATOM     82  O   UNL A   1      40.785  19.141  25.837  1.00  0.00    -0.744 OA
ENDBRANCH  78  79
ENDBRANCH  50  73
BRANCH  62  83
ATOM     83  C   UNL A   1      49.689  26.660  26.388  1.00  0.00    -0.014 A 
ATOM     84  C   UNL A   1      50.223  26.857  25.102  1.00  0.00     0.010 A 
ATOM     85  C   UNL A   1      50.471  26.022  27.367  1.00  0.00     0.010 A 
ATOM     86  C   UNL A   1      51.498  26.380  24.787  1.00  0.00     0.020 A 
ATOM     87  C   UNL A   1      51.757  25.568  27.063  1.00  0.00     0.020 A 
ATOM     88  C   UNL A   1      52.254  25.731  25.767  1.00  0.00     0.054 A 
BRANCH  88  89
ATOM     89  S   UNL A   1      53.910  25.125  25.340  1.00  0.00     0.124 S 
ATOM     90  O   UNL A   1      53.746  23.680  25.472  1.00  0.00    -0.237 OA
ATOM     91  O   UNL A   1      54.092  25.616  23.977  1.00  0.00    -0.237 OA
ATOM     92  O   UNL A   1      54.774  25.749  26.340  1.00  0.00    -0.744 OA
ENDBRANCH  88  89
ENDBRANCH  62  83
ENDBRANCH  36  37
ENDBRANCH  28  31
ENDBRANCH  26  27
ENDBRANCH  25  26
ENDBRANCH   1  25
TORSDOF 18
ENDMDL
MODEL 3
REMARK VINA RESULT:     -11.0      1.323      2.092
REMARK SMILES C=C(C(=O)NCCCCCCNC(=O)c1ccc(-c2c3nc(c(-c4ccc(S(=O)(=O)[O-])cc4)c4ccc([nH]4)c(-c4ccc(S(=O)(=O)[O-])cc4)c4nc(c(-c5ccc(S(=O)(=O)[O-])cc5)c5ccc2[nH]5)C=C4)C=C3)cc1)[C@@H]1CC[C@]2(C)C[C@@H](O)CC(=C)[C@H]2C1
REMARK SMILES IDX 9 1 8 2 7 3 6 4 5 5 3 6 4 7 2 9 1 10 75 11 76 12 87 13 77 14
REMARK SMILES IDX 86 15 78 16 84 17 79 18 80 19 83 20 85 21 81 22 82 23 10 25
REMARK SMILES IDX 11 26 12 27 13 28 14 30 15 31 16 32 74 33 17 34 73 35 18 36
REMARK SMILES IDX 19 37 20 38 67 39 21 40 72 41 66 42 68 43 22 44 71 45 65 46
REMARK SMILES IDX 64 47 23 49 53 50 34 51 52 52 35 53 38 54 51 55 69 56 36 57
REMARK SMILES IDX 37 58 50 60 70 61 39 62 24 63 25 64 33 65 26 66 32 67 27 68
REMARK SMILES IDX 28 69 29 70 30 71 31 72 54 73 55 74 63 75 56 76 62 77 57 78
REMARK SMILES IDX 58 79 59 80 60 81 61 82 40 83 41 84 49 85 42 86 48 87 43 88
REMARK SMILES IDX 44 89 45 90 46 91 47 92
REMARK H PARENT 5 8 82 24 12 29 68 48 38 59
REMARK Flexibility Score: inf
ROOT
ATOM      1  C   UNL A   1      40.002  21.734  26.943  1.00  0.00     0.002 C 
ENDROOT
BRANCH   1   2
ATOM      2  C   UNL A   1      39.010  22.365  25.960  1.00  0.00     0.002 C 
BRANCH   2   3
ATOM      3  C   UNL A   1      37.895  21.461  25.428  1.00  0.00     0.021 C 
BRANCH   3   4
ATOM      4  C   UNL A   1      36.481  22.036  25.439  1.00  0.00     0.116 C 
BRANCH   4   5
ATOM      5  N   UNL A   1      35.451  21.038  25.669  1.00  0.00    -0.352 N 
ATOM      6  C   UNL A   1      34.090  21.129  25.706  1.00  0.00     0.246 C 
ATOM      7  O   UNL A   1      33.444  20.098  25.900  1.00  0.00    -0.270 OA
ATOM      8  H   UNL A   1      35.798  20.131  25.827  1.00  0.00     0.163 HD
BRANCH   6   9
ATOM      9  C   UNL A   1      33.368  22.441  25.561  1.00  0.00     0.013 C 
ATOM     10  C   UNL A   1      33.511  23.373  26.523  1.00  0.00     0.018 C 
BRANCH   9  11
ATOM     11  C   UNL A   1      32.746  22.717  24.179  1.00  0.00     0.025 C 
ATOM     12  C   UNL A   1      33.746  23.070  23.054  1.00  0.00     0.009 C 
ATOM     13  C   UNL A   1      31.583  23.743  24.150  1.00  0.00     0.017 C 
ATOM     14  C   UNL A   1      34.232  24.522  23.123  1.00  0.00     0.008 C 
ATOM     15  C   UNL A   1      32.043  25.212  24.190  1.00  0.00     0.021 C 
ATOM     16  C   UNL A   1      33.075  25.552  23.072  1.00  0.00    -0.024 C 
ATOM     17  C   UNL A   1      30.937  26.266  24.173  1.00  0.00    -0.071 C 
ATOM     18  C   UNL A   1      32.458  25.511  21.650  1.00  0.00     0.012 C 
ATOM     19  C   UNL A   1      33.653  26.974  23.354  1.00  0.00     0.039 C 
ATOM     20  C   UNL A   1      31.443  27.659  24.491  1.00  0.00     0.062 C 
ATOM     21  C   UNL A   1      29.645  26.040  23.884  1.00  0.00     0.008 C 
ATOM     22  C   UNL A   1      32.604  28.079  23.575  1.00  0.00     0.119 C 
BRANCH  22  23
ATOM     23  O   UNL A   1      32.121  28.558  22.318  1.00  0.00    -0.393 OA
ATOM     24  H   UNL A   1      31.612  29.373  22.456  1.00  0.00     0.210 HD
ENDBRANCH  22  23
ENDBRANCH   9  11
ENDBRANCH   6   9
ENDBRANCH   4   5
ENDBRANCH   3   4
ENDBRANCH   2   3
ENDBRANCH   1   2
BRANCH   1  25
ATOM     25  C   UNL A   1      41.488  21.875  26.606  1.00  0.00     0.021 C 
BRANCH  25  26
ATOM     26  C   UNL A   1      42.143  23.199  26.996  1.00  0.00     0.116 C 
BRANCH  26  27
ATOM     27  N   UNL A   1      42.418  24.048  25.850  1.00  0.00    -0.352 N 
ATOM     28  C   UNL A   1      42.300  25.408  25.718  1.00  0.00     0.251 C 
ATOM     29  H   UNL A   1      42.737  23.576  25.047  1.00  0.00     0.163 HD
ATOM     30  O   UNL A   1      42.426  25.919  24.604  1.00  0.00    -0.269 OA
BRANCH  28  31
ATOM     31  C   UNL A   1      42.005  26.264  26.890  1.00  0.00     0.039 A 
ATOM     32  C   UNL A   1      40.928  25.924  27.713  1.00  0.00     0.014 A 
ATOM     33  C   UNL A   1      42.750  27.417  27.159  1.00  0.00     0.014 A 
ATOM     34  C   UNL A   1      40.627  26.712  28.828  1.00  0.00     0.010 A 
ATOM     35  C   UNL A   1      42.486  28.168  28.305  1.00  0.00     0.010 A 
ATOM     36  C   UNL A   1      41.416  27.828  29.147  1.00  0.00    -0.014 A 
BRANCH  36  37
ATOM     37  C   UNL A   1      41.130  28.637  30.359  1.00  0.00     0.031 A 
ATOM     38  C   UNL A   1      41.969  28.486  31.599  1.00  0.00     0.074 A 
ATOM     39  C   UNL A   1      40.087  29.490  30.353  1.00  0.00     0.049 A 
ATOM     40  N   UNL A   1      41.886  29.134  32.734  1.00  0.00    -0.248 NA
ATOM     41  C   UNL A   1      43.023  27.460  31.569  1.00  0.00     0.031 C 
ATOM     42  C   UNL A   1      39.168  29.693  29.231  1.00  0.00     0.029 A 
ATOM     43  N   UNL A   1      39.629  30.352  31.317  1.00  0.00    -0.354 N 
ATOM     44  C   UNL A   1      42.863  28.585  33.558  1.00  0.00     0.074 A 
ATOM     45  C   UNL A   1      43.496  27.522  32.807  1.00  0.00     0.031 C 
ATOM     46  C   UNL A   1      38.283  30.650  29.555  1.00  0.00     0.029 A 
ATOM     47  C   UNL A   1      38.554  31.108  30.915  1.00  0.00     0.049 A 
ATOM     48  H   UNL A   1      40.032  30.423  32.213  1.00  0.00     0.167 HD
ATOM     49  C   UNL A   1      43.212  28.941  34.818  1.00  0.00     0.031 A 
ATOM     50  C   UNL A   1      37.870  32.071  31.560  1.00  0.00     0.031 A 
ATOM     51  C   UNL A   1      42.590  30.006  35.558  1.00  0.00     0.049 A 
ATOM     52  C   UNL A   1      38.286  32.463  32.950  1.00  0.00     0.074 A 
ATOM     53  C   UNL A   1      42.921  30.495  36.810  1.00  0.00     0.029 A 
ATOM     54  N   UNL A   1      41.501  30.745  35.117  1.00  0.00    -0.354 N 
ATOM     55  N   UNL A   1      39.266  31.986  33.681  1.00  0.00    -0.248 NA
ATOM     56  C   UNL A   1      37.513  33.532  33.594  1.00  0.00     0.031 C 
ATOM     57  C   UNL A   1      42.003  31.498  37.147  1.00  0.00     0.029 A 
ATOM     58  C   UNL A   1      41.130  31.666  36.083  1.00  0.00     0.049 A 
ATOM     59  H   UNL A   1      41.058  30.630  34.246  1.00  0.00     0.167 HD
ATOM     60  C   UNL A   1      39.238  32.712  34.866  1.00  0.00     0.074 A 
ATOM     61  C   UNL A   1      38.158  33.671  34.743  1.00  0.00     0.031 C 
ATOM     62  C   UNL A   1      40.038  32.597  35.956  1.00  0.00     0.031 A 
BRANCH  49  63
ATOM     63  C   UNL A   1      44.314  28.153  35.479  1.00  0.00    -0.014 A 
ATOM     64  C   UNL A   1      45.669  28.432  35.215  1.00  0.00     0.010 A 
ATOM     65  C   UNL A   1      43.991  27.129  36.386  1.00  0.00     0.010 A 
ATOM     66  C   UNL A   1      46.677  27.663  35.805  1.00  0.00     0.020 A 
ATOM     67  C   UNL A   1      44.998  26.376  36.999  1.00  0.00     0.020 A 
ATOM     68  C   UNL A   1      46.334  26.634  36.686  1.00  0.00     0.054 A 
BRANCH  68  69
ATOM     69  S   UNL A   1      47.661  25.648  37.435  1.00  0.00     0.124 S 
ATOM     70  O   UNL A   1      47.647  26.126  38.815  1.00  0.00    -0.237 OA
ATOM     71  O   UNL A   1      47.192  24.278  37.241  1.00  0.00    -0.237 OA
ATOM     72  O   UNL A   1      48.843  26.013  36.660  1.00  0.00    -0.744 OA
ENDBRANCH  68  69
ENDBRANCH  49  63
BRANCH  50  73
ATOM     73  C   UNL A   1      36.748  32.766  30.874  1.00  0.00    -0.014 A 
ATOM     74  C   UNL A   1      35.417  32.412  31.158  1.00  0.00     0.010 A 
ATOM     75  C   UNL A   1      36.999  33.805  29.961  1.00  0.00     0.010 A 
ATOM     76  C   UNL A   1      34.358  33.078  30.536  1.00  0.00     0.020 A 
ATOM     77  C   UNL A   1      35.943  34.489  29.353  1.00  0.00     0.020 A 
ATOM     78  C   UNL A   1      34.628  34.115  29.639  1.00  0.00     0.054 A 
BRANCH  78  79
ATOM     79  S   UNL A   1      33.238  35.015  28.896  1.00  0.00     0.124 S 
ATOM     80  O   UNL A   1      32.443  35.366  30.069  1.00  0.00    -0.237 OA
ATOM     81  O   UNL A   1      33.904  36.129  28.225  1.00  0.00    -0.237 OA
ATOM     82  O   UNL A   1      32.636  34.030  28.001  1.00  0.00    -0.744 OA
ENDBRANCH  78  79
ENDBRANCH  50  73
BRANCH  62  83
ATOM     83  C   UNL A   1      39.773  33.544  37.096  1.00  0.00    -0.014 A 
ATOM     84  C   UNL A   1      40.306  34.846  37.096  1.00  0.00     0.010 A 
ATOM     85  C   UNL A   1      38.975  33.128  38.176  1.00  0.00     0.010 A 
ATOM     86  C   UNL A   1      40.084  35.698  38.180  1.00  0.00     0.020 A 
ATOM     87  C   UNL A   1      38.729  33.988  39.249  1.00  0.00     0.020 A 
ATOM     88  C   UNL A   1      39.304  35.261  39.255  1.00  0.00     0.054 A 
BRANCH  88  89
ATOM     89  S   UNL A   1      39.023  36.385  40.650  1.00  0.00     0.124 S 
ATOM     90  O   UNL A   1      40.329  36.390  41.303  1.00  0.00    -0.237 OA
ATOM     91  O   UNL A   1      38.646  37.633  39.990  1.00  0.00    -0.237 OA
ATOM     92  O   UNL A   1      37.950  35.739  41.403  1.00  0.00    -0.744 OA
ENDBRANCH  88  89
ENDBRANCH  62  83
ENDBRANCH  36  37
ENDBRANCH  28  31
ENDBRANCH  26  27
ENDBRANCH  25  26
ENDBRANCH   1  25
TORSDOF 18
ENDMDL
