MODEL 1
REMARK VINA RESULT:     -11.2      0.000      0.000
REMARK SMILES O=C(CNc1nc(-c2ccccc2)c(-c2ccccc2)s1)NCCCCCCNC(=O)c1ccc(-c2c3nc(c(-c4ccc(S(=O)(=O)[O-])cc4)c4ccc([nH]4)c(-c4ccc(S(=O)(=O)[O-])cc4)c4nc(c(-c5ccc(S(=O)(=O)[O-])cc5)c5ccc2[nH]5)C=C4)C=C3)cc1
REMARK SMILES IDX 25 1 24 2 23 3 22 4 1 5 2 6 3 8 4 9 5 11 6 12 21 13 7 14
REMARK SMILES IDX 14 15 8 16 9 17 13 18 10 19 12 20 11 21 15 22 16 23 20 24
REMARK SMILES IDX 17 25 19 26 18 27 26 28 27 29 28 30 29 31 30 32 31 34 32 35
REMARK SMILES IDX 33 36 91 37 34 38 90 39 35 40 36 41 37 42 84 43 38 44 89 45
REMARK SMILES IDX 83 46 85 47 39 48 88 49 82 50 81 51 40 53 70 54 51 55 69 56
REMARK SMILES IDX 52 57 55 58 68 59 86 60 53 61 54 62 67 64 87 65 56 66 41 67
REMARK SMILES IDX 42 68 50 69 43 70 49 71 44 72 45 73 46 74 47 75 48 76 71 77
REMARK SMILES IDX 72 78 80 79 73 80 79 81 74 82 75 83 76 84 77 85 78 86 57 87
REMARK SMILES IDX 58 88 66 89 59 90 65 91 60 92 61 93 62 94 63 95 64 96
REMARK H PARENT 22 7 4 10 29 33 85 52 55 63
REMARK Flexibility Score: inf
ROOT
ATOM      1  C   UNL A   1      33.479  31.614  27.877  1.00  0.00     0.002 C 
ENDROOT
BRANCH   1   2
ATOM      2  C   UNL A   1      33.057  30.620  26.785  1.00  0.00     0.021 C 
BRANCH   2   3
ATOM      3  C   UNL A   1      33.615  29.207  26.953  1.00  0.00     0.116 C 
BRANCH   3   4
ATOM      4  N   UNL A   1      32.758  28.214  26.341  1.00  0.00    -0.355 N 
ATOM      5  O   UNL A   1      31.321  27.903  28.116  1.00  0.00    -0.273 OA
ATOM      6  C   UNL A   1      31.669  27.639  26.970  1.00  0.00     0.239 C 
ATOM      7  H   UNL A   1      32.964  27.930  25.421  1.00  0.00     0.163 HD
BRANCH   6   8
ATOM      8  C   UNL A   1      30.952  26.592  26.100  1.00  0.00     0.215 C 
BRANCH   8   9
ATOM      9  N   UNL A   1      31.025  25.290  26.753  1.00  0.00    -0.352 N 
ATOM     10  H   UNL A   1      30.539  25.150  27.598  1.00  0.00     0.163 HD
BRANCH   9  11
ATOM     11  C   UNL A   1      31.738  24.275  26.236  1.00  0.00     0.184 A 
ATOM     12  N   UNL A   1      33.024  24.289  25.980  1.00  0.00    -0.220 NA
ATOM     13  S   UNL A   1      30.923  22.817  25.823  1.00  0.00    -0.096 S 
ATOM     14  C   UNL A   1      33.402  23.090  25.392  1.00  0.00     0.091 A 
ATOM     15  C   UNL A   1      32.378  22.181  25.179  1.00  0.00     0.064 A 
BRANCH  14  16
ATOM     16  C   UNL A   1      34.792  22.812  25.063  1.00  0.00     0.002 A 
ATOM     17  C   UNL A   1      35.319  23.150  23.809  1.00  0.00     0.010 A 
ATOM     18  C   UNL A   1      35.592  22.118  25.978  1.00  0.00     0.010 A 
ATOM     19  C   UNL A   1      36.613  22.758  23.460  1.00  0.00     0.001 A 
ATOM     20  C   UNL A   1      36.885  21.724  25.626  1.00  0.00     0.001 A 
ATOM     21  C   UNL A   1      37.391  22.037  24.365  1.00  0.00     0.000 A 
ENDBRANCH  14  16
BRANCH  15  22
ATOM     22  C   UNL A   1      32.382  20.853  24.567  1.00  0.00    -0.006 A 
ATOM     23  C   UNL A   1      32.205  20.708  23.183  1.00  0.00     0.009 A 
ATOM     24  C   UNL A   1      32.627  19.712  25.345  1.00  0.00     0.009 A 
ATOM     25  C   UNL A   1      32.273  19.447  22.590  1.00  0.00     0.001 A 
ATOM     26  C   UNL A   1      32.695  18.453  24.748  1.00  0.00     0.001 A 
ATOM     27  C   UNL A   1      32.520  18.321  23.372  1.00  0.00     0.000 A 
ENDBRANCH  15  22
ENDBRANCH   9  11
ENDBRANCH   8   9
ENDBRANCH   6   8
ENDBRANCH   3   4
ENDBRANCH   2   3
ENDBRANCH   1   2
BRANCH   1  28
ATOM     28  C   UNL A   1      34.987  31.845  28.015  1.00  0.00     0.002 C 
BRANCH  28  29
ATOM     29  C   UNL A   1      35.393  33.165  28.676  1.00  0.00     0.021 C 
BRANCH  29  30
ATOM     30  C   UNL A   1      36.399  33.042  29.818  1.00  0.00     0.116 C 
BRANCH  30  31
ATOM     31  N   UNL A   1      36.057  31.982  30.754  1.00  0.00    -0.352 N 
ATOM     32  C   UNL A   1      36.721  30.815  31.041  1.00  0.00     0.251 C 
ATOM     33  H   UNL A   1      35.223  32.122  31.258  1.00  0.00     0.163 HD
ATOM     34  O   UNL A   1      36.176  29.966  31.748  1.00  0.00    -0.269 OA
BRANCH  32  35
ATOM     35  C   UNL A   1      38.070  30.557  30.490  1.00  0.00     0.039 A 
ATOM     36  C   UNL A   1      39.151  30.457  31.371  1.00  0.00     0.014 A 
ATOM     37  C   UNL A   1      38.281  30.427  29.113  1.00  0.00     0.014 A 
ATOM     38  C   UNL A   1      40.425  30.159  30.878  1.00  0.00     0.010 A 
ATOM     39  C   UNL A   1      39.537  30.058  28.632  1.00  0.00     0.010 A 
ATOM     40  C   UNL A   1      40.623  29.916  29.509  1.00  0.00    -0.014 A 
BRANCH  40  41
ATOM     41  C   UNL A   1      41.949  29.481  28.994  1.00  0.00     0.031 A 
ATOM     42  C   UNL A   1      43.096  30.449  28.897  1.00  0.00     0.074 A 
ATOM     43  C   UNL A   1      42.103  28.212  28.563  1.00  0.00     0.049 A 
ATOM     44  N   UNL A   1      44.318  30.238  28.477  1.00  0.00    -0.248 NA
ATOM     45  C   UNL A   1      42.835  31.838  29.305  1.00  0.00     0.031 C 
ATOM     46  C   UNL A   1      41.057  27.187  28.558  1.00  0.00     0.029 A 
ATOM     47  N   UNL A   1      43.200  27.567  28.048  1.00  0.00    -0.354 N 
ATOM     48  C   UNL A   1      44.966  31.465  28.558  1.00  0.00     0.074 A 
ATOM     49  C   UNL A   1      43.987  32.426  29.018  1.00  0.00     0.031 C 
ATOM     50  C   UNL A   1      41.573  26.033  28.106  1.00  0.00     0.029 A 
ATOM     51  C   UNL A   1      42.971  26.244  27.747  1.00  0.00     0.049 A 
ATOM     52  H   UNL A   1      44.069  28.009  27.907  1.00  0.00     0.167 HD
ATOM     53  C   UNL A   1      46.261  31.764  28.289  1.00  0.00     0.031 A 
ATOM     54  C   UNL A   1      43.792  25.304  27.240  1.00  0.00     0.031 A 
ATOM     55  C   UNL A   1      47.232  30.806  27.825  1.00  0.00     0.049 A 
ATOM     56  C   UNL A   1      45.219  25.662  26.933  1.00  0.00     0.074 A 
ATOM     57  C   UNL A   1      48.582  30.996  27.585  1.00  0.00     0.029 A 
ATOM     58  N   UNL A   1      46.956  29.481  27.519  1.00  0.00    -0.354 N 
ATOM     59  N   UNL A   1      45.833  26.809  27.093  1.00  0.00    -0.248 NA
ATOM     60  C   UNL A   1      46.065  24.593  26.386  1.00  0.00     0.031 C 
ATOM     61  C   UNL A   1      49.108  29.806  27.071  1.00  0.00     0.029 A 
ATOM     62  C   UNL A   1      48.102  28.853  27.057  1.00  0.00     0.049 A 
ATOM     63  H   UNL A   1      46.077  29.051  27.616  1.00  0.00     0.167 HD
ATOM     64  C   UNL A   1      47.145  26.595  26.688  1.00  0.00     0.074 A 
ATOM     65  C   UNL A   1      47.239  25.202  26.295  1.00  0.00     0.031 C 
ATOM     66  C   UNL A   1      48.180  27.471  26.648  1.00  0.00     0.031 A 
BRANCH  53  67
ATOM     67  C   UNL A   1      46.695  33.197  28.471  1.00  0.00    -0.014 A 
ATOM     68  C   UNL A   1      47.350  33.620  29.643  1.00  0.00     0.010 A 
ATOM     69  C   UNL A   1      46.466  34.133  27.446  1.00  0.00     0.010 A 
ATOM     70  C   UNL A   1      47.714  34.959  29.811  1.00  0.00     0.020 A 
ATOM     71  C   UNL A   1      46.858  35.467  27.594  1.00  0.00     0.020 A 
ATOM     72  C   UNL A   1      47.458  35.877  28.786  1.00  0.00     0.054 A 
BRANCH  72  73
ATOM     73  S   UNL A   1      47.938  37.609  29.031  1.00  0.00     0.124 S 
ATOM     74  O   UNL A   1      46.643  38.252  29.240  1.00  0.00    -0.237 OA
ATOM     75  O   UNL A   1      48.801  37.539  30.207  1.00  0.00    -0.237 OA
ATOM     76  O   UNL A   1      48.614  37.961  27.785  1.00  0.00    -0.744 OA
ENDBRANCH  72  73
ENDBRANCH  53  67
BRANCH  54  77
ATOM     77  C   UNL A   1      43.282  23.922  27.019  1.00  0.00    -0.014 A 
ATOM     78  C   UNL A   1      43.281  22.988  28.069  1.00  0.00     0.010 A 
ATOM     79  C   UNL A   1      42.760  23.544  25.768  1.00  0.00     0.010 A 
ATOM     80  C   UNL A   1      42.774  21.700  27.872  1.00  0.00     0.020 A 
ATOM     81  C   UNL A   1      42.227  22.267  25.575  1.00  0.00     0.020 A 
ATOM     82  C   UNL A   1      42.243  21.350  26.628  1.00  0.00     0.054 A 
BRANCH  82  83
ATOM     83  S   UNL A   1      41.522  19.698  26.419  1.00  0.00     0.124 S 
ATOM     84  O   UNL A   1      41.839  19.064  27.694  1.00  0.00    -0.237 OA
ATOM     85  O   UNL A   1      40.111  19.998  26.194  1.00  0.00    -0.237 OA
ATOM     86  O   UNL A   1      42.229  19.161  25.259  1.00  0.00    -0.744 OA
ENDBRANCH  82  83
ENDBRANCH  54  77
BRANCH  66  87
ATOM     87  C   UNL A   1      49.512  26.946  26.176  1.00  0.00    -0.014 A 
ATOM     88  C   UNL A   1      49.941  27.129  24.849  1.00  0.00     0.010 A 
ATOM     89  C   UNL A   1      50.362  26.287  27.084  1.00  0.00     0.010 A 
ATOM     90  C   UNL A   1      51.176  26.628  24.429  1.00  0.00     0.020 A 
ATOM     91  C   UNL A   1      51.610  25.812  26.676  1.00  0.00     0.020 A 
ATOM     92  C   UNL A   1      52.002  25.969  25.345  1.00  0.00     0.054 A 
BRANCH  92  93
ATOM     93  S   UNL A   1      53.611  25.351  24.782  1.00  0.00     0.124 S 
ATOM     94  O   UNL A   1      54.540  26.181  25.545  1.00  0.00    -0.237 OA
ATOM     95  O   UNL A   1      53.565  23.942  25.165  1.00  0.00    -0.237 OA
ATOM     96  O   UNL A   1      53.594  25.599  23.342  1.00  0.00    -0.744 OA
ENDBRANCH  92  93
ENDBRANCH  66  87
ENDBRANCH  40  41
ENDBRANCH  32  35
ENDBRANCH  30  31
ENDBRANCH  29  30
ENDBRANCH  28  29
ENDBRANCH   1  28
TORSDOF 20
ENDMDL
MODEL 2
REMARK VINA RESULT:     -11.0      0.494      7.996
REMARK SMILES O=C(CNc1nc(-c2ccccc2)c(-c2ccccc2)s1)NCCCCCCNC(=O)c1ccc(-c2c3nc(c(-c4ccc(S(=O)(=O)[O-])cc4)c4ccc([nH]4)c(-c4ccc(S(=O)(=O)[O-])cc4)c4nc(c(-c5ccc(S(=O)(=O)[O-])cc5)c5ccc2[nH]5)C=C4)C=C3)cc1
REMARK SMILES IDX 25 1 24 2 23 3 22 4 1 5 2 6 3 8 4 9 5 11 6 12 21 13 7 14
REMARK SMILES IDX 14 15 8 16 9 17 13 18 10 19 12 20 11 21 15 22 16 23 20 24
REMARK SMILES IDX 17 25 19 26 18 27 26 28 27 29 28 30 29 31 30 32 31 34 32 35
REMARK SMILES IDX 33 36 91 37 34 38 90 39 35 40 36 41 37 42 84 43 38 44 89 45
REMARK SMILES IDX 83 46 85 47 39 48 88 49 82 50 81 51 40 53 70 54 51 55 69 56
REMARK SMILES IDX 52 57 55 58 68 59 86 60 53 61 54 62 67 64 87 65 56 66 41 67
REMARK SMILES IDX 42 68 50 69 43 70 49 71 44 72 45 73 46 74 47 75 48 76 71 77
REMARK SMILES IDX 72 78 80 79 73 80 79 81 74 82 75 83 76 84 77 85 78 86 57 87
REMARK SMILES IDX 58 88 66 89 59 90 65 91 60 92 61 93 62 94 63 95 64 96
REMARK H PARENT 22 7 4 10 29 33 85 52 55 63
REMARK Flexibility Score: inf
ROOT
ATOM      1  C   UNL A   1      33.688  31.123  27.621  1.00  0.00     0.002 C 
ENDROOT
BRANCH   1   2
ATOM      2  C   UNL A   1      33.345  30.106  26.524  1.00  0.00     0.021 C 
BRANCH   2   3
ATOM      3  C   UNL A   1      33.766  28.669  26.826  1.00  0.00     0.116 C 
BRANCH   3   4
ATOM      4  N   UNL A   1      32.825  27.708  26.291  1.00  0.00    -0.355 N 
ATOM      5  O   UNL A   1      31.237  27.863  27.955  1.00  0.00    -0.273 OA
ATOM      6  C   UNL A   1      31.626  27.381  26.896  1.00  0.00     0.239 C 
ATOM      7  H   UNL A   1      33.054  27.260  25.445  1.00  0.00     0.163 HD
BRANCH   6   8
ATOM      8  C   UNL A   1      30.833  26.309  26.128  1.00  0.00     0.215 C 
BRANCH   8   9
ATOM      9  N   UNL A   1      30.978  25.025  26.802  1.00  0.00    -0.352 N 
ATOM     10  H   UNL A   1      30.519  24.881  27.661  1.00  0.00     0.163 HD
BRANCH   9  11
ATOM     11  C   UNL A   1      31.721  24.031  26.286  1.00  0.00     0.184 A 
ATOM     12  N   UNL A   1      33.010  24.078  26.046  1.00  0.00    -0.220 NA
ATOM     13  S   UNL A   1      30.947  22.558  25.852  1.00  0.00    -0.096 S 
ATOM     14  C   UNL A   1      33.424  22.894  25.453  1.00  0.00     0.091 A 
ATOM     15  C   UNL A   1      32.424  21.962  25.221  1.00  0.00     0.064 A 
BRANCH  14  16
ATOM     16  C   UNL A   1      34.824  22.652  25.140  1.00  0.00     0.002 A 
ATOM     17  C   UNL A   1      35.511  23.465  24.227  1.00  0.00     0.010 A 
ATOM     18  C   UNL A   1      35.472  21.539  25.688  1.00  0.00     0.010 A 
ATOM     19  C   UNL A   1      36.811  23.142  23.836  1.00  0.00     0.001 A 
ATOM     20  C   UNL A   1      36.772  21.216  25.292  1.00  0.00     0.001 A 
ATOM     21  C   UNL A   1      37.437  22.012  24.361  1.00  0.00     0.000 A 
ENDBRANCH  14  16
BRANCH  15  22
ATOM     22  C   UNL A   1      32.469  20.639  24.600  1.00  0.00    -0.006 A 
ATOM     23  C   UNL A   1      32.635  19.490  25.388  1.00  0.00     0.009 A 
ATOM     24  C   UNL A   1      32.283  20.495  23.218  1.00  0.00     0.009 A 
ATOM     25  C   UNL A   1      32.613  18.223  24.805  1.00  0.00     0.001 A 
ATOM     26  C   UNL A   1      32.261  19.226  22.638  1.00  0.00     0.001 A 
ATOM     27  C   UNL A   1      32.425  18.092  23.430  1.00  0.00     0.000 A 
ENDBRANCH  15  22
ENDBRANCH   9  11
ENDBRANCH   8   9
ENDBRANCH   6   8
ENDBRANCH   3   4
ENDBRANCH   2   3
ENDBRANCH   1   2
BRANCH   1  28
ATOM     28  C   UNL A   1      35.170  31.498  27.736  1.00  0.00     0.002 C 
BRANCH  28  29
ATOM     29  C   UNL A   1      35.458  32.852  28.389  1.00  0.00     0.021 C 
BRANCH  29  30
ATOM     30  C   UNL A   1      36.413  32.813  29.580  1.00  0.00     0.116 C 
BRANCH  30  31
ATOM     31  N   UNL A   1      36.100  31.743  30.514  1.00  0.00    -0.352 N 
ATOM     32  C   UNL A   1      36.796  30.594  30.800  1.00  0.00     0.251 C 
ATOM     33  H   UNL A   1      35.262  31.860  31.018  1.00  0.00     0.163 HD
ATOM     34  O   UNL A   1      36.274  29.730  31.506  1.00  0.00    -0.269 OA
BRANCH  32  35
ATOM     35  C   UNL A   1      38.151  30.374  30.249  1.00  0.00     0.039 A 
ATOM     36  C   UNL A   1      39.243  30.377  31.122  1.00  0.00     0.014 A 
ATOM     37  C   UNL A   1      38.356  30.178  28.879  1.00  0.00     0.014 A 
ATOM     38  C   UNL A   1      40.527  30.116  30.632  1.00  0.00     0.010 A 
ATOM     39  C   UNL A   1      39.626  29.846  28.404  1.00  0.00     0.010 A 
ATOM     40  C   UNL A   1      40.725  29.808  29.276  1.00  0.00    -0.014 A 
BRANCH  40  41
ATOM     41  C   UNL A   1      42.066  29.411  28.771  1.00  0.00     0.031 A 
ATOM     42  C   UNL A   1      42.332  28.006  28.304  1.00  0.00     0.074 A 
ATOM     43  C   UNL A   1      43.068  30.314  28.781  1.00  0.00     0.049 A 
ATOM     44  N   UNL A   1      43.438  27.490  27.830  1.00  0.00    -0.248 NA
ATOM     45  C   UNL A   1      41.218  27.048  28.398  1.00  0.00     0.031 C 
ATOM     46  C   UNL A   1      42.954  31.696  29.254  1.00  0.00     0.029 A 
ATOM     47  N   UNL A   1      44.377  30.208  28.383  1.00  0.00    -0.354 N 
ATOM     48  C   UNL A   1      43.160  26.151  27.583  1.00  0.00     0.074 A 
ATOM     49  C   UNL A   1      41.795  25.921  28.007  1.00  0.00     0.031 C 
ATOM     50  C   UNL A   1      44.130  32.319  29.077  1.00  0.00     0.029 A 
ATOM     51  C   UNL A   1      45.093  31.373  28.522  1.00  0.00     0.049 A 
ATOM     52  H   UNL A   1      44.766  29.375  28.029  1.00  0.00     0.167 HD
ATOM     53  C   UNL A   1      43.959  25.201  27.038  1.00  0.00     0.031 A 
ATOM     54  C   UNL A   1      46.379  31.654  28.236  1.00  0.00     0.031 A 
ATOM     55  C   UNL A   1      45.320  25.431  26.622  1.00  0.00     0.049 A 
ATOM     56  C   UNL A   1      47.252  30.581  27.649  1.00  0.00     0.074 A 
ATOM     57  C   UNL A   1      46.191  24.551  26.002  1.00  0.00     0.029 A 
ATOM     58  N   UNL A   1      46.012  26.621  26.795  1.00  0.00    -0.354 N 
ATOM     59  N   UNL A   1      46.945  29.342  27.346  1.00  0.00    -0.248 NA
ATOM     60  C   UNL A   1      48.644  30.949  27.355  1.00  0.00     0.031 C 
ATOM     61  C   UNL A   1      47.429  25.188  25.860  1.00  0.00     0.029 A 
ATOM     62  C   UNL A   1      47.310  26.486  26.328  1.00  0.00     0.049 A 
ATOM     63  H   UNL A   1      45.636  27.440  27.190  1.00  0.00     0.167 HD
ATOM     64  C   UNL A   1      48.099  28.789  26.805  1.00  0.00     0.074 A 
ATOM     65  C   UNL A   1      49.104  29.834  26.803  1.00  0.00     0.031 C 
ATOM     66  C   UNL A   1      48.309  27.528  26.349  1.00  0.00     0.031 A 
BRANCH  53  67
ATOM     67  C   UNL A   1      43.384  23.815  26.881  1.00  0.00    -0.014 A 
ATOM     68  C   UNL A   1      42.872  23.370  25.648  1.00  0.00     0.010 A 
ATOM     69  C   UNL A   1      43.375  22.934  27.978  1.00  0.00     0.010 A 
ATOM     70  C   UNL A   1      42.311  22.096  25.529  1.00  0.00     0.020 A 
ATOM     71  C   UNL A   1      42.844  21.646  27.857  1.00  0.00     0.020 A 
ATOM     72  C   UNL A   1      42.295  21.243  26.638  1.00  0.00     0.054 A 
BRANCH  72  73
ATOM     73  S   UNL A   1      41.557  19.596  26.457  1.00  0.00     0.124 S 
ATOM     74  O   UNL A   1      42.220  19.102  25.252  1.00  0.00    -0.237 OA
ATOM     75  O   UNL A   1      41.941  18.934  27.701  1.00  0.00    -0.237 OA
ATOM     76  O   UNL A   1      40.130  19.869  26.314  1.00  0.00    -0.744 OA
ENDBRANCH  72  73
ENDBRANCH  53  67
BRANCH  54  77
ATOM     77  C   UNL A   1      46.905  33.026  28.478  1.00  0.00    -0.014 A 
ATOM     78  C   UNL A   1      46.837  34.003  27.468  1.00  0.00     0.010 A 
ATOM     79  C   UNL A   1      47.444  33.375  29.730  1.00  0.00     0.010 A 
ATOM     80  C   UNL A   1      47.303  35.300  27.704  1.00  0.00     0.020 A 
ATOM     81  C   UNL A   1      47.884  34.677  29.979  1.00  0.00     0.020 A 
ATOM     82  C   UNL A   1      47.816  35.631  28.961  1.00  0.00     0.054 A 
BRANCH  82  83
ATOM     83  S   UNL A   1      48.344  37.340  29.266  1.00  0.00     0.124 S 
ATOM     84  O   UNL A   1      47.984  37.998  28.015  1.00  0.00    -0.237 OA
ATOM     85  O   UNL A   1      47.544  37.711  30.431  1.00  0.00    -0.237 OA
ATOM     86  O   UNL A   1      49.777  37.215  29.520  1.00  0.00    -0.744 OA
ENDBRANCH  82  83
ENDBRANCH  54  77
BRANCH  66  87
ATOM     87  C   UNL A   1      49.673  27.213  25.792  1.00  0.00    -0.014 A 
ATOM     88  C   UNL A   1      49.970  27.409  24.431  1.00  0.00     0.010 A 
ATOM     89  C   UNL A   1      50.684  26.744  26.651  1.00  0.00     0.010 A 
ATOM     90  C   UNL A   1      51.239  27.103  23.932  1.00  0.00     0.020 A 
ATOM     91  C   UNL A   1      51.963  26.466  26.162  1.00  0.00     0.020 A 
ATOM     92  C   UNL A   1      52.227  26.631  24.801  1.00  0.00     0.054 A 
BRANCH  92  93
ATOM     93  S   UNL A   1      53.874  26.266  24.134  1.00  0.00     0.124 S 
ATOM     94  O   UNL A   1      54.187  24.993  24.777  1.00  0.00    -0.237 OA
ATOM     95  O   UNL A   1      53.629  26.201  22.695  1.00  0.00    -0.237 OA
ATOM     96  O   UNL A   1      54.685  27.401  24.570  1.00  0.00    -0.744 OA
ENDBRANCH  92  93
ENDBRANCH  66  87
ENDBRANCH  40  41
ENDBRANCH  32  35
ENDBRANCH  30  31
ENDBRANCH  29  30
ENDBRANCH  28  29
ENDBRANCH   1  28
TORSDOF 20
ENDMDL
MODEL 3
REMARK VINA RESULT:     -10.9      0.887      2.315
REMARK SMILES O=C(CNc1nc(-c2ccccc2)c(-c2ccccc2)s1)NCCCCCCNC(=O)c1ccc(-c2c3nc(c(-c4ccc(S(=O)(=O)[O-])cc4)c4ccc([nH]4)c(-c4ccc(S(=O)(=O)[O-])cc4)c4nc(c(-c5ccc(S(=O)(=O)[O-])cc5)c5ccc2[nH]5)C=C4)C=C3)cc1
REMARK SMILES IDX 25 1 24 2 23 3 22 4 1 5 2 6 3 8 4 9 5 11 6 12 21 13 7 14
REMARK SMILES IDX 14 15 8 16 9 17 13 18 10 19 12 20 11 21 15 22 16 23 20 24
REMARK SMILES IDX 17 25 19 26 18 27 26 28 27 29 28 30 29 31 30 32 31 34 32 35
REMARK SMILES IDX 33 36 91 37 34 38 90 39 35 40 36 41 37 42 84 43 38 44 89 45
REMARK SMILES IDX 83 46 85 47 39 48 88 49 82 50 81 51 40 53 70 54 51 55 69 56
REMARK SMILES IDX 52 57 55 58 68 59 86 60 53 61 54 62 67 64 87 65 56 66 41 67
REMARK SMILES IDX 42 68 50 69 43 70 49 71 44 72 45 73 46 74 47 75 48 76 71 77
REMARK SMILES IDX 72 78 80 79 73 80 79 81 74 82 75 83 76 84 77 85 78 86 57 87
REMARK SMILES IDX 58 88 66 89 59 90 65 91 60 92 61 93 62 94 63 95 64 96
REMARK H PARENT 22 7 4 10 29 33 85 52 55 63
REMARK Flexibility Score: inf
ROOT
ATOM      1  C   UNL A   1      33.800  28.697  26.687  1.00  0.00     0.002 C 
ENDROOT
BRANCH   1   2
ATOM      2  C   UNL A   1      33.092  29.394  25.515  1.00  0.00     0.021 C 
BRANCH   2   3
ATOM      3  C   UNL A   1      31.566  29.327  25.556  1.00  0.00     0.116 C 
BRANCH   3   4
ATOM      4  N   UNL A   1      31.059  28.179  24.837  1.00  0.00    -0.355 N 
ATOM      5  O   UNL A   1      30.894  26.735  26.626  1.00  0.00    -0.273 OA
ATOM      6  C   UNL A   1      30.755  26.967  25.430  1.00  0.00     0.239 C 
ATOM      7  H   UNL A   1      30.922  28.265  23.866  1.00  0.00     0.163 HD
BRANCH   6   8
ATOM      8  C   UNL A   1      30.263  25.909  24.427  1.00  0.00     0.215 C 
BRANCH   8   9
ATOM      9  N   UNL A   1      30.261  24.600  25.067  1.00  0.00    -0.352 N 
ATOM     10  H   UNL A   1      29.511  24.356  25.657  1.00  0.00     0.163 HD
BRANCH   9  11
ATOM     11  C   UNL A   1      31.254  23.714  24.876  1.00  0.00     0.184 A 
ATOM     12  N   UNL A   1      31.112  22.419  24.724  1.00  0.00    -0.220 NA
ATOM     13  S   UNL A   1      32.878  24.281  24.858  1.00  0.00    -0.096 S 
ATOM     14  C   UNL A   1      32.357  21.816  24.616  1.00  0.00     0.091 A 
ATOM     15  C   UNL A   1      33.444  22.671  24.717  1.00  0.00     0.064 A 
BRANCH  14  16
ATOM     16  C   UNL A   1      32.490  20.387  24.374  1.00  0.00     0.002 A 
ATOM     17  C   UNL A   1      32.245  19.844  23.105  1.00  0.00     0.010 A 
ATOM     18  C   UNL A   1      32.779  19.531  25.443  1.00  0.00     0.010 A 
ATOM     19  C   UNL A   1      32.246  18.460  22.920  1.00  0.00     0.001 A 
ATOM     20  C   UNL A   1      32.775  18.147  25.255  1.00  0.00     0.001 A 
ATOM     21  C   UNL A   1      32.501  17.612  23.997  1.00  0.00     0.000 A 
ENDBRANCH  14  16
BRANCH  15  22
ATOM     22  C   UNL A   1      34.882  22.406  24.683  1.00  0.00    -0.006 A 
ATOM     23  C   UNL A   1      35.641  22.755  23.557  1.00  0.00     0.009 A 
ATOM     24  C   UNL A   1      35.531  21.858  25.798  1.00  0.00     0.009 A 
ATOM     25  C   UNL A   1      37.023  22.563  23.548  1.00  0.00     0.001 A 
ATOM     26  C   UNL A   1      36.913  21.667  25.787  1.00  0.00     0.001 A 
ATOM     27  C   UNL A   1      37.658  22.020  24.663  1.00  0.00     0.000 A 
ENDBRANCH  15  22
ENDBRANCH   9  11
ENDBRANCH   8   9
ENDBRANCH   6   8
ENDBRANCH   3   4
ENDBRANCH   2   3
ENDBRANCH   1   2
BRANCH   1  28
ATOM     28  C   UNL A   1      34.904  29.511  27.371  1.00  0.00     0.002 C 
BRANCH  28  29
ATOM     29  C   UNL A   1      34.544  30.961  27.701  1.00  0.00     0.021 C 
BRANCH  29  30
ATOM     30  C   UNL A   1      35.550  31.700  28.581  1.00  0.00     0.116 C 
BRANCH  30  31
ATOM     31  N   UNL A   1      35.433  31.342  29.986  1.00  0.00    -0.352 N 
ATOM     32  C   UNL A   1      36.334  30.718  30.813  1.00  0.00     0.251 C 
ATOM     33  H   UNL A   1      34.577  31.585  30.409  1.00  0.00     0.163 HD
ATOM     34  O   UNL A   1      35.977  30.354  31.934  1.00  0.00    -0.269 OA
BRANCH  32  35
ATOM     35  C   UNL A   1      37.719  30.455  30.360  1.00  0.00     0.039 A 
ATOM     36  C   UNL A   1      38.718  30.271  31.320  1.00  0.00     0.014 A 
ATOM     37  C   UNL A   1      38.042  30.401  29.000  1.00  0.00     0.014 A 
ATOM     38  C   UNL A   1      40.022  29.966  30.918  1.00  0.00     0.010 A 
ATOM     39  C   UNL A   1      39.325  30.025  28.603  1.00  0.00     0.010 A 
ATOM     40  C   UNL A   1      40.329  29.800  29.557  1.00  0.00    -0.014 A 
BRANCH  40  41
ATOM     41  C   UNL A   1      41.683  29.357  29.128  1.00  0.00     0.031 A 
ATOM     42  C   UNL A   1      42.841  30.317  29.114  1.00  0.00     0.074 A 
ATOM     43  C   UNL A   1      41.857  28.091  28.699  1.00  0.00     0.049 A 
ATOM     44  N   UNL A   1      44.087  30.100  28.775  1.00  0.00    -0.248 NA
ATOM     45  C   UNL A   1      42.563  31.706  29.514  1.00  0.00     0.031 C 
ATOM     46  C   UNL A   1      40.805  27.074  28.618  1.00  0.00     0.029 A 
ATOM     47  N   UNL A   1      42.980  27.441  28.253  1.00  0.00    -0.354 N 
ATOM     48  C   UNL A   1      44.737  31.322  28.907  1.00  0.00     0.074 A 
ATOM     49  C   UNL A   1      43.736  32.287  29.308  1.00  0.00     0.031 C 
ATOM     50  C   UNL A   1      41.342  25.919  28.193  1.00  0.00     0.029 A 
ATOM     51  C   UNL A   1      42.763  26.122  27.928  1.00  0.00     0.049 A 
ATOM     52  H   UNL A   1      43.860  27.877  28.174  1.00  0.00     0.167 HD
ATOM     53  C   UNL A   1      46.049  31.613  28.726  1.00  0.00     0.031 A 
ATOM     54  C   UNL A   1      43.608  25.178  27.470  1.00  0.00     0.031 A 
ATOM     55  C   UNL A   1      47.042  30.650  28.321  1.00  0.00     0.049 A 
ATOM     56  C   UNL A   1      45.055  25.528  27.261  1.00  0.00     0.074 A 
ATOM     57  C   UNL A   1      48.406  30.832  28.173  1.00  0.00     0.029 A 
ATOM     58  N   UNL A   1      46.777  29.330  27.988  1.00  0.00    -0.354 N 
ATOM     59  N   UNL A   1      45.666  26.669  27.470  1.00  0.00    -0.248 NA
ATOM     60  C   UNL A   1      45.927  24.456  26.763  1.00  0.00     0.031 C 
ATOM     61  C   UNL A   1      48.956  29.641  27.686  1.00  0.00     0.029 A 
ATOM     62  C   UNL A   1      47.947  28.696  27.598  1.00  0.00     0.049 A 
ATOM     63  H   UNL A   1      45.890  28.905  28.023  1.00  0.00     0.167 HD
ATOM     64  C   UNL A   1      47.000  26.448  27.151  1.00  0.00     0.074 A 
ATOM     65  C   UNL A   1      47.110  25.057  26.755  1.00  0.00     0.031 C 
ATOM     66  C   UNL A   1      48.042  27.316  27.186  1.00  0.00     0.031 A 
BRANCH  53  67
ATOM     67  C   UNL A   1      46.480  33.041  28.947  1.00  0.00    -0.014 A 
ATOM     68  C   UNL A   1      46.486  33.975  27.894  1.00  0.00     0.010 A 
ATOM     69  C   UNL A   1      46.866  33.464  30.233  1.00  0.00     0.010 A 
ATOM     70  C   UNL A   1      46.923  35.285  28.109  1.00  0.00     0.020 A 
ATOM     71  C   UNL A   1      47.273  34.783  30.460  1.00  0.00     0.020 A 
ATOM     72  C   UNL A   1      47.321  35.679  29.391  1.00  0.00     0.054 A 
BRANCH  72  73
ATOM     73  S   UNL A   1      47.886  37.385  29.640  1.00  0.00     0.124 S 
ATOM     74  O   UNL A   1      48.818  37.232  30.754  1.00  0.00    -0.237 OA
ATOM     75  O   UNL A   1      48.494  37.712  28.353  1.00  0.00    -0.237 OA
ATOM     76  O   UNL A   1      46.660  38.115  29.950  1.00  0.00    -0.744 OA
ENDBRANCH  72  73
ENDBRANCH  53  67
BRANCH  54  77
ATOM     77  C   UNL A   1      43.104  23.802  27.206  1.00  0.00    -0.014 A 
ATOM     78  C   UNL A   1      42.740  23.415  25.905  1.00  0.00     0.010 A 
ATOM     79  C   UNL A   1      43.020  22.860  28.248  1.00  0.00     0.010 A 
ATOM     80  C   UNL A   1      42.295  22.114  25.650  1.00  0.00     0.020 A 
ATOM     81  C   UNL A   1      42.603  21.551  27.993  1.00  0.00     0.020 A 
ATOM     82  C   UNL A   1      42.237  21.188  26.695  1.00  0.00     0.054 A 
BRANCH  82  83
ATOM     83  S   UNL A   1      41.730  19.485  26.325  1.00  0.00     0.124 S 
ATOM     84  O   UNL A   1      42.163  18.772  27.522  1.00  0.00    -0.237 OA
ATOM     85  O   UNL A   1      40.286  19.619  26.155  1.00  0.00    -0.237 OA
ATOM     86  O   UNL A   1      42.465  19.167  25.104  1.00  0.00    -0.744 OA
ENDBRANCH  82  83
ENDBRANCH  54  77
BRANCH  66  87
ATOM     87  C   UNL A   1      49.398  26.784  26.799  1.00  0.00    -0.014 A 
ATOM     88  C   UNL A   1      49.826  26.779  25.460  1.00  0.00     0.010 A 
ATOM     89  C   UNL A   1      50.270  26.311  27.797  1.00  0.00     0.010 A 
ATOM     90  C   UNL A   1      51.085  26.274  25.121  1.00  0.00     0.020 A 
ATOM     91  C   UNL A   1      51.541  25.834  27.466  1.00  0.00     0.020 A 
ATOM     92  C   UNL A   1      51.934  25.802  26.127  1.00  0.00     0.054 A 
BRANCH  92  93
ATOM     93  S   UNL A   1      53.572  25.176  25.664  1.00  0.00     0.124 S 
ATOM     94  O   UNL A   1      53.267  23.811  25.244  1.00  0.00    -0.237 OA
ATOM     95  O   UNL A   1      53.973  26.088  24.597  1.00  0.00    -0.237 OA
ATOM     96  O   UNL A   1      54.348  25.290  26.897  1.00  0.00    -0.744 OA
ENDBRANCH  92  93
ENDBRANCH  66  87
ENDBRANCH  40  41
ENDBRANCH  32  35
ENDBRANCH  30  31
ENDBRANCH  29  30
ENDBRANCH  28  29
ENDBRANCH   1  28
TORSDOF 20
ENDMDL
