MODEL 1
REMARK VINA RESULT:     -11.3      0.000      0.000
REMARK SMILES COc1ccc(F)cc1[C@H](C)NC(=O)[C@H]1CC=CC[C@@H]1C(=O)NCCCCCCNC(=O)c1ccc(-c2c3nc(c(-c4ccc(S(=O)(=O)[O-])cc4)c4ccc([nH]4)c(-c4ccc(S(=O)(=O)[O-])cc4)c4nc(c(-c5ccc(S(=O)(=O)[O-])cc5)c5ccc2[nH]5)C=C4)C=C3)cc1
REMARK SMILES IDX 26 1 25 2 24 3 23 4 21 5 22 6 20 8 15 9 16 10 17 11 19 12
REMARK SMILES IDX 18 13 13 14 12 15 14 17 10 18 11 19 9 20 3 21 4 22 5 23 8 24
REMARK SMILES IDX 6 25 7 26 2 27 1 28 27 29 28 30 29 31 30 32 31 33 32 35
REMARK SMILES IDX 33 36 34 37 92 38 35 39 91 40 36 41 37 42 38 43 85 44 39 45
REMARK SMILES IDX 90 46 84 47 86 48 40 49 89 50 83 51 82 52 41 54 71 55 52 56
REMARK SMILES IDX 70 57 53 58 56 59 69 60 87 61 54 62 55 63 68 65 88 66 57 67
REMARK SMILES IDX 42 68 43 69 51 70 44 71 50 72 45 73 46 74 47 75 48 76 49 77
REMARK SMILES IDX 72 78 73 79 81 80 74 81 80 82 75 83 76 84 77 85 78 86 79 87
REMARK SMILES IDX 58 88 59 89 67 90 60 91 66 92 61 93 62 94 63 95 64 96 65 97
REMARK H PARENT 23 7 12 16 30 34 86 53 56 64
REMARK Flexibility Score: inf
ROOT
ATOM      1  C   UNL A   1      37.314  22.184  25.752  1.00  0.00     0.002 C 
ENDROOT
BRANCH   1   2
ATOM      2  C   UNL A   1      36.996  23.540  25.114  1.00  0.00     0.021 C 
BRANCH   2   3
ATOM      3  C   UNL A   1      35.731  24.191  25.663  1.00  0.00     0.116 C 
BRANCH   3   4
ATOM      4  N   UNL A   1      35.015  24.868  24.595  1.00  0.00    -0.356 N 
ATOM      5  C   UNL A   1      33.704  25.227  24.518  1.00  0.00     0.224 C 
ATOM      6  O   UNL A   1      33.282  25.683  23.457  1.00  0.00    -0.275 OA
ATOM      7  H   UNL A   1      35.561  25.105  23.810  1.00  0.00     0.163 HD
BRANCH   5   8
ATOM      8  C   UNL A   1      32.862  25.166  25.783  1.00  0.00     0.095 C 
ATOM      9  C   UNL A   1      31.587  24.335  25.539  1.00  0.00     0.095 C 
ATOM     10  C   UNL A   1      30.379  25.127  25.041  1.00  0.00     0.041 C 
ATOM     11  C   UNL A   1      30.283  26.529  25.551  1.00  0.00    -0.030 C 
ATOM     12  C   UNL A   1      32.690  26.637  26.225  1.00  0.00     0.041 C 
ATOM     13  C   UNL A   1      31.310  27.199  26.084  1.00  0.00    -0.030 C 
BRANCH   9  14
ATOM     14  C   UNL A   1      31.204  23.298  26.612  1.00  0.00     0.224 C 
ATOM     15  N   UNL A   1      31.920  22.188  26.918  1.00  0.00    -0.349 N 
ATOM     16  H   UNL A   1      31.496  21.606  27.589  1.00  0.00     0.164 HD
ATOM     17  O   UNL A   1      30.184  23.483  27.290  1.00  0.00    -0.275 OA
BRANCH  15  18
ATOM     18  C   UNL A   1      33.201  21.701  26.434  1.00  0.00     0.113 C 
ATOM     19  C   UNL A   1      34.151  21.507  27.613  1.00  0.00     0.036 C 
BRANCH  18  20
ATOM     20  C   UNL A   1      33.037  20.601  25.387  1.00  0.00     0.019 A 
ATOM     21  C   UNL A   1      32.767  20.820  24.024  1.00  0.00     0.124 A 
ATOM     22  C   UNL A   1      32.452  19.751  23.166  1.00  0.00     0.050 A 
ATOM     23  C   UNL A   1      32.352  18.451  23.657  1.00  0.00     0.043 A 
ATOM     24  C   UNL A   1      32.983  19.263  25.839  1.00  0.00     0.049 A 
ATOM     25  C   UNL A   1      32.627  18.218  24.992  1.00  0.00     0.123 A 
ATOM     26  F   UNL A   1      32.525  16.978  25.487  1.00  0.00    -0.207 F 
BRANCH  21  27
ATOM     27  O   UNL A   1      32.885  22.084  23.510  1.00  0.00    -0.496 OA
ATOM     28  C   UNL A   1      32.479  22.167  22.144  1.00  0.00     0.278 C 
ENDBRANCH  21  27
ENDBRANCH  18  20
ENDBRANCH  15  18
ENDBRANCH   9  14
ENDBRANCH   5   8
ENDBRANCH   3   4
ENDBRANCH   2   3
ENDBRANCH   1   2
BRANCH   1  29
ATOM     29  C   UNL A   1      37.123  20.985  24.820  1.00  0.00     0.002 C 
BRANCH  29  30
ATOM     30  C   UNL A   1      38.167  19.880  24.984  1.00  0.00     0.021 C 
BRANCH  30  31
ATOM     31  C   UNL A   1      39.418  20.307  25.744  1.00  0.00     0.116 C 
BRANCH  31  32
ATOM     32  N   UNL A   1      40.343  19.199  25.938  1.00  0.00    -0.352 N 
ATOM     33  C   UNL A   1      41.696  19.240  26.154  1.00  0.00     0.251 C 
ATOM     34  H   UNL A   1      39.942  18.300  25.910  1.00  0.00     0.163 HD
ATOM     35  O   UNL A   1      42.363  18.209  26.101  1.00  0.00    -0.269 OA
BRANCH  33  36
ATOM     36  C   UNL A   1      42.343  20.537  26.427  1.00  0.00     0.039 A 
ATOM     37  C   UNL A   1      42.922  21.243  25.371  1.00  0.00     0.014 A 
ATOM     38  C   UNL A   1      42.357  21.062  27.723  1.00  0.00     0.014 A 
ATOM     39  C   UNL A   1      43.466  22.506  25.606  1.00  0.00     0.010 A 
ATOM     40  C   UNL A   1      42.833  22.350  27.941  1.00  0.00     0.010 A 
ATOM     41  C   UNL A   1      43.397  23.083  26.886  1.00  0.00    -0.014 A 
BRANCH  41  42
ATOM     42  C   UNL A   1      43.911  24.452  27.141  1.00  0.00     0.031 A 
ATOM     43  C   UNL A   1      42.964  25.549  27.549  1.00  0.00     0.074 A 
ATOM     44  C   UNL A   1      45.218  24.721  26.945  1.00  0.00     0.049 A 
ATOM     45  N   UNL A   1      43.212  26.816  27.755  1.00  0.00    -0.248 NA
ATOM     46  C   UNL A   1      41.550  25.177  27.728  1.00  0.00     0.031 C 
ATOM     47  C   UNL A   1      46.228  23.752  26.510  1.00  0.00     0.029 A 
ATOM     48  N   UNL A   1      45.921  25.893  27.078  1.00  0.00    -0.354 N 
ATOM     49  C   UNL A   1      41.988  27.395  28.068  1.00  0.00     0.074 A 
ATOM     50  C   UNL A   1      40.990  26.353  27.979  1.00  0.00     0.031 C 
ATOM     51  C   UNL A   1      47.422  24.363  26.437  1.00  0.00     0.029 A 
ATOM     52  C   UNL A   1      47.257  25.774  26.773  1.00  0.00     0.049 A 
ATOM     53  H   UNL A   1      45.507  26.739  27.364  1.00  0.00     0.167 HD
ATOM     54  C   UNL A   1      41.721  28.676  28.417  1.00  0.00     0.031 A 
ATOM     55  C   UNL A   1      48.237  26.698  26.755  1.00  0.00     0.031 A 
ATOM     56  C   UNL A   1      42.721  29.707  28.519  1.00  0.00     0.049 A 
ATOM     57  C   UNL A   1      47.911  28.118  27.134  1.00  0.00     0.074 A 
ATOM     58  C   UNL A   1      42.560  31.020  28.922  1.00  0.00     0.029 A 
ATOM     59  N   UNL A   1      44.063  29.542  28.215  1.00  0.00    -0.354 N 
ATOM     60  N   UNL A   1      46.758  28.629  27.496  1.00  0.00    -0.248 NA
ATOM     61  C   UNL A   1      49.019  29.083  27.115  1.00  0.00     0.031 C 
ATOM     62  C   UNL A   1      43.794  31.666  28.807  1.00  0.00     0.029 A 
ATOM     63  C   UNL A   1      44.737  30.737  28.396  1.00  0.00     0.049 A 
ATOM     64  H   UNL A   1      44.476  28.700  27.916  1.00  0.00     0.167 HD
ATOM     65  C   UNL A   1      47.011  29.967  27.779  1.00  0.00     0.074 A 
ATOM     66  C   UNL A   1      48.426  30.181  27.560  1.00  0.00     0.031 C 
ATOM     67  C   UNL A   1      46.148  30.933  28.182  1.00  0.00     0.031 A 
BRANCH  54  68
ATOM     68  C   UNL A   1      40.291  29.041  28.714  1.00  0.00    -0.014 A 
ATOM     69  C   UNL A   1      39.830  29.160  30.037  1.00  0.00     0.010 A 
ATOM     70  C   UNL A   1      39.411  29.334  27.656  1.00  0.00     0.010 A 
ATOM     71  C   UNL A   1      38.511  29.539  30.297  1.00  0.00     0.020 A 
ATOM     72  C   UNL A   1      38.098  29.741  27.910  1.00  0.00     0.020 A 
ATOM     73  C   UNL A   1      37.653  29.830  29.230  1.00  0.00     0.054 A 
BRANCH  73  74
ATOM     74  S   UNL A   1      35.960  30.365  29.600  1.00  0.00     0.124 S 
ATOM     75  O   UNL A   1      35.710  29.708  30.881  1.00  0.00    -0.237 OA
ATOM     76  O   UNL A   1      36.090  31.819  29.655  1.00  0.00    -0.237 OA
ATOM     77  O   UNL A   1      35.181  29.853  28.477  1.00  0.00    -0.744 OA
ENDBRANCH  73  74
ENDBRANCH  54  68
BRANCH  55  78
ATOM     78  C   UNL A   1      49.622  26.314  26.361  1.00  0.00    -0.014 A 
ATOM     79  C   UNL A   1      50.066  26.483  25.038  1.00  0.00     0.010 A 
ATOM     80  C   UNL A   1      50.503  25.764  27.310  1.00  0.00     0.010 A 
ATOM     81  C   UNL A   1      51.351  26.081  24.664  1.00  0.00     0.020 A 
ATOM     82  C   UNL A   1      51.799  25.389  26.949  1.00  0.00     0.020 A 
ATOM     83  C   UNL A   1      52.210  25.535  25.623  1.00  0.00     0.054 A 
BRANCH  83  84
ATOM     84  S   UNL A   1      53.884  25.044  25.123  1.00  0.00     0.124 S 
ATOM     85  O   UNL A   1      54.062  25.795  23.884  1.00  0.00    -0.237 OA
ATOM     86  O   UNL A   1      54.694  25.487  26.255  1.00  0.00    -0.237 OA
ATOM     87  O   UNL A   1      53.781  23.595  24.968  1.00  0.00    -0.744 OA
ENDBRANCH  83  84
ENDBRANCH  55  78
BRANCH  67  88
ATOM     88  C   UNL A   1      46.714  32.300  28.460  1.00  0.00    -0.014 A 
ATOM     89  C   UNL A   1      47.223  32.640  29.725  1.00  0.00     0.010 A 
ATOM     90  C   UNL A   1      46.793  33.239  27.414  1.00  0.00     0.010 A 
ATOM     91  C   UNL A   1      47.772  33.905  29.949  1.00  0.00     0.020 A 
ATOM     92  C   UNL A   1      47.370  34.494  27.625  1.00  0.00     0.020 A 
ATOM     93  C   UNL A   1      47.844  34.823  28.896  1.00  0.00     0.054 A 
BRANCH  93  94
ATOM     94  S   UNL A   1      48.605  36.441  29.199  1.00  0.00     0.124 S 
ATOM     95  O   UNL A   1      49.905  36.292  28.551  1.00  0.00    -0.237 OA
ATOM     96  O   UNL A   1      47.678  37.359  28.543  1.00  0.00    -0.237 OA
ATOM     97  O   UNL A   1      48.644  36.540  30.657  1.00  0.00    -0.744 OA
ENDBRANCH  93  94
ENDBRANCH  67  88
ENDBRANCH  41  42
ENDBRANCH  33  36
ENDBRANCH  31  32
ENDBRANCH  30  31
ENDBRANCH  29  30
ENDBRANCH   1  29
TORSDOF 20
ENDMDL
MODEL 2
REMARK VINA RESULT:     -11.2      4.056      9.325
REMARK SMILES COc1ccc(F)cc1[C@H](C)NC(=O)[C@H]1CC=CC[C@@H]1C(=O)NCCCCCCNC(=O)c1ccc(-c2c3nc(c(-c4ccc(S(=O)(=O)[O-])cc4)c4ccc([nH]4)c(-c4ccc(S(=O)(=O)[O-])cc4)c4nc(c(-c5ccc(S(=O)(=O)[O-])cc5)c5ccc2[nH]5)C=C4)C=C3)cc1
REMARK SMILES IDX 26 1 25 2 24 3 23 4 21 5 22 6 20 8 15 9 16 10 17 11 19 12
REMARK SMILES IDX 18 13 13 14 12 15 14 17 10 18 11 19 9 20 3 21 4 22 5 23 8 24
REMARK SMILES IDX 6 25 7 26 2 27 1 28 27 29 28 30 29 31 30 32 31 33 32 35
REMARK SMILES IDX 33 36 34 37 92 38 35 39 91 40 36 41 37 42 38 43 85 44 39 45
REMARK SMILES IDX 90 46 84 47 86 48 40 49 89 50 83 51 82 52 41 54 71 55 52 56
REMARK SMILES IDX 70 57 53 58 56 59 69 60 87 61 54 62 55 63 68 65 88 66 57 67
REMARK SMILES IDX 42 68 43 69 51 70 44 71 50 72 45 73 46 74 47 75 48 76 49 77
REMARK SMILES IDX 72 78 73 79 81 80 74 81 80 82 75 83 76 84 77 85 78 86 79 87
REMARK SMILES IDX 58 88 59 89 67 90 60 91 66 92 61 93 62 94 63 95 64 96 65 97
REMARK H PARENT 23 7 12 16 30 34 86 53 56 64
REMARK Flexibility Score: inf
ROOT
ATOM      1  C   UNL A   1      34.241  22.379  22.908  1.00  0.00     0.002 C 
ENDROOT
BRANCH   1   2
ATOM      2  C   UNL A   1      32.817  22.302  23.468  1.00  0.00     0.021 C 
BRANCH   2   3
ATOM      3  C   UNL A   1      31.828  23.212  22.748  1.00  0.00     0.116 C 
BRANCH   3   4
ATOM      4  N   UNL A   1      32.533  24.086  21.827  1.00  0.00    -0.356 N 
ATOM      5  C   UNL A   1      32.662  25.442  21.841  1.00  0.00     0.224 C 
ATOM      6  O   UNL A   1      33.203  25.989  20.882  1.00  0.00    -0.275 OA
ATOM      7  H   UNL A   1      32.986  23.630  21.081  1.00  0.00     0.163 HD
BRANCH   5   8
ATOM      8  C   UNL A   1      32.250  26.194  23.097  1.00  0.00     0.095 C 
ATOM      9  C   UNL A   1      30.795  26.689  22.971  1.00  0.00     0.095 C 
ATOM     10  C   UNL A   1      30.631  28.077  22.354  1.00  0.00     0.041 C 
ATOM     11  C   UNL A   1      31.736  29.040  22.650  1.00  0.00    -0.030 C 
ATOM     12  C   UNL A   1      33.355  27.252  23.314  1.00  0.00     0.041 C 
ATOM     13  C   UNL A   1      32.946  28.674  23.084  1.00  0.00    -0.030 C 
BRANCH   9  14
ATOM     14  C   UNL A   1      29.869  26.475  24.183  1.00  0.00     0.224 C 
ATOM     15  N   UNL A   1      30.284  26.286  25.460  1.00  0.00    -0.349 N 
ATOM     16  H   UNL A   1      29.557  26.106  26.098  1.00  0.00     0.164 HD
ATOM     17  O   UNL A   1      28.643  26.508  24.016  1.00  0.00    -0.275 OA
BRANCH  15  18
ATOM     18  C   UNL A   1      31.609  26.299  26.057  1.00  0.00     0.113 C 
ATOM     19  C   UNL A   1      31.688  27.412  27.099  1.00  0.00     0.036 C 
BRANCH  18  20
ATOM     20  C   UNL A   1      32.100  24.892  26.394  1.00  0.00     0.019 A 
ATOM     21  C   UNL A   1      31.289  23.852  26.882  1.00  0.00     0.124 A 
ATOM     22  C   UNL A   1      31.852  22.646  27.337  1.00  0.00     0.050 A 
ATOM     23  C   UNL A   1      33.234  22.471  27.360  1.00  0.00     0.043 A 
ATOM     24  C   UNL A   1      33.494  24.659  26.377  1.00  0.00     0.049 A 
ATOM     25  C   UNL A   1      34.044  23.480  26.871  1.00  0.00     0.123 A 
ATOM     26  F   UNL A   1      35.375  23.337  26.895  1.00  0.00    -0.207 F 
BRANCH  21  27
ATOM     27  O   UNL A   1      29.928  23.988  26.846  1.00  0.00    -0.496 OA
ATOM     28  C   UNL A   1      29.241  22.808  27.263  1.00  0.00     0.278 C 
ENDBRANCH  21  27
ENDBRANCH  18  20
ENDBRANCH  15  18
ENDBRANCH   9  14
ENDBRANCH   5   8
ENDBRANCH   3   4
ENDBRANCH   2   3
ENDBRANCH   1   2
BRANCH   1  29
ATOM     29  C   UNL A   1      35.342  22.349  23.971  1.00  0.00     0.002 C 
BRANCH  29  30
ATOM     30  C   UNL A   1      36.567  23.202  23.640  1.00  0.00     0.021 C 
BRANCH  30  31
ATOM     31  C   UNL A   1      37.330  23.705  24.860  1.00  0.00     0.116 C 
BRANCH  31  32
ATOM     32  N   UNL A   1      38.155  22.663  25.454  1.00  0.00    -0.352 N 
ATOM     33  C   UNL A   1      39.222  22.796  26.305  1.00  0.00     0.251 C 
ATOM     34  H   UNL A   1      37.914  21.740  25.213  1.00  0.00     0.163 HD
ATOM     35  O   UNL A   1      39.934  21.828  26.561  1.00  0.00    -0.269 OA
BRANCH  33  36
ATOM     36  C   UNL A   1      39.517  24.117  26.891  1.00  0.00     0.039 A 
ATOM     37  C   UNL A   1      39.018  24.425  28.158  1.00  0.00     0.014 A 
ATOM     38  C   UNL A   1      40.303  25.041  26.195  1.00  0.00     0.014 A 
ATOM     39  C   UNL A   1      39.357  25.641  28.752  1.00  0.00     0.010 A 
ATOM     40  C   UNL A   1      40.700  26.218  26.819  1.00  0.00     0.010 A 
ATOM     41  C   UNL A   1      40.227  26.533  28.101  1.00  0.00    -0.014 A 
BRANCH  41  42
ATOM     42  C   UNL A   1      40.651  27.801  28.746  1.00  0.00     0.031 A 
ATOM     43  C   UNL A   1      42.022  27.912  29.359  1.00  0.00     0.074 A 
ATOM     44  C   UNL A   1      39.782  28.829  28.833  1.00  0.00     0.049 A 
ATOM     45  N   UNL A   1      42.549  28.911  30.018  1.00  0.00    -0.248 NA
ATOM     46  C   UNL A   1      42.906  26.741  29.235  1.00  0.00     0.031 C 
ATOM     47  C   UNL A   1      38.412  28.828  28.312  1.00  0.00     0.029 A 
ATOM     48  N   UNL A   1      39.920  30.072  29.398  1.00  0.00    -0.354 N 
ATOM     49  C   UNL A   1      43.815  28.484  30.402  1.00  0.00     0.074 A 
ATOM     50  C   UNL A   1      43.960  27.120  29.945  1.00  0.00     0.031 C 
ATOM     51  C   UNL A   1      37.846  30.020  28.561  1.00  0.00     0.029 A 
ATOM     52  C   UNL A   1      38.791  30.853  29.297  1.00  0.00     0.049 A 
ATOM     53  H   UNL A   1      40.748  30.375  29.835  1.00  0.00     0.167 HD
ATOM     54  C   UNL A   1      44.778  29.172  31.060  1.00  0.00     0.031 A 
ATOM     55  C   UNL A   1      38.542  32.095  29.755  1.00  0.00     0.031 A 
ATOM     56  C   UNL A   1      44.635  30.535  31.499  1.00  0.00     0.049 A 
ATOM     57  C   UNL A   1      39.626  32.833  30.494  1.00  0.00     0.074 A 
ATOM     58  C   UNL A   1      45.574  31.339  32.121  1.00  0.00     0.029 A 
ATOM     59  N   UNL A   1      43.482  31.294  31.366  1.00  0.00    -0.354 N 
ATOM     60  N   UNL A   1      40.842  32.436  30.785  1.00  0.00    -0.248 NA
ATOM     61  C   UNL A   1      39.308  34.192  30.958  1.00  0.00     0.031 C 
ATOM     62  C   UNL A   1      44.971  32.565  32.416  1.00  0.00     0.029 A 
ATOM     63  C   UNL A   1      43.679  32.548  31.918  1.00  0.00     0.049 A 
ATOM     64  H   UNL A   1      42.649  30.987  30.941  1.00  0.00     0.167 HD
ATOM     65  C   UNL A   1      41.444  33.507  31.436  1.00  0.00     0.074 A 
ATOM     66  C   UNL A   1      40.464  34.573  31.482  1.00  0.00     0.031 C 
ATOM     67  C   UNL A   1      42.696  33.601  31.949  1.00  0.00     0.031 A 
BRANCH  54  68
ATOM     68  C   UNL A   1      46.076  28.465  31.349  1.00  0.00    -0.014 A 
ATOM     69  C   UNL A   1      46.229  27.666  32.496  1.00  0.00     0.010 A 
ATOM     70  C   UNL A   1      47.135  28.547  30.427  1.00  0.00     0.010 A 
ATOM     71  C   UNL A   1      47.427  26.984  32.730  1.00  0.00     0.020 A 
ATOM     72  C   UNL A   1      48.324  27.844  30.641  1.00  0.00     0.020 A 
ATOM     73  C   UNL A   1      48.466  27.076  31.798  1.00  0.00     0.054 A 
BRANCH  73  74
ATOM     74  S   UNL A   1      49.990  26.142  32.105  1.00  0.00     0.124 S 
ATOM     75  O   UNL A   1      50.954  27.212  32.354  1.00  0.00    -0.237 OA
ATOM     76  O   UNL A   1      49.638  25.331  33.267  1.00  0.00    -0.237 OA
ATOM     77  O   UNL A   1      50.196  25.396  30.867  1.00  0.00    -0.744 OA
ENDBRANCH  73  74
ENDBRANCH  54  68
BRANCH  55  78
ATOM     78  C   UNL A   1      37.210  32.723  29.531  1.00  0.00    -0.014 A 
ATOM     79  C   UNL A   1      36.900  33.331  28.302  1.00  0.00     0.010 A 
ATOM     80  C   UNL A   1      36.245  32.726  30.555  1.00  0.00     0.010 A 
ATOM     81  C   UNL A   1      35.664  33.958  28.112  1.00  0.00     0.020 A 
ATOM     82  C   UNL A   1      34.997  33.323  30.359  1.00  0.00     0.020 A 
ATOM     83  C   UNL A   1      34.720  33.950  29.144  1.00  0.00     0.054 A 
BRANCH  83  84
ATOM     84  S   UNL A   1      33.113  34.745  28.868  1.00  0.00     0.124 S 
ATOM     85  O   UNL A   1      33.506  36.050  28.345  1.00  0.00    -0.237 OA
ATOM     86  O   UNL A   1      32.476  33.844  27.911  1.00  0.00    -0.237 OA
ATOM     87  O   UNL A   1      32.508  34.759  30.198  1.00  0.00    -0.744 OA
ENDBRANCH  83  84
ENDBRANCH  55  78
BRANCH  67  88
ATOM     88  C   UNL A   1      43.098  34.914  32.567  1.00  0.00    -0.014 A 
ATOM     89  C   UNL A   1      43.692  35.933  31.802  1.00  0.00     0.010 A 
ATOM     90  C   UNL A   1      42.817  35.152  33.926  1.00  0.00     0.010 A 
ATOM     91  C   UNL A   1      44.027  37.154  32.392  1.00  0.00     0.020 A 
ATOM     92  C   UNL A   1      43.122  36.383  34.512  1.00  0.00     0.020 A 
ATOM     93  C   UNL A   1      43.738  37.372  33.743  1.00  0.00     0.054 A 
BRANCH  93  94
ATOM     94  S   UNL A   1      44.139  38.983  34.473  1.00  0.00     0.124 S 
ATOM     95  O   UNL A   1      45.462  39.249  33.914  1.00  0.00    -0.237 OA
ATOM     96  O   UNL A   1      43.063  39.836  33.975  1.00  0.00    -0.237 OA
ATOM     97  O   UNL A   1      44.111  38.730  35.911  1.00  0.00    -0.744 OA
ENDBRANCH  93  94
ENDBRANCH  67  88
ENDBRANCH  41  42
ENDBRANCH  33  36
ENDBRANCH  31  32
ENDBRANCH  30  31
ENDBRANCH  29  30
ENDBRANCH   1  29
TORSDOF 20
ENDMDL
MODEL 3
REMARK VINA RESULT:     -11.0      4.361      9.889
REMARK SMILES COc1ccc(F)cc1[C@H](C)NC(=O)[C@H]1CC=CC[C@@H]1C(=O)NCCCCCCNC(=O)c1ccc(-c2c3nc(c(-c4ccc(S(=O)(=O)[O-])cc4)c4ccc([nH]4)c(-c4ccc(S(=O)(=O)[O-])cc4)c4nc(c(-c5ccc(S(=O)(=O)[O-])cc5)c5ccc2[nH]5)C=C4)C=C3)cc1
REMARK SMILES IDX 26 1 25 2 24 3 23 4 21 5 22 6 20 8 15 9 16 10 17 11 19 12
REMARK SMILES IDX 18 13 13 14 12 15 14 17 10 18 11 19 9 20 3 21 4 22 5 23 8 24
REMARK SMILES IDX 6 25 7 26 2 27 1 28 27 29 28 30 29 31 30 32 31 33 32 35
REMARK SMILES IDX 33 36 34 37 92 38 35 39 91 40 36 41 37 42 38 43 85 44 39 45
REMARK SMILES IDX 90 46 84 47 86 48 40 49 89 50 83 51 82 52 41 54 71 55 52 56
REMARK SMILES IDX 70 57 53 58 56 59 69 60 87 61 54 62 55 63 68 65 88 66 57 67
REMARK SMILES IDX 42 68 43 69 51 70 44 71 50 72 45 73 46 74 47 75 48 76 49 77
REMARK SMILES IDX 72 78 73 79 81 80 74 81 80 82 75 83 76 84 77 85 78 86 79 87
REMARK SMILES IDX 58 88 59 89 67 90 60 91 66 92 61 93 62 94 63 95 64 96 65 97
REMARK H PARENT 23 7 12 16 30 34 86 53 56 64
REMARK Flexibility Score: inf
ROOT
ATOM      1  C   UNL A   1      33.700  22.642  24.332  1.00  0.00     0.002 C 
ENDROOT
BRANCH   1   2
ATOM      2  C   UNL A   1      32.629  22.745  23.242  1.00  0.00     0.021 C 
BRANCH   2   3
ATOM      3  C   UNL A   1      31.369  23.477  23.690  1.00  0.00     0.116 C 
BRANCH   3   4
ATOM      4  N   UNL A   1      31.246  23.418  25.137  1.00  0.00    -0.356 N 
ATOM      5  C   UNL A   1      31.346  24.415  26.059  1.00  0.00     0.224 C 
ATOM      6  O   UNL A   1      31.333  24.114  27.251  1.00  0.00    -0.275 OA
ATOM      7  H   UNL A   1      31.061  22.524  25.505  1.00  0.00     0.163 HD
BRANCH   5   8
ATOM      8  C   UNL A   1      31.340  25.855  25.571  1.00  0.00     0.095 C 
ATOM      9  C   UNL A   1      32.659  26.180  24.842  1.00  0.00     0.095 C 
ATOM     10  C   UNL A   1      33.778  26.721  25.731  1.00  0.00     0.041 C 
ATOM     11  C   UNL A   1      33.325  27.555  26.886  1.00  0.00    -0.030 C 
ATOM     12  C   UNL A   1      30.975  26.700  26.812  1.00  0.00     0.041 C 
ATOM     13  C   UNL A   1      32.076  27.551  27.364  1.00  0.00    -0.030 C 
BRANCH   9  14
ATOM     14  C   UNL A   1      32.558  26.937  23.504  1.00  0.00     0.224 C 
ATOM     15  N   UNL A   1      31.932  28.126  23.323  1.00  0.00    -0.349 N 
ATOM     16  H   UNL A   1      31.915  28.435  22.389  1.00  0.00     0.164 HD
ATOM     17  O   UNL A   1      33.111  26.463  22.502  1.00  0.00    -0.275 OA
BRANCH  15  18
ATOM     18  C   UNL A   1      31.283  29.028  24.260  1.00  0.00     0.113 C 
ATOM     19  C   UNL A   1      32.296  30.050  24.769  1.00  0.00     0.036 C 
BRANCH  18  20
ATOM     20  C   UNL A   1      29.913  29.482  23.760  1.00  0.00     0.019 A 
ATOM     21  C   UNL A   1      28.977  28.656  23.114  1.00  0.00     0.124 A 
ATOM     22  C   UNL A   1      27.818  29.195  22.525  1.00  0.00     0.050 A 
ATOM     23  C   UNL A   1      27.593  30.570  22.528  1.00  0.00     0.043 A 
ATOM     24  C   UNL A   1      29.625  30.866  23.794  1.00  0.00     0.049 A 
ATOM     25  C   UNL A   1      28.499  31.394  23.171  1.00  0.00     0.123 A 
ATOM     26  F   UNL A   1      28.308  32.720  23.174  1.00  0.00    -0.207 F 
BRANCH  21  27
ATOM     27  O   UNL A   1      29.159  27.300  23.120  1.00  0.00    -0.496 OA
ATOM     28  C   UNL A   1      28.190  26.613  23.911  1.00  0.00     0.278 C 
ENDBRANCH  21  27
ENDBRANCH  18  20
ENDBRANCH  15  18
ENDBRANCH   9  14
ENDBRANCH   5   8
ENDBRANCH   3   4
ENDBRANCH   2   3
ENDBRANCH   1   2
BRANCH   1  29
ATOM     29  C   UNL A   1      35.138  22.668  23.810  1.00  0.00     0.002 C 
BRANCH  29  30
ATOM     30  C   UNL A   1      36.010  23.776  24.404  1.00  0.00     0.021 C 
BRANCH  30  31
ATOM     31  C   UNL A   1      36.477  23.510  25.831  1.00  0.00     0.116 C 
BRANCH  31  32
ATOM     32  N   UNL A   1      37.597  22.580  25.873  1.00  0.00    -0.352 N 
ATOM     33  C   UNL A   1      38.896  22.820  26.239  1.00  0.00     0.251 C 
ATOM     34  H   UNL A   1      37.393  21.656  25.602  1.00  0.00     0.163 HD
ATOM     35  O   UNL A   1      39.764  21.975  26.031  1.00  0.00    -0.269 OA
BRANCH  33  36
ATOM     36  C   UNL A   1      39.242  24.111  26.863  1.00  0.00     0.039 A 
ATOM     37  C   UNL A   1      38.853  24.355  28.181  1.00  0.00     0.014 A 
ATOM     38  C   UNL A   1      39.970  25.069  26.150  1.00  0.00     0.014 A 
ATOM     39  C   UNL A   1      39.243  25.540  28.804  1.00  0.00     0.010 A 
ATOM     40  C   UNL A   1      40.421  26.214  26.797  1.00  0.00     0.010 A 
ATOM     41  C   UNL A   1      40.058  26.464  28.128  1.00  0.00    -0.014 A 
BRANCH  41  42
ATOM     42  C   UNL A   1      40.538  27.699  28.797  1.00  0.00     0.031 A 
ATOM     43  C   UNL A   1      41.919  27.744  29.395  1.00  0.00     0.074 A 
ATOM     44  C   UNL A   1      39.710  28.757  28.921  1.00  0.00     0.049 A 
ATOM     45  N   UNL A   1      42.492  28.705  30.071  1.00  0.00    -0.248 NA
ATOM     46  C   UNL A   1      42.756  26.543  29.232  1.00  0.00     0.031 C 
ATOM     47  C   UNL A   1      38.334  28.820  28.418  1.00  0.00     0.029 A 
ATOM     48  N   UNL A   1      39.902  29.980  29.513  1.00  0.00    -0.354 N 
ATOM     49  C   UNL A   1      43.746  28.222  30.428  1.00  0.00     0.074 A 
ATOM     50  C   UNL A   1      43.833  26.865  29.936  1.00  0.00     0.031 C 
ATOM     51  C   UNL A   1      37.817  30.026  28.703  1.00  0.00     0.029 A 
ATOM     52  C   UNL A   1      38.803  30.805  29.446  1.00  0.00     0.049 A 
ATOM     53  H   UNL A   1      40.746  30.241  29.947  1.00  0.00     0.167 HD
ATOM     54  C   UNL A   1      44.742  28.856  31.089  1.00  0.00     0.031 A 
ATOM     55  C   UNL A   1      38.607  32.044  29.937  1.00  0.00     0.031 A 
ATOM     56  C   UNL A   1      44.657  30.213  31.563  1.00  0.00     0.049 A 
ATOM     57  C   UNL A   1      39.727  32.722  30.680  1.00  0.00     0.074 A 
ATOM     58  C   UNL A   1      45.633  30.965  32.192  1.00  0.00     0.029 A 
ATOM     59  N   UNL A   1      43.532  31.017  31.464  1.00  0.00    -0.354 N 
ATOM     60  N   UNL A   1      40.931  32.272  30.945  1.00  0.00    -0.248 NA
ATOM     61  C   UNL A   1      39.467  34.080  31.179  1.00  0.00     0.031 C 
ATOM     62  C   UNL A   1      45.081  32.205  32.524  1.00  0.00     0.029 A 
ATOM     63  C   UNL A   1      43.783  32.250  32.042  1.00  0.00     0.049 A 
ATOM     64  H   UNL A   1      42.683  30.753  31.042  1.00  0.00     0.167 HD
ATOM     65  C   UNL A   1      41.580  33.304  31.613  1.00  0.00     0.074 A 
ATOM     66  C   UNL A   1      40.643  34.405  31.698  1.00  0.00     0.031 C 
ATOM     67  C   UNL A   1      42.841  33.338  32.112  1.00  0.00     0.031 A 
BRANCH  54  68
ATOM     68  C   UNL A   1      46.015  28.094  31.344  1.00  0.00    -0.014 A 
ATOM     69  C   UNL A   1      46.154  27.265  32.471  1.00  0.00     0.010 A 
ATOM     70  C   UNL A   1      47.064  28.156  30.409  1.00  0.00     0.010 A 
ATOM     71  C   UNL A   1      47.327  26.532  32.673  1.00  0.00     0.020 A 
ATOM     72  C   UNL A   1      48.228  27.403  30.591  1.00  0.00     0.020 A 
ATOM     73  C   UNL A   1      48.357  26.605  31.729  1.00  0.00     0.054 A 
BRANCH  73  74
ATOM     74  S   UNL A   1      49.847  25.606  31.993  1.00  0.00     0.124 S 
ATOM     75  O   UNL A   1      50.817  26.618  32.409  1.00  0.00    -0.237 OA
ATOM     76  O   UNL A   1      49.426  24.675  33.036  1.00  0.00    -0.237 OA
ATOM     77  O   UNL A   1      50.098  25.005  30.687  1.00  0.00    -0.744 OA
ENDBRANCH  73  74
ENDBRANCH  54  68
BRANCH  55  78
ATOM     78  C   UNL A   1      37.297  32.727  29.745  1.00  0.00    -0.014 A 
ATOM     79  C   UNL A   1      37.122  33.672  28.720  1.00  0.00     0.010 A 
ATOM     80  C   UNL A   1      36.216  32.443  30.601  1.00  0.00     0.010 A 
ATOM     81  C   UNL A   1      35.904  34.343  28.572  1.00  0.00     0.020 A 
ATOM     82  C   UNL A   1      34.987  33.087  30.437  1.00  0.00     0.020 A 
ATOM     83  C   UNL A   1      34.844  34.046  29.434  1.00  0.00     0.054 A 
BRANCH  83  84
ATOM     84  S   UNL A   1      33.263  34.907  29.208  1.00  0.00     0.124 S 
ATOM     85  O   UNL A   1      32.749  34.960  30.573  1.00  0.00    -0.237 OA
ATOM     86  O   UNL A   1      33.679  36.186  28.637  1.00  0.00    -0.237 OA
ATOM     87  O   UNL A   1      32.528  34.035  28.295  1.00  0.00    -0.744 OA
ENDBRANCH  83  84
ENDBRANCH  55  78
BRANCH  67  88
ATOM     88  C   UNL A   1      43.301  34.619  32.756  1.00  0.00    -0.014 A 
ATOM     89  C   UNL A   1      43.868  35.659  31.998  1.00  0.00     0.010 A 
ATOM     90  C   UNL A   1      43.103  34.807  34.137  1.00  0.00     0.010 A 
ATOM     91  C   UNL A   1      44.257  36.850  32.614  1.00  0.00     0.020 A 
ATOM     92  C   UNL A   1      43.462  36.009  34.751  1.00  0.00     0.020 A 
ATOM     93  C   UNL A   1      44.050  37.019  33.987  1.00  0.00     0.054 A 
BRANCH  93  94
ATOM     94  S   UNL A   1      44.519  38.593  34.754  1.00  0.00     0.124 S 
ATOM     95  O   UNL A   1      44.063  38.410  36.129  1.00  0.00    -0.237 OA
ATOM     96  O   UNL A   1      45.968  38.619  34.570  1.00  0.00    -0.237 OA
ATOM     97  O   UNL A   1      43.781  39.590  33.981  1.00  0.00    -0.744 OA
ENDBRANCH  93  94
ENDBRANCH  67  88
ENDBRANCH  41  42
ENDBRANCH  33  36
ENDBRANCH  31  32
ENDBRANCH  30  31
ENDBRANCH  29  30
ENDBRANCH   1  29
TORSDOF 20
ENDMDL
