MODEL 1
REMARK VINA RESULT:     -13.4      0.000      0.000
REMARK SMILES Cc1cc(C(=O)NCCCCCCNC(=O)c2ccc(-c3c4nc(c(-c5ccc(S(=O)(=O)[O-])cc5)c5ccc([nH]5)c(-c5ccc(S(=O)(=O)[O-])cc5)c5nc(c(-c6ccc(S(=O)(=O)[O-])cc6)c6ccc3[nH]6)C=C5)C=C4)cc2)ccc1NC(=O)N1C[C@@H](C)[C@H](C)C1
REMARK SMILES IDX 11 1 10 2 9 3 8 4 7 5 5 6 6 7 4 9 1 10 2 11 3 12 79 13 78 14
REMARK SMILES IDX 77 15 80 16 81 17 82 19 83 20 84 21 89 22 85 23 87 24 86 25
REMARK SMILES IDX 88 26 12 27 13 28 14 29 15 30 16 32 17 33 18 34 76 35 19 36
REMARK SMILES IDX 75 37 20 38 21 39 22 40 69 41 23 42 74 43 68 44 70 45 24 46
REMARK SMILES IDX 73 47 67 48 66 49 25 51 55 52 36 53 54 54 37 55 40 56 53 57
REMARK SMILES IDX 71 58 38 59 39 60 52 62 72 63 41 64 26 65 27 66 35 67 28 68
REMARK SMILES IDX 34 69 29 70 30 71 31 72 32 73 33 74 56 75 57 76 65 77 58 78
REMARK SMILES IDX 64 79 59 80 60 81 61 82 62 83 63 84 42 85 43 86 51 87 44 88
REMARK SMILES IDX 50 89 45 90 46 91 47 92 48 93 49 94
REMARK H PARENT 7 8 80 18 14 31 70 50 40 61
REMARK Flexibility Score: inf
ROOT
ATOM      1  C   UNL A   1      34.251  27.400  25.933  1.00  0.00     0.002 C 
ENDROOT
BRANCH   1   2
ATOM      2  C   UNL A   1      34.107  26.941  24.473  1.00  0.00     0.002 C 
BRANCH   2   3
ATOM      3  C   UNL A   1      34.039  28.047  23.412  1.00  0.00     0.021 C 
BRANCH   3   4
ATOM      4  C   UNL A   1      33.181  27.712  22.189  1.00  0.00     0.116 C 
BRANCH   4   5
ATOM      5  N   UNL A   1      32.080  28.651  22.023  1.00  0.00    -0.352 N 
ATOM      6  C   UNL A   1      30.907  28.797  22.726  1.00  0.00     0.251 C 
ATOM      7  O   UNL A   1      30.202  29.784  22.522  1.00  0.00    -0.269 OA
ATOM      8  H   UNL A   1      32.194  29.288  21.281  1.00  0.00     0.163 HD
BRANCH   6   9
ATOM      9  C   UNL A   1      30.504  27.824  23.774  1.00  0.00     0.040 A 
ATOM     10  C   UNL A   1      31.082  27.465  27.510  1.00  0.00     0.046 C 
ATOM     11  C   UNL A   1      30.667  27.098  26.112  1.00  0.00    -0.027 A 
ATOM     12  C   UNL A   1      30.935  28.034  25.091  1.00  0.00     0.019 A 
ATOM     13  C   UNL A   1      29.992  25.909  25.776  1.00  0.00     0.045 A 
ATOM     14  C   UNL A   1      29.438  25.787  24.495  1.00  0.00     0.027 A 
ATOM     15  C   UNL A   1      29.673  26.743  23.508  1.00  0.00     0.016 A 
BRANCH  13  16
ATOM     16  N   UNL A   1      29.828  24.880  26.728  1.00  0.00    -0.308 N 
ATOM     17  C   UNL A   1      30.280  23.591  26.698  1.00  0.00     0.321 C 
ATOM     18  H   UNL A   1      29.313  25.127  27.529  1.00  0.00     0.171 HD
ATOM     19  O   UNL A   1      29.615  22.719  27.259  1.00  0.00    -0.248 OA
ATOM     20  N   UNL A   1      31.476  23.320  26.087  1.00  0.00    -0.324 N 
ATOM     21  C   UNL A   1      31.759  22.006  25.535  1.00  0.00     0.125 C 
ATOM     22  C   UNL A   1      32.700  24.091  26.267  1.00  0.00     0.125 C 
ATOM     23  C   UNL A   1      33.284  21.903  25.494  1.00  0.00     0.010 C 
ATOM     24  C   UNL A   1      33.737  23.372  25.403  1.00  0.00     0.010 C 
ATOM     25  C   UNL A   1      33.788  21.044  24.344  1.00  0.00     0.010 C 
ATOM     26  C   UNL A   1      35.169  23.589  25.876  1.00  0.00     0.010 C 
ENDBRANCH  13  16
ENDBRANCH   6   9
ENDBRANCH   4   5
ENDBRANCH   3   4
ENDBRANCH   2   3
ENDBRANCH   1   2
BRANCH   1  27
ATOM     27  C   UNL A   1      34.424  28.906  26.150  1.00  0.00     0.021 C 
BRANCH  27  28
ATOM     28  C   UNL A   1      34.463  29.312  27.619  1.00  0.00     0.116 C 
BRANCH  28  29
ATOM     29  N   UNL A   1      35.099  30.603  27.838  1.00  0.00    -0.352 N 
ATOM     30  C   UNL A   1      36.248  30.824  28.575  1.00  0.00     0.251 C 
ATOM     31  H   UNL A   1      34.673  31.387  27.424  1.00  0.00     0.163 HD
ATOM     32  O   UNL A   1      36.509  31.886  29.117  1.00  0.00    -0.269 OA
BRANCH  30  33
ATOM     33  C   UNL A   1      37.247  29.737  28.540  1.00  0.00     0.039 A 
ATOM     34  C   UNL A   1      37.415  28.983  29.708  1.00  0.00     0.014 A 
ATOM     35  C   UNL A   1      38.158  29.659  27.491  1.00  0.00     0.014 A 
ATOM     36  C   UNL A   1      38.583  28.248  29.883  1.00  0.00     0.010 A 
ATOM     37  C   UNL A   1      39.350  28.993  27.703  1.00  0.00     0.010 A 
ATOM     38  C   UNL A   1      39.583  28.322  28.913  1.00  0.00    -0.014 A 
BRANCH  38  39
ATOM     39  C   UNL A   1      40.927  27.781  29.095  1.00  0.00     0.031 A 
ATOM     40  C   UNL A   1      41.245  26.409  28.636  1.00  0.00     0.074 A 
ATOM     41  C   UNL A   1      41.910  28.543  29.624  1.00  0.00     0.049 A 
ATOM     42  N   UNL A   1      42.246  25.709  29.056  1.00  0.00    -0.248 NA
ATOM     43  C   UNL A   1      40.403  25.691  27.683  1.00  0.00     0.031 C 
ATOM     44  C   UNL A   1      43.344  28.264  29.596  1.00  0.00     0.029 A 
ATOM     45  N   UNL A   1      41.794  29.613  30.511  1.00  0.00    -0.354 N 
ATOM     46  C   UNL A   1      42.354  24.606  28.240  1.00  0.00     0.074 A 
ATOM     47  C   UNL A   1      41.143  24.603  27.450  1.00  0.00     0.031 C 
ATOM     48  C   UNL A   1      43.920  28.897  30.629  1.00  0.00     0.029 A 
ATOM     49  C   UNL A   1      42.852  29.472  31.428  1.00  0.00     0.049 A 
ATOM     50  H   UNL A   1      41.110  30.322  30.499  1.00  0.00     0.167 HD
ATOM     51  C   UNL A   1      43.507  23.880  28.223  1.00  0.00     0.031 A 
ATOM     52  C   UNL A   1      42.671  29.282  32.769  1.00  0.00     0.031 A 
ATOM     53  C   UNL A   1      44.471  24.334  29.222  1.00  0.00     0.049 A 
ATOM     54  C   UNL A   1      43.300  28.003  33.297  1.00  0.00     0.074 A 
ATOM     55  C   UNL A   1      45.654  25.055  29.182  1.00  0.00     0.029 A 
ATOM     56  N   UNL A   1      44.122  24.251  30.560  1.00  0.00    -0.354 N 
ATOM     57  N   UNL A   1      43.937  27.134  32.562  1.00  0.00    -0.248 NA
ATOM     58  C   UNL A   1      43.163  27.555  34.686  1.00  0.00     0.031 C 
ATOM     59  C   UNL A   1      46.008  25.403  30.518  1.00  0.00     0.029 A 
ATOM     60  C   UNL A   1      45.044  24.891  31.364  1.00  0.00     0.049 A 
ATOM     61  H   UNL A   1      43.318  23.792  30.895  1.00  0.00     0.167 HD
ATOM     62  C   UNL A   1      44.238  26.031  33.317  1.00  0.00     0.074 A 
ATOM     63  C   UNL A   1      43.748  26.345  34.645  1.00  0.00     0.031 C 
ATOM     64  C   UNL A   1      44.817  24.913  32.796  1.00  0.00     0.031 A 
BRANCH  51  65
ATOM     65  C   UNL A   1      43.841  22.889  27.131  1.00  0.00    -0.014 A 
ATOM     66  C   UNL A   1      42.932  21.856  26.821  1.00  0.00     0.010 A 
ATOM     67  C   UNL A   1      45.048  22.889  26.407  1.00  0.00     0.010 A 
ATOM     68  C   UNL A   1      43.258  20.819  25.933  1.00  0.00     0.020 A 
ATOM     69  C   UNL A   1      45.406  21.839  25.549  1.00  0.00     0.020 A 
ATOM     70  C   UNL A   1      44.511  20.799  25.328  1.00  0.00     0.054 A 
BRANCH  70  71
ATOM     71  S   UNL A   1      44.962  19.395  24.275  1.00  0.00     0.124 S 
ATOM     72  O   UNL A   1      46.418  19.369  24.390  1.00  0.00    -0.237 OA
ATOM     73  O   UNL A   1      44.259  18.286  24.913  1.00  0.00    -0.237 OA
ATOM     74  O   UNL A   1      44.458  19.775  22.957  1.00  0.00    -0.744 OA
ENDBRANCH  70  71
ENDBRANCH  51  65
BRANCH  52  75
ATOM     75  C   UNL A   1      41.424  29.902  33.303  1.00  0.00    -0.014 A 
ATOM     76  C   UNL A   1      41.425  31.300  33.501  1.00  0.00     0.010 A 
ATOM     77  C   UNL A   1      40.195  29.228  33.206  1.00  0.00     0.010 A 
ATOM     78  C   UNL A   1      40.236  32.029  33.419  1.00  0.00     0.020 A 
ATOM     79  C   UNL A   1      39.000  29.959  33.138  1.00  0.00     0.020 A 
ATOM     80  C   UNL A   1      39.041  31.357  33.170  1.00  0.00     0.054 A 
BRANCH  80  81
ATOM     81  S   UNL A   1      37.581  32.340  32.711  1.00  0.00     0.124 S 
ATOM     82  O   UNL A   1      36.611  31.312  32.351  1.00  0.00    -0.237 OA
ATOM     83  O   UNL A   1      37.297  33.066  33.949  1.00  0.00    -0.237 OA
ATOM     84  O   UNL A   1      38.066  33.165  31.610  1.00  0.00    -0.744 OA
ENDBRANCH  80  81
ENDBRANCH  52  75
BRANCH  64  85
ATOM     85  C   UNL A   1      45.180  23.710  33.618  1.00  0.00    -0.014 A 
ATOM     86  C   UNL A   1      44.245  22.707  33.921  1.00  0.00     0.010 A 
ATOM     87  C   UNL A   1      46.452  23.626  34.223  1.00  0.00     0.010 A 
ATOM     88  C   UNL A   1      44.588  21.630  34.751  1.00  0.00     0.020 A 
ATOM     89  C   UNL A   1      46.798  22.567  35.066  1.00  0.00     0.020 A 
ATOM     90  C   UNL A   1      45.868  21.562  35.309  1.00  0.00     0.054 A 
BRANCH  90  91
ATOM     91  S   UNL A   1      46.285  20.181  36.406  1.00  0.00     0.124 S 
ATOM     92  O   UNL A   1      45.548  19.066  35.817  1.00  0.00    -0.237 OA
ATOM     93  O   UNL A   1      47.737  20.116  36.265  1.00  0.00    -0.237 OA
ATOM     94  O   UNL A   1      45.803  20.618  37.713  1.00  0.00    -0.744 OA
ENDBRANCH  90  91
ENDBRANCH  64  85
ENDBRANCH  38  39
ENDBRANCH  30  33
ENDBRANCH  28  29
ENDBRANCH  27  28
ENDBRANCH   1  27
TORSDOF 17
ENDMDL
MODEL 2
REMARK VINA RESULT:     -13.1      4.427     11.202
REMARK SMILES Cc1cc(C(=O)NCCCCCCNC(=O)c2ccc(-c3c4nc(c(-c5ccc(S(=O)(=O)[O-])cc5)c5ccc([nH]5)c(-c5ccc(S(=O)(=O)[O-])cc5)c5nc(c(-c6ccc(S(=O)(=O)[O-])cc6)c6ccc3[nH]6)C=C5)C=C4)cc2)ccc1NC(=O)N1C[C@@H](C)[C@H](C)C1
REMARK SMILES IDX 11 1 10 2 9 3 8 4 7 5 5 6 6 7 4 9 1 10 2 11 3 12 79 13 78 14
REMARK SMILES IDX 77 15 80 16 81 17 82 19 83 20 84 21 89 22 85 23 87 24 86 25
REMARK SMILES IDX 88 26 12 27 13 28 14 29 15 30 16 32 17 33 18 34 76 35 19 36
REMARK SMILES IDX 75 37 20 38 21 39 22 40 69 41 23 42 74 43 68 44 70 45 24 46
REMARK SMILES IDX 73 47 67 48 66 49 25 51 55 52 36 53 54 54 37 55 40 56 53 57
REMARK SMILES IDX 71 58 38 59 39 60 52 62 72 63 41 64 26 65 27 66 35 67 28 68
REMARK SMILES IDX 34 69 29 70 30 71 31 72 32 73 33 74 56 75 57 76 65 77 58 78
REMARK SMILES IDX 64 79 59 80 60 81 61 82 62 83 63 84 42 85 43 86 51 87 44 88
REMARK SMILES IDX 50 89 45 90 46 91 47 92 48 93 49 94
REMARK H PARENT 7 8 80 18 14 31 70 50 40 61
REMARK Flexibility Score: inf
ROOT
ATOM      1  C   UNL A   1      35.795  22.660  24.955  1.00  0.00     0.002 C 
ENDROOT
BRANCH   1   2
ATOM      2  C   UNL A   1      35.056  23.541  25.974  1.00  0.00     0.002 C 
BRANCH   2   3
ATOM      3  C   UNL A   1      34.569  22.847  27.253  1.00  0.00     0.021 C 
BRANCH   3   4
ATOM      4  C   UNL A   1      33.052  22.671  27.352  1.00  0.00     0.116 C 
BRANCH   4   5
ATOM      5  N   UNL A   1      32.594  21.479  26.650  1.00  0.00    -0.352 N 
ATOM      6  C   UNL A   1      32.109  21.316  25.374  1.00  0.00     0.251 C 
ATOM      7  O   UNL A   1      31.954  20.181  24.929  1.00  0.00    -0.269 OA
ATOM      8  H   UNL A   1      32.639  20.651  27.180  1.00  0.00     0.163 HD
BRANCH   6   9
ATOM      9  C   UNL A   1      31.830  22.482  24.494  1.00  0.00     0.040 A 
ATOM     10  C   UNL A   1      33.323  23.889  21.299  1.00  0.00     0.046 C 
ATOM     11  C   UNL A   1      32.483  23.820  22.544  1.00  0.00    -0.027 A 
ATOM     12  C   UNL A   1      32.635  22.682  23.365  1.00  0.00     0.019 A 
ATOM     13  C   UNL A   1      31.530  24.791  22.908  1.00  0.00     0.045 A 
ATOM     14  C   UNL A   1      30.636  24.502  23.948  1.00  0.00     0.027 A 
ATOM     15  C   UNL A   1      30.770  23.350  24.722  1.00  0.00     0.016 A 
BRANCH  13  16
ATOM     16  N   UNL A   1      31.441  26.010  22.205  1.00  0.00    -0.308 N 
ATOM     17  C   UNL A   1      31.223  27.272  22.681  1.00  0.00     0.321 C 
ATOM     18  H   UNL A   1      31.550  25.943  21.229  1.00  0.00     0.171 HD
ATOM     19  O   UNL A   1      30.627  28.079  21.967  1.00  0.00    -0.248 OA
ATOM     20  N   UNL A   1      31.714  27.611  23.915  1.00  0.00    -0.324 N 
ATOM     21  C   UNL A   1      31.101  28.662  24.707  1.00  0.00     0.125 C 
ATOM     22  C   UNL A   1      33.059  27.310  24.390  1.00  0.00     0.125 C 
ATOM     23  C   UNL A   1      32.195  29.143  25.661  1.00  0.00     0.010 C 
ATOM     24  C   UNL A   1      33.116  27.916  25.793  1.00  0.00     0.010 C 
ATOM     25  C   UNL A   1      31.646  29.630  26.994  1.00  0.00     0.010 C 
ATOM     26  C   UNL A   1      34.528  28.270  26.239  1.00  0.00     0.010 C 
ENDBRANCH  13  16
ENDBRANCH   6   9
ENDBRANCH   4   5
ENDBRANCH   3   4
ENDBRANCH   2   3
ENDBRANCH   1   2
BRANCH   1  27
ATOM     27  C   UNL A   1      37.314  22.566  25.125  1.00  0.00     0.021 C 
BRANCH  27  28
ATOM     28  C   UNL A   1      37.894  23.631  26.049  1.00  0.00     0.116 C 
BRANCH  28  29
ATOM     29  N   UNL A   1      39.060  23.171  26.789  1.00  0.00    -0.352 N 
ATOM     30  C   UNL A   1      40.107  23.963  27.222  1.00  0.00     0.251 C 
ATOM     31  H   UNL A   1      39.107  22.211  26.999  1.00  0.00     0.163 HD
ATOM     32  O   UNL A   1      41.236  23.542  27.419  1.00  0.00    -0.269 OA
BRANCH  30  33
ATOM     33  C   UNL A   1      39.747  25.344  27.601  1.00  0.00     0.039 A 
ATOM     34  C   UNL A   1      40.274  26.381  26.820  1.00  0.00     0.014 A 
ATOM     35  C   UNL A   1      39.145  25.598  28.830  1.00  0.00     0.014 A 
ATOM     36  C   UNL A   1      40.324  27.670  27.342  1.00  0.00     0.010 A 
ATOM     37  C   UNL A   1      39.270  26.862  29.375  1.00  0.00     0.010 A 
ATOM     38  C   UNL A   1      39.894  27.889  28.651  1.00  0.00    -0.014 A 
BRANCH  38  39
ATOM     39  C   UNL A   1      40.108  29.140  29.373  1.00  0.00     0.031 A 
ATOM     40  C   UNL A   1      39.058  30.185  29.377  1.00  0.00     0.074 A 
ATOM     41  C   UNL A   1      41.234  29.334  30.095  1.00  0.00     0.049 A 
ATOM     42  N   UNL A   1      39.264  31.430  29.653  1.00  0.00    -0.248 NA
ATOM     43  C   UNL A   1      37.673  29.900  29.012  1.00  0.00     0.031 C 
ATOM     44  C   UNL A   1      41.464  30.376  31.093  1.00  0.00     0.029 A 
ATOM     45  N   UNL A   1      42.496  28.773  29.899  1.00  0.00    -0.354 N 
ATOM     46  C   UNL A   1      38.035  32.034  29.791  1.00  0.00     0.074 A 
ATOM     47  C   UNL A   1      37.082  31.059  29.312  1.00  0.00     0.031 C 
ATOM     48  C   UNL A   1      42.786  30.593  31.184  1.00  0.00     0.029 A 
ATOM     49  C   UNL A   1      43.421  29.806  30.142  1.00  0.00     0.049 A 
ATOM     50  H   UNL A   1      42.699  27.845  29.642  1.00  0.00     0.167 HD
ATOM     51  C   UNL A   1      37.935  33.243  30.412  1.00  0.00     0.031 A 
ATOM     52  C   UNL A   1      44.286  30.285  29.199  1.00  0.00     0.031 A 
ATOM     53  C   UNL A   1      39.239  33.809  30.752  1.00  0.00     0.049 A 
ATOM     54  C   UNL A   1      44.134  31.773  28.928  1.00  0.00     0.074 A 
ATOM     55  C   UNL A   1      39.963  33.963  31.923  1.00  0.00     0.029 A 
ATOM     56  N   UNL A   1      40.114  34.109  29.722  1.00  0.00    -0.354 N 
ATOM     57  N   UNL A   1      43.254  32.544  29.504  1.00  0.00    -0.248 NA
ATOM     58  C   UNL A   1      44.899  32.484  27.900  1.00  0.00     0.031 C 
ATOM     59  C   UNL A   1      41.288  34.359  31.579  1.00  0.00     0.029 A 
ATOM     60  C   UNL A   1      41.363  34.449  30.203  1.00  0.00     0.049 A 
ATOM     61  H   UNL A   1      39.876  34.084  28.767  1.00  0.00     0.167 HD
ATOM     62  C   UNL A   1      43.283  33.784  28.923  1.00  0.00     0.074 A 
ATOM     63  C   UNL A   1      44.340  33.705  27.934  1.00  0.00     0.031 C 
ATOM     64  C   UNL A   1      42.407  34.776  29.250  1.00  0.00     0.031 A 
BRANCH  51  65
ATOM     65  C   UNL A   1      36.625  33.806  30.914  1.00  0.00    -0.014 A 
ATOM     66  C   UNL A   1      35.545  33.968  30.021  1.00  0.00     0.010 A 
ATOM     67  C   UNL A   1      36.406  34.239  32.236  1.00  0.00     0.010 A 
ATOM     68  C   UNL A   1      34.365  34.630  30.392  1.00  0.00     0.020 A 
ATOM     69  C   UNL A   1      35.250  34.940  32.611  1.00  0.00     0.020 A 
ATOM     70  C   UNL A   1      34.240  35.145  31.679  1.00  0.00     0.054 A 
BRANCH  70  71
ATOM     71  S   UNL A   1      32.760  36.098  32.111  1.00  0.00     0.124 S 
ATOM     72  O   UNL A   1      31.822  35.056  32.520  1.00  0.00    -0.237 OA
ATOM     73  O   UNL A   1      33.247  36.964  33.181  1.00  0.00    -0.237 OA
ATOM     74  O   UNL A   1      32.414  36.782  30.867  1.00  0.00    -0.744 OA
ENDBRANCH  70  71
ENDBRANCH  51  65
BRANCH  52  75
ATOM     75  C   UNL A   1      44.693  29.272  28.184  1.00  0.00    -0.014 A 
ATOM     76  C   UNL A   1      45.662  28.318  28.568  1.00  0.00     0.010 A 
ATOM     77  C   UNL A   1      43.871  28.999  27.078  1.00  0.00     0.010 A 
ATOM     78  C   UNL A   1      45.683  27.051  27.979  1.00  0.00     0.020 A 
ATOM     79  C   UNL A   1      43.902  27.733  26.477  1.00  0.00     0.020 A 
ATOM     80  C   UNL A   1      44.756  26.747  26.984  1.00  0.00     0.054 A 
BRANCH  80  81
ATOM     81  S   UNL A   1      44.562  25.007  26.492  1.00  0.00     0.124 S 
ATOM     82  O   UNL A   1      45.847  24.713  25.866  1.00  0.00    -0.237 OA
ATOM     83  O   UNL A   1      44.322  24.348  27.776  1.00  0.00    -0.237 OA
ATOM     84  O   UNL A   1      43.414  25.040  25.591  1.00  0.00    -0.744 OA
ENDBRANCH  80  81
ENDBRANCH  52  75
BRANCH  64  85
ATOM     85  C   UNL A   1      42.448  36.148  28.642  1.00  0.00    -0.014 A 
ATOM     86  C   UNL A   1      41.922  36.413  27.368  1.00  0.00     0.010 A 
ATOM     87  C   UNL A   1      43.143  37.188  29.296  1.00  0.00     0.010 A 
ATOM     88  C   UNL A   1      42.037  37.686  26.793  1.00  0.00     0.020 A 
ATOM     89  C   UNL A   1      43.278  38.455  28.723  1.00  0.00     0.020 A 
ATOM     90  C   UNL A   1      42.706  38.703  27.480  1.00  0.00     0.054 A 
BRANCH  90  91
ATOM     91  S   UNL A   1      42.875  40.334  26.709  1.00  0.00     0.124 S 
ATOM     92  O   UNL A   1      43.993  40.142  25.788  1.00  0.00    -0.237 OA
ATOM     93  O   UNL A   1      41.568  40.505  26.080  1.00  0.00    -0.237 OA
ATOM     94  O   UNL A   1      43.149  41.224  27.834  1.00  0.00    -0.744 OA
ENDBRANCH  90  91
ENDBRANCH  64  85
ENDBRANCH  38  39
ENDBRANCH  30  33
ENDBRANCH  28  29
ENDBRANCH  27  28
ENDBRANCH   1  27
TORSDOF 17
ENDMDL
MODEL 3
REMARK VINA RESULT:     -12.9      1.439      2.212
REMARK SMILES Cc1cc(C(=O)NCCCCCCNC(=O)c2ccc(-c3c4nc(c(-c5ccc(S(=O)(=O)[O-])cc5)c5ccc([nH]5)c(-c5ccc(S(=O)(=O)[O-])cc5)c5nc(c(-c6ccc(S(=O)(=O)[O-])cc6)c6ccc3[nH]6)C=C5)C=C4)cc2)ccc1NC(=O)N1C[C@@H](C)[C@H](C)C1
REMARK SMILES IDX 11 1 10 2 9 3 8 4 7 5 5 6 6 7 4 9 1 10 2 11 3 12 79 13 78 14
REMARK SMILES IDX 77 15 80 16 81 17 82 19 83 20 84 21 89 22 85 23 87 24 86 25
REMARK SMILES IDX 88 26 12 27 13 28 14 29 15 30 16 32 17 33 18 34 76 35 19 36
REMARK SMILES IDX 75 37 20 38 21 39 22 40 69 41 23 42 74 43 68 44 70 45 24 46
REMARK SMILES IDX 73 47 67 48 66 49 25 51 55 52 36 53 54 54 37 55 40 56 53 57
REMARK SMILES IDX 71 58 38 59 39 60 52 62 72 63 41 64 26 65 27 66 35 67 28 68
REMARK SMILES IDX 34 69 29 70 30 71 31 72 32 73 33 74 56 75 57 76 65 77 58 78
REMARK SMILES IDX 64 79 59 80 60 81 61 82 62 83 63 84 42 85 43 86 51 87 44 88
REMARK SMILES IDX 50 89 45 90 46 91 47 92 48 93 49 94
REMARK H PARENT 7 8 80 18 14 31 70 50 40 61
REMARK Flexibility Score: inf
ROOT
ATOM      1  C   UNL A   1      31.997  28.702  26.237  1.00  0.00     0.002 C 
ENDROOT
BRANCH   1   2
ATOM      2  C   UNL A   1      32.811  28.278  25.004  1.00  0.00     0.002 C 
BRANCH   2   3
ATOM      3  C   UNL A   1      32.344  28.835  23.652  1.00  0.00     0.021 C 
BRANCH   3   4
ATOM      4  C   UNL A   1      31.723  27.801  22.710  1.00  0.00     0.116 C 
BRANCH   4   5
ATOM      5  N   UNL A   1      30.281  27.701  22.885  1.00  0.00    -0.352 N 
ATOM      6  C   UNL A   1      29.519  26.783  23.569  1.00  0.00     0.251 C 
ATOM      7  O   UNL A   1      28.320  26.999  23.735  1.00  0.00    -0.269 OA
ATOM      8  H   UNL A   1      29.764  28.409  22.437  1.00  0.00     0.163 HD
BRANCH   6   9
ATOM      9  C   UNL A   1      30.123  25.565  24.170  1.00  0.00     0.040 A 
ATOM     10  C   UNL A   1      31.677  22.366  22.840  1.00  0.00     0.046 C 
ATOM     11  C   UNL A   1      31.094  23.339  23.828  1.00  0.00    -0.027 A 
ATOM     12  C   UNL A   1      30.598  24.558  23.320  1.00  0.00     0.019 A 
ATOM     13  C   UNL A   1      31.061  23.124  25.218  1.00  0.00     0.045 A 
ATOM     14  C   UNL A   1      30.726  24.195  26.058  1.00  0.00     0.027 A 
ATOM     15  C   UNL A   1      30.281  25.411  25.542  1.00  0.00     0.016 A 
BRANCH  13  16
ATOM     16  N   UNL A   1      31.409  21.870  25.763  1.00  0.00    -0.308 N 
ATOM     17  C   UNL A   1      32.528  21.114  25.553  1.00  0.00     0.321 C 
ATOM     18  H   UNL A   1      30.751  21.483  26.383  1.00  0.00     0.171 HD
ATOM     19  O   UNL A   1      32.433  19.888  25.618  1.00  0.00    -0.248 OA
ATOM     20  N   UNL A   1      33.723  21.744  25.325  1.00  0.00    -0.324 N 
ATOM     21  C   UNL A   1      34.787  21.094  24.580  1.00  0.00     0.125 C 
ATOM     22  C   UNL A   1      34.231  22.874  26.093  1.00  0.00     0.125 C 
ATOM     23  C   UNL A   1      36.075  21.789  25.022  1.00  0.00     0.010 C 
ATOM     24  C   UNL A   1      35.593  23.181  25.467  1.00  0.00     0.010 C 
ATOM     25  C   UNL A   1      37.128  21.838  23.924  1.00  0.00     0.010 C 
ATOM     26  C   UNL A   1      36.554  23.872  26.427  1.00  0.00     0.010 C 
ENDBRANCH  13  16
ENDBRANCH   6   9
ENDBRANCH   4   5
ENDBRANCH   3   4
ENDBRANCH   2   3
ENDBRANCH   1   2
BRANCH   1  27
ATOM     27  C   UNL A   1      32.606  29.815  27.094  1.00  0.00     0.021 C 
BRANCH  27  28
ATOM     28  C   UNL A   1      34.117  29.701  27.262  1.00  0.00     0.116 C 
BRANCH  28  29
ATOM     29  N   UNL A   1      34.743  30.953  27.660  1.00  0.00    -0.352 N 
ATOM     30  C   UNL A   1      35.827  31.083  28.508  1.00  0.00     0.251 C 
ATOM     31  H   UNL A   1      34.360  31.782  27.292  1.00  0.00     0.163 HD
ATOM     32  O   UNL A   1      36.050  32.082  29.173  1.00  0.00    -0.269 OA
BRANCH  30  33
ATOM     33  C   UNL A   1      36.817  29.988  28.449  1.00  0.00     0.039 A 
ATOM     34  C   UNL A   1      37.001  29.227  29.610  1.00  0.00     0.014 A 
ATOM     35  C   UNL A   1      37.706  29.907  27.381  1.00  0.00     0.014 A 
ATOM     36  C   UNL A   1      38.167  28.482  29.759  1.00  0.00     0.010 A 
ATOM     37  C   UNL A   1      38.897  29.232  27.567  1.00  0.00     0.010 A 
ATOM     38  C   UNL A   1      39.148  28.553  28.770  1.00  0.00    -0.014 A 
BRANCH  38  39
ATOM     39  C   UNL A   1      40.491  28.000  28.923  1.00  0.00     0.031 A 
ATOM     40  C   UNL A   1      40.755  26.582  28.585  1.00  0.00     0.074 A 
ATOM     41  C   UNL A   1      41.519  28.788  29.311  1.00  0.00     0.049 A 
ATOM     42  N   UNL A   1      41.768  25.904  29.012  1.00  0.00    -0.248 NA
ATOM     43  C   UNL A   1      39.842  25.793  27.763  1.00  0.00     0.031 C 
ATOM     44  C   UNL A   1      42.943  28.473  29.223  1.00  0.00     0.029 A 
ATOM     45  N   UNL A   1      41.478  29.943  30.091  1.00  0.00    -0.354 N 
ATOM     46  C   UNL A   1      41.804  24.723  28.306  1.00  0.00     0.074 A 
ATOM     47  C   UNL A   1      40.546  24.671  27.597  1.00  0.00     0.031 C 
ATOM     48  C   UNL A   1      43.595  29.192  30.150  1.00  0.00     0.029 A 
ATOM     49  C   UNL A   1      42.589  29.869  30.951  1.00  0.00     0.049 A 
ATOM     50  H   UNL A   1      40.808  30.664  30.049  1.00  0.00     0.167 HD
ATOM     51  C   UNL A   1      42.941  23.971  28.293  1.00  0.00     0.031 A 
ATOM     52  C   UNL A   1      42.490  29.818  32.313  1.00  0.00     0.031 A 
ATOM     53  C   UNL A   1      43.975  24.499  29.180  1.00  0.00     0.049 A 
ATOM     54  C   UNL A   1      43.129  28.583  32.927  1.00  0.00     0.074 A 
ATOM     55  C   UNL A   1      45.165  25.184  28.995  1.00  0.00     0.029 A 
ATOM     56  N   UNL A   1      43.709  24.558  30.538  1.00  0.00    -0.354 N 
ATOM     57  N   UNL A   1      43.703  27.630  32.247  1.00  0.00    -0.248 NA
ATOM     58  C   UNL A   1      43.072  28.279  34.360  1.00  0.00     0.031 C 
ATOM     59  C   UNL A   1      45.610  25.656  30.264  1.00  0.00     0.029 A 
ATOM     60  C   UNL A   1      44.692  25.253  31.215  1.00  0.00     0.049 A 
ATOM     61  H   UNL A   1      42.921  24.155  30.966  1.00  0.00     0.167 HD
ATOM     62  C   UNL A   1      44.031  26.601  33.089  1.00  0.00     0.074 A 
ATOM     63  C   UNL A   1      43.632  27.057  34.406  1.00  0.00     0.031 C 
ATOM     64  C   UNL A   1      44.557  25.423  32.649  1.00  0.00     0.031 A 
BRANCH  51  65
ATOM     65  C   UNL A   1      43.188  22.869  27.287  1.00  0.00    -0.014 A 
ATOM     66  C   UNL A   1      42.476  21.656  27.390  1.00  0.00     0.010 A 
ATOM     67  C   UNL A   1      44.138  22.944  26.251  1.00  0.00     0.010 A 
ATOM     68  C   UNL A   1      42.777  20.545  26.587  1.00  0.00     0.020 A 
ATOM     69  C   UNL A   1      44.480  21.830  25.469  1.00  0.00     0.020 A 
ATOM     70  C   UNL A   1      43.805  20.630  25.653  1.00  0.00     0.054 A 
BRANCH  70  71
ATOM     71  S   UNL A   1      44.261  19.155  24.703  1.00  0.00     0.124 S 
ATOM     72  O   UNL A   1      43.174  18.230  25.015  1.00  0.00    -0.237 OA
ATOM     73  O   UNL A   1      44.287  19.661  23.334  1.00  0.00    -0.237 OA
ATOM     74  O   UNL A   1      45.563  18.780  25.252  1.00  0.00    -0.744 OA
ENDBRANCH  70  71
ENDBRANCH  51  65
BRANCH  52  75
ATOM     75  C   UNL A   1      41.292  30.517  32.857  1.00  0.00    -0.014 A 
ATOM     76  C   UNL A   1      40.128  29.746  33.070  1.00  0.00     0.010 A 
ATOM     77  C   UNL A   1      41.425  31.746  33.525  1.00  0.00     0.010 A 
ATOM     78  C   UNL A   1      39.210  30.103  34.061  1.00  0.00     0.020 A 
ATOM     79  C   UNL A   1      40.496  32.113  34.509  1.00  0.00     0.020 A 
ATOM     80  C   UNL A   1      39.440  31.250  34.819  1.00  0.00     0.054 A 
BRANCH  80  81
ATOM     81  S   UNL A   1      38.447  31.499  36.322  1.00  0.00     0.124 S 
ATOM     82  O   UNL A   1      38.071  30.136  36.680  1.00  0.00    -0.237 OA
ATOM     83  O   UNL A   1      39.404  32.145  37.221  1.00  0.00    -0.237 OA
ATOM     84  O   UNL A   1      37.357  32.355  35.865  1.00  0.00    -0.744 OA
ENDBRANCH  80  81
ENDBRANCH  52  75
BRANCH  64  85
ATOM     85  C   UNL A   1      44.949  24.300  33.565  1.00  0.00    -0.014 A 
ATOM     86  C   UNL A   1      46.289  24.044  33.896  1.00  0.00     0.010 A 
ATOM     87  C   UNL A   1      43.975  23.385  34.017  1.00  0.00     0.010 A 
ATOM     88  C   UNL A   1      46.636  22.946  34.696  1.00  0.00     0.020 A 
ATOM     89  C   UNL A   1      44.312  22.277  34.799  1.00  0.00     0.020 A 
ATOM     90  C   UNL A   1      45.642  22.075  35.152  1.00  0.00     0.054 A 
BRANCH  90  91
ATOM     91  S   UNL A   1      46.110  20.642  36.157  1.00  0.00     0.124 S 
ATOM     92  O   UNL A   1      45.638  21.015  37.490  1.00  0.00    -0.237 OA
ATOM     93  O   UNL A   1      45.367  19.566  35.508  1.00  0.00    -0.237 OA
ATOM     94  O   UNL A   1      47.561  20.576  36.014  1.00  0.00    -0.744 OA
ENDBRANCH  90  91
ENDBRANCH  64  85
ENDBRANCH  38  39
ENDBRANCH  30  33
ENDBRANCH  28  29
ENDBRANCH  27  28
ENDBRANCH   1  27
TORSDOF 17
ENDMDL
