MODEL 1
REMARK VINA RESULT:     -10.2      0.000      0.000
REMARK SMILES CC[NH2+][C@]1(C(=O)NCCCCCCNC(=O)c2ccc(-c3c4nc(c(-c5ccc(S(=O)(=O)[O-])cc5)c5ccc([nH]5)c(-c5ccc(S(=O)(=O)[O-])cc5)c5nc(c(-c6ccc(S(=O)(=O)[O-])cc6)c6ccc3[nH]6)C=C5)C=C4)cc2)CCC[C@H]1CCSc1n[nH]c(=O)n1C
REMARK SMILES IDX 10 1 9 2 8 3 7 4 5 5 6 6 4 8 77 9 80 10 78 11 79 12 3 13
REMARK SMILES IDX 2 16 1 17 81 18 82 19 83 20 84 21 85 22 89 23 86 24 87 25
REMARK SMILES IDX 90 26 88 28 11 29 12 30 13 31 14 32 15 33 16 35 17 36 18 37
REMARK SMILES IDX 76 38 19 39 75 40 20 41 21 42 22 43 69 44 23 45 74 46 68 47
REMARK SMILES IDX 70 48 24 49 73 50 67 51 66 52 25 54 55 55 36 56 54 57 37 58
REMARK SMILES IDX 40 59 53 60 71 61 38 62 39 63 52 65 72 66 41 67 26 68 27 69
REMARK SMILES IDX 35 70 28 71 34 72 29 73 30 74 31 75 32 76 33 77 56 78 57 79
REMARK SMILES IDX 65 80 58 81 64 82 59 83 60 84 61 85 62 86 63 87 42 88 43 89
REMARK SMILES IDX 51 90 44 91 50 92 45 93 46 94 47 95 48 96 49 97
REMARK H PARENT 7 7 3 14 3 15 86 27 14 34 70 53 40 64
REMARK Flexibility Score: inf
ROOT
ATOM      1  C   UNL A   1      33.033  28.514  22.982  1.00  0.00     0.002 C 
ENDROOT
BRANCH   1   2
ATOM      2  C   UNL A   1      32.246  27.395  22.308  1.00  0.00     0.021 C 
BRANCH   2   3
ATOM      3  C   UNL A   1      32.837  26.002  22.424  1.00  0.00     0.116 C 
BRANCH   3   4
ATOM      4  N   UNL A   1      31.895  24.922  22.348  1.00  0.00    -0.351 N 
ATOM      5  C   UNL A   1      31.425  24.109  23.338  1.00  0.00     0.281 C 
ATOM      6  O   UNL A   1      30.534  23.332  22.971  1.00  0.00    -0.268 OA
ATOM      7  H   UNL A   1      31.535  24.742  21.449  1.00  0.00     0.163 HD
BRANCH   5   8
ATOM      8  C   UNL A   1      31.841  24.226  24.856  1.00  0.00     0.178 C 
ATOM      9  C   UNL A   1      31.114  23.086  25.599  1.00  0.00     0.079 C 
ATOM     10  C   UNL A   1      33.346  23.890  25.178  1.00  0.00     0.061 C 
ATOM     11  C   UNL A   1      31.873  22.881  26.896  1.00  0.00     0.008 C 
ATOM     12  C   UNL A   1      33.322  23.190  26.561  1.00  0.00     0.011 C 
BRANCH   8  13
ATOM     13  N   UNL A   1      31.684  25.592  25.424  1.00  0.00    -0.334 N 
ATOM     14  H   UNL A   1      32.286  25.635  26.246  1.00  0.00     0.347 HD
ATOM     15  H   UNL A   1      31.907  26.190  24.629  1.00  0.00     0.347 HD
BRANCH  13  16
ATOM     16  C   UNL A   1      30.382  26.088  25.840  1.00  0.00     0.257 C 
ATOM     17  C   UNL A   1      29.466  26.389  24.654  1.00  0.00     0.071 C 
ENDBRANCH  13  16
ENDBRANCH   8  13
BRANCH  10  18
ATOM     18  C   UNL A   1      34.224  23.098  24.189  1.00  0.00     0.022 C 
BRANCH  18  19
ATOM     19  C   UNL A   1      34.320  21.578  24.423  1.00  0.00     0.079 C 
BRANCH  19  20
ATOM     20  S   UNL A   1      32.951  20.626  23.679  1.00  0.00    -0.086 SA
BRANCH  20  21
ATOM     21  C   UNL A   1      32.847  19.307  24.790  1.00  0.00     0.191 A 
ATOM     22  N   UNL A   1      32.701  19.449  26.076  1.00  0.00    -0.146 NA
ATOM     23  N   UNL A   1      32.929  18.026  24.360  1.00  0.00    -0.273 N 
ATOM     24  N   UNL A   1      32.682  18.161  26.541  1.00  0.00    -0.226 N 
ATOM     25  C   UNL A   1      32.816  17.263  25.490  1.00  0.00     0.343 A 
ATOM     26  C   UNL A   1      32.991  17.465  23.029  1.00  0.00     0.157 C 
ATOM     27  H   UNL A   1      32.588  17.907  27.487  1.00  0.00     0.195 HD
ATOM     28  O   UNL A   1      32.807  16.045  25.582  1.00  0.00    -0.246 OA
ENDBRANCH  20  21
ENDBRANCH  19  20
ENDBRANCH  18  19
ENDBRANCH  10  18
ENDBRANCH   5   8
ENDBRANCH   3   4
ENDBRANCH   2   3
ENDBRANCH   1   2
BRANCH   1  29
ATOM     29  C   UNL A   1      32.845  28.672  24.493  1.00  0.00     0.002 C 
BRANCH  29  30
ATOM     30  C   UNL A   1      33.926  28.068  25.394  1.00  0.00     0.021 C 
BRANCH  30  31
ATOM     31  C   UNL A   1      33.759  28.313  26.888  1.00  0.00     0.116 C 
BRANCH  31  32
ATOM     32  N   UNL A   1      33.623  29.722  27.205  1.00  0.00    -0.352 N 
ATOM     33  C   UNL A   1      34.484  30.547  27.881  1.00  0.00     0.251 C 
ATOM     34  H   UNL A   1      32.793  30.147  26.890  1.00  0.00     0.163 HD
ATOM     35  O   UNL A   1      34.118  31.666  28.230  1.00  0.00    -0.269 OA
BRANCH  33  36
ATOM     36  C   UNL A   1      35.845  30.073  28.201  1.00  0.00     0.039 A 
ATOM     37  C   UNL A   1      36.832  30.150  27.217  1.00  0.00     0.014 A 
ATOM     38  C   UNL A   1      36.143  29.558  29.466  1.00  0.00     0.014 A 
ATOM     39  C   UNL A   1      38.135  29.754  27.520  1.00  0.00     0.010 A 
ATOM     40  C   UNL A   1      37.457  29.236  29.789  1.00  0.00     0.010 A 
ATOM     41  C   UNL A   1      38.463  29.322  28.816  1.00  0.00    -0.014 A 
BRANCH  41  42
ATOM     42  C   UNL A   1      39.857  28.954  29.167  1.00  0.00     0.031 A 
ATOM     43  C   UNL A   1      40.754  29.956  29.841  1.00  0.00     0.074 A 
ATOM     44  C   UNL A   1      40.324  27.735  28.833  1.00  0.00     0.049 A 
ATOM     45  N   UNL A   1      42.008  29.833  30.191  1.00  0.00    -0.248 NA
ATOM     46  C   UNL A   1      40.174  31.276  30.140  1.00  0.00     0.031 C 
ATOM     47  C   UNL A   1      39.558  26.693  28.145  1.00  0.00     0.029 A 
ATOM     48  N   UNL A   1      41.559  27.167  29.025  1.00  0.00    -0.354 N 
ATOM     49  C   UNL A   1      42.370  31.058  30.738  1.00  0.00     0.074 A 
ATOM     50  C   UNL A   1      41.221  31.928  30.625  1.00  0.00     0.031 C 
ATOM     51  C   UNL A   1      40.329  25.604  28.000  1.00  0.00     0.029 A 
ATOM     52  C   UNL A   1      41.654  25.882  28.542  1.00  0.00     0.049 A 
ATOM     53  H   UNL A   1      42.304  27.633  29.468  1.00  0.00     0.167 HD
ATOM     54  C   UNL A   1      43.547  31.419  31.302  1.00  0.00     0.031 A 
ATOM     55  C   UNL A   1      42.696  25.029  28.528  1.00  0.00     0.031 A 
ATOM     56  C   UNL A   1      44.685  30.546  31.411  1.00  0.00     0.049 A 
ATOM     57  C   UNL A   1      44.000  25.462  29.139  1.00  0.00     0.074 A 
ATOM     58  C   UNL A   1      45.907  30.797  32.011  1.00  0.00     0.029 A 
ATOM     59  N   UNL A   1      44.745  29.255  30.907  1.00  0.00    -0.354 N 
ATOM     60  N   UNL A   1      44.302  26.602  29.714  1.00  0.00    -0.248 NA
ATOM     61  C   UNL A   1      45.102  24.491  29.109  1.00  0.00     0.031 C 
ATOM     62  C   UNL A   1      46.727  29.682  31.814  1.00  0.00     0.029 A 
ATOM     63  C   UNL A   1      45.993  28.708  31.154  1.00  0.00     0.049 A 
ATOM     64  H   UNL A   1      44.009  28.795  30.443  1.00  0.00     0.167 HD
ATOM     65  C   UNL A   1      45.621  26.474  30.137  1.00  0.00     0.074 A 
ATOM     66  C   UNL A   1      46.050  25.140  29.769  1.00  0.00     0.031 C 
ATOM     67  C   UNL A   1      46.405  27.379  30.775  1.00  0.00     0.031 A 
BRANCH  54  68
ATOM     68  C   UNL A   1      43.665  32.825  31.832  1.00  0.00    -0.014 A 
ATOM     69  C   UNL A   1      43.635  33.089  33.215  1.00  0.00     0.010 A 
ATOM     70  C   UNL A   1      43.851  33.896  30.938  1.00  0.00     0.010 A 
ATOM     71  C   UNL A   1      43.745  34.397  33.689  1.00  0.00     0.020 A 
ATOM     72  C   UNL A   1      43.993  35.204  31.411  1.00  0.00     0.020 A 
ATOM     73  C   UNL A   1      43.923  35.448  32.784  1.00  0.00     0.054 A 
BRANCH  73  74
ATOM     74  S   UNL A   1      44.088  37.134  33.433  1.00  0.00     0.124 S 
ATOM     75  O   UNL A   1      44.468  37.881  32.236  1.00  0.00    -0.237 OA
ATOM     76  O   UNL A   1      42.750  37.410  33.948  1.00  0.00    -0.237 OA
ATOM     77  O   UNL A   1      45.132  37.014  34.449  1.00  0.00    -0.744 OA
ENDBRANCH  73  74
ENDBRANCH  54  68
BRANCH  55  78
ATOM     78  C   UNL A   1      42.542  23.677  27.922  1.00  0.00    -0.014 A 
ATOM     79  C   UNL A   1      42.110  22.589  28.699  1.00  0.00     0.010 A 
ATOM     80  C   UNL A   1      42.815  23.475  26.557  1.00  0.00     0.010 A 
ATOM     81  C   UNL A   1      41.971  21.320  28.128  1.00  0.00     0.020 A 
ATOM     82  C   UNL A   1      42.650  22.216  25.974  1.00  0.00     0.020 A 
ATOM     83  C   UNL A   1      42.240  21.143  26.768  1.00  0.00     0.054 A 
BRANCH  83  84
ATOM     84  S   UNL A   1      42.007  19.498  26.037  1.00  0.00     0.124 S 
ATOM     85  O   UNL A   1      40.561  19.455  25.843  1.00  0.00    -0.237 OA
ATOM     86  O   UNL A   1      42.808  19.579  24.818  1.00  0.00    -0.237 OA
ATOM     87  O   UNL A   1      42.529  18.593  27.059  1.00  0.00    -0.744 OA
ENDBRANCH  83  84
ENDBRANCH  55  78
BRANCH  67  88
ATOM     88  C   UNL A   1      47.800  26.948  31.142  1.00  0.00    -0.014 A 
ATOM     89  C   UNL A   1      48.863  27.051  30.228  1.00  0.00     0.010 A 
ATOM     90  C   UNL A   1      48.060  26.482  32.445  1.00  0.00     0.010 A 
ATOM     91  C   UNL A   1      50.153  26.664  30.598  1.00  0.00     0.020 A 
ATOM     92  C   UNL A   1      49.354  26.126  32.829  1.00  0.00     0.020 A 
ATOM     93  C   UNL A   1      50.391  26.205  31.897  1.00  0.00     0.054 A 
BRANCH  93  94
ATOM     94  S   UNL A   1      52.084  25.752  32.365  1.00  0.00     0.124 S 
ATOM     95  O   UNL A   1      52.071  24.303  32.181  1.00  0.00    -0.237 OA
ATOM     96  O   UNL A   1      52.893  26.501  31.407  1.00  0.00    -0.237 OA
ATOM     97  O   UNL A   1      52.193  26.202  33.751  1.00  0.00    -0.744 OA
ENDBRANCH  93  94
ENDBRANCH  67  88
ENDBRANCH  41  42
ENDBRANCH  33  36
ENDBRANCH  31  32
ENDBRANCH  30  31
ENDBRANCH  29  30
ENDBRANCH   1  29
TORSDOF 22
ENDMDL
MODEL 2
REMARK VINA RESULT:     -10.0      1.795      4.003
REMARK SMILES CC[NH2+][C@]1(C(=O)NCCCCCCNC(=O)c2ccc(-c3c4nc(c(-c5ccc(S(=O)(=O)[O-])cc5)c5ccc([nH]5)c(-c5ccc(S(=O)(=O)[O-])cc5)c5nc(c(-c6ccc(S(=O)(=O)[O-])cc6)c6ccc3[nH]6)C=C5)C=C4)cc2)CCC[C@H]1CCSc1n[nH]c(=O)n1C
REMARK SMILES IDX 10 1 9 2 8 3 7 4 5 5 6 6 4 8 77 9 80 10 78 11 79 12 3 13
REMARK SMILES IDX 2 16 1 17 81 18 82 19 83 20 84 21 85 22 89 23 86 24 87 25
REMARK SMILES IDX 90 26 88 28 11 29 12 30 13 31 14 32 15 33 16 35 17 36 18 37
REMARK SMILES IDX 76 38 19 39 75 40 20 41 21 42 22 43 69 44 23 45 74 46 68 47
REMARK SMILES IDX 70 48 24 49 73 50 67 51 66 52 25 54 55 55 36 56 54 57 37 58
REMARK SMILES IDX 40 59 53 60 71 61 38 62 39 63 52 65 72 66 41 67 26 68 27 69
REMARK SMILES IDX 35 70 28 71 34 72 29 73 30 74 31 75 32 76 33 77 56 78 57 79
REMARK SMILES IDX 65 80 58 81 64 82 59 83 60 84 61 85 62 86 63 87 42 88 43 89
REMARK SMILES IDX 51 90 44 91 50 92 45 93 46 94 47 95 48 96 49 97
REMARK H PARENT 7 7 3 14 3 15 86 27 14 34 70 53 40 64
REMARK Flexibility Score: inf
ROOT
ATOM      1  C   UNL A   1      34.365  28.927  23.414  1.00  0.00     0.002 C 
ENDROOT
BRANCH   1   2
ATOM      2  C   UNL A   1      33.991  27.925  22.327  1.00  0.00     0.021 C 
BRANCH   2   3
ATOM      3  C   UNL A   1      33.286  26.665  22.795  1.00  0.00     0.116 C 
BRANCH   3   4
ATOM      4  N   UNL A   1      33.379  25.540  21.911  1.00  0.00    -0.351 N 
ATOM      5  C   UNL A   1      33.306  24.206  22.192  1.00  0.00     0.281 C 
ATOM      6  O   UNL A   1      33.319  23.478  21.190  1.00  0.00    -0.268 OA
ATOM      7  H   UNL A   1      33.515  25.762  20.961  1.00  0.00     0.163 HD
BRANCH   5   8
ATOM      8  C   UNL A   1      33.068  23.615  23.636  1.00  0.00     0.178 C 
ATOM      9  C   UNL A   1      33.764  24.576  24.622  1.00  0.00     0.079 C 
ATOM     10  C   UNL A   1      31.583  23.666  24.157  1.00  0.00     0.061 C 
ATOM     11  C   UNL A   1      33.134  24.314  25.977  1.00  0.00     0.008 C 
ATOM     12  C   UNL A   1      31.691  23.943  25.678  1.00  0.00     0.011 C 
BRANCH   8  13
ATOM     13  N   UNL A   1      33.409  22.173  23.765  1.00  0.00    -0.334 N 
ATOM     14  H   UNL A   1      34.039  21.954  22.992  1.00  0.00     0.347 HD
ATOM     15  H   UNL A   1      33.772  22.115  24.716  1.00  0.00     0.347 HD
BRANCH  13  16
ATOM     16  C   UNL A   1      32.375  21.152  23.755  1.00  0.00     0.257 C 
ATOM     17  C   UNL A   1      32.070  20.643  22.346  1.00  0.00     0.071 C 
ENDBRANCH  13  16
ENDBRANCH   8  13
BRANCH  10  18
ATOM     18  C   UNL A   1      30.535  24.596  23.513  1.00  0.00     0.022 C 
BRANCH  18  19
ATOM     19  C   UNL A   1      30.295  25.947  24.215  1.00  0.00     0.079 C 
BRANCH  19  20
ATOM     20  S   UNL A   1      28.740  26.769  23.728  1.00  0.00    -0.086 SA
BRANCH  20  21
ATOM     21  C   UNL A   1      29.361  28.180  22.950  1.00  0.00     0.191 A 
ATOM     22  N   UNL A   1      30.573  28.279  22.483  1.00  0.00    -0.146 NA
ATOM     23  N   UNL A   1      28.596  29.287  22.798  1.00  0.00    -0.273 N 
ATOM     24  N   UNL A   1      30.619  29.551  21.979  1.00  0.00    -0.226 N 
ATOM     25  C   UNL A   1      29.400  30.190  22.159  1.00  0.00     0.343 A 
ATOM     26  C   UNL A   1      27.201  29.532  23.085  1.00  0.00     0.157 C 
ATOM     27  H   UNL A   1      31.407  29.957  21.549  1.00  0.00     0.195 HD
ATOM     28  O   UNL A   1      29.121  31.321  21.789  1.00  0.00    -0.246 OA
ENDBRANCH  20  21
ENDBRANCH  19  20
ENDBRANCH  18  19
ENDBRANCH  10  18
ENDBRANCH   5   8
ENDBRANCH   3   4
ENDBRANCH   2   3
ENDBRANCH   1   2
BRANCH   1  29
ATOM     29  C   UNL A   1      33.555  28.865  24.712  1.00  0.00     0.002 C 
BRANCH  29  30
ATOM     30  C   UNL A   1      34.116  27.992  25.839  1.00  0.00     0.021 C 
BRANCH  30  31
ATOM     31  C   UNL A   1      33.592  28.293  27.236  1.00  0.00     0.116 C 
BRANCH  31  32
ATOM     32  N   UNL A   1      33.471  29.717  27.486  1.00  0.00    -0.352 N 
ATOM     33  C   UNL A   1      34.369  30.576  28.065  1.00  0.00     0.251 C 
ATOM     34  H   UNL A   1      32.623  30.126  27.199  1.00  0.00     0.163 HD
ATOM     35  O   UNL A   1      34.022  31.712  28.375  1.00  0.00    -0.269 OA
BRANCH  33  36
ATOM     36  C   UNL A   1      35.748  30.119  28.327  1.00  0.00     0.039 A 
ATOM     37  C   UNL A   1      36.700  30.237  27.313  1.00  0.00     0.014 A 
ATOM     38  C   UNL A   1      36.097  29.578  29.568  1.00  0.00     0.014 A 
ATOM     39  C   UNL A   1      38.019  29.858  27.562  1.00  0.00     0.010 A 
ATOM     40  C   UNL A   1      37.427  29.272  29.839  1.00  0.00     0.010 A 
ATOM     41  C   UNL A   1      38.398  29.400  28.835  1.00  0.00    -0.014 A 
BRANCH  41  42
ATOM     42  C   UNL A   1      39.809  29.048  29.131  1.00  0.00     0.031 A 
ATOM     43  C   UNL A   1      40.726  30.068  29.746  1.00  0.00     0.074 A 
ATOM     44  C   UNL A   1      40.270  27.827  28.798  1.00  0.00     0.049 A 
ATOM     45  N   UNL A   1      41.996  29.961  30.042  1.00  0.00    -0.248 NA
ATOM     46  C   UNL A   1      40.150  31.390  30.047  1.00  0.00     0.031 C 
ATOM     47  C   UNL A   1      39.483  26.767  28.164  1.00  0.00     0.029 A 
ATOM     48  N   UNL A   1      41.517  27.271  28.945  1.00  0.00    -0.354 N 
ATOM     49  C   UNL A   1      42.372  31.198  30.550  1.00  0.00     0.074 A 
ATOM     50  C   UNL A   1      41.212  32.058  30.473  1.00  0.00     0.031 C 
ATOM     51  C   UNL A   1      40.255  25.680  28.004  1.00  0.00     0.029 A 
ATOM     52  C   UNL A   1      41.601  25.979  28.481  1.00  0.00     0.049 A 
ATOM     53  H   UNL A   1      42.277  27.750  29.345  1.00  0.00     0.167 HD
ATOM     54  C   UNL A   1      43.570  31.578  31.054  1.00  0.00     0.031 A 
ATOM     55  C   UNL A   1      42.648  25.132  28.437  1.00  0.00     0.031 A 
ATOM     56  C   UNL A   1      44.719  30.715  31.129  1.00  0.00     0.049 A 
ATOM     57  C   UNL A   1      43.975  25.586  28.980  1.00  0.00     0.074 A 
ATOM     58  C   UNL A   1      45.965  30.986  31.669  1.00  0.00     0.029 A 
ATOM     59  N   UNL A   1      44.767  29.416  30.646  1.00  0.00    -0.354 N 
ATOM     60  N   UNL A   1      44.293  26.739  29.521  1.00  0.00    -0.248 NA
ATOM     61  C   UNL A   1      45.081  24.622  28.919  1.00  0.00     0.031 C 
ATOM     62  C   UNL A   1      46.783  29.873  31.455  1.00  0.00     0.029 A 
ATOM     63  C   UNL A   1      46.029  28.883  30.846  1.00  0.00     0.049 A 
ATOM     64  H   UNL A   1      44.014  28.942  30.223  1.00  0.00     0.167 HD
ATOM     65  C   UNL A   1      45.630  26.628  29.887  1.00  0.00     0.074 A 
ATOM     66  C   UNL A   1      46.053  25.290  29.524  1.00  0.00     0.031 C 
ATOM     67  C   UNL A   1      46.434  27.550  30.473  1.00  0.00     0.031 A 
BRANCH  54  68
ATOM     68  C   UNL A   1      43.701  32.995  31.554  1.00  0.00    -0.014 A 
ATOM     69  C   UNL A   1      44.029  34.049  30.680  1.00  0.00     0.010 A 
ATOM     70  C   UNL A   1      43.451  33.284  32.908  1.00  0.00     0.010 A 
ATOM     71  C   UNL A   1      44.146  35.355  31.160  1.00  0.00     0.020 A 
ATOM     72  C   UNL A   1      43.537  34.595  33.385  1.00  0.00     0.020 A 
ATOM     73  C   UNL A   1      43.901  35.621  32.510  1.00  0.00     0.054 A 
BRANCH  73  74
ATOM     74  S   UNL A   1      44.037  37.332  33.097  1.00  0.00     0.124 S 
ATOM     75  O   UNL A   1      42.835  37.466  33.916  1.00  0.00    -0.237 OA
ATOM     76  O   UNL A   1      45.299  37.318  33.831  1.00  0.00    -0.237 OA
ATOM     77  O   UNL A   1      44.044  38.121  31.867  1.00  0.00    -0.744 OA
ENDBRANCH  73  74
ENDBRANCH  54  68
BRANCH  55  78
ATOM     78  C   UNL A   1      42.478  23.769  27.862  1.00  0.00    -0.014 A 
ATOM     79  C   UNL A   1      42.071  22.695  28.673  1.00  0.00     0.010 A 
ATOM     80  C   UNL A   1      42.710  23.540  26.493  1.00  0.00     0.010 A 
ATOM     81  C   UNL A   1      41.918  21.415  28.131  1.00  0.00     0.020 A 
ATOM     82  C   UNL A   1      42.529  22.269  25.941  1.00  0.00     0.020 A 
ATOM     83  C   UNL A   1      42.145  21.212  26.768  1.00  0.00     0.054 A 
BRANCH  83  84
ATOM     84  S   UNL A   1      41.893  19.553  26.077  1.00  0.00     0.124 S 
ATOM     85  O   UNL A   1      40.461  19.557  25.791  1.00  0.00    -0.237 OA
ATOM     86  O   UNL A   1      42.772  19.560  24.911  1.00  0.00    -0.237 OA
ATOM     87  O   UNL A   1      42.312  18.665  27.159  1.00  0.00    -0.744 OA
ENDBRANCH  83  84
ENDBRANCH  55  78
BRANCH  67  88
ATOM     88  C   UNL A   1      47.848  27.135  30.786  1.00  0.00    -0.014 A 
ATOM     89  C   UNL A   1      48.886  27.317  29.856  1.00  0.00     0.010 A 
ATOM     90  C   UNL A   1      48.149  26.605  32.055  1.00  0.00     0.010 A 
ATOM     91  C   UNL A   1      50.194  26.944  30.176  1.00  0.00     0.020 A 
ATOM     92  C   UNL A   1      49.460  26.262  32.390  1.00  0.00     0.020 A 
ATOM     93  C   UNL A   1      50.472  26.420  31.442  1.00  0.00     0.054 A 
BRANCH  93  94
ATOM     94  S   UNL A   1      52.187  25.985  31.847  1.00  0.00     0.124 S 
ATOM     95  O   UNL A   1      52.894  26.372  30.629  1.00  0.00    -0.237 OA
ATOM     96  O   UNL A   1      52.457  26.811  33.021  1.00  0.00    -0.237 OA
ATOM     97  O   UNL A   1      52.129  24.547  32.103  1.00  0.00    -0.744 OA
ENDBRANCH  93  94
ENDBRANCH  67  88
ENDBRANCH  41  42
ENDBRANCH  33  36
ENDBRANCH  31  32
ENDBRANCH  30  31
ENDBRANCH  29  30
ENDBRANCH   1  29
TORSDOF 22
ENDMDL
MODEL 3
REMARK VINA RESULT:      -9.9      4.168      9.193
REMARK SMILES CC[NH2+][C@]1(C(=O)NCCCCCCNC(=O)c2ccc(-c3c4nc(c(-c5ccc(S(=O)(=O)[O-])cc5)c5ccc([nH]5)c(-c5ccc(S(=O)(=O)[O-])cc5)c5nc(c(-c6ccc(S(=O)(=O)[O-])cc6)c6ccc3[nH]6)C=C5)C=C4)cc2)CCC[C@H]1CCSc1n[nH]c(=O)n1C
REMARK SMILES IDX 10 1 9 2 8 3 7 4 5 5 6 6 4 8 77 9 80 10 78 11 79 12 3 13
REMARK SMILES IDX 2 16 1 17 81 18 82 19 83 20 84 21 85 22 89 23 86 24 87 25
REMARK SMILES IDX 90 26 88 28 11 29 12 30 13 31 14 32 15 33 16 35 17 36 18 37
REMARK SMILES IDX 76 38 19 39 75 40 20 41 21 42 22 43 69 44 23 45 74 46 68 47
REMARK SMILES IDX 70 48 24 49 73 50 67 51 66 52 25 54 55 55 36 56 54 57 37 58
REMARK SMILES IDX 40 59 53 60 71 61 38 62 39 63 52 65 72 66 41 67 26 68 27 69
REMARK SMILES IDX 35 70 28 71 34 72 29 73 30 74 31 75 32 76 33 77 56 78 57 79
REMARK SMILES IDX 65 80 58 81 64 82 59 83 60 84 61 85 62 86 63 87 42 88 43 89
REMARK SMILES IDX 51 90 44 91 50 92 45 93 46 94 47 95 48 96 49 97
REMARK H PARENT 7 7 3 14 3 15 86 27 14 34 70 53 40 64
REMARK Flexibility Score: inf
ROOT
ATOM      1  C   UNL A   1      32.519  29.926  27.184  1.00  0.00     0.002 C 
ENDROOT
BRANCH   1   2
ATOM      2  C   UNL A   1      31.972  28.553  27.559  1.00  0.00     0.021 C 
BRANCH   2   3
ATOM      3  C   UNL A   1      31.672  27.617  26.403  1.00  0.00     0.116 C 
BRANCH   3   4
ATOM      4  N   UNL A   1      31.216  26.307  26.770  1.00  0.00    -0.351 N 
ATOM      5  C   UNL A   1      31.524  25.095  26.223  1.00  0.00     0.281 C 
ATOM      6  O   UNL A   1      31.046  24.130  26.834  1.00  0.00    -0.268 OA
ATOM      7  H   UNL A   1      30.589  26.278  27.528  1.00  0.00     0.163 HD
BRANCH   5   8
ATOM      8  C   UNL A   1      32.524  24.893  25.018  1.00  0.00     0.178 C 
ATOM      9  C   UNL A   1      33.946  25.036  25.601  1.00  0.00     0.079 C 
ATOM     10  C   UNL A   1      32.585  23.438  24.419  1.00  0.00     0.061 C 
ATOM     11  C   UNL A   1      34.874  24.364  24.607  1.00  0.00     0.008 C 
ATOM     12  C   UNL A   1      34.066  23.220  24.019  1.00  0.00     0.011 C 
BRANCH   8  13
ATOM     13  N   UNL A   1      32.211  25.724  23.825  1.00  0.00    -0.334 N 
ATOM     14  H   UNL A   1      32.392  26.693  24.091  1.00  0.00     0.347 HD
ATOM     15  H   UNL A   1      32.795  25.303  23.102  1.00  0.00     0.347 HD
BRANCH  13  16
ATOM     16  C   UNL A   1      30.890  25.703  23.220  1.00  0.00     0.257 C 
ATOM     17  C   UNL A   1      30.224  27.080  23.224  1.00  0.00     0.071 C 
ENDBRANCH  13  16
ENDBRANCH   8  13
BRANCH  10  18
ATOM     18  C   UNL A   1      32.055  22.221  25.204  1.00  0.00     0.022 C 
BRANCH  18  19
ATOM     19  C   UNL A   1      32.957  20.972  25.222  1.00  0.00     0.079 C 
BRANCH  19  20
ATOM     20  S   UNL A   1      32.545  19.742  23.937  1.00  0.00    -0.086 SA
BRANCH  20  21
ATOM     21  C   UNL A   1      32.830  18.276  24.803  1.00  0.00     0.191 A 
ATOM     22  N   UNL A   1      32.488  18.086  26.045  1.00  0.00    -0.146 NA
ATOM     23  N   UNL A   1      33.454  17.228  24.214  1.00  0.00    -0.273 N 
ATOM     24  N   UNL A   1      32.917  16.813  26.305  1.00  0.00    -0.226 N 
ATOM     25  C   UNL A   1      33.513  16.261  25.179  1.00  0.00     0.343 A 
ATOM     26  C   UNL A   1      33.888  17.016  22.852  1.00  0.00     0.157 C 
ATOM     27  H   UNL A   1      32.817  16.352  27.169  1.00  0.00     0.195 HD
ATOM     28  O   UNL A   1      33.968  15.130  25.089  1.00  0.00    -0.246 OA
ENDBRANCH  20  21
ENDBRANCH  19  20
ENDBRANCH  18  19
ENDBRANCH  10  18
ENDBRANCH   5   8
ENDBRANCH   3   4
ENDBRANCH   2   3
ENDBRANCH   1   2
BRANCH   1  29
ATOM     29  C   UNL A   1      31.565  30.866  26.442  1.00  0.00     0.002 C 
BRANCH  29  30
ATOM     30  C   UNL A   1      31.602  32.346  26.836  1.00  0.00     0.021 C 
BRANCH  30  31
ATOM     31  C   UNL A   1      32.908  32.838  27.446  1.00  0.00     0.116 C 
BRANCH  31  32
ATOM     32  N   UNL A   1      32.851  34.240  27.816  1.00  0.00    -0.352 N 
ATOM     33  C   UNL A   1      33.539  34.908  28.795  1.00  0.00     0.251 C 
ATOM     34  H   UNL A   1      32.230  34.791  27.287  1.00  0.00     0.163 HD
ATOM     35  O   UNL A   1      33.222  36.054  29.098  1.00  0.00    -0.269 OA
BRANCH  33  36
ATOM     36  C   UNL A   1      34.651  34.232  29.494  1.00  0.00     0.039 A 
ATOM     37  C   UNL A   1      35.951  34.409  29.018  1.00  0.00     0.014 A 
ATOM     38  C   UNL A   1      34.408  33.429  30.612  1.00  0.00     0.014 A 
ATOM     39  C   UNL A   1      37.016  33.819  29.697  1.00  0.00     0.010 A 
ATOM     40  C   UNL A   1      35.477  32.905  31.332  1.00  0.00     0.010 A 
ATOM     41  C   UNL A   1      36.790  33.088  30.875  1.00  0.00    -0.014 A 
BRANCH  41  42
ATOM     42  C   UNL A   1      37.920  32.504  31.640  1.00  0.00     0.031 A 
ATOM     43  C   UNL A   1      38.674  31.325  31.088  1.00  0.00     0.074 A 
ATOM     44  C   UNL A   1      38.231  33.007  32.850  1.00  0.00     0.049 A 
ATOM     45  N   UNL A   1      39.662  30.656  31.624  1.00  0.00    -0.248 NA
ATOM     46  C   UNL A   1      38.248  30.816  29.774  1.00  0.00     0.031 C 
ATOM     47  C   UNL A   1      37.547  34.126  33.504  1.00  0.00     0.029 A 
ATOM     48  N   UNL A   1      39.201  32.641  33.750  1.00  0.00    -0.354 N 
ATOM     49  C   UNL A   1      39.966  29.644  30.722  1.00  0.00     0.074 A 
ATOM     50  C   UNL A   1      39.024  29.752  29.631  1.00  0.00     0.031 C 
ATOM     51  C   UNL A   1      38.137  34.374  34.684  1.00  0.00     0.029 A 
ATOM     52  C   UNL A   1      39.210  33.407  34.892  1.00  0.00     0.049 A 
ATOM     53  H   UNL A   1      39.831  31.902  33.592  1.00  0.00     0.167 HD
ATOM     54  C   UNL A   1      40.954  28.720  30.788  1.00  0.00     0.031 A 
ATOM     55  C   UNL A   1      39.988  33.332  35.989  1.00  0.00     0.031 A 
ATOM     56  C   UNL A   1      41.888  28.621  31.878  1.00  0.00     0.049 A 
ATOM     57  C   UNL A   1      41.062  32.282  36.049  1.00  0.00     0.074 A 
ATOM     58  C   UNL A   1      42.959  27.754  32.018  1.00  0.00     0.029 A 
ATOM     59  N   UNL A   1      41.863  29.411  33.018  1.00  0.00    -0.354 N 
ATOM     60  N   UNL A   1      41.380  31.376  35.154  1.00  0.00    -0.248 NA
ATOM     61  C   UNL A   1      41.891  32.249  37.261  1.00  0.00     0.031 C 
ATOM     62  C   UNL A   1      43.540  27.978  33.269  1.00  0.00     0.029 A 
ATOM     63  C   UNL A   1      42.878  29.031  33.879  1.00  0.00     0.049 A 
ATOM     64  H   UNL A   1      41.218  30.135  33.189  1.00  0.00     0.167 HD
ATOM     65  C   UNL A   1      42.463  30.683  35.685  1.00  0.00     0.074 A 
ATOM     66  C   UNL A   1      42.756  31.288  36.969  1.00  0.00     0.031 C 
ATOM     67  C   UNL A   1      43.152  29.641  35.157  1.00  0.00     0.031 A 
BRANCH  54  68
ATOM     68  C   UNL A   1      41.066  27.734  29.653  1.00  0.00    -0.014 A 
ATOM     69  C   UNL A   1      42.153  27.771  28.759  1.00  0.00     0.010 A 
ATOM     70  C   UNL A   1      40.092  26.731  29.501  1.00  0.00     0.010 A 
ATOM     71  C   UNL A   1      42.241  26.850  27.713  1.00  0.00     0.020 A 
ATOM     72  C   UNL A   1      40.192  25.788  28.473  1.00  0.00     0.020 A 
ATOM     73  C   UNL A   1      41.259  25.865  27.575  1.00  0.00     0.054 A 
BRANCH  73  74
ATOM     74  S   UNL A   1      41.414  24.668  26.221  1.00  0.00     0.124 S 
ATOM     75  O   UNL A   1      41.483  25.544  25.053  1.00  0.00    -0.237 OA
ATOM     76  O   UNL A   1      42.652  23.968  26.553  1.00  0.00    -0.237 OA
ATOM     77  O   UNL A   1      40.198  23.865  26.326  1.00  0.00    -0.744 OA
ENDBRANCH  73  74
ENDBRANCH  54  68
BRANCH  55  78
ATOM     78  C   UNL A   1      39.782  34.286  37.113  1.00  0.00    -0.014 A 
ATOM     79  C   UNL A   1      40.362  35.566  37.082  1.00  0.00     0.010 A 
ATOM     80  C   UNL A   1      38.990  33.923  38.218  1.00  0.00     0.010 A 
ATOM     81  C   UNL A   1      40.171  36.458  38.143  1.00  0.00     0.020 A 
ATOM     82  C   UNL A   1      38.771  34.821  39.266  1.00  0.00     0.020 A 
ATOM     83  C   UNL A   1      39.374  36.080  39.227  1.00  0.00     0.054 A 
BRANCH  83  84
ATOM     84  S   UNL A   1      39.100  37.270  40.568  1.00  0.00     0.124 S 
ATOM     85  O   UNL A   1      40.459  37.711  40.866  1.00  0.00    -0.237 OA
ATOM     86  O   UNL A   1      38.236  38.263  39.936  1.00  0.00    -0.237 OA
ATOM     87  O   UNL A   1      38.459  36.470  41.610  1.00  0.00    -0.744 OA
ENDBRANCH  83  84
ENDBRANCH  55  78
BRANCH  67  88
ATOM     88  C   UNL A   1      44.313  29.105  35.953  1.00  0.00    -0.014 A 
ATOM     89  C   UNL A   1      45.600  29.657  35.832  1.00  0.00     0.010 A 
ATOM     90  C   UNL A   1      44.096  28.067  36.879  1.00  0.00     0.010 A 
ATOM     91  C   UNL A   1      46.657  29.157  36.597  1.00  0.00     0.020 A 
ATOM     92  C   UNL A   1      45.143  27.587  37.668  1.00  0.00     0.020 A 
ATOM     93  C   UNL A   1      46.421  28.126  37.511  1.00  0.00     0.054 A 
BRANCH  93  94
ATOM     94  S   UNL A   1      47.803  27.526  38.523  1.00  0.00     0.124 S 
ATOM     95  O   UNL A   1      48.471  28.771  38.892  1.00  0.00    -0.237 OA
ATOM     96  O   UNL A   1      47.123  26.830  39.612  1.00  0.00    -0.237 OA
ATOM     97  O   UNL A   1      48.552  26.665  37.611  1.00  0.00    -0.744 OA
ENDBRANCH  93  94
ENDBRANCH  67  88
ENDBRANCH  41  42
ENDBRANCH  33  36
ENDBRANCH  31  32
ENDBRANCH  30  31
ENDBRANCH  29  30
ENDBRANCH   1  29
TORSDOF 22
ENDMDL
