MODEL 1
REMARK VINA RESULT:     -11.7      0.000      0.000
REMARK SMILES Cc1n[nH]c(C(=O)N2CCC(CCC(=O)NCCCCCCNC(=O)c3ccc(-c4c5nc(c(-c6ccc(S(=O)(=O)[O-])cc6)c6ccc([nH]6)c(-c6ccc(S(=O)(=O)[O-])cc6)c6nc(c(-c7ccc(S(=O)(=O)[O-])cc7)c7ccc4[nH]7)C=C6)C=C5)cc3)CC2)n1
REMARK SMILES IDX 19 1 18 2 17 3 16 4 14 5 15 6 13 8 12 9 11 10 6 11 7 12 8 13
REMARK SMILES IDX 9 14 87 15 10 16 86 17 5 18 1 19 2 20 3 21 88 22 4 23 20 25
REMARK SMILES IDX 21 26 22 27 23 28 24 29 25 31 26 32 27 33 85 34 28 35 84 36
REMARK SMILES IDX 29 37 30 38 31 39 78 40 32 41 83 42 77 43 79 44 33 45 82 46
REMARK SMILES IDX 76 47 75 48 34 50 64 51 45 52 63 53 46 54 49 55 62 56 80 57
REMARK SMILES IDX 47 58 48 59 61 61 81 62 50 63 35 64 36 65 44 66 37 67 43 68
REMARK SMILES IDX 38 69 39 70 40 71 41 72 42 73 65 74 66 75 74 76 67 77 73 78
REMARK SMILES IDX 68 79 69 80 70 81 71 82 72 83 51 84 52 85 60 86 53 87 59 88
REMARK SMILES IDX 54 89 55 90 56 91 57 92 58 93
REMARK H PARENT 16 7 4 24 23 30 79 49 49 60
REMARK Flexibility Score: inf
ROOT
ATOM      1  C   UNL A   1      40.636  22.864  26.907  1.00  0.00     0.002 C 
ENDROOT
BRANCH   1   2
ATOM      2  C   UNL A   1      39.355  23.632  27.230  1.00  0.00     0.021 C 
BRANCH   2   3
ATOM      3  C   UNL A   1      38.340  23.718  26.077  1.00  0.00     0.116 C 
BRANCH   3   4
ATOM      4  N   UNL A   1      37.443  22.577  26.091  1.00  0.00    -0.356 N 
ATOM      5  C   UNL A   1      36.083  22.485  26.055  1.00  0.00     0.220 C 
ATOM      6  O   UNL A   1      35.592  21.355  26.107  1.00  0.00    -0.275 OA
ATOM      7  H   UNL A   1      37.901  21.707  26.133  1.00  0.00     0.163 HD
BRANCH   5   8
ATOM      8  C   UNL A   1      35.189  23.705  25.894  1.00  0.00     0.100 C 
BRANCH   8   9
ATOM      9  C   UNL A   1      34.808  24.077  24.447  1.00  0.00     0.013 C 
BRANCH   9  10
ATOM     10  C   UNL A   1      33.615  25.031  24.358  1.00  0.00    -0.007 C 
ATOM     11  C   UNL A   1      32.132  28.748  23.814  1.00  0.00     0.291 C 
ATOM     12  O   UNL A   1      33.040  29.379  24.355  1.00  0.00    -0.265 OA
ATOM     13  N   UNL A   1      31.997  27.379  24.057  1.00  0.00    -0.336 N 
ATOM     14  C   UNL A   1      32.397  26.937  25.377  1.00  0.00     0.120 C 
ATOM     15  C   UNL A   1      31.977  26.373  22.990  1.00  0.00     0.120 C 
ATOM     16  C   UNL A   1      33.737  26.229  25.315  1.00  0.00     0.025 C 
ATOM     17  C   UNL A   1      33.291  25.563  22.950  1.00  0.00     0.025 C 
BRANCH  11  18
ATOM     18  C   UNL A   1      31.035  29.376  23.118  1.00  0.00     0.214 A 
ATOM     19  C   UNL A   1      27.598  29.975  22.591  1.00  0.00     0.092 C 
ATOM     20  C   UNL A   1      29.067  29.865  22.531  1.00  0.00     0.148 A 
ATOM     21  N   UNL A   1      29.767  30.030  21.405  1.00  0.00    -0.159 NA
ATOM     22  N   UNL A   1      29.810  29.462  23.601  1.00  0.00    -0.207 NA
ATOM     23  N   UNL A   1      31.011  29.771  21.815  1.00  0.00    -0.255 N 
ATOM     24  H   UNL A   1      31.811  29.855  21.247  1.00  0.00     0.192 HD
ENDBRANCH  11  18
ENDBRANCH   9  10
ENDBRANCH   8   9
ENDBRANCH   5   8
ENDBRANCH   3   4
ENDBRANCH   2   3
ENDBRANCH   1   2
BRANCH   1  25
ATOM     25  C   UNL A   1      40.828  21.554  27.683  1.00  0.00     0.002 C 
BRANCH  25  26
ATOM     26  C   UNL A   1      42.094  20.744  27.360  1.00  0.00     0.021 C 
BRANCH  26  27
ATOM     27  C   UNL A   1      42.616  20.944  25.942  1.00  0.00     0.116 C 
BRANCH  27  28
ATOM     28  N   UNL A   1      44.073  20.987  25.900  1.00  0.00    -0.352 N 
ATOM     29  C   UNL A   1      44.922  22.048  26.138  1.00  0.00     0.251 C 
ATOM     30  H   UNL A   1      44.513  20.137  25.670  1.00  0.00     0.163 HD
ATOM     31  O   UNL A   1      46.074  22.008  25.737  1.00  0.00    -0.269 OA
BRANCH  29  32
ATOM     32  C   UNL A   1      44.425  23.228  26.871  1.00  0.00     0.039 A 
ATOM     33  C   UNL A   1      44.529  23.289  28.265  1.00  0.00     0.014 A 
ATOM     34  C   UNL A   1      43.833  24.271  26.165  1.00  0.00     0.014 A 
ATOM     35  C   UNL A   1      44.096  24.434  28.934  1.00  0.00     0.010 A 
ATOM     36  C   UNL A   1      43.527  25.449  26.811  1.00  0.00     0.010 A 
ATOM     37  C   UNL A   1      43.616  25.531  28.204  1.00  0.00    -0.014 A 
BRANCH  37  38
ATOM     38  C   UNL A   1      43.353  26.821  28.865  1.00  0.00     0.031 A 
ATOM     39  C   UNL A   1      44.479  27.817  28.832  1.00  0.00     0.074 A 
ATOM     40  C   UNL A   1      42.101  27.173  29.256  1.00  0.00     0.049 A 
ATOM     41  N   UNL A   1      44.835  28.663  29.744  1.00  0.00    -0.248 NA
ATOM     42  C   UNL A   1      45.346  27.864  27.640  1.00  0.00     0.031 C 
ATOM     43  C   UNL A   1      40.872  26.371  29.139  1.00  0.00     0.029 A 
ATOM     44  N   UNL A   1      41.625  28.367  29.724  1.00  0.00    -0.354 N 
ATOM     45  C   UNL A   1      45.843  29.452  29.183  1.00  0.00     0.074 A 
ATOM     46  C   UNL A   1      46.141  28.903  27.897  1.00  0.00     0.031 C 
ATOM     47  C   UNL A   1      39.788  27.161  29.287  1.00  0.00     0.029 A 
ATOM     48  C   UNL A   1      40.234  28.478  29.695  1.00  0.00     0.049 A 
ATOM     49  H   UNL A   1      42.212  29.084  30.054  1.00  0.00     0.167 HD
ATOM     50  C   UNL A   1      46.256  30.613  29.753  1.00  0.00     0.031 A 
ATOM     51  C   UNL A   1      39.474  29.556  30.007  1.00  0.00     0.031 A 
ATOM     52  C   UNL A   1      46.004  30.621  31.158  1.00  0.00     0.049 A 
ATOM     53  C   UNL A   1      40.294  30.430  30.866  1.00  0.00     0.074 A 
ATOM     54  C   UNL A   1      46.571  29.999  32.243  1.00  0.00     0.029 A 
ATOM     55  N   UNL A   1      44.750  31.038  31.511  1.00  0.00    -0.354 N 
ATOM     56  N   UNL A   1      40.701  30.077  32.051  1.00  0.00    -0.248 NA
ATOM     57  C   UNL A   1      40.939  31.607  30.302  1.00  0.00     0.031 C 
ATOM     58  C   UNL A   1      45.500  29.789  33.155  1.00  0.00     0.029 A 
ATOM     59  C   UNL A   1      44.339  30.355  32.625  1.00  0.00     0.049 A 
ATOM     60  H   UNL A   1      44.225  31.723  31.037  1.00  0.00     0.167 HD
ATOM     61  C   UNL A   1      41.922  30.702  32.191  1.00  0.00     0.074 A 
ATOM     62  C   UNL A   1      41.925  31.763  31.192  1.00  0.00     0.031 C 
ATOM     63  C   UNL A   1      42.935  30.118  32.891  1.00  0.00     0.031 A 
BRANCH  50  64
ATOM     64  C   UNL A   1      46.400  31.900  28.985  1.00  0.00    -0.014 A 
ATOM     65  C   UNL A   1      45.252  32.520  28.453  1.00  0.00     0.010 A 
ATOM     66  C   UNL A   1      47.654  32.301  28.472  1.00  0.00     0.010 A 
ATOM     67  C   UNL A   1      45.349  33.466  27.421  1.00  0.00     0.020 A 
ATOM     68  C   UNL A   1      47.761  33.265  27.462  1.00  0.00     0.020 A 
ATOM     69  C   UNL A   1      46.603  33.818  26.921  1.00  0.00     0.054 A 
BRANCH  69  70
ATOM     70  S   UNL A   1      46.702  34.965  25.517  1.00  0.00     0.124 S 
ATOM     71  O   UNL A   1      46.528  36.258  26.171  1.00  0.00    -0.237 OA
ATOM     72  O   UNL A   1      48.037  34.700  24.987  1.00  0.00    -0.237 OA
ATOM     73  O   UNL A   1      45.602  34.542  24.655  1.00  0.00    -0.744 OA
ENDBRANCH  69  70
ENDBRANCH  50  64
BRANCH  51  74
ATOM     74  C   UNL A   1      38.116  29.951  29.562  1.00  0.00    -0.014 A 
ATOM     75  C   UNL A   1      37.122  30.304  30.495  1.00  0.00     0.010 A 
ATOM     76  C   UNL A   1      37.885  30.258  28.207  1.00  0.00     0.010 A 
ATOM     77  C   UNL A   1      35.971  31.005  30.099  1.00  0.00     0.020 A 
ATOM     78  C   UNL A   1      36.737  30.954  27.804  1.00  0.00     0.020 A 
ATOM     79  C   UNL A   1      35.798  31.348  28.756  1.00  0.00     0.054 A 
BRANCH  79  80
ATOM     80  S   UNL A   1      34.402  32.416  28.285  1.00  0.00     0.124 S 
ATOM     81  O   UNL A   1      35.052  33.442  27.476  1.00  0.00    -0.237 OA
ATOM     82  O   UNL A   1      33.529  31.498  27.559  1.00  0.00    -0.237 OA
ATOM     83  O   UNL A   1      33.878  32.880  29.570  1.00  0.00    -0.744 OA
ENDBRANCH  79  80
ENDBRANCH  51  74
BRANCH  63  84
ATOM     84  C   UNL A   1      42.592  29.028  33.875  1.00  0.00    -0.014 A 
ATOM     85  C   UNL A   1      42.583  27.653  33.573  1.00  0.00     0.010 A 
ATOM     86  C   UNL A   1      42.376  29.425  35.206  1.00  0.00     0.010 A 
ATOM     87  C   UNL A   1      42.342  26.704  34.579  1.00  0.00     0.020 A 
ATOM     88  C   UNL A   1      42.166  28.486  36.214  1.00  0.00     0.020 A 
ATOM     89  C   UNL A   1      42.136  27.130  35.895  1.00  0.00     0.054 A 
BRANCH  89  90
ATOM     90  S   UNL A   1      41.868  25.904  37.205  1.00  0.00     0.124 S 
ATOM     91  O   UNL A   1      42.136  24.644  36.517  1.00  0.00    -0.237 OA
ATOM     92  O   UNL A   1      42.847  26.289  38.219  1.00  0.00    -0.237 OA
ATOM     93  O   UNL A   1      40.474  26.111  37.594  1.00  0.00    -0.744 OA
ENDBRANCH  89  90
ENDBRANCH  63  84
ENDBRANCH  37  38
ENDBRANCH  29  32
ENDBRANCH  27  28
ENDBRANCH  26  27
ENDBRANCH  25  26
ENDBRANCH   1  25
TORSDOF 19
ENDMDL
MODEL 2
REMARK VINA RESULT:     -11.5      2.251      3.272
REMARK SMILES Cc1n[nH]c(C(=O)N2CCC(CCC(=O)NCCCCCCNC(=O)c3ccc(-c4c5nc(c(-c6ccc(S(=O)(=O)[O-])cc6)c6ccc([nH]6)c(-c6ccc(S(=O)(=O)[O-])cc6)c6nc(c(-c7ccc(S(=O)(=O)[O-])cc7)c7ccc4[nH]7)C=C6)C=C5)cc3)CC2)n1
REMARK SMILES IDX 19 1 18 2 17 3 16 4 14 5 15 6 13 8 12 9 11 10 6 11 7 12 8 13
REMARK SMILES IDX 9 14 87 15 10 16 86 17 5 18 1 19 2 20 3 21 88 22 4 23 20 25
REMARK SMILES IDX 21 26 22 27 23 28 24 29 25 31 26 32 27 33 85 34 28 35 84 36
REMARK SMILES IDX 29 37 30 38 31 39 78 40 32 41 83 42 77 43 79 44 33 45 82 46
REMARK SMILES IDX 76 47 75 48 34 50 64 51 45 52 63 53 46 54 49 55 62 56 80 57
REMARK SMILES IDX 47 58 48 59 61 61 81 62 50 63 35 64 36 65 44 66 37 67 43 68
REMARK SMILES IDX 38 69 39 70 40 71 41 72 42 73 65 74 66 75 74 76 67 77 73 78
REMARK SMILES IDX 68 79 69 80 70 81 71 82 72 83 51 84 52 85 60 86 53 87 59 88
REMARK SMILES IDX 54 89 55 90 56 91 57 92 58 93
REMARK H PARENT 16 7 4 24 23 30 79 49 49 60
REMARK Flexibility Score: inf
ROOT
ATOM      1  C   UNL A   1      34.039  23.706  26.477  1.00  0.00     0.002 C 
ENDROOT
BRANCH   1   2
ATOM      2  C   UNL A   1      33.235  22.519  27.003  1.00  0.00     0.021 C 
BRANCH   2   3
ATOM      3  C   UNL A   1      34.030  21.209  27.147  1.00  0.00     0.116 C 
BRANCH   3   4
ATOM      4  N   UNL A   1      33.233  20.071  26.726  1.00  0.00    -0.356 N 
ATOM      5  C   UNL A   1      32.907  19.592  25.492  1.00  0.00     0.220 C 
ATOM      6  O   UNL A   1      32.176  18.600  25.446  1.00  0.00    -0.275 OA
ATOM      7  H   UNL A   1      32.858  19.546  27.470  1.00  0.00     0.163 HD
BRANCH   5   8
ATOM      8  C   UNL A   1      33.460  20.199  24.211  1.00  0.00     0.100 C 
BRANCH   8   9
ATOM      9  C   UNL A   1      32.449  20.965  23.335  1.00  0.00     0.013 C 
BRANCH   9  10
ATOM     10  C   UNL A   1      32.518  22.483  23.512  1.00  0.00    -0.007 C 
ATOM     11  C   UNL A   1      31.731  26.210  22.170  1.00  0.00     0.291 C 
ATOM     12  O   UNL A   1      31.876  25.996  20.966  1.00  0.00    -0.265 OA
ATOM     13  N   UNL A   1      32.248  25.309  23.103  1.00  0.00    -0.336 N 
ATOM     14  C   UNL A   1      33.465  24.630  22.707  1.00  0.00     0.120 C 
ATOM     15  C   UNL A   1      31.431  24.669  24.140  1.00  0.00     0.120 C 
ATOM     16  C   UNL A   1      33.168  23.195  22.314  1.00  0.00     0.025 C 
ATOM     17  C   UNL A   1      31.181  23.179  23.826  1.00  0.00     0.025 C 
BRANCH  11  18
ATOM     18  C   UNL A   1      31.261  27.467  22.701  1.00  0.00     0.214 A 
ATOM     19  C   UNL A   1      31.270  30.044  25.111  1.00  0.00     0.092 C 
ATOM     20  C   UNL A   1      31.001  29.105  24.006  1.00  0.00     0.148 A 
ATOM     21  N   UNL A   1      29.814  29.013  23.399  1.00  0.00    -0.159 NA
ATOM     22  N   UNL A   1      31.911  28.172  23.606  1.00  0.00    -0.207 NA
ATOM     23  N   UNL A   1      30.022  28.009  22.542  1.00  0.00    -0.255 N 
ATOM     24  H   UNL A   1      29.363  27.702  21.879  1.00  0.00     0.192 HD
ENDBRANCH  11  18
ENDBRANCH   9  10
ENDBRANCH   8   9
ENDBRANCH   5   8
ENDBRANCH   3   4
ENDBRANCH   2   3
ENDBRANCH   1   2
BRANCH   1  25
ATOM     25  C   UNL A   1      35.555  23.487  26.395  1.00  0.00     0.002 C 
BRANCH  25  26
ATOM     26  C   UNL A   1      36.137  23.239  24.993  1.00  0.00     0.021 C 
BRANCH  26  27
ATOM     27  C   UNL A   1      37.658  23.319  24.928  1.00  0.00     0.116 C 
BRANCH  27  28
ATOM     28  N   UNL A   1      38.290  22.246  25.686  1.00  0.00    -0.352 N 
ATOM     29  C   UNL A   1      39.391  22.295  26.516  1.00  0.00     0.251 C 
ATOM     30  H   UNL A   1      37.870  21.360  25.593  1.00  0.00     0.163 HD
ATOM     31  O   UNL A   1      39.987  21.268  26.799  1.00  0.00    -0.269 OA
BRANCH  29  32
ATOM     32  C   UNL A   1      39.844  23.595  27.049  1.00  0.00     0.039 A 
ATOM     33  C   UNL A   1      39.084  24.749  26.832  1.00  0.00     0.014 A 
ATOM     34  C   UNL A   1      41.043  23.665  27.751  1.00  0.00     0.014 A 
ATOM     35  C   UNL A   1      39.506  25.959  27.384  1.00  0.00     0.010 A 
ATOM     36  C   UNL A   1      41.389  24.828  28.403  1.00  0.00     0.010 A 
ATOM     37  C   UNL A   1      40.649  25.996  28.196  1.00  0.00    -0.014 A 
BRANCH  37  38
ATOM     38  C   UNL A   1      40.995  27.209  28.958  1.00  0.00     0.031 A 
ATOM     39  C   UNL A   1      42.329  27.827  28.638  1.00  0.00     0.074 A 
ATOM     40  C   UNL A   1      40.071  27.859  29.711  1.00  0.00     0.049 A 
ATOM     41  N   UNL A   1      43.163  28.405  29.440  1.00  0.00    -0.248 NA
ATOM     42  C   UNL A   1      42.817  27.772  27.248  1.00  0.00     0.031 C 
ATOM     43  C   UNL A   1      38.665  27.474  29.926  1.00  0.00     0.029 A 
ATOM     44  N   UNL A   1      40.141  29.067  30.346  1.00  0.00    -0.354 N 
ATOM     45  C   UNL A   1      44.183  28.930  28.642  1.00  0.00     0.074 A 
ATOM     46  C   UNL A   1      43.940  28.490  27.304  1.00  0.00     0.031 C 
ATOM     47  C   UNL A   1      37.969  28.521  30.416  1.00  0.00     0.029 A 
ATOM     48  C   UNL A   1      38.903  29.585  30.729  1.00  0.00     0.049 A 
ATOM     49  H   UNL A   1      40.991  29.532  30.519  1.00  0.00     0.167 HD
ATOM     50  C   UNL A   1      45.079  29.834  29.114  1.00  0.00     0.031 A 
ATOM     51  C   UNL A   1      38.635  30.787  31.294  1.00  0.00     0.031 A 
ATOM     52  C   UNL A   1      45.223  29.733  30.530  1.00  0.00     0.049 A 
ATOM     53  C   UNL A   1      39.887  31.263  31.911  1.00  0.00     0.074 A 
ATOM     54  C   UNL A   1      45.830  28.836  31.376  1.00  0.00     0.029 A 
ATOM     55  N   UNL A   1      44.308  30.450  31.250  1.00  0.00    -0.354 N 
ATOM     56  N   UNL A   1      40.459  30.656  32.910  1.00  0.00    -0.248 NA
ATOM     57  C   UNL A   1      40.700  32.262  31.232  1.00  0.00     0.031 C 
ATOM     58  C   UNL A   1      45.029  28.833  32.552  1.00  0.00     0.029 A 
ATOM     59  C   UNL A   1      44.012  29.778  32.407  1.00  0.00     0.049 A 
ATOM     60  H   UNL A   1      43.922  31.314  30.979  1.00  0.00     0.167 HD
ATOM     61  C   UNL A   1      41.806  30.872  32.713  1.00  0.00     0.074 A 
ATOM     62  C   UNL A   1      41.882  32.006  31.801  1.00  0.00     0.031 C 
ATOM     63  C   UNL A   1      42.728  29.930  33.062  1.00  0.00     0.031 A 
BRANCH  50  64
ATOM     64  C   UNL A   1      45.416  31.111  28.390  1.00  0.00    -0.014 A 
ATOM     65  C   UNL A   1      44.546  32.214  28.493  1.00  0.00     0.010 A 
ATOM     66  C   UNL A   1      46.358  31.120  27.338  1.00  0.00     0.010 A 
ATOM     67  C   UNL A   1      44.584  33.260  27.558  1.00  0.00     0.020 A 
ATOM     68  C   UNL A   1      46.422  32.173  26.417  1.00  0.00     0.020 A 
ATOM     69  C   UNL A   1      45.511  33.222  26.515  1.00  0.00     0.054 A 
BRANCH  69  70
ATOM     70  S   UNL A   1      45.476  34.530  25.257  1.00  0.00     0.124 S 
ATOM     71  O   UNL A   1      44.711  35.574  25.929  1.00  0.00    -0.237 OA
ATOM     72  O   UNL A   1      46.895  34.814  25.059  1.00  0.00    -0.237 OA
ATOM     73  O   UNL A   1      44.812  33.893  24.123  1.00  0.00    -0.744 OA
ENDBRANCH  69  70
ENDBRANCH  50  64
BRANCH  51  74
ATOM     74  C   UNL A   1      37.407  31.618  31.281  1.00  0.00    -0.014 A 
ATOM     75  C   UNL A   1      36.408  31.448  32.259  1.00  0.00     0.010 A 
ATOM     76  C   UNL A   1      37.351  32.772  30.476  1.00  0.00     0.010 A 
ATOM     77  C   UNL A   1      35.430  32.433  32.475  1.00  0.00     0.020 A 
ATOM     78  C   UNL A   1      36.375  33.757  30.683  1.00  0.00     0.020 A 
ATOM     79  C   UNL A   1      35.435  33.595  31.700  1.00  0.00     0.054 A 
BRANCH  79  80
ATOM     80  S   UNL A   1      34.284  34.943  32.112  1.00  0.00     0.124 S 
ATOM     81  O   UNL A   1      35.118  35.830  32.918  1.00  0.00    -0.237 OA
ATOM     82  O   UNL A   1      33.906  35.452  30.798  1.00  0.00    -0.237 OA
ATOM     83  O   UNL A   1      33.213  34.266  32.844  1.00  0.00    -0.744 OA
ENDBRANCH  79  80
ENDBRANCH  51  74
BRANCH  63  84
ATOM     84  C   UNL A   1      42.330  28.871  34.057  1.00  0.00    -0.014 A 
ATOM     85  C   UNL A   1      41.782  27.619  33.716  1.00  0.00     0.010 A 
ATOM     86  C   UNL A   1      42.635  29.125  35.406  1.00  0.00     0.010 A 
ATOM     87  C   UNL A   1      41.529  26.658  34.708  1.00  0.00     0.020 A 
ATOM     88  C   UNL A   1      42.413  28.164  36.390  1.00  0.00     0.020 A 
ATOM     89  C   UNL A   1      41.848  26.939  36.040  1.00  0.00     0.054 A 
BRANCH  89  90
ATOM     90  S   UNL A   1      41.562  25.683  37.317  1.00  0.00     0.124 S 
ATOM     91  O   UNL A   1      42.631  25.957  38.274  1.00  0.00    -0.237 OA
ATOM     92  O   UNL A   1      40.210  25.987  37.778  1.00  0.00    -0.237 OA
ATOM     93  O   UNL A   1      41.690  24.418  36.594  1.00  0.00    -0.744 OA
ENDBRANCH  89  90
ENDBRANCH  63  84
ENDBRANCH  37  38
ENDBRANCH  29  32
ENDBRANCH  27  28
ENDBRANCH  26  27
ENDBRANCH  25  26
ENDBRANCH   1  25
TORSDOF 19
ENDMDL
MODEL 3
REMARK VINA RESULT:     -11.2      2.298      9.199
REMARK SMILES Cc1n[nH]c(C(=O)N2CCC(CCC(=O)NCCCCCCNC(=O)c3ccc(-c4c5nc(c(-c6ccc(S(=O)(=O)[O-])cc6)c6ccc([nH]6)c(-c6ccc(S(=O)(=O)[O-])cc6)c6nc(c(-c7ccc(S(=O)(=O)[O-])cc7)c7ccc4[nH]7)C=C6)C=C5)cc3)CC2)n1
REMARK SMILES IDX 19 1 18 2 17 3 16 4 14 5 15 6 13 8 12 9 11 10 6 11 7 12 8 13
REMARK SMILES IDX 9 14 87 15 10 16 86 17 5 18 1 19 2 20 3 21 88 22 4 23 20 25
REMARK SMILES IDX 21 26 22 27 23 28 24 29 25 31 26 32 27 33 85 34 28 35 84 36
REMARK SMILES IDX 29 37 30 38 31 39 78 40 32 41 83 42 77 43 79 44 33 45 82 46
REMARK SMILES IDX 76 47 75 48 34 50 64 51 45 52 63 53 46 54 49 55 62 56 80 57
REMARK SMILES IDX 47 58 48 59 61 61 81 62 50 63 35 64 36 65 44 66 37 67 43 68
REMARK SMILES IDX 38 69 39 70 40 71 41 72 42 73 65 74 66 75 74 76 67 77 73 78
REMARK SMILES IDX 68 79 69 80 70 81 71 82 72 83 51 84 52 85 60 86 53 87 59 88
REMARK SMILES IDX 54 89 55 90 56 91 57 92 58 93
REMARK H PARENT 16 7 4 24 23 30 79 49 49 60
REMARK Flexibility Score: inf
ROOT
ATOM      1  C   UNL A   1      32.028  26.806  26.738  1.00  0.00     0.002 C 
ENDROOT
BRANCH   1   2
ATOM      2  C   UNL A   1      30.811  26.009  26.272  1.00  0.00     0.021 C 
BRANCH   2   3
ATOM      3  C   UNL A   1      31.100  24.548  25.886  1.00  0.00     0.116 C 
BRANCH   3   4
ATOM      4  N   UNL A   1      32.318  24.076  26.519  1.00  0.00    -0.356 N 
ATOM      5  C   UNL A   1      33.467  23.549  26.008  1.00  0.00     0.220 C 
ATOM      6  O   UNL A   1      34.338  23.208  26.812  1.00  0.00    -0.275 OA
ATOM      7  H   UNL A   1      32.314  24.150  27.501  1.00  0.00     0.163 HD
BRANCH   5   8
ATOM      8  C   UNL A   1      33.715  23.436  24.512  1.00  0.00     0.100 C 
BRANCH   8   9
ATOM      9  C   UNL A   1      34.579  24.547  23.884  1.00  0.00     0.013 C 
BRANCH   9  10
ATOM     10  C   UNL A   1      33.760  25.629  23.179  1.00  0.00    -0.007 C 
ATOM     11  C   UNL A   1      30.374  27.807  22.848  1.00  0.00     0.291 C 
ATOM     12  O   UNL A   1      29.573  26.938  23.193  1.00  0.00    -0.265 OA
ATOM     13  N   UNL A   1      31.663  27.445  22.449  1.00  0.00    -0.336 N 
ATOM     14  C   UNL A   1      31.775  26.160  21.789  1.00  0.00     0.120 C 
ATOM     15  C   UNL A   1      32.877  27.989  23.069  1.00  0.00     0.120 C 
ATOM     16  C   UNL A   1      32.376  25.132  22.728  1.00  0.00     0.025 C 
ATOM     17  C   UNL A   1      33.574  26.941  23.963  1.00  0.00     0.025 C 
BRANCH  11  18
ATOM     18  C   UNL A   1      29.998  29.177  22.595  1.00  0.00     0.214 A 
ATOM     19  C   UNL A   1      28.025  32.040  23.195  1.00  0.00     0.092 C 
ATOM     20  C   UNL A   1      28.940  31.001  22.687  1.00  0.00     0.148 A 
ATOM     21  N   UNL A   1      29.403  30.985  21.434  1.00  0.00    -0.159 NA
ATOM     22  N   UNL A   1      29.282  29.908  23.427  1.00  0.00    -0.207 NA
ATOM     23  N   UNL A   1      30.112  29.853  21.419  1.00  0.00    -0.255 N 
ATOM     24  H   UNL A   1      30.651  29.547  20.654  1.00  0.00     0.192 HD
ENDBRANCH  11  18
ENDBRANCH   9  10
ENDBRANCH   8   9
ENDBRANCH   5   8
ENDBRANCH   3   4
ENDBRANCH   2   3
ENDBRANCH   1   2
BRANCH   1  25
ATOM     25  C   UNL A   1      31.726  28.221  27.252  1.00  0.00     0.002 C 
BRANCH  25  26
ATOM     26  C   UNL A   1      32.276  29.387  26.413  1.00  0.00     0.021 C 
BRANCH  26  27
ATOM     27  C   UNL A   1      33.626  29.912  26.887  1.00  0.00     0.116 C 
BRANCH  27  28
ATOM     28  N   UNL A   1      33.503  31.207  27.545  1.00  0.00    -0.352 N 
ATOM     29  C   UNL A   1      34.370  31.828  28.420  1.00  0.00     0.251 C 
ATOM     30  H   UNL A   1      32.684  31.711  27.334  1.00  0.00     0.163 HD
ATOM     31  O   UNL A   1      33.972  32.736  29.132  1.00  0.00    -0.269 OA
BRANCH  29  32
ATOM     32  C   UNL A   1      35.776  31.381  28.492  1.00  0.00     0.039 A 
ATOM     33  C   UNL A   1      36.807  32.317  28.623  1.00  0.00     0.014 A 
ATOM     34  C   UNL A   1      36.065  30.023  28.408  1.00  0.00     0.014 A 
ATOM     35  C   UNL A   1      38.124  31.870  28.736  1.00  0.00     0.010 A 
ATOM     36  C   UNL A   1      37.346  29.579  28.650  1.00  0.00     0.010 A 
ATOM     37  C   UNL A   1      38.395  30.494  28.777  1.00  0.00    -0.014 A 
BRANCH  37  38
ATOM     38  C   UNL A   1      39.743  30.000  29.107  1.00  0.00     0.031 A 
ATOM     39  C   UNL A   1      40.130  30.069  30.559  1.00  0.00     0.074 A 
ATOM     40  C   UNL A   1      40.483  29.306  28.205  1.00  0.00     0.049 A 
ATOM     41  N   UNL A   1      41.288  30.331  31.074  1.00  0.00    -0.248 NA
ATOM     42  C   UNL A   1      39.090  29.844  31.578  1.00  0.00     0.031 C 
ATOM     43  C   UNL A   1      40.118  28.980  26.815  1.00  0.00     0.029 A 
ATOM     44  N   UNL A   1      41.661  28.630  28.361  1.00  0.00    -0.354 N 
ATOM     45  C   UNL A   1      41.163  30.139  32.452  1.00  0.00     0.074 A 
ATOM     46  C   UNL A   1      39.784  29.867  32.716  1.00  0.00     0.031 C 
ATOM     47  C   UNL A   1      40.911  27.992  26.348  1.00  0.00     0.029 A 
ATOM     48  C   UNL A   1      41.955  27.745  27.323  1.00  0.00     0.049 A 
ATOM     49  H   UNL A   1      42.251  28.757  29.138  1.00  0.00     0.167 HD
ATOM     50  C   UNL A   1      42.241  30.056  33.272  1.00  0.00     0.031 A 
ATOM     51  C   UNL A   1      42.993  26.878  27.230  1.00  0.00     0.031 A 
ATOM     52  C   UNL A   1      43.370  30.730  32.718  1.00  0.00     0.049 A 
ATOM     53  C   UNL A   1      44.044  27.362  28.143  1.00  0.00     0.074 A 
ATOM     54  C   UNL A   1      43.720  32.048  32.551  1.00  0.00     0.029 A 
ATOM     55  N   UNL A   1      44.121  29.975  31.859  1.00  0.00    -0.354 N 
ATOM     56  N   UNL A   1      44.666  28.493  27.971  1.00  0.00    -0.248 NA
ATOM     57  C   UNL A   1      44.220  26.739  29.447  1.00  0.00     0.031 C 
ATOM     58  C   UNL A   1      44.483  32.082  31.350  1.00  0.00     0.029 A 
ATOM     59  C   UNL A   1      44.630  30.779  30.873  1.00  0.00     0.049 A 
ATOM     60  H   UNL A   1      44.272  29.005  31.938  1.00  0.00     0.167 HD
ATOM     61  C   UNL A   1      44.940  28.928  29.250  1.00  0.00     0.074 A 
ATOM     62  C   UNL A   1      44.824  27.743  30.090  1.00  0.00     0.031 C 
ATOM     63  C   UNL A   1      44.938  30.256  29.557  1.00  0.00     0.031 A 
BRANCH  50  64
ATOM     64  C   UNL A   1      42.417  28.959  34.290  1.00  0.00    -0.014 A 
ATOM     65  C   UNL A   1      42.292  27.615  33.887  1.00  0.00     0.010 A 
ATOM     66  C   UNL A   1      42.334  29.235  35.673  1.00  0.00     0.010 A 
ATOM     67  C   UNL A   1      42.050  26.596  34.820  1.00  0.00     0.020 A 
ATOM     68  C   UNL A   1      42.120  28.220  36.613  1.00  0.00     0.020 A 
ATOM     69  C   UNL A   1      41.948  26.909  36.176  1.00  0.00     0.054 A 
BRANCH  69  70
ATOM     70  S   UNL A   1      41.531  25.594  37.356  1.00  0.00     0.124 S 
ATOM     71  O   UNL A   1      41.676  24.396  36.535  1.00  0.00    -0.237 OA
ATOM     72  O   UNL A   1      42.540  25.773  38.396  1.00  0.00    -0.237 OA
ATOM     73  O   UNL A   1      40.165  25.920  37.759  1.00  0.00    -0.744 OA
ENDBRANCH  69  70
ENDBRANCH  50  64
BRANCH  51  74
ATOM     74  C   UNL A   1      43.136  25.607  26.480  1.00  0.00    -0.014 A 
ATOM     75  C   UNL A   1      43.989  25.517  25.363  1.00  0.00     0.010 A 
ATOM     76  C   UNL A   1      42.652  24.407  27.036  1.00  0.00     0.010 A 
ATOM     77  C   UNL A   1      44.404  24.271  24.866  1.00  0.00     0.020 A 
ATOM     78  C   UNL A   1      43.059  23.160  26.543  1.00  0.00     0.020 A 
ATOM     79  C   UNL A   1      43.954  23.097  25.477  1.00  0.00     0.054 A 
BRANCH  79  80
ATOM     80  S   UNL A   1      44.644  21.499  24.947  1.00  0.00     0.124 S 
ATOM     81  O   UNL A   1      43.759  20.543  25.604  1.00  0.00    -0.237 OA
ATOM     82  O   UNL A   1      44.530  21.570  23.493  1.00  0.00    -0.237 OA
ATOM     83  O   UNL A   1      46.013  21.531  25.461  1.00  0.00    -0.744 OA
ENDBRANCH  79  80
ENDBRANCH  51  74
BRANCH  63  84
ATOM     84  C   UNL A   1      45.085  31.252  28.435  1.00  0.00    -0.014 A 
ATOM     85  C   UNL A   1      44.029  31.691  27.613  1.00  0.00     0.010 A 
ATOM     86  C   UNL A   1      46.347  31.853  28.285  1.00  0.00     0.010 A 
ATOM     87  C   UNL A   1      44.243  32.693  26.653  1.00  0.00     0.020 A 
ATOM     88  C   UNL A   1      46.558  32.868  27.354  1.00  0.00     0.020 A 
ATOM     89  C   UNL A   1      45.509  33.275  26.532  1.00  0.00     0.054 A 
BRANCH  89  90
ATOM     90  S   UNL A   1      45.777  34.600  25.322  1.00  0.00     0.124 S 
ATOM     91  O   UNL A   1      45.411  35.795  26.077  1.00  0.00    -0.237 OA
ATOM     92  O   UNL A   1      47.196  34.467  25.001  1.00  0.00    -0.237 OA
ATOM     93  O   UNL A   1      44.869  34.258  24.227  1.00  0.00    -0.744 OA
ENDBRANCH  89  90
ENDBRANCH  63  84
ENDBRANCH  37  38
ENDBRANCH  29  32
ENDBRANCH  27  28
ENDBRANCH  26  27
ENDBRANCH  25  26
ENDBRANCH   1  25
TORSDOF 19
ENDMDL
