MODEL 1
REMARK VINA RESULT:     -11.5      0.000      0.000
REMARK SMILES O=C(NCCCCCCNC(=O)[C@H]1CCCCN1S(=O)(=O)c1cc[nH]c1)c1ccc(-c2c3nc(c(-c4ccc(S(=O)(=O)[O-])cc4)c4ccc([nH]4)c(-c4ccc(S(=O)(=O)[O-])cc4)c4nc(c(-c5ccc(S(=O)(=O)[O-])cc5)c5ccc2[nH]5)C=C4)C=C3)cc1
REMARK SMILES IDX 6 1 5 2 4 3 3 4 1 5 2 6 27 8 28 9 86 10 29 11 85 12 30 13
REMARK SMILES IDX 31 14 32 15 79 16 33 17 84 18 78 19 80 20 34 21 83 22 77 23
REMARK SMILES IDX 76 24 35 26 65 27 46 28 64 29 47 30 50 31 63 32 81 33 48 34
REMARK SMILES IDX 49 35 62 37 82 38 51 39 36 40 37 41 45 42 38 43 44 44 39 45
REMARK SMILES IDX 40 46 41 47 42 48 43 49 66 50 67 51 75 52 68 53 74 54 69 55
REMARK SMILES IDX 70 56 71 57 72 58 73 59 52 60 53 61 61 62 54 63 60 64 55 65
REMARK SMILES IDX 56 66 57 67 58 68 59 69 7 70 8 71 9 72 10 73 11 74 12 76
REMARK SMILES IDX 13 77 14 78 18 79 15 80 17 81 16 82 19 83 20 84 21 85 22 86
REMARK SMILES IDX 23 87 26 88 24 89 25 90
REMARK H PARENT 3 7 80 25 50 36 10 75 25 91
REMARK Flexibility Score: inf
ROOT
ATOM      1  C   UNL A   1      33.419  26.910  25.541  1.00  0.00     0.002 C 
ENDROOT
BRANCH   1   2
ATOM      2  C   UNL A   1      33.700  28.372  25.895  1.00  0.00     0.021 C 
BRANCH   2   3
ATOM      3  C   UNL A   1      33.520  28.726  27.377  1.00  0.00     0.116 C 
BRANCH   3   4
ATOM      4  N   UNL A   1      33.384  30.145  27.653  1.00  0.00    -0.352 N 
ATOM      5  O   UNL A   1      33.972  32.233  28.253  1.00  0.00    -0.269 OA
ATOM      6  C   UNL A   1      34.309  31.064  28.091  1.00  0.00     0.251 C 
ATOM      7  H   UNL A   1      32.484  30.510  27.501  1.00  0.00     0.163 HD
BRANCH   6   8
ATOM      8  C   UNL A   1      35.682  30.638  28.443  1.00  0.00     0.039 A 
ATOM      9  C   UNL A   1      36.689  30.539  27.479  1.00  0.00     0.014 A 
ATOM     10  C   UNL A   1      35.947  30.296  29.776  1.00  0.00     0.014 A 
ATOM     11  C   UNL A   1      37.910  29.977  27.814  1.00  0.00     0.010 A 
ATOM     12  C   UNL A   1      37.197  29.792  30.131  1.00  0.00     0.010 A 
ATOM     13  C   UNL A   1      38.172  29.619  29.143  1.00  0.00    -0.014 A 
BRANCH  13  14
ATOM     14  C   UNL A   1      39.575  29.268  29.462  1.00  0.00     0.031 A 
ATOM     15  C   UNL A   1      40.390  30.512  29.853  1.00  0.00     0.074 A 
ATOM     16  C   UNL A   1      39.962  27.979  29.235  1.00  0.00     0.049 A 
ATOM     17  N   UNL A   1      41.648  30.778  29.674  1.00  0.00    -0.248 NA
ATOM     18  C   UNL A   1      39.668  31.681  30.433  1.00  0.00     0.031 C 
ATOM     19  C   UNL A   1      39.051  26.882  28.844  1.00  0.00     0.029 A 
ATOM     20  N   UNL A   1      41.179  27.332  29.258  1.00  0.00    -0.354 N 
ATOM     21  C   UNL A   1      41.896  32.059  30.217  1.00  0.00     0.074 A 
ATOM     22  C   UNL A   1      40.623  32.599  30.590  1.00  0.00     0.031 C 
ATOM     23  C   UNL A   1      39.742  25.747  28.602  1.00  0.00     0.029 A 
ATOM     24  C   UNL A   1      41.157  25.991  28.804  1.00  0.00     0.049 A 
ATOM     25  H   UNL A   1      42.003  27.772  29.568  1.00  0.00     0.167 HD
ATOM     26  C   UNL A   1      43.141  32.586  30.398  1.00  0.00     0.031 A 
ATOM     27  C   UNL A   1      42.207  25.152  28.551  1.00  0.00     0.031 A 
ATOM     28  C   UNL A   1      44.145  31.702  29.911  1.00  0.00     0.049 A 
ATOM     29  C   UNL A   1      43.428  25.903  28.904  1.00  0.00     0.074 A 
ATOM     30  C   UNL A   1      44.636  31.430  28.662  1.00  0.00     0.029 A 
ATOM     31  N   UNL A   1      44.606  30.744  30.781  1.00  0.00    -0.354 N 
ATOM     32  N   UNL A   1      43.811  26.192  30.109  1.00  0.00    -0.248 NA
ATOM     33  C   UNL A   1      44.265  26.435  27.821  1.00  0.00     0.031 C 
ATOM     34  C   UNL A   1      45.030  30.075  28.728  1.00  0.00     0.029 A 
ATOM     35  C   UNL A   1      44.841  29.611  30.035  1.00  0.00     0.049 A 
ATOM     36  H   UNL A   1      44.742  30.848  31.751  1.00  0.00     0.167 HD
ATOM     37  C   UNL A   1      44.699  27.221  29.911  1.00  0.00     0.074 A 
ATOM     38  C   UNL A   1      45.150  27.116  28.542  1.00  0.00     0.031 C 
ATOM     39  C   UNL A   1      44.634  28.335  30.683  1.00  0.00     0.031 A 
BRANCH  26  40
ATOM     40  C   UNL A   1      43.597  33.817  31.136  1.00  0.00    -0.014 A 
ATOM     41  C   UNL A   1      43.792  33.703  32.536  1.00  0.00     0.010 A 
ATOM     42  C   UNL A   1      43.565  35.110  30.593  1.00  0.00     0.010 A 
ATOM     43  C   UNL A   1      43.842  34.821  33.371  1.00  0.00     0.020 A 
ATOM     44  C   UNL A   1      43.646  36.244  31.425  1.00  0.00     0.020 A 
ATOM     45  C   UNL A   1      43.735  36.088  32.811  1.00  0.00     0.054 A 
BRANCH  45  46
ATOM     46  S   UNL A   1      43.632  37.512  33.932  1.00  0.00     0.124 S 
ATOM     47  O   UNL A   1      43.978  38.624  33.051  1.00  0.00    -0.237 OA
ATOM     48  O   UNL A   1      42.237  37.472  34.367  1.00  0.00    -0.237 OA
ATOM     49  O   UNL A   1      44.610  37.206  34.972  1.00  0.00    -0.744 OA
ENDBRANCH  45  46
ENDBRANCH  26  40
BRANCH  27  50
ATOM     50  C   UNL A   1      42.422  23.809  27.888  1.00  0.00    -0.014 A 
ATOM     51  C   UNL A   1      43.170  22.744  28.406  1.00  0.00     0.010 A 
ATOM     52  C   UNL A   1      41.710  23.533  26.686  1.00  0.00     0.010 A 
ATOM     53  C   UNL A   1      43.081  21.448  27.848  1.00  0.00     0.020 A 
ATOM     54  C   UNL A   1      41.575  22.249  26.152  1.00  0.00     0.020 A 
ATOM     55  C   UNL A   1      42.241  21.199  26.758  1.00  0.00     0.054 A 
BRANCH  55  56
ATOM     56  S   UNL A   1      41.892  19.501  26.218  1.00  0.00     0.124 S 
ATOM     57  O   UNL A   1      42.748  19.363  25.045  1.00  0.00    -0.237 OA
ATOM     58  O   UNL A   1      42.279  18.705  27.380  1.00  0.00    -0.237 OA
ATOM     59  O   UNL A   1      40.455  19.522  25.947  1.00  0.00    -0.744 OA
ENDBRANCH  55  56
ENDBRANCH  27  50
BRANCH  39  60
ATOM     60  C   UNL A   1      43.916  28.147  32.012  1.00  0.00    -0.014 A 
ATOM     61  C   UNL A   1      44.532  27.431  33.052  1.00  0.00     0.010 A 
ATOM     62  C   UNL A   1      42.595  28.590  32.227  1.00  0.00     0.010 A 
ATOM     63  C   UNL A   1      43.860  27.177  34.258  1.00  0.00     0.020 A 
ATOM     64  C   UNL A   1      41.915  28.350  33.429  1.00  0.00     0.020 A 
ATOM     65  C   UNL A   1      42.555  27.642  34.443  1.00  0.00     0.054 A 
BRANCH  65  66
ATOM     66  S   UNL A   1      41.715  27.296  36.014  1.00  0.00     0.124 S 
ATOM     67  O   UNL A   1      40.869  28.474  36.194  1.00  0.00    -0.237 OA
ATOM     68  O   UNL A   1      41.003  26.054  35.723  1.00  0.00    -0.237 OA
ATOM     69  O   UNL A   1      42.807  27.171  36.979  1.00  0.00    -0.744 OA
ENDBRANCH  65  66
ENDBRANCH  39  60
ENDBRANCH  13  14
ENDBRANCH   6   8
ENDBRANCH   3   4
ENDBRANCH   2   3
ENDBRANCH   1   2
BRANCH   1  70
ATOM     70  C   UNL A   1      31.994  26.442  25.822  1.00  0.00     0.002 C 
BRANCH  70  71
ATOM     71  C   UNL A   1      31.468  25.401  24.832  1.00  0.00     0.021 C 
BRANCH  71  72
ATOM     72  C   UNL A   1      31.001  24.086  25.458  1.00  0.00     0.116 C 
BRANCH  72  73
ATOM     73  N   UNL A   1      32.027  23.517  26.320  1.00  0.00    -0.355 N 
ATOM     74  C   UNL A   1      33.189  22.859  26.059  1.00  0.00     0.238 C 
ATOM     75  H   UNL A   1      31.843  23.630  27.280  1.00  0.00     0.163 HD
ATOM     76  O   UNL A   1      33.788  22.409  27.042  1.00  0.00    -0.273 OA
BRANCH  74  77
ATOM     77  C   UNL A   1      33.750  22.688  24.628  1.00  0.00     0.162 C 
ATOM     78  C   UNL A   1      35.034  23.528  24.457  1.00  0.00     0.030 C 
ATOM     79  N   UNL A   1      34.049  21.258  24.210  1.00  0.00    -0.185 NA
ATOM     80  C   UNL A   1      36.264  22.931  25.143  1.00  0.00     0.004 C 
ATOM     81  C   UNL A   1      35.160  20.666  25.002  1.00  0.00     0.103 C 
ATOM     82  C   UNL A   1      36.440  21.463  24.783  1.00  0.00     0.017 C 
BRANCH  79  83
ATOM     83  S   UNL A   1      32.638  20.310  24.175  1.00  0.00     0.245 S 
ATOM     84  O   UNL A   1      31.845  20.680  25.340  1.00  0.00    -0.207 OA
ATOM     85  O   UNL A   1      32.114  20.358  22.836  1.00  0.00    -0.207 OA
BRANCH  83  86
ATOM     86  C   UNL A   1      32.894  18.619  24.423  1.00  0.00     0.100 A 
ATOM     87  C   UNL A   1      32.627  17.901  25.615  1.00  0.00     0.041 A 
ATOM     88  C   UNL A   1      33.154  17.688  23.433  1.00  0.00     0.104 A 
ATOM     89  C   UNL A   1      32.682  16.559  25.305  1.00  0.00     0.083 A 
ATOM     90  N   UNL A   1      33.000  16.440  23.976  1.00  0.00    -0.366 N 
ATOM     91  H   UNL A   1      33.101  15.591  23.489  1.00  0.00     0.165 HD
ENDBRANCH  83  86
ENDBRANCH  79  83
ENDBRANCH  74  77
ENDBRANCH  72  73
ENDBRANCH  71  72
ENDBRANCH  70  71
ENDBRANCH   1  70
TORSDOF 18
ENDMDL
MODEL 2
REMARK VINA RESULT:     -11.5      3.909      7.536
REMARK SMILES O=C(NCCCCCCNC(=O)[C@H]1CCCCN1S(=O)(=O)c1cc[nH]c1)c1ccc(-c2c3nc(c(-c4ccc(S(=O)(=O)[O-])cc4)c4ccc([nH]4)c(-c4ccc(S(=O)(=O)[O-])cc4)c4nc(c(-c5ccc(S(=O)(=O)[O-])cc5)c5ccc2[nH]5)C=C4)C=C3)cc1
REMARK SMILES IDX 6 1 5 2 4 3 3 4 1 5 2 6 27 8 28 9 86 10 29 11 85 12 30 13
REMARK SMILES IDX 31 14 32 15 79 16 33 17 84 18 78 19 80 20 34 21 83 22 77 23
REMARK SMILES IDX 76 24 35 26 65 27 46 28 64 29 47 30 50 31 63 32 81 33 48 34
REMARK SMILES IDX 49 35 62 37 82 38 51 39 36 40 37 41 45 42 38 43 44 44 39 45
REMARK SMILES IDX 40 46 41 47 42 48 43 49 66 50 67 51 75 52 68 53 74 54 69 55
REMARK SMILES IDX 70 56 71 57 72 58 73 59 52 60 53 61 61 62 54 63 60 64 55 65
REMARK SMILES IDX 56 66 57 67 58 68 59 69 7 70 8 71 9 72 10 73 11 74 12 76
REMARK SMILES IDX 13 77 14 78 18 79 15 80 17 81 16 82 19 83 20 84 21 85 22 86
REMARK SMILES IDX 23 87 26 88 24 89 25 90
REMARK H PARENT 3 7 80 25 50 36 10 75 25 91
REMARK Flexibility Score: inf
ROOT
ATOM      1  C   UNL A   1      36.912  20.296  24.907  1.00  0.00     0.002 C 
ENDROOT
BRANCH   1   2
ATOM      2  C   UNL A   1      38.036  19.260  24.989  1.00  0.00     0.021 C 
BRANCH   2   3
ATOM      3  C   UNL A   1      39.210  19.648  25.897  1.00  0.00     0.116 C 
BRANCH   3   4
ATOM      4  N   UNL A   1      40.396  18.823  25.746  1.00  0.00    -0.352 N 
ATOM      5  O   UNL A   1      42.568  18.239  25.802  1.00  0.00    -0.269 OA
ATOM      6  C   UNL A   1      41.718  19.102  25.999  1.00  0.00     0.251 C 
ATOM      7  H   UNL A   1      40.226  17.915  25.407  1.00  0.00     0.163 HD
BRANCH   6   8
ATOM      8  C   UNL A   1      42.129  20.457  26.430  1.00  0.00     0.039 A 
ATOM      9  C   UNL A   1      42.231  20.798  27.781  1.00  0.00     0.014 A 
ATOM     10  C   UNL A   1      42.384  21.417  25.441  1.00  0.00     0.014 A 
ATOM     11  C   UNL A   1      42.454  22.116  28.145  1.00  0.00     0.010 A 
ATOM     12  C   UNL A   1      42.674  22.732  25.803  1.00  0.00     0.010 A 
ATOM     13  C   UNL A   1      42.692  23.081  27.157  1.00  0.00    -0.014 A 
BRANCH  13  14
ATOM     14  C   UNL A   1      43.169  24.399  27.633  1.00  0.00     0.031 A 
ATOM     15  C   UNL A   1      42.000  25.372  27.859  1.00  0.00     0.074 A 
ATOM     16  C   UNL A   1      44.519  24.599  27.664  1.00  0.00     0.049 A 
ATOM     17  N   UNL A   1      41.949  26.663  27.729  1.00  0.00    -0.248 NA
ATOM     18  C   UNL A   1      40.656  24.807  28.172  1.00  0.00     0.031 C 
ATOM     19  C   UNL A   1      45.533  23.554  27.406  1.00  0.00     0.029 A 
ATOM     20  N   UNL A   1      45.313  25.703  27.889  1.00  0.00    -0.354 N 
ATOM     21  C   UNL A   1      40.637  27.074  28.055  1.00  0.00     0.074 A 
ATOM     22  C   UNL A   1      39.866  25.880  28.235  1.00  0.00     0.031 C 
ATOM     23  C   UNL A   1      46.777  24.078  27.418  1.00  0.00     0.029 A 
ATOM     24  C   UNL A   1      46.699  25.503  27.677  1.00  0.00     0.049 A 
ATOM     25  H   UNL A   1      44.943  26.569  28.177  1.00  0.00     0.167 HD
ATOM     26  C   UNL A   1      40.263  28.374  28.232  1.00  0.00     0.031 A 
ATOM     27  C   UNL A   1      47.707  26.426  27.652  1.00  0.00     0.031 A 
ATOM     28  C   UNL A   1      41.353  29.256  27.982  1.00  0.00     0.049 A 
ATOM     29  C   UNL A   1      47.081  27.727  27.956  1.00  0.00     0.074 A 
ATOM     30  C   UNL A   1      41.914  29.759  26.839  1.00  0.00     0.029 A 
ATOM     31  N   UNL A   1      42.188  29.527  29.037  1.00  0.00    -0.354 N 
ATOM     32  N   UNL A   1      46.631  28.092  29.116  1.00  0.00    -0.248 NA
ATOM     33  C   UNL A   1      46.878  28.685  26.860  1.00  0.00     0.031 C 
ATOM     34  C   UNL A   1      43.276  29.942  27.170  1.00  0.00     0.029 A 
ATOM     35  C   UNL A   1      43.461  29.624  28.520  1.00  0.00     0.049 A 
ATOM     36  H   UNL A   1      41.928  29.632  29.981  1.00  0.00     0.167 HD
ATOM     37  C   UNL A   1      45.790  29.133  28.807  1.00  0.00     0.074 A 
ATOM     38  C   UNL A   1      46.206  29.627  27.514  1.00  0.00     0.031 C 
ATOM     39  C   UNL A   1      44.555  29.199  29.365  1.00  0.00     0.031 A 
BRANCH  26  40
ATOM     40  C   UNL A   1      38.994  28.974  28.774  1.00  0.00    -0.014 A 
ATOM     41  C   UNL A   1      38.295  29.884  27.941  1.00  0.00     0.010 A 
ATOM     42  C   UNL A   1      38.617  28.918  30.125  1.00  0.00     0.010 A 
ATOM     43  C   UNL A   1      37.345  30.774  28.448  1.00  0.00     0.020 A 
ATOM     44  C   UNL A   1      37.638  29.791  30.638  1.00  0.00     0.020 A 
ATOM     45  C   UNL A   1      37.046  30.744  29.805  1.00  0.00     0.054 A 
BRANCH  45  46
ATOM     46  S   UNL A   1      35.937  32.020  30.465  1.00  0.00     0.124 S 
ATOM     47  O   UNL A   1      35.694  31.544  31.824  1.00  0.00    -0.237 OA
ATOM     48  O   UNL A   1      36.752  33.230  30.365  1.00  0.00    -0.237 OA
ATOM     49  O   UNL A   1      34.786  31.977  29.568  1.00  0.00    -0.744 OA
ENDBRANCH  45  46
ENDBRANCH  26  40
BRANCH  27  50
ATOM     50  C   UNL A   1      49.166  26.468  27.252  1.00  0.00    -0.014 A 
ATOM     51  C   UNL A   1      50.256  26.601  28.121  1.00  0.00     0.010 A 
ATOM     52  C   UNL A   1      49.494  26.231  25.886  1.00  0.00     0.010 A 
ATOM     53  C   UNL A   1      51.577  26.351  27.682  1.00  0.00     0.020 A 
ATOM     54  C   UNL A   1      50.787  25.935  25.448  1.00  0.00     0.020 A 
ATOM     55  C   UNL A   1      51.826  25.966  26.361  1.00  0.00     0.054 A 
BRANCH  55  56
ATOM     56  S   UNL A   1      53.464  25.363  25.859  1.00  0.00     0.124 S 
ATOM     57  O   UNL A   1      53.178  23.998  25.431  1.00  0.00    -0.237 OA
ATOM     58  O   UNL A   1      53.839  26.293  24.796  1.00  0.00    -0.237 OA
ATOM     59  O   UNL A   1      54.257  25.484  27.081  1.00  0.00    -0.744 OA
ENDBRANCH  55  56
ENDBRANCH  27  50
BRANCH  39  60
ATOM     60  C   UNL A   1      44.394  28.400  30.651  1.00  0.00    -0.014 A 
ATOM     61  C   UNL A   1      43.988  27.057  30.602  1.00  0.00     0.010 A 
ATOM     62  C   UNL A   1      44.551  28.982  31.925  1.00  0.00     0.010 A 
ATOM     63  C   UNL A   1      43.758  26.323  31.776  1.00  0.00     0.020 A 
ATOM     64  C   UNL A   1      44.332  28.258  33.106  1.00  0.00     0.020 A 
ATOM     65  C   UNL A   1      43.935  26.927  33.024  1.00  0.00     0.054 A 
BRANCH  65  66
ATOM     66  S   UNL A   1      43.629  25.949  34.523  1.00  0.00     0.124 S 
ATOM     67  O   UNL A   1      44.634  26.460  35.452  1.00  0.00    -0.237 OA
ATOM     68  O   UNL A   1      42.247  26.294  34.845  1.00  0.00    -0.237 OA
ATOM     69  O   UNL A   1      43.837  24.567  34.092  1.00  0.00    -0.744 OA
ENDBRANCH  65  66
ENDBRANCH  39  60
ENDBRANCH  13  14
ENDBRANCH   6   8
ENDBRANCH   3   4
ENDBRANCH   2   3
ENDBRANCH   1   2
BRANCH   1  70
ATOM     70  C   UNL A   1      37.378  21.745  24.816  1.00  0.00     0.002 C 
BRANCH  70  71
ATOM     71  C   UNL A   1      36.462  22.649  23.988  1.00  0.00     0.021 C 
BRANCH  71  72
ATOM     72  C   UNL A   1      35.700  23.709  24.785  1.00  0.00     0.116 C 
BRANCH  72  73
ATOM     73  N   UNL A   1      34.696  24.368  23.964  1.00  0.00    -0.355 N 
ATOM     74  C   UNL A   1      33.607  25.125  24.269  1.00  0.00     0.238 C 
ATOM     75  H   UNL A   1      34.831  24.241  22.997  1.00  0.00     0.163 HD
ATOM     76  O   UNL A   1      32.892  25.452  23.316  1.00  0.00    -0.273 OA
BRANCH  74  77
ATOM     77  C   UNL A   1      33.278  25.571  25.712  1.00  0.00     0.162 C 
ATOM     78  C   UNL A   1      33.704  27.040  25.924  1.00  0.00     0.030 C 
ATOM     79  N   UNL A   1      31.822  25.425  26.126  1.00  0.00    -0.185 NA
ATOM     80  C   UNL A   1      32.772  28.059  25.266  1.00  0.00     0.004 C 
ATOM     81  C   UNL A   1      30.931  26.335  25.357  1.00  0.00     0.103 C 
ATOM     82  C   UNL A   1      31.316  27.785  25.617  1.00  0.00     0.017 C 
BRANCH  79  83
ATOM     83  S   UNL A   1      31.331  23.797  26.116  1.00  0.00     0.245 S 
ATOM     84  O   UNL A   1      30.473  23.602  27.277  1.00  0.00    -0.207 OA
ATOM     85  O   UNL A   1      30.909  23.478  24.778  1.00  0.00    -0.207 OA
BRANCH  83  86
ATOM     86  C   UNL A   1      32.600  22.657  26.397  1.00  0.00     0.100 A 
ATOM     87  C   UNL A   1      33.412  22.582  27.556  1.00  0.00     0.041 A 
ATOM     88  C   UNL A   1      32.834  21.511  25.657  1.00  0.00     0.104 A 
ATOM     89  C   UNL A   1      34.076  21.375  27.512  1.00  0.00     0.083 A 
ATOM     90  N   UNL A   1      33.716  20.730  26.356  1.00  0.00    -0.366 N 
ATOM     91  H   UNL A   1      34.040  19.845  26.073  1.00  0.00     0.165 HD
ENDBRANCH  83  86
ENDBRANCH  79  83
ENDBRANCH  74  77
ENDBRANCH  72  73
ENDBRANCH  71  72
ENDBRANCH  70  71
ENDBRANCH   1  70
TORSDOF 18
ENDMDL
MODEL 3
REMARK VINA RESULT:     -11.3      1.574      2.485
REMARK SMILES O=C(NCCCCCCNC(=O)[C@H]1CCCCN1S(=O)(=O)c1cc[nH]c1)c1ccc(-c2c3nc(c(-c4ccc(S(=O)(=O)[O-])cc4)c4ccc([nH]4)c(-c4ccc(S(=O)(=O)[O-])cc4)c4nc(c(-c5ccc(S(=O)(=O)[O-])cc5)c5ccc2[nH]5)C=C4)C=C3)cc1
REMARK SMILES IDX 6 1 5 2 4 3 3 4 1 5 2 6 27 8 28 9 86 10 29 11 85 12 30 13
REMARK SMILES IDX 31 14 32 15 79 16 33 17 84 18 78 19 80 20 34 21 83 22 77 23
REMARK SMILES IDX 76 24 35 26 65 27 46 28 64 29 47 30 50 31 63 32 81 33 48 34
REMARK SMILES IDX 49 35 62 37 82 38 51 39 36 40 37 41 45 42 38 43 44 44 39 45
REMARK SMILES IDX 40 46 41 47 42 48 43 49 66 50 67 51 75 52 68 53 74 54 69 55
REMARK SMILES IDX 70 56 71 57 72 58 73 59 52 60 53 61 61 62 54 63 60 64 55 65
REMARK SMILES IDX 56 66 57 67 58 68 59 69 7 70 8 71 9 72 10 73 11 74 12 76
REMARK SMILES IDX 13 77 14 78 18 79 15 80 17 81 16 82 19 83 20 84 21 85 22 86
REMARK SMILES IDX 23 87 26 88 24 89 25 90
REMARK H PARENT 3 7 80 25 50 36 10 75 25 91
REMARK Flexibility Score: inf
ROOT
ATOM      1  C   UNL A   1      34.010  28.630  24.558  1.00  0.00     0.002 C 
ENDROOT
BRANCH   1   2
ATOM      2  C   UNL A   1      33.014  28.349  25.686  1.00  0.00     0.021 C 
BRANCH   2   3
ATOM      3  C   UNL A   1      33.523  28.674  27.096  1.00  0.00     0.116 C 
BRANCH   3   4
ATOM      4  N   UNL A   1      33.351  30.058  27.501  1.00  0.00    -0.352 N 
ATOM      5  O   UNL A   1      33.882  32.092  28.305  1.00  0.00    -0.269 OA
ATOM      6  C   UNL A   1      34.248  30.951  28.040  1.00  0.00     0.251 C 
ATOM      7  H   UNL A   1      32.445  30.417  27.369  1.00  0.00     0.163 HD
BRANCH   6   8
ATOM      8  C   UNL A   1      35.625  30.522  28.374  1.00  0.00     0.039 A 
ATOM      9  C   UNL A   1      36.599  30.350  27.388  1.00  0.00     0.014 A 
ATOM     10  C   UNL A   1      35.926  30.253  29.716  1.00  0.00     0.014 A 
ATOM     11  C   UNL A   1      37.822  29.789  27.717  1.00  0.00     0.010 A 
ATOM     12  C   UNL A   1      37.179  29.750  30.062  1.00  0.00     0.010 A 
ATOM     13  C   UNL A   1      38.120  29.503  29.057  1.00  0.00    -0.014 A 
BRANCH  13  14
ATOM     14  C   UNL A   1      39.526  29.147  29.352  1.00  0.00     0.031 A 
ATOM     15  C   UNL A   1      40.338  30.380  29.785  1.00  0.00     0.074 A 
ATOM     16  C   UNL A   1      39.918  27.870  29.073  1.00  0.00     0.049 A 
ATOM     17  N   UNL A   1      41.594  30.658  29.607  1.00  0.00    -0.248 NA
ATOM     18  C   UNL A   1      39.615  31.522  30.414  1.00  0.00     0.031 C 
ATOM     19  C   UNL A   1      39.009  26.784  28.647  1.00  0.00     0.029 A 
ATOM     20  N   UNL A   1      41.138  27.229  29.063  1.00  0.00    -0.354 N 
ATOM     21  C   UNL A   1      41.839  31.919  30.197  1.00  0.00     0.074 A 
ATOM     22  C   UNL A   1      40.567  32.438  30.599  1.00  0.00     0.031 C 
ATOM     23  C   UNL A   1      39.704  25.662  28.357  1.00  0.00     0.029 A 
ATOM     24  C   UNL A   1      41.119  25.906  28.559  1.00  0.00     0.049 A 
ATOM     25  H   UNL A   1      41.963  27.660  29.385  1.00  0.00     0.167 HD
ATOM     26  C   UNL A   1      43.083  32.445  30.390  1.00  0.00     0.031 A 
ATOM     27  C   UNL A   1      42.172  25.082  28.268  1.00  0.00     0.031 A 
ATOM     28  C   UNL A   1      44.088  31.585  29.863  1.00  0.00     0.049 A 
ATOM     29  C   UNL A   1      43.391  25.825  28.640  1.00  0.00     0.074 A 
ATOM     30  C   UNL A   1      44.572  31.363  28.601  1.00  0.00     0.029 A 
ATOM     31  N   UNL A   1      44.559  30.597  30.692  1.00  0.00    -0.354 N 
ATOM     32  N   UNL A   1      43.781  26.070  29.853  1.00  0.00    -0.248 NA
ATOM     33  C   UNL A   1      44.219  26.402  27.573  1.00  0.00     0.031 C 
ATOM     34  C   UNL A   1      44.972  30.008  28.613  1.00  0.00     0.029 A 
ATOM     35  C   UNL A   1      44.794  29.494  29.902  1.00  0.00     0.049 A 
ATOM     36  H   UNL A   1      44.702  30.664  31.664  1.00  0.00     0.167 HD
ATOM     37  C   UNL A   1      44.663  27.110  29.689  1.00  0.00     0.074 A 
ATOM     38  C   UNL A   1      45.105  27.059  28.314  1.00  0.00     0.031 C 
ATOM     39  C   UNL A   1      44.598  28.194  30.503  1.00  0.00     0.031 A 
BRANCH  26  40
ATOM     40  C   UNL A   1      43.539  33.649  31.171  1.00  0.00    -0.014 A 
ATOM     41  C   UNL A   1      43.231  33.683  32.554  1.00  0.00     0.010 A 
ATOM     42  C   UNL A   1      43.983  34.842  30.580  1.00  0.00     0.010 A 
ATOM     43  C   UNL A   1      43.256  34.869  33.290  1.00  0.00     0.020 A 
ATOM     44  C   UNL A   1      44.042  36.036  31.323  1.00  0.00     0.020 A 
ATOM     45  C   UNL A   1      43.631  36.049  32.659  1.00  0.00     0.054 A 
BRANCH  45  46
ATOM     46  S   UNL A   1      43.493  37.600  33.592  1.00  0.00     0.124 S 
ATOM     47  O   UNL A   1      43.420  38.595  32.526  1.00  0.00    -0.237 OA
ATOM     48  O   UNL A   1      42.257  37.405  34.349  1.00  0.00    -0.237 OA
ATOM     49  O   UNL A   1      44.710  37.630  34.398  1.00  0.00    -0.744 OA
ENDBRANCH  45  46
ENDBRANCH  26  40
BRANCH  27  50
ATOM     50  C   UNL A   1      42.388  23.767  27.553  1.00  0.00    -0.014 A 
ATOM     51  C   UNL A   1      43.432  22.862  27.786  1.00  0.00     0.010 A 
ATOM     52  C   UNL A   1      41.387  23.326  26.640  1.00  0.00     0.010 A 
ATOM     53  C   UNL A   1      43.391  21.547  27.269  1.00  0.00     0.020 A 
ATOM     54  C   UNL A   1      41.308  22.016  26.160  1.00  0.00     0.020 A 
ATOM     55  C   UNL A   1      42.301  21.117  26.505  1.00  0.00     0.054 A 
BRANCH  55  56
ATOM     56  S   UNL A   1      42.092  19.363  26.083  1.00  0.00     0.124 S 
ATOM     57  O   UNL A   1      42.497  18.694  27.315  1.00  0.00    -0.237 OA
ATOM     58  O   UNL A   1      40.671  19.276  25.755  1.00  0.00    -0.237 OA
ATOM     59  O   UNL A   1      42.992  19.182  24.945  1.00  0.00    -0.744 OA
ENDBRANCH  55  56
ENDBRANCH  27  50
BRANCH  39  60
ATOM     60  C   UNL A   1      43.891  27.951  31.829  1.00  0.00    -0.014 A 
ATOM     61  C   UNL A   1      44.538  27.246  32.856  1.00  0.00     0.010 A 
ATOM     62  C   UNL A   1      42.551  28.332  32.050  1.00  0.00     0.010 A 
ATOM     63  C   UNL A   1      43.878  26.941  34.057  1.00  0.00     0.020 A 
ATOM     64  C   UNL A   1      41.883  28.042  33.249  1.00  0.00     0.020 A 
ATOM     65  C   UNL A   1      42.555  27.345  34.250  1.00  0.00     0.054 A 
BRANCH  65  66
ATOM     66  S   UNL A   1      41.732  26.936  35.816  1.00  0.00     0.124 S 
ATOM     67  O   UNL A   1      40.822  25.861  35.430  1.00  0.00    -0.237 OA
ATOM     68  O   UNL A   1      42.851  26.535  36.663  1.00  0.00    -0.237 OA
ATOM     69  O   UNL A   1      41.078  28.185  36.207  1.00  0.00    -0.744 OA
ENDBRANCH  65  66
ENDBRANCH  39  60
ENDBRANCH  13  14
ENDBRANCH   6   8
ENDBRANCH   3   4
ENDBRANCH   2   3
ENDBRANCH   1   2
BRANCH   1  70
ATOM     70  C   UNL A   1      33.382  28.875  23.191  1.00  0.00     0.002 C 
BRANCH  70  71
ATOM     71  C   UNL A   1      32.289  27.872  22.812  1.00  0.00     0.021 C 
BRANCH  71  72
ATOM     72  C   UNL A   1      32.791  26.562  22.204  1.00  0.00     0.116 C 
BRANCH  72  73
ATOM     73  N   UNL A   1      31.831  25.486  22.398  1.00  0.00    -0.355 N 
ATOM     74  C   UNL A   1      31.645  24.586  23.401  1.00  0.00     0.238 C 
ATOM     75  H   UNL A   1      31.190  25.390  21.656  1.00  0.00     0.163 HD
ATOM     76  O   UNL A   1      30.784  23.723  23.200  1.00  0.00    -0.273 OA
BRANCH  74  77
ATOM     77  C   UNL A   1      32.441  24.635  24.725  1.00  0.00     0.162 C 
ATOM     78  C   UNL A   1      31.562  25.221  25.852  1.00  0.00     0.030 C 
ATOM     79  N   UNL A   1      33.008  23.306  25.197  1.00  0.00    -0.185 NA
ATOM     80  C   UNL A   1      30.502  24.253  26.382  1.00  0.00     0.004 C 
ATOM     81  C   UNL A   1      31.937  22.343  25.567  1.00  0.00     0.103 C 
ATOM     82  C   UNL A   1      31.110  22.899  26.720  1.00  0.00     0.017 C 
BRANCH  79  83
ATOM     83  S   UNL A   1      34.148  22.690  24.097  1.00  0.00     0.245 S 
ATOM     84  O   UNL A   1      34.004  21.240  24.099  1.00  0.00    -0.207 OA
ATOM     85  O   UNL A   1      34.062  23.475  22.895  1.00  0.00    -0.207 OA
BRANCH  83  86
ATOM     86  C   UNL A   1      35.797  22.898  24.571  1.00  0.00     0.100 A 
ATOM     87  C   UNL A   1      36.285  23.853  25.498  1.00  0.00     0.041 A 
ATOM     88  C   UNL A   1      36.829  22.012  24.313  1.00  0.00     0.104 A 
ATOM     89  C   UNL A   1      37.578  23.493  25.813  1.00  0.00     0.083 A 
ATOM     90  N   UNL A   1      37.898  22.371  25.092  1.00  0.00    -0.366 N 
ATOM     91  H   UNL A   1      38.760  21.898  25.127  1.00  0.00     0.165 HD
ENDBRANCH  83  86
ENDBRANCH  79  83
ENDBRANCH  74  77
ENDBRANCH  72  73
ENDBRANCH  71  72
ENDBRANCH  70  71
ENDBRANCH   1  70
TORSDOF 18
ENDMDL
