MODEL 1
REMARK VINA RESULT:     -11.4      0.000      0.000
REMARK SMILES C#CCNC(=O)[C@H](C)S(=O)(=O)c1ccc(C(=O)NCCCCCCNC(=O)c2ccc(-c3c4nc(c(-c5ccc(S(=O)(=O)[O-])cc5)c5ccc([nH]5)c(-c5ccc(S(=O)(=O)[O-])cc5)c5nc(c(-c6ccc(S(=O)(=O)[O-])cc6)c6ccc3[nH]6)C=C5)C=C4)cc2)cc1F
REMARK SMILES IDX 20 1 19 2 18 3 16 4 17 5 15 7 12 8 13 9 89 10 14 11 88 12
REMARK SMILES IDX 90 13 9 14 10 15 11 16 7 17 8 18 5 19 4 20 6 22 3 23 2 24
REMARK SMILES IDX 1 25 21 26 22 27 23 28 24 29 25 30 26 31 27 33 28 34 29 35
REMARK SMILES IDX 87 36 30 37 86 38 31 39 32 40 33 41 80 42 34 43 85 44 79 45
REMARK SMILES IDX 81 46 35 47 84 48 78 49 77 50 36 52 66 53 47 54 65 55 48 56
REMARK SMILES IDX 51 57 64 58 82 59 49 60 50 61 63 63 83 64 52 65 37 66 38 67
REMARK SMILES IDX 46 68 39 69 45 70 40 71 41 72 42 73 43 74 44 75 67 76 68 77
REMARK SMILES IDX 76 78 69 79 75 80 70 81 71 82 72 83 73 84 74 85 53 86 54 87
REMARK SMILES IDX 62 88 55 89 61 90 56 91 57 92 58 93 59 94 60 95
REMARK H PARENT 18 6 4 21 25 32 81 51 51 62
REMARK Flexibility Score: inf
ROOT
ATOM      1  C   UNL A   1      31.288  30.113  25.256  1.00  0.00     0.021 C 
ENDROOT
BRANCH   1   2
ATOM      2  C   UNL A   1      31.085  29.173  24.064  1.00  0.00     0.116 C 
BRANCH   2   3
ATOM      3  N   UNL A   1      32.264  29.177  23.217  1.00  0.00    -0.352 N 
ATOM      4  C   UNL A   1      33.267  28.272  22.999  1.00  0.00     0.251 C 
ATOM      5  O   UNL A   1      34.164  28.595  22.217  1.00  0.00    -0.269 OA
ATOM      6  H   UNL A   1      32.364  30.004  22.690  1.00  0.00     0.163 HD
BRANCH   4   7
ATOM      7  C   UNL A   1      33.304  26.909  23.598  1.00  0.00     0.042 A 
ATOM      8  C   UNL A   1      33.608  24.393  24.808  1.00  0.00     0.103 A 
ATOM      9  C   UNL A   1      34.059  25.533  25.472  1.00  0.00     0.024 A 
ATOM     10  C   UNL A   1      33.015  24.514  23.562  1.00  0.00     0.142 A 
ATOM     11  C   UNL A   1      33.920  26.781  24.856  1.00  0.00     0.015 A 
ATOM     12  C   UNL A   1      32.794  25.763  22.993  1.00  0.00     0.054 A 
ATOM     13  F   UNL A   1      32.688  23.442  22.836  1.00  0.00    -0.206 F 
BRANCH   8  14
ATOM     14  S   UNL A   1      33.943  22.794  25.464  1.00  0.00     0.192 S 
ATOM     15  O   UNL A   1      32.681  22.068  25.431  1.00  0.00    -0.223 OA
ATOM     16  O   UNL A   1      34.559  23.020  26.758  1.00  0.00    -0.223 OA
BRANCH  14  17
ATOM     17  C   UNL A   1      35.057  21.916  24.384  1.00  0.00     0.199 C 
ATOM     18  C   UNL A   1      36.074  22.879  23.758  1.00  0.00     0.036 C 
BRANCH  17  19
ATOM     19  C   UNL A   1      35.787  20.781  25.062  1.00  0.00     0.239 C 
ATOM     20  N   UNL A   1      35.305  19.508  25.040  1.00  0.00    -0.344 N 
ATOM     21  H   UNL A   1      35.949  18.810  25.298  1.00  0.00     0.164 HD
ATOM     22  O   UNL A   1      36.881  20.966  25.604  1.00  0.00    -0.274 OA
BRANCH  20  23
ATOM     23  C   UNL A   1      33.987  19.038  24.696  1.00  0.00     0.206 C 
BRANCH  23  24
ATOM     24  C   UNL A   1      34.071  17.738  23.911  1.00  0.00    -0.085 C 
ATOM     25  C   UNL A   1      34.142  16.623  23.238  1.00  0.00     0.006 C 
ENDBRANCH  23  24
ENDBRANCH  20  23
ENDBRANCH  17  19
ENDBRANCH  14  17
ENDBRANCH   8  14
ENDBRANCH   4   7
ENDBRANCH   2   3
ENDBRANCH   1   2
BRANCH   1  26
ATOM     26  C   UNL A   1      31.974  29.430  26.446  1.00  0.00     0.002 C 
BRANCH  26  27
ATOM     27  C   UNL A   1      33.176  30.192  27.017  1.00  0.00     0.002 C 
BRANCH  27  28
ATOM     28  C   UNL A   1      34.405  29.329  27.321  1.00  0.00     0.021 C 
BRANCH  28  29
ATOM     29  C   UNL A   1      35.590  30.100  27.895  1.00  0.00     0.116 C 
BRANCH  29  30
ATOM     30  N   UNL A   1      35.494  30.232  29.341  1.00  0.00    -0.352 N 
ATOM     31  C   UNL A   1      36.430  29.929  30.299  1.00  0.00     0.251 C 
ATOM     32  H   UNL A   1      34.641  30.587  29.679  1.00  0.00     0.163 HD
ATOM     33  O   UNL A   1      36.107  29.891  31.483  1.00  0.00    -0.269 OA
BRANCH  31  34
ATOM     34  C   UNL A   1      37.822  29.638  29.897  1.00  0.00     0.039 A 
ATOM     35  C   UNL A   1      38.759  29.314  30.881  1.00  0.00     0.014 A 
ATOM     36  C   UNL A   1      38.200  29.698  28.552  1.00  0.00     0.014 A 
ATOM     37  C   UNL A   1      40.068  28.997  30.511  1.00  0.00     0.010 A 
ATOM     38  C   UNL A   1      39.492  29.329  28.181  1.00  0.00     0.010 A 
ATOM     39  C   UNL A   1      40.438  28.980  29.157  1.00  0.00    -0.014 A 
BRANCH  39  40
ATOM     40  C   UNL A   1      41.809  28.600  28.737  1.00  0.00     0.031 A 
ATOM     41  C   UNL A   1      42.891  29.642  28.662  1.00  0.00     0.074 A 
ATOM     42  C   UNL A   1      42.063  27.334  28.354  1.00  0.00     0.049 A 
ATOM     43  N   UNL A   1      44.124  29.521  28.245  1.00  0.00    -0.248 NA
ATOM     44  C   UNL A   1      42.530  31.004  29.091  1.00  0.00     0.031 C 
ATOM     45  C   UNL A   1      41.088  26.240  28.344  1.00  0.00     0.029 A 
ATOM     46  N   UNL A   1      43.216  26.754  27.889  1.00  0.00    -0.354 N 
ATOM     47  C   UNL A   1      44.681  30.792  28.339  1.00  0.00     0.074 A 
ATOM     48  C   UNL A   1      43.640  31.676  28.816  1.00  0.00     0.031 C 
ATOM     49  C   UNL A   1      41.690  25.119  27.912  1.00  0.00     0.029 A 
ATOM     50  C   UNL A   1      43.079  25.421  27.582  1.00  0.00     0.049 A 
ATOM     51  H   UNL A   1      44.062  27.247  27.784  1.00  0.00     0.167 HD
ATOM     52  C   UNL A   1      45.948  31.185  28.065  1.00  0.00     0.031 A 
ATOM     53  C   UNL A   1      43.970  24.540  27.087  1.00  0.00     0.031 A 
ATOM     54  C   UNL A   1      46.987  30.301  27.609  1.00  0.00     0.049 A 
ATOM     55  C   UNL A   1      45.376  24.995  26.807  1.00  0.00     0.074 A 
ATOM     56  C   UNL A   1      48.315  30.592  27.354  1.00  0.00     0.029 A 
ATOM     57  N   UNL A   1      46.815  28.950  27.342  1.00  0.00    -0.354 N 
ATOM     58  N   UNL A   1      45.897  26.190  26.951  1.00  0.00    -0.248 NA
ATOM     59  C   UNL A   1      46.316  23.981  26.309  1.00  0.00     0.031 C 
ATOM     60  C   UNL A   1      48.940  29.425  26.900  1.00  0.00     0.029 A 
ATOM     61  C   UNL A   1      48.009  28.398  26.915  1.00  0.00     0.049 A 
ATOM     62  H   UNL A   1      45.968  28.459  27.442  1.00  0.00     0.167 HD
ATOM     63  C   UNL A   1      47.233  26.065  26.589  1.00  0.00     0.074 A 
ATOM     64  C   UNL A   1      47.442  24.678  26.226  1.00  0.00     0.031 C 
ATOM     65  C   UNL A   1      48.201  27.014  26.565  1.00  0.00     0.031 A 
BRANCH  52  66
ATOM     66  C   UNL A   1      46.278  32.642  28.251  1.00  0.00    -0.014 A 
ATOM     67  C   UNL A   1      46.295  33.526  27.156  1.00  0.00     0.010 A 
ATOM     68  C   UNL A   1      46.545  33.140  29.537  1.00  0.00     0.010 A 
ATOM     69  C   UNL A   1      46.617  34.872  27.340  1.00  0.00     0.020 A 
ATOM     70  C   UNL A   1      46.842  34.493  29.730  1.00  0.00     0.020 A 
ATOM     71  C   UNL A   1      46.896  35.346  28.625  1.00  0.00     0.054 A 
BRANCH  71  72
ATOM     72  S   UNL A   1      47.299  37.101  28.839  1.00  0.00     0.124 S 
ATOM     73  O   UNL A   1      46.110  37.751  28.295  1.00  0.00    -0.237 OA
ATOM     74  O   UNL A   1      47.471  37.219  30.285  1.00  0.00    -0.237 OA
ATOM     75  O   UNL A   1      48.518  37.274  28.054  1.00  0.00    -0.744 OA
ENDBRANCH  71  72
ENDBRANCH  52  66
BRANCH  53  76
ATOM     76  C   UNL A   1      43.562  23.131  26.848  1.00  0.00    -0.014 A 
ATOM     77  C   UNL A   1      43.636  22.580  25.557  1.00  0.00     0.010 A 
ATOM     78  C   UNL A   1      43.122  22.325  27.913  1.00  0.00     0.010 A 
ATOM     79  C   UNL A   1      43.264  21.252  25.332  1.00  0.00     0.020 A 
ATOM     80  C   UNL A   1      42.771  20.990  27.695  1.00  0.00     0.020 A 
ATOM     81  C   UNL A   1      42.834  20.464  26.404  1.00  0.00     0.054 A 
BRANCH  81  82
ATOM     82  S   UNL A   1      42.414  18.725  26.102  1.00  0.00     0.124 S 
ATOM     83  O   UNL A   1      42.633  18.129  27.415  1.00  0.00    -0.237 OA
ATOM     84  O   UNL A   1      41.022  18.804  25.666  1.00  0.00    -0.237 OA
ATOM     85  O   UNL A   1      43.360  18.323  25.063  1.00  0.00    -0.744 OA
ENDBRANCH  81  82
ENDBRANCH  53  76
BRANCH  65  86
ATOM     86  C   UNL A   1      49.585  26.581  26.168  1.00  0.00    -0.014 A 
ATOM     87  C   UNL A   1      50.112  26.899  24.904  1.00  0.00     0.010 A 
ATOM     88  C   UNL A   1      50.392  25.906  27.102  1.00  0.00     0.010 A 
ATOM     89  C   UNL A   1      51.418  26.528  24.573  1.00  0.00     0.020 A 
ATOM     90  C   UNL A   1      51.705  25.554  26.781  1.00  0.00     0.020 A 
ATOM     91  C   UNL A   1      52.206  25.858  25.514  1.00  0.00     0.054 A 
BRANCH  91  92
ATOM     92  S   UNL A   1      53.918  25.438  25.084  1.00  0.00     0.124 S 
ATOM     93  O   UNL A   1      54.676  26.383  25.901  1.00  0.00    -0.237 OA
ATOM     94  O   UNL A   1      54.018  24.038  25.489  1.00  0.00    -0.237 OA
ATOM     95  O   UNL A   1      53.979  25.670  23.643  1.00  0.00    -0.744 OA
ENDBRANCH  91  92
ENDBRANCH  65  86
ENDBRANCH  39  40
ENDBRANCH  31  34
ENDBRANCH  29  30
ENDBRANCH  28  29
ENDBRANCH  27  28
ENDBRANCH  26  27
ENDBRANCH   1  26
TORSDOF 21
ENDMDL
MODEL 2
REMARK VINA RESULT:     -11.3      6.166     12.130
REMARK SMILES C#CCNC(=O)[C@H](C)S(=O)(=O)c1ccc(C(=O)NCCCCCCNC(=O)c2ccc(-c3c4nc(c(-c5ccc(S(=O)(=O)[O-])cc5)c5ccc([nH]5)c(-c5ccc(S(=O)(=O)[O-])cc5)c5nc(c(-c6ccc(S(=O)(=O)[O-])cc6)c6ccc3[nH]6)C=C5)C=C4)cc2)cc1F
REMARK SMILES IDX 20 1 19 2 18 3 16 4 17 5 15 7 12 8 13 9 89 10 14 11 88 12
REMARK SMILES IDX 90 13 9 14 10 15 11 16 7 17 8 18 5 19 4 20 6 22 3 23 2 24
REMARK SMILES IDX 1 25 21 26 22 27 23 28 24 29 25 30 26 31 27 33 28 34 29 35
REMARK SMILES IDX 87 36 30 37 86 38 31 39 32 40 33 41 80 42 34 43 85 44 79 45
REMARK SMILES IDX 81 46 35 47 84 48 78 49 77 50 36 52 66 53 47 54 65 55 48 56
REMARK SMILES IDX 51 57 64 58 82 59 49 60 50 61 63 63 83 64 52 65 37 66 38 67
REMARK SMILES IDX 46 68 39 69 45 70 40 71 41 72 42 73 43 74 44 75 67 76 68 77
REMARK SMILES IDX 76 78 69 79 75 80 70 81 71 82 72 83 73 84 74 85 53 86 54 87
REMARK SMILES IDX 62 88 55 89 61 90 56 91 57 92 58 93 59 94 60 95
REMARK H PARENT 18 6 4 21 25 32 81 51 51 62
REMARK Flexibility Score: inf
ROOT
ATOM      1  C   UNL A   1      36.385  21.082  25.284  1.00  0.00     0.021 C 
ENDROOT
BRANCH   1   2
ATOM      2  C   UNL A   1      35.158  21.412  26.138  1.00  0.00     0.116 C 
BRANCH   2   3
ATOM      3  N   UNL A   1      34.033  20.587  25.737  1.00  0.00    -0.352 N 
ATOM      4  C   UNL A   1      32.942  20.809  24.941  1.00  0.00     0.251 C 
ATOM      5  O   UNL A   1      32.130  19.889  24.819  1.00  0.00    -0.269 OA
ATOM      6  H   UNL A   1      34.059  19.679  26.118  1.00  0.00     0.163 HD
BRANCH   4   7
ATOM      7  C   UNL A   1      32.713  22.064  24.172  1.00  0.00     0.042 A 
ATOM      8  C   UNL A   1      32.526  24.485  22.761  1.00  0.00     0.103 A 
ATOM      9  C   UNL A   1      33.640  23.667  22.578  1.00  0.00     0.024 A 
ATOM     10  C   UNL A   1      31.525  24.093  23.635  1.00  0.00     0.142 A 
ATOM     11  C   UNL A   1      33.735  22.471  23.296  1.00  0.00     0.015 A 
ATOM     12  C   UNL A   1      31.576  22.862  24.277  1.00  0.00     0.054 A 
ATOM     13  F   UNL A   1      30.506  24.902  23.939  1.00  0.00    -0.206 F 
BRANCH   8  14
ATOM     14  S   UNL A   1      32.467  26.083  22.026  1.00  0.00     0.192 S 
ATOM     15  O   UNL A   1      31.203  26.154  21.308  1.00  0.00    -0.223 OA
ATOM     16  O   UNL A   1      33.690  26.207  21.254  1.00  0.00    -0.223 OA
BRANCH  14  17
ATOM     17  C   UNL A   1      32.397  27.333  23.294  1.00  0.00     0.199 C 
ATOM     18  C   UNL A   1      33.427  27.045  24.394  1.00  0.00     0.036 C 
BRANCH  17  19
ATOM     19  C   UNL A   1      32.596  28.736  22.772  1.00  0.00     0.239 C 
ATOM     20  N   UNL A   1      31.541  29.559  22.519  1.00  0.00    -0.344 N 
ATOM     21  H   UNL A   1      31.766  30.511  22.409  1.00  0.00     0.164 HD
ATOM     22  O   UNL A   1      33.729  29.201  22.619  1.00  0.00    -0.274 OA
BRANCH  20  23
ATOM     23  C   UNL A   1      30.143  29.236  22.388  1.00  0.00     0.206 C 
BRANCH  23  24
ATOM     24  C   UNL A   1      29.280  30.338  22.983  1.00  0.00    -0.085 C 
ATOM     25  C   UNL A   1      28.541  31.284  23.493  1.00  0.00     0.006 C 
ENDBRANCH  23  24
ENDBRANCH  20  23
ENDBRANCH  17  19
ENDBRANCH  14  17
ENDBRANCH   8  14
ENDBRANCH   4   7
ENDBRANCH   2   3
ENDBRANCH   1   2
BRANCH   1  26
ATOM     26  C   UNL A   1      37.046  22.328  24.680  1.00  0.00     0.002 C 
BRANCH  26  27
ATOM     27  C   UNL A   1      37.837  23.182  25.679  1.00  0.00     0.002 C 
BRANCH  27  28
ATOM     28  C   UNL A   1      38.921  22.431  26.457  1.00  0.00     0.021 C 
BRANCH  28  29
ATOM     29  C   UNL A   1      39.987  23.328  27.080  1.00  0.00     0.116 C 
BRANCH  29  30
ATOM     30  N   UNL A   1      40.865  23.898  26.070  1.00  0.00    -0.352 N 
ATOM     31  C   UNL A   1      41.393  25.163  26.000  1.00  0.00     0.251 C 
ATOM     32  H   UNL A   1      41.115  23.293  25.335  1.00  0.00     0.163 HD
ATOM     33  O   UNL A   1      41.935  25.548  24.967  1.00  0.00    -0.269 OA
BRANCH  31  34
ATOM     34  C   UNL A   1      41.296  26.063  27.168  1.00  0.00     0.039 A 
ATOM     35  C   UNL A   1      42.182  27.139  27.272  1.00  0.00     0.014 A 
ATOM     36  C   UNL A   1      40.342  25.834  28.164  1.00  0.00     0.014 A 
ATOM     37  C   UNL A   1      42.075  28.019  28.351  1.00  0.00     0.010 A 
ATOM     38  C   UNL A   1      40.202  26.744  29.209  1.00  0.00     0.010 A 
ATOM     39  C   UNL A   1      41.070  27.842  29.315  1.00  0.00    -0.014 A 
BRANCH  39  40
ATOM     40  C   UNL A   1      40.907  28.792  30.442  1.00  0.00     0.031 A 
ATOM     41  C   UNL A   1      41.775  28.668  31.664  1.00  0.00     0.074 A 
ATOM     42  C   UNL A   1      39.931  29.720  30.398  1.00  0.00     0.049 A 
ATOM     43  N   UNL A   1      41.732  29.350  32.779  1.00  0.00    -0.248 NA
ATOM     44  C   UNL A   1      42.814  27.624  31.637  1.00  0.00     0.031 C 
ATOM     45  C   UNL A   1      38.998  29.915  29.285  1.00  0.00     0.029 A 
ATOM     46  N   UNL A   1      39.554  30.666  31.317  1.00  0.00    -0.354 N 
ATOM     47  C   UNL A   1      42.718  28.806  33.594  1.00  0.00     0.074 A 
ATOM     48  C   UNL A   1      43.317  27.713  32.860  1.00  0.00     0.031 C 
ATOM     49  C   UNL A   1      38.168  30.930  29.581  1.00  0.00     0.029 A 
ATOM     50  C   UNL A   1      38.487  31.433  30.914  1.00  0.00     0.049 A 
ATOM     51  H   UNL A   1      40.005  30.784  32.184  1.00  0.00     0.167 HD
ATOM     52  C   UNL A   1      43.099  29.190  34.836  1.00  0.00     0.031 A 
ATOM     53  C   UNL A   1      37.835  32.427  31.546  1.00  0.00     0.031 A 
ATOM     54  C   UNL A   1      42.515  30.289  35.556  1.00  0.00     0.049 A 
ATOM     55  C   UNL A   1      38.287  32.848  32.917  1.00  0.00     0.074 A 
ATOM     56  C   UNL A   1      42.866  30.790  36.798  1.00  0.00     0.029 A 
ATOM     57  N   UNL A   1      41.457  31.062  35.098  1.00  0.00    -0.354 N 
ATOM     58  N   UNL A   1      39.255  32.354  33.650  1.00  0.00    -0.248 NA
ATOM     59  C   UNL A   1      37.566  33.967  33.540  1.00  0.00     0.031 C 
ATOM     60  C   UNL A   1      41.999  31.844  37.105  1.00  0.00     0.029 A 
ATOM     61  C   UNL A   1      41.137  32.026  36.036  1.00  0.00     0.049 A 
ATOM     62  H   UNL A   1      41.003  30.940  34.234  1.00  0.00     0.167 HD
ATOM     63  C   UNL A   1      39.279  33.120  34.809  1.00  0.00     0.074 A 
ATOM     64  C   UNL A   1      38.233  34.114  34.678  1.00  0.00     0.031 C 
ATOM     65  C   UNL A   1      40.098  33.012  35.885  1.00  0.00     0.031 A 
BRANCH  52  66
ATOM     66  C   UNL A   1      44.203  28.407  35.495  1.00  0.00    -0.014 A 
ATOM     67  C   UNL A   1      43.955  27.146  36.066  1.00  0.00     0.010 A 
ATOM     68  C   UNL A   1      45.509  28.925  35.519  1.00  0.00     0.010 A 
ATOM     69  C   UNL A   1      44.985  26.436  36.688  1.00  0.00     0.020 A 
ATOM     70  C   UNL A   1      46.549  28.207  36.118  1.00  0.00     0.020 A 
ATOM     71  C   UNL A   1      46.274  26.974  36.717  1.00  0.00     0.054 A 
BRANCH  71  72
ATOM     72  S   UNL A   1      47.598  26.029  37.520  1.00  0.00     0.124 S 
ATOM     73  O   UNL A   1      48.157  27.017  38.438  1.00  0.00    -0.237 OA
ATOM     74  O   UNL A   1      46.872  24.928  38.149  1.00  0.00    -0.237 OA
ATOM     75  O   UNL A   1      48.469  25.644  36.412  1.00  0.00    -0.744 OA
ENDBRANCH  71  72
ENDBRANCH  52  66
BRANCH  53  76
ATOM     76  C   UNL A   1      36.697  33.109  30.874  1.00  0.00    -0.014 A 
ATOM     77  C   UNL A   1      35.405  33.040  31.422  1.00  0.00     0.010 A 
ATOM     78  C   UNL A   1      36.904  33.854  29.699  1.00  0.00     0.010 A 
ATOM     79  C   UNL A   1      34.336  33.690  30.799  1.00  0.00     0.020 A 
ATOM     80  C   UNL A   1      35.843  34.524  29.087  1.00  0.00     0.020 A 
ATOM     81  C   UNL A   1      34.562  34.429  29.634  1.00  0.00     0.054 A 
BRANCH  81  82
ATOM     82  S   UNL A   1      33.174  35.317  28.874  1.00  0.00     0.124 S 
ATOM     83  O   UNL A   1      33.860  36.353  28.110  1.00  0.00    -0.237 OA
ATOM     84  O   UNL A   1      32.523  34.274  28.085  1.00  0.00    -0.237 OA
ATOM     85  O   UNL A   1      32.403  35.789  30.023  1.00  0.00    -0.744 OA
ENDBRANCH  81  82
ENDBRANCH  53  76
BRANCH  65  86
ATOM     86  C   UNL A   1      39.924  34.016  36.990  1.00  0.00    -0.014 A 
ATOM     87  C   UNL A   1      40.474  35.306  36.895  1.00  0.00     0.010 A 
ATOM     88  C   UNL A   1      39.138  33.683  38.109  1.00  0.00     0.010 A 
ATOM     89  C   UNL A   1      40.260  36.240  37.913  1.00  0.00     0.020 A 
ATOM     90  C   UNL A   1      38.904  34.622  39.117  1.00  0.00     0.020 A 
ATOM     91  C   UNL A   1      39.476  35.892  39.017  1.00  0.00     0.054 A 
BRANCH  91  92
ATOM     92  S   UNL A   1      39.162  37.138  40.297  1.00  0.00     0.124 S 
ATOM     93  O   UNL A   1      38.322  36.401  41.238  1.00  0.00    -0.237 OA
ATOM     94  O   UNL A   1      40.506  37.457  40.772  1.00  0.00    -0.237 OA
ATOM     95  O   UNL A   1      38.492  38.216  39.574  1.00  0.00    -0.744 OA
ENDBRANCH  91  92
ENDBRANCH  65  86
ENDBRANCH  39  40
ENDBRANCH  31  34
ENDBRANCH  29  30
ENDBRANCH  28  29
ENDBRANCH  27  28
ENDBRANCH  26  27
ENDBRANCH   1  26
TORSDOF 21
ENDMDL
MODEL 3
REMARK VINA RESULT:     -10.9      6.334     11.662
REMARK SMILES C#CCNC(=O)[C@H](C)S(=O)(=O)c1ccc(C(=O)NCCCCCCNC(=O)c2ccc(-c3c4nc(c(-c5ccc(S(=O)(=O)[O-])cc5)c5ccc([nH]5)c(-c5ccc(S(=O)(=O)[O-])cc5)c5nc(c(-c6ccc(S(=O)(=O)[O-])cc6)c6ccc3[nH]6)C=C5)C=C4)cc2)cc1F
REMARK SMILES IDX 20 1 19 2 18 3 16 4 17 5 15 7 12 8 13 9 89 10 14 11 88 12
REMARK SMILES IDX 90 13 9 14 10 15 11 16 7 17 8 18 5 19 4 20 6 22 3 23 2 24
REMARK SMILES IDX 1 25 21 26 22 27 23 28 24 29 25 30 26 31 27 33 28 34 29 35
REMARK SMILES IDX 87 36 30 37 86 38 31 39 32 40 33 41 80 42 34 43 85 44 79 45
REMARK SMILES IDX 81 46 35 47 84 48 78 49 77 50 36 52 66 53 47 54 65 55 48 56
REMARK SMILES IDX 51 57 64 58 82 59 49 60 50 61 63 63 83 64 52 65 37 66 38 67
REMARK SMILES IDX 46 68 39 69 45 70 40 71 41 72 42 73 43 74 44 75 67 76 68 77
REMARK SMILES IDX 76 78 69 79 75 80 70 81 71 82 72 83 73 84 74 85 53 86 54 87
REMARK SMILES IDX 62 88 55 89 61 90 56 91 57 92 58 93 59 94 60 95
REMARK H PARENT 18 6 4 21 25 32 81 51 51 62
REMARK Flexibility Score: inf
ROOT
ATOM      1  C   UNL A   1      36.493  21.722  24.812  1.00  0.00     0.021 C 
ENDROOT
BRANCH   1   2
ATOM      2  C   UNL A   1      35.444  21.226  25.810  1.00  0.00     0.116 C 
BRANCH   2   3
ATOM      3  N   UNL A   1      34.473  20.382  25.138  1.00  0.00    -0.352 N 
ATOM      4  C   UNL A   1      33.182  20.578  24.727  1.00  0.00     0.251 C 
ATOM      5  O   UNL A   1      32.604  19.627  24.196  1.00  0.00    -0.269 OA
ATOM      6  H   UNL A   1      34.813  19.480  24.936  1.00  0.00     0.163 HD
BRANCH   4   7
ATOM      7  C   UNL A   1      32.464  21.879  24.828  1.00  0.00     0.042 A 
ATOM      8  C   UNL A   1      31.336  24.445  24.991  1.00  0.00     0.103 A 
ATOM      9  C   UNL A   1      32.333  24.192  24.050  1.00  0.00     0.024 A 
ATOM     10  C   UNL A   1      30.913  23.429  25.833  1.00  0.00     0.142 A 
ATOM     11  C   UNL A   1      32.902  22.917  23.985  1.00  0.00     0.015 A 
ATOM     12  C   UNL A   1      31.414  22.139  25.705  1.00  0.00     0.054 A 
ATOM     13  F   UNL A   1      30.058  23.660  26.833  1.00  0.00    -0.206 F 
BRANCH   8  14
ATOM     14  S   UNL A   1      30.739  26.084  25.232  1.00  0.00     0.192 S 
ATOM     15  O   UNL A   1      31.093  26.450  26.596  1.00  0.00    -0.223 OA
ATOM     16  O   UNL A   1      29.330  26.044  24.888  1.00  0.00    -0.223 OA
BRANCH  14  17
ATOM     17  C   UNL A   1      31.613  27.212  24.165  1.00  0.00     0.199 C 
ATOM     18  C   UNL A   1      30.959  27.261  22.778  1.00  0.00     0.036 C 
BRANCH  17  19
ATOM     19  C   UNL A   1      31.720  28.612  24.722  1.00  0.00     0.239 C 
ATOM     20  N   UNL A   1      32.823  29.026  25.404  1.00  0.00    -0.344 N 
ATOM     21  H   UNL A   1      32.904  30.000  25.523  1.00  0.00     0.164 HD
ATOM     22  O   UNL A   1      30.832  29.444  24.519  1.00  0.00    -0.274 OA
BRANCH  20  23
ATOM     23  C   UNL A   1      33.888  28.243  25.978  1.00  0.00     0.206 C 
BRANCH  23  24
ATOM     24  C   UNL A   1      34.644  29.050  27.023  1.00  0.00    -0.085 C 
ATOM     25  C   UNL A   1      35.292  29.742  27.918  1.00  0.00     0.006 C 
ENDBRANCH  23  24
ENDBRANCH  20  23
ENDBRANCH  17  19
ENDBRANCH  14  17
ENDBRANCH   8  14
ENDBRANCH   4   7
ENDBRANCH   2   3
ENDBRANCH   1   2
BRANCH   1  26
ATOM     26  C   UNL A   1      36.649  23.248  24.815  1.00  0.00     0.002 C 
BRANCH  26  27
ATOM     27  C   UNL A   1      37.599  23.794  25.888  1.00  0.00     0.002 C 
BRANCH  27  28
ATOM     28  C   UNL A   1      38.745  22.853  26.277  1.00  0.00     0.021 C 
BRANCH  28  29
ATOM     29  C   UNL A   1      39.920  23.541  26.965  1.00  0.00     0.116 C 
BRANCH  29  30
ATOM     30  N   UNL A   1      40.788  24.206  26.007  1.00  0.00    -0.352 N 
ATOM     31  C   UNL A   1      41.301  25.479  26.045  1.00  0.00     0.251 C 
ATOM     32  H   UNL A   1      41.043  23.670  25.222  1.00  0.00     0.163 HD
ATOM     33  O   UNL A   1      41.835  25.958  25.048  1.00  0.00    -0.269 OA
BRANCH  31  34
ATOM     34  C   UNL A   1      41.196  26.274  27.287  1.00  0.00     0.039 A 
ATOM     35  C   UNL A   1      42.126  27.291  27.522  1.00  0.00     0.014 A 
ATOM     36  C   UNL A   1      40.191  26.004  28.220  1.00  0.00     0.014 A 
ATOM     37  C   UNL A   1      42.015  28.075  28.673  1.00  0.00     0.010 A 
ATOM     38  C   UNL A   1      40.050  26.822  29.339  1.00  0.00     0.010 A 
ATOM     39  C   UNL A   1      40.962  27.862  29.578  1.00  0.00    -0.014 A 
BRANCH  39  40
ATOM     40  C   UNL A   1      40.796  28.713  30.781  1.00  0.00     0.031 A 
ATOM     41  C   UNL A   1      39.737  29.781  30.808  1.00  0.00     0.074 A 
ATOM     42  C   UNL A   1      41.643  28.574  31.819  1.00  0.00     0.049 A 
ATOM     43  N   UNL A   1      39.489  30.672  31.733  1.00  0.00    -0.248 NA
ATOM     44  C   UNL A   1      38.857  29.873  29.632  1.00  0.00     0.031 C 
ATOM     45  C   UNL A   1      42.736  27.601  31.896  1.00  0.00     0.029 A 
ATOM     46  N   UNL A   1      41.725  29.259  33.005  1.00  0.00    -0.354 N 
ATOM     47  C   UNL A   1      38.443  31.445  31.242  1.00  0.00     0.074 A 
ATOM     48  C   UNL A   1      38.127  30.941  29.923  1.00  0.00     0.031 C 
ATOM     49  C   UNL A   1      43.367  27.742  33.074  1.00  0.00     0.029 A 
ATOM     50  C   UNL A   1      42.747  28.833  33.819  1.00  0.00     0.049 A 
ATOM     51  H   UNL A   1      41.110  29.988  33.249  1.00  0.00     0.167 HD
ATOM     52  C   UNL A   1      37.793  32.472  31.841  1.00  0.00     0.031 A 
ATOM     53  C   UNL A   1      43.144  29.274  35.028  1.00  0.00     0.031 A 
ATOM     54  C   UNL A   1      38.096  32.958  33.161  1.00  0.00     0.049 A 
ATOM     55  C   UNL A   1      42.398  30.404  35.682  1.00  0.00     0.074 A 
ATOM     56  C   UNL A   1      37.462  33.959  33.876  1.00  0.00     0.029 A 
ATOM     57  N   UNL A   1      39.118  32.477  33.966  1.00  0.00    -0.354 N 
ATOM     58  N   UNL A   1      41.377  31.088  35.223  1.00  0.00    -0.248 NA
ATOM     59  C   UNL A   1      42.849  30.813  37.019  1.00  0.00     0.031 C 
ATOM     60  C   UNL A   1      38.122  34.106  35.101  1.00  0.00     0.029 A 
ATOM     61  C   UNL A   1      39.139  33.167  35.164  1.00  0.00     0.049 A 
ATOM     62  H   UNL A   1      39.736  31.752  33.720  1.00  0.00     0.167 HD
ATOM     63  C   UNL A   1      41.046  31.989  36.227  1.00  0.00     0.074 A 
ATOM     64  C   UNL A   1      41.970  31.760  37.319  1.00  0.00     0.031 C 
ATOM     65  C   UNL A   1      40.061  32.921  36.244  1.00  0.00     0.031 A 
BRANCH  52  66
ATOM     66  C   UNL A   1      36.690  33.140  31.067  1.00  0.00    -0.014 A 
ATOM     67  C   UNL A   1      36.976  33.971  29.968  1.00  0.00     0.010 A 
ATOM     68  C   UNL A   1      35.349  32.913  31.422  1.00  0.00     0.010 A 
ATOM     69  C   UNL A   1      35.944  34.598  29.267  1.00  0.00     0.020 A 
ATOM     70  C   UNL A   1      34.311  33.517  30.706  1.00  0.00     0.020 A 
ATOM     71  C   UNL A   1      34.617  34.373  29.645  1.00  0.00     0.054 A 
BRANCH  71  72
ATOM     72  S   UNL A   1      33.293  35.188  28.711  1.00  0.00     0.124 S 
ATOM     73  O   UNL A   1      32.681  34.060  28.013  1.00  0.00    -0.237 OA
ATOM     74  O   UNL A   1      32.479  35.790  29.763  1.00  0.00    -0.237 OA
ATOM     75  O   UNL A   1      34.005  36.136  27.858  1.00  0.00    -0.744 OA
ENDBRANCH  71  72
ENDBRANCH  52  66
BRANCH  53  76
ATOM     76  C   UNL A   1      44.296  28.625  35.709  1.00  0.00    -0.014 A 
ATOM     77  C   UNL A   1      44.081  27.594  36.640  1.00  0.00     0.010 A 
ATOM     78  C   UNL A   1      45.614  29.016  35.412  1.00  0.00     0.010 A 
ATOM     79  C   UNL A   1      45.162  26.974  37.273  1.00  0.00     0.020 A 
ATOM     80  C   UNL A   1      46.698  28.383  36.025  1.00  0.00     0.020 A 
ATOM     81  C   UNL A   1      46.465  27.373  36.960  1.00  0.00     0.054 A 
BRANCH  81  82
ATOM     82  S   UNL A   1      47.858  26.515  37.746  1.00  0.00     0.124 S 
ATOM     83  O   UNL A   1      48.885  26.596  36.713  1.00  0.00    -0.237 OA
ATOM     84  O   UNL A   1      48.096  27.321  38.941  1.00  0.00    -0.237 OA
ATOM     85  O   UNL A   1      47.330  25.177  38.004  1.00  0.00    -0.744 OA
ENDBRANCH  81  82
ENDBRANCH  53  76
BRANCH  65  86
ATOM     86  C   UNL A   1      39.903  33.738  37.495  1.00  0.00    -0.014 A 
ATOM     87  C   UNL A   1      40.638  34.921  37.689  1.00  0.00     0.010 A 
ATOM     88  C   UNL A   1      38.953  33.351  38.458  1.00  0.00     0.010 A 
ATOM     89  C   UNL A   1      40.440  35.692  38.838  1.00  0.00     0.020 A 
ATOM     90  C   UNL A   1      38.739  34.131  39.597  1.00  0.00     0.020 A 
ATOM     91  C   UNL A   1      39.492  35.292  39.785  1.00  0.00     0.054 A 
BRANCH  91  92
ATOM     92  S   UNL A   1      39.211  36.338  41.240  1.00  0.00     0.124 S 
ATOM     93  O   UNL A   1      40.548  36.412  41.823  1.00  0.00    -0.237 OA
ATOM     94  O   UNL A   1      38.713  37.580  40.653  1.00  0.00    -0.237 OA
ATOM     95  O   UNL A   1      38.230  35.589  42.020  1.00  0.00    -0.744 OA
ENDBRANCH  91  92
ENDBRANCH  65  86
ENDBRANCH  39  40
ENDBRANCH  31  34
ENDBRANCH  29  30
ENDBRANCH  28  29
ENDBRANCH  27  28
ENDBRANCH  26  27
ENDBRANCH   1  26
TORSDOF 21
ENDMDL
