MODEL 1
REMARK VINA RESULT:     -12.0      0.000      0.000
REMARK SMILES O=C(NCCCCCCNC(=O)[C@@H]1Cc2[nH]cnc2CN1C(=O)c1csc(-c2cccs2)n1)c1ccc(-c2c3nc(c(-c4ccc(S(=O)(=O)[O-])cc4)c4ccc([nH]4)c(-c4ccc(S(=O)(=O)[O-])cc4)c4nc(c(-c5ccc(S(=O)(=O)[O-])cc5)c5ccc2[nH]5)C=C4)C=C3)cc1
REMARK SMILES IDX 6 1 5 2 4 3 3 4 1 5 2 6 34 8 35 9 93 10 36 11 92 12 37 13
REMARK SMILES IDX 38 14 39 15 86 16 40 17 91 18 85 19 87 20 41 21 90 22 84 23
REMARK SMILES IDX 83 24 42 26 72 27 53 28 71 29 54 30 57 31 70 32 88 33 55 34
REMARK SMILES IDX 56 35 69 37 89 38 58 39 43 40 44 41 52 42 45 43 51 44 46 45
REMARK SMILES IDX 47 46 48 47 49 48 50 49 73 50 74 51 82 52 75 53 81 54 76 55
REMARK SMILES IDX 77 56 78 57 79 58 80 59 59 60 60 61 68 62 61 63 67 64 62 65
REMARK SMILES IDX 63 66 64 67 65 68 66 69 7 70 8 71 9 72 10 73 11 74 12 76
REMARK SMILES IDX 13 77 14 78 21 79 15 80 20 81 16 82 19 83 17 84 18 86 22 87
REMARK SMILES IDX 23 88 24 89 25 90 33 91 26 92 27 93 28 94 29 95 32 96 30 97
REMARK SMILES IDX 31 98
REMARK H PARENT 3 7 87 25 57 36 10 75 16 85
REMARK Flexibility Score: inf
ROOT
ATOM      1  C   UNL A   1      40.606  20.921  27.055  1.00  0.00     0.002 C 
ENDROOT
BRANCH   1   2
ATOM      2  C   UNL A   1      41.110  19.788  26.155  1.00  0.00     0.021 C 
BRANCH   2   3
ATOM      3  C   UNL A   1      42.579  19.411  26.361  1.00  0.00     0.116 C 
BRANCH   3   4
ATOM      4  N   UNL A   1      43.460  19.925  25.335  1.00  0.00    -0.352 N 
ATOM      5  O   UNL A   1      44.742  21.202  24.073  1.00  0.00    -0.269 OA
ATOM      6  C   UNL A   1      44.005  21.151  25.062  1.00  0.00     0.251 C 
ATOM      7  H   UNL A   1      43.729  19.236  24.684  1.00  0.00     0.163 HD
BRANCH   6   8
ATOM      8  C   UNL A   1      43.765  22.399  25.848  1.00  0.00     0.039 A 
ATOM      9  C   UNL A   1      44.010  22.563  27.211  1.00  0.00     0.014 A 
ATOM     10  C   UNL A   1      43.270  23.506  25.133  1.00  0.00     0.014 A 
ATOM     11  C   UNL A   1      43.738  23.775  27.850  1.00  0.00     0.010 A 
ATOM     12  C   UNL A   1      43.020  24.730  25.762  1.00  0.00     0.010 A 
ATOM     13  C   UNL A   1      43.240  24.865  27.133  1.00  0.00    -0.014 A 
BRANCH  13  14
ATOM     14  C   UNL A   1      43.049  26.124  27.865  1.00  0.00     0.031 A 
ATOM     15  C   UNL A   1      44.127  27.154  27.778  1.00  0.00     0.074 A 
ATOM     16  C   UNL A   1      41.908  26.508  28.471  1.00  0.00     0.049 A 
ATOM     17  N   UNL A   1      44.764  27.741  28.742  1.00  0.00    -0.248 NA
ATOM     18  C   UNL A   1      44.515  27.608  26.433  1.00  0.00     0.031 C 
ATOM     19  C   UNL A   1      40.595  25.872  28.372  1.00  0.00     0.029 A 
ATOM     20  N   UNL A   1      41.666  27.640  29.209  1.00  0.00    -0.354 N 
ATOM     21  C   UNL A   1      45.504  28.759  28.147  1.00  0.00     0.074 A 
ATOM     22  C   UNL A   1      45.370  28.589  26.719  1.00  0.00     0.031 C 
ATOM     23  C   UNL A   1      39.660  26.735  28.824  1.00  0.00     0.029 A 
ATOM     24  C   UNL A   1      40.320  27.918  29.363  1.00  0.00     0.049 A 
ATOM     25  H   UNL A   1      42.380  28.199  29.590  1.00  0.00     0.167 HD
ATOM     26  C   UNL A   1      46.050  29.796  28.838  1.00  0.00     0.031 A 
ATOM     27  C   UNL A   1      39.759  29.054  29.833  1.00  0.00     0.031 A 
ATOM     28  C   UNL A   1      46.080  29.608  30.259  1.00  0.00     0.049 A 
ATOM     29  C   UNL A   1      40.736  29.818  30.641  1.00  0.00     0.074 A 
ATOM     30  C   UNL A   1      46.705  28.756  31.142  1.00  0.00     0.029 A 
ATOM     31  N   UNL A   1      45.174  30.332  30.992  1.00  0.00    -0.354 N 
ATOM     32  N   UNL A   1      41.204  29.430  31.793  1.00  0.00    -0.248 NA
ATOM     33  C   UNL A   1      41.367  31.011  30.088  1.00  0.00     0.031 C 
ATOM     34  C   UNL A   1      45.918  28.771  32.330  1.00  0.00     0.029 A 
ATOM     35  C   UNL A   1      44.814  29.589  32.089  1.00  0.00     0.049 A 
ATOM     36  H   UNL A   1      44.839  31.231  30.769  1.00  0.00     0.167 HD
ATOM     37  C   UNL A   1      42.406  30.095  31.937  1.00  0.00     0.074 A 
ATOM     38  C   UNL A   1      42.364  31.171  30.960  1.00  0.00     0.031 C 
ATOM     39  C   UNL A   1      43.456  29.524  32.595  1.00  0.00     0.031 A 
BRANCH  26  40
ATOM     40  C   UNL A   1      46.284  31.161  28.244  1.00  0.00    -0.014 A 
ATOM     41  C   UNL A   1      45.242  32.110  28.265  1.00  0.00     0.010 A 
ATOM     42  C   UNL A   1      47.392  31.428  27.414  1.00  0.00     0.010 A 
ATOM     43  C   UNL A   1      45.291  33.260  27.467  1.00  0.00     0.020 A 
ATOM     44  C   UNL A   1      47.466  32.592  26.641  1.00  0.00     0.020 A 
ATOM     45  C   UNL A   1      46.397  33.483  26.646  1.00  0.00     0.054 A 
BRANCH  45  46
ATOM     46  S   UNL A   1      46.414  34.924  25.547  1.00  0.00     0.124 S 
ATOM     47  O   UNL A   1      45.580  34.465  24.441  1.00  0.00    -0.237 OA
ATOM     48  O   UNL A   1      45.838  35.975  26.381  1.00  0.00    -0.237 OA
ATOM     49  O   UNL A   1      47.834  35.093  25.239  1.00  0.00    -0.744 OA
ENDBRANCH  45  46
ENDBRANCH  26  40
BRANCH  27  50
ATOM     50  C   UNL A   1      38.428  29.603  29.484  1.00  0.00    -0.014 A 
ATOM     51  C   UNL A   1      37.624  30.232  30.449  1.00  0.00     0.010 A 
ATOM     52  C   UNL A   1      38.033  29.700  28.133  1.00  0.00     0.010 A 
ATOM     53  C   UNL A   1      36.480  30.953  30.075  1.00  0.00     0.020 A 
ATOM     54  C   UNL A   1      36.884  30.399  27.753  1.00  0.00     0.020 A 
ATOM     55  C   UNL A   1      36.120  31.034  28.726  1.00  0.00     0.054 A 
BRANCH  55  56
ATOM     56  S   UNL A   1      34.705  32.061  28.240  1.00  0.00     0.124 S 
ATOM     57  O   UNL A   1      33.946  31.154  27.384  1.00  0.00    -0.237 OA
ATOM     58  O   UNL A   1      34.090  32.384  29.524  1.00  0.00    -0.237 OA
ATOM     59  O   UNL A   1      35.322  33.193  27.551  1.00  0.00    -0.744 OA
ENDBRANCH  55  56
ENDBRANCH  27  50
BRANCH  39  60
ATOM     60  C   UNL A   1      43.161  28.477  33.637  1.00  0.00    -0.014 A 
ATOM     61  C   UNL A   1      43.306  27.100  33.393  1.00  0.00     0.010 A 
ATOM     62  C   UNL A   1      42.848  28.902  34.941  1.00  0.00     0.010 A 
ATOM     63  C   UNL A   1      43.120  26.168  34.419  1.00  0.00     0.020 A 
ATOM     64  C   UNL A   1      42.679  27.975  35.977  1.00  0.00     0.020 A 
ATOM     65  C   UNL A   1      42.808  26.611  35.707  1.00  0.00     0.054 A 
BRANCH  65  66
ATOM     66  S   UNL A   1      42.658  25.398  37.048  1.00  0.00     0.124 S 
ATOM     67  O   UNL A   1      42.604  26.247  38.235  1.00  0.00    -0.237 OA
ATOM     68  O   UNL A   1      41.418  24.697  36.719  1.00  0.00    -0.237 OA
ATOM     69  O   UNL A   1      43.868  24.588  36.918  1.00  0.00    -0.744 OA
ENDBRANCH  65  66
ENDBRANCH  39  60
ENDBRANCH  13  14
ENDBRANCH   6   8
ENDBRANCH   3   4
ENDBRANCH   2   3
ENDBRANCH   1   2
BRANCH   1  70
ATOM     70  C   UNL A   1      40.344  22.257  26.352  1.00  0.00     0.002 C 
BRANCH  70  71
ATOM     71  C   UNL A   1      39.106  23.019  26.838  1.00  0.00     0.021 C 
BRANCH  71  72
ATOM     72  C   UNL A   1      38.053  23.260  25.759  1.00  0.00     0.116 C 
BRANCH  72  73
ATOM     73  N   UNL A   1      37.560  22.012  25.229  1.00  0.00    -0.354 N 
ATOM     74  C   UNL A   1      36.361  21.401  25.453  1.00  0.00     0.243 C 
ATOM     75  H   UNL A   1      38.172  21.536  24.624  1.00  0.00     0.163 HD
ATOM     76  O   UNL A   1      36.283  20.209  25.142  1.00  0.00    -0.273 OA
BRANCH  74  77
ATOM     77  C   UNL A   1      35.171  22.194  26.079  1.00  0.00     0.181 C 
ATOM     78  C   UNL A   1      34.138  21.179  26.674  1.00  0.00     0.091 C 
ATOM     79  N   UNL A   1      34.485  23.069  25.069  1.00  0.00    -0.319 N 
ATOM     80  C   UNL A   1      33.334  20.608  25.556  1.00  0.00     0.042 A 
ATOM     81  C   UNL A   1      33.953  22.389  23.863  1.00  0.00     0.178 C 
ATOM     82  N   UNL A   1      32.641  19.438  25.506  1.00  0.00    -0.348 N 
ATOM     83  C   UNL A   1      33.239  21.151  24.293  1.00  0.00     0.081 A 
ATOM     84  C   UNL A   1      32.139  19.330  24.236  1.00  0.00     0.197 A 
ATOM     85  H   UNL A   1      32.523  18.793  26.242  1.00  0.00     0.167 HD
ATOM     86  N   UNL A   1      32.480  20.353  23.482  1.00  0.00    -0.240 NA
BRANCH  79  87
ATOM     87  C   UNL A   1      34.137  24.407  25.235  1.00  0.00     0.274 C 
ATOM     88  O   UNL A   1      34.971  25.265  25.530  1.00  0.00    -0.267 OA
BRANCH  87  89
ATOM     89  C   UNL A   1      32.729  24.806  25.149  1.00  0.00     0.140 A 
ATOM     90  C   UNL A   1      31.819  24.440  26.124  1.00  0.00     0.101 A 
ATOM     91  N   UNL A   1      32.241  25.736  24.225  1.00  0.00    -0.230 NA
ATOM     92  S   UNL A   1      30.329  25.223  25.872  1.00  0.00    -0.121 S 
ATOM     93  C   UNL A   1      31.038  26.146  24.599  1.00  0.00     0.134 A 
BRANCH  93  94
ATOM     94  C   UNL A   1      30.392  27.306  24.015  1.00  0.00     0.063 A 
ATOM     95  C   UNL A   1      29.098  27.373  23.524  1.00  0.00     0.023 A 
ATOM     96  S   UNL A   1      31.206  28.803  23.759  1.00  0.00    -0.141 S 
ATOM     97  C   UNL A   1      28.793  28.634  22.926  1.00  0.00     0.012 A 
ATOM     98  C   UNL A   1      29.860  29.499  22.974  1.00  0.00     0.065 A 
ENDBRANCH  93  94
ENDBRANCH  87  89
ENDBRANCH  79  87
ENDBRANCH  74  77
ENDBRANCH  72  73
ENDBRANCH  71  72
ENDBRANCH  70  71
ENDBRANCH   1  70
TORSDOF 19
ENDMDL
MODEL 2
REMARK VINA RESULT:     -11.7      2.308      4.876
REMARK SMILES O=C(NCCCCCCNC(=O)[C@@H]1Cc2[nH]cnc2CN1C(=O)c1csc(-c2cccs2)n1)c1ccc(-c2c3nc(c(-c4ccc(S(=O)(=O)[O-])cc4)c4ccc([nH]4)c(-c4ccc(S(=O)(=O)[O-])cc4)c4nc(c(-c5ccc(S(=O)(=O)[O-])cc5)c5ccc2[nH]5)C=C4)C=C3)cc1
REMARK SMILES IDX 6 1 5 2 4 3 3 4 1 5 2 6 34 8 35 9 93 10 36 11 92 12 37 13
REMARK SMILES IDX 38 14 39 15 86 16 40 17 91 18 85 19 87 20 41 21 90 22 84 23
REMARK SMILES IDX 83 24 42 26 72 27 53 28 71 29 54 30 57 31 70 32 88 33 55 34
REMARK SMILES IDX 56 35 69 37 89 38 58 39 43 40 44 41 52 42 45 43 51 44 46 45
REMARK SMILES IDX 47 46 48 47 49 48 50 49 73 50 74 51 82 52 75 53 81 54 76 55
REMARK SMILES IDX 77 56 78 57 79 58 80 59 59 60 60 61 68 62 61 63 67 64 62 65
REMARK SMILES IDX 63 66 64 67 65 68 66 69 7 70 8 71 9 72 10 73 11 74 12 76
REMARK SMILES IDX 13 77 14 78 21 79 15 80 20 81 16 82 19 83 17 84 18 86 22 87
REMARK SMILES IDX 23 88 24 89 25 90 33 91 26 92 27 93 28 94 29 95 32 96 30 97
REMARK SMILES IDX 31 98
REMARK H PARENT 3 7 87 25 57 36 10 75 16 85
REMARK Flexibility Score: inf
ROOT
ATOM      1  C   UNL A   1      35.085  23.419  26.100  1.00  0.00     0.002 C 
ENDROOT
BRANCH   1   2
ATOM      2  C   UNL A   1      35.668  22.336  25.187  1.00  0.00     0.021 C 
BRANCH   2   3
ATOM      3  C   UNL A   1      37.085  22.619  24.682  1.00  0.00     0.116 C 
BRANCH   3   4
ATOM      4  N   UNL A   1      38.092  21.757  25.262  1.00  0.00    -0.352 N 
ATOM      5  O   UNL A   1      39.780  20.932  26.419  1.00  0.00    -0.269 OA
ATOM      6  C   UNL A   1      39.121  21.941  26.145  1.00  0.00     0.251 C 
ATOM      7  H   UNL A   1      38.020  20.824  24.951  1.00  0.00     0.163 HD
BRANCH   6   8
ATOM      8  C   UNL A   1      39.502  23.243  26.771  1.00  0.00     0.039 A 
ATOM      9  C   UNL A   1      38.790  24.438  26.663  1.00  0.00     0.014 A 
ATOM     10  C   UNL A   1      40.671  23.245  27.555  1.00  0.00     0.014 A 
ATOM     11  C   UNL A   1      39.244  25.604  27.283  1.00  0.00     0.010 A 
ATOM     12  C   UNL A   1      41.116  24.404  28.199  1.00  0.00     0.010 A 
ATOM     13  C   UNL A   1      40.408  25.598  28.053  1.00  0.00    -0.014 A 
BRANCH  13  14
ATOM     14  C   UNL A   1      40.778  26.848  28.729  1.00  0.00     0.031 A 
ATOM     15  C   UNL A   1      41.952  27.606  28.205  1.00  0.00     0.074 A 
ATOM     16  C   UNL A   1      40.046  27.467  29.677  1.00  0.00     0.049 A 
ATOM     17  N   UNL A   1      43.007  28.007  28.844  1.00  0.00    -0.248 NA
ATOM     18  C   UNL A   1      41.922  27.994  26.786  1.00  0.00     0.031 C 
ATOM     19  C   UNL A   1      38.678  27.151  30.088  1.00  0.00     0.029 A 
ATOM     20  N   UNL A   1      40.343  28.605  30.385  1.00  0.00    -0.354 N 
ATOM     21  C   UNL A   1      43.690  28.844  27.966  1.00  0.00     0.074 A 
ATOM     22  C   UNL A   1      43.019  28.746  26.691  1.00  0.00     0.031 C 
ATOM     23  C   UNL A   1      38.186  28.193  30.792  1.00  0.00     0.029 A 
ATOM     24  C   UNL A   1      39.240  29.179  30.990  1.00  0.00     0.049 A 
ATOM     25  H   UNL A   1      41.252  28.976  30.454  1.00  0.00     0.167 HD
ATOM     26  C   UNL A   1      44.664  29.710  28.356  1.00  0.00     0.031 A 
ATOM     27  C   UNL A   1      39.153  30.401  31.561  1.00  0.00     0.031 A 
ATOM     28  C   UNL A   1      45.159  29.484  29.682  1.00  0.00     0.049 A 
ATOM     29  C   UNL A   1      40.499  30.900  31.923  1.00  0.00     0.074 A 
ATOM     30  C   UNL A   1      45.853  28.490  30.334  1.00  0.00     0.029 A 
ATOM     31  N   UNL A   1      44.762  30.377  30.645  1.00  0.00    -0.354 N 
ATOM     32  N   UNL A   1      41.250  30.386  32.855  1.00  0.00    -0.248 NA
ATOM     33  C   UNL A   1      41.137  31.932  31.114  1.00  0.00     0.031 C 
ATOM     34  C   UNL A   1      45.569  28.654  31.721  1.00  0.00     0.029 A 
ATOM     35  C   UNL A   1      44.664  29.708  31.840  1.00  0.00     0.049 A 
ATOM     36  H   UNL A   1      44.578  31.334  30.503  1.00  0.00     0.167 HD
ATOM     37  C   UNL A   1      42.539  30.755  32.523  1.00  0.00     0.074 A 
ATOM     38  C   UNL A   1      42.390  31.837  31.564  1.00  0.00     0.031 C 
ATOM     39  C   UNL A   1      43.600  29.942  32.798  1.00  0.00     0.031 A 
BRANCH  26  40
ATOM     40  C   UNL A   1      44.966  31.001  27.639  1.00  0.00    -0.014 A 
ATOM     41  C   UNL A   1      46.172  31.125  26.920  1.00  0.00     0.010 A 
ATOM     42  C   UNL A   1      44.236  32.181  27.897  1.00  0.00     0.010 A 
ATOM     43  C   UNL A   1      46.643  32.377  26.505  1.00  0.00     0.020 A 
ATOM     44  C   UNL A   1      44.682  33.430  27.456  1.00  0.00     0.020 A 
ATOM     45  C   UNL A   1      45.902  33.524  26.793  1.00  0.00     0.054 A 
BRANCH  45  46
ATOM     46  S   UNL A   1      46.562  35.149  26.336  1.00  0.00     0.124 S 
ATOM     47  O   UNL A   1      47.446  34.810  25.225  1.00  0.00    -0.237 OA
ATOM     48  O   UNL A   1      45.361  35.900  25.983  1.00  0.00    -0.237 OA
ATOM     49  O   UNL A   1      47.229  35.595  27.559  1.00  0.00    -0.744 OA
ENDBRANCH  45  46
ENDBRANCH  26  40
BRANCH  27  50
ATOM     50  C   UNL A   1      37.943  31.248  31.676  1.00  0.00    -0.014 A 
ATOM     51  C   UNL A   1      37.274  31.399  32.902  1.00  0.00     0.010 A 
ATOM     52  C   UNL A   1      37.566  32.093  30.611  1.00  0.00     0.010 A 
ATOM     53  C   UNL A   1      36.279  32.376  33.064  1.00  0.00     0.020 A 
ATOM     54  C   UNL A   1      36.562  33.053  30.757  1.00  0.00     0.020 A 
ATOM     55  C   UNL A   1      35.933  33.200  31.989  1.00  0.00     0.054 A 
BRANCH  55  56
ATOM     56  S   UNL A   1      34.728  34.533  32.239  1.00  0.00     0.124 S 
ATOM     57  O   UNL A   1      33.666  33.854  32.977  1.00  0.00    -0.237 OA
ATOM     58  O   UNL A   1      35.494  35.518  32.995  1.00  0.00    -0.237 OA
ATOM     59  O   UNL A   1      34.376  34.938  30.878  1.00  0.00    -0.744 OA
ENDBRANCH  55  56
ENDBRANCH  27  50
BRANCH  39  60
ATOM     60  C   UNL A   1      43.474  28.964  33.936  1.00  0.00    -0.014 A 
ATOM     61  C   UNL A   1      43.818  29.291  35.260  1.00  0.00     0.010 A 
ATOM     62  C   UNL A   1      42.872  27.718  33.684  1.00  0.00     0.010 A 
ATOM     63  C   UNL A   1      43.590  28.386  36.303  1.00  0.00     0.020 A 
ATOM     64  C   UNL A   1      42.623  26.816  34.725  1.00  0.00     0.020 A 
ATOM     65  C   UNL A   1      42.992  27.154  36.030  1.00  0.00     0.054 A 
BRANCH  65  66
ATOM     66  S   UNL A   1      42.619  26.028  37.403  1.00  0.00     0.124 S 
ATOM     67  O   UNL A   1      41.188  26.240  37.605  1.00  0.00    -0.237 OA
ATOM     68  O   UNL A   1      42.989  24.720  36.865  1.00  0.00    -0.237 OA
ATOM     69  O   UNL A   1      43.477  26.506  38.485  1.00  0.00    -0.744 OA
ENDBRANCH  65  66
ENDBRANCH  39  60
ENDBRANCH  13  14
ENDBRANCH   6   8
ENDBRANCH   3   4
ENDBRANCH   2   3
ENDBRANCH   1   2
BRANCH   1  70
ATOM     70  C   UNL A   1      34.909  24.800  25.459  1.00  0.00     0.002 C 
BRANCH  70  71
ATOM     71  C   UNL A   1      33.835  25.685  26.100  1.00  0.00     0.021 C 
BRANCH  71  72
ATOM     72  C   UNL A   1      34.129  27.182  26.026  1.00  0.00     0.116 C 
BRANCH  72  73
ATOM     73  N   UNL A   1      32.908  27.949  26.041  1.00  0.00    -0.354 N 
ATOM     74  C   UNL A   1      32.157  28.385  24.988  1.00  0.00     0.243 C 
ATOM     75  H   UNL A   1      32.569  28.193  26.932  1.00  0.00     0.163 HD
ATOM     76  O   UNL A   1      31.334  29.273  25.227  1.00  0.00    -0.273 OA
BRANCH  74  77
ATOM     77  C   UNL A   1      32.360  27.778  23.564  1.00  0.00     0.181 C 
ATOM     78  C   UNL A   1      32.207  28.914  22.497  1.00  0.00     0.091 C 
ATOM     79  N   UNL A   1      31.371  26.685  23.273  1.00  0.00    -0.319 N 
ATOM     80  C   UNL A   1      30.757  29.197  22.308  1.00  0.00     0.042 A 
ATOM     81  C   UNL A   1      29.937  27.050  23.378  1.00  0.00     0.178 C 
ATOM     82  N   UNL A   1      30.155  30.323  21.836  1.00  0.00    -0.348 N 
ATOM     83  C   UNL A   1      29.731  28.360  22.693  1.00  0.00     0.081 A 
ATOM     84  C   UNL A   1      28.803  30.118  21.932  1.00  0.00     0.197 A 
ATOM     85  H   UNL A   1      30.604  31.129  21.493  1.00  0.00     0.167 HD
ATOM     86  N   UNL A   1      28.517  28.939  22.441  1.00  0.00    -0.240 NA
BRANCH  79  87
ATOM     87  C   UNL A   1      31.657  25.431  22.740  1.00  0.00     0.274 C 
ATOM     88  O   UNL A   1      31.773  25.251  21.526  1.00  0.00    -0.267 OA
BRANCH  87  89
ATOM     89  C   UNL A   1      31.734  24.267  23.627  1.00  0.00     0.140 A 
ATOM     90  C   UNL A   1      30.964  24.185  24.773  1.00  0.00     0.101 A 
ATOM     91  N   UNL A   1      32.405  23.083  23.297  1.00  0.00    -0.230 NA
ATOM     92  S   UNL A   1      31.102  22.641  25.475  1.00  0.00    -0.121 S 
ATOM     93  C   UNL A   1      32.022  22.113  24.114  1.00  0.00     0.134 A 
BRANCH  93  94
ATOM     94  C   UNL A   1      32.316  20.716  23.858  1.00  0.00     0.063 A 
ATOM     95  C   UNL A   1      32.129  20.035  22.667  1.00  0.00     0.023 A 
ATOM     96  S   UNL A   1      32.881  19.638  25.079  1.00  0.00    -0.141 S 
ATOM     97  C   UNL A   1      32.426  18.641  22.767  1.00  0.00     0.012 A 
ATOM     98  C   UNL A   1      32.832  18.291  24.033  1.00  0.00     0.065 A 
ENDBRANCH  93  94
ENDBRANCH  87  89
ENDBRANCH  79  87
ENDBRANCH  74  77
ENDBRANCH  72  73
ENDBRANCH  71  72
ENDBRANCH  70  71
ENDBRANCH   1  70
TORSDOF 19
ENDMDL
MODEL 3
REMARK VINA RESULT:     -11.7      1.963      2.453
REMARK SMILES O=C(NCCCCCCNC(=O)[C@@H]1Cc2[nH]cnc2CN1C(=O)c1csc(-c2cccs2)n1)c1ccc(-c2c3nc(c(-c4ccc(S(=O)(=O)[O-])cc4)c4ccc([nH]4)c(-c4ccc(S(=O)(=O)[O-])cc4)c4nc(c(-c5ccc(S(=O)(=O)[O-])cc5)c5ccc2[nH]5)C=C4)C=C3)cc1
REMARK SMILES IDX 6 1 5 2 4 3 3 4 1 5 2 6 34 8 35 9 93 10 36 11 92 12 37 13
REMARK SMILES IDX 38 14 39 15 86 16 40 17 91 18 85 19 87 20 41 21 90 22 84 23
REMARK SMILES IDX 83 24 42 26 72 27 53 28 71 29 54 30 57 31 70 32 88 33 55 34
REMARK SMILES IDX 56 35 69 37 89 38 58 39 43 40 44 41 52 42 45 43 51 44 46 45
REMARK SMILES IDX 47 46 48 47 49 48 50 49 73 50 74 51 82 52 75 53 81 54 76 55
REMARK SMILES IDX 77 56 78 57 79 58 80 59 59 60 60 61 68 62 61 63 67 64 62 65
REMARK SMILES IDX 63 66 64 67 65 68 66 69 7 70 8 71 9 72 10 73 11 74 12 76
REMARK SMILES IDX 13 77 14 78 21 79 15 80 20 81 16 82 19 83 17 84 18 86 22 87
REMARK SMILES IDX 23 88 24 89 25 90 33 91 26 92 27 93 28 94 29 95 32 96 30 97
REMARK SMILES IDX 31 98
REMARK H PARENT 3 7 87 25 57 36 10 75 16 85
REMARK Flexibility Score: inf
ROOT
ATOM      1  C   UNL A   1      40.064  23.031  27.594  1.00  0.00     0.002 C 
ENDROOT
BRANCH   1   2
ATOM      2  C   UNL A   1      40.196  21.955  26.511  1.00  0.00     0.021 C 
BRANCH   2   3
ATOM      3  C   UNL A   1      41.571  21.289  26.434  1.00  0.00     0.116 C 
BRANCH   3   4
ATOM      4  N   UNL A   1      42.386  21.763  25.336  1.00  0.00    -0.352 N 
ATOM      5  O   UNL A   1      43.594  22.987  23.954  1.00  0.00    -0.269 OA
ATOM      6  C   UNL A   1      42.928  22.973  24.993  1.00  0.00     0.251 C 
ATOM      7  H   UNL A   1      42.599  21.053  24.686  1.00  0.00     0.163 HD
BRANCH   6   8
ATOM      8  C   UNL A   1      42.761  24.244  25.760  1.00  0.00     0.039 A 
ATOM      9  C   UNL A   1      41.968  25.327  25.380  1.00  0.00     0.014 A 
ATOM     10  C   UNL A   1      43.451  24.335  26.983  1.00  0.00     0.014 A 
ATOM     11  C   UNL A   1      41.892  26.476  26.171  1.00  0.00     0.010 A 
ATOM     12  C   UNL A   1      43.359  25.473  27.791  1.00  0.00     0.010 A 
ATOM     13  C   UNL A   1      42.586  26.559  27.379  1.00  0.00    -0.014 A 
BRANCH  13  14
ATOM     14  C   UNL A   1      42.396  27.772  28.185  1.00  0.00     0.031 A 
ATOM     15  C   UNL A   1      43.489  28.790  28.184  1.00  0.00     0.074 A 
ATOM     16  C   UNL A   1      41.248  28.134  28.791  1.00  0.00     0.049 A 
ATOM     17  N   UNL A   1      44.114  29.306  29.196  1.00  0.00    -0.248 NA
ATOM     18  C   UNL A   1      43.910  29.323  26.879  1.00  0.00     0.031 C 
ATOM     19  C   UNL A   1      39.929  27.524  28.626  1.00  0.00     0.029 A 
ATOM     20  N   UNL A   1      41.006  29.220  29.594  1.00  0.00    -0.354 N 
ATOM     21  C   UNL A   1      44.880  30.349  28.681  1.00  0.00     0.074 A 
ATOM     22  C   UNL A   1      44.773  30.271  27.243  1.00  0.00     0.031 C 
ATOM     23  C   UNL A   1      38.996  28.370  29.114  1.00  0.00     0.029 A 
ATOM     24  C   UNL A   1      39.661  29.507  29.739  1.00  0.00     0.049 A 
ATOM     25  H   UNL A   1      41.719  29.744  30.024  1.00  0.00     0.167 HD
ATOM     26  C   UNL A   1      45.425  31.332  29.447  1.00  0.00     0.031 A 
ATOM     27  C   UNL A   1      39.105  30.619  30.268  1.00  0.00     0.031 A 
ATOM     28  C   UNL A   1      45.423  31.055  30.853  1.00  0.00     0.049 A 
ATOM     29  C   UNL A   1      40.075  31.317  31.143  1.00  0.00     0.074 A 
ATOM     30  C   UNL A   1      46.018  30.140  31.693  1.00  0.00     0.029 A 
ATOM     31  N   UNL A   1      44.511  31.744  31.612  1.00  0.00    -0.354 N 
ATOM     32  N   UNL A   1      40.514  30.850  32.277  1.00  0.00    -0.248 NA
ATOM     33  C   UNL A   1      40.733  32.533  30.679  1.00  0.00     0.031 C 
ATOM     34  C   UNL A   1      45.207  30.092  32.863  1.00  0.00     0.029 A 
ATOM     35  C   UNL A   1      44.119  30.938  32.653  1.00  0.00     0.049 A 
ATOM     36  H   UNL A   1      44.193  32.660  31.441  1.00  0.00     0.167 HD
ATOM     37  C   UNL A   1      41.722  31.487  32.486  1.00  0.00     0.074 A 
ATOM     38  C   UNL A   1      41.713  32.623  31.579  1.00  0.00     0.031 C 
ATOM     39  C   UNL A   1      42.750  30.861  33.127  1.00  0.00     0.031 A 
BRANCH  26  40
ATOM     40  C   UNL A   1      45.688  32.728  28.945  1.00  0.00    -0.014 A 
ATOM     41  C   UNL A   1      46.799  33.441  29.439  1.00  0.00     0.010 A 
ATOM     42  C   UNL A   1      44.713  33.455  28.230  1.00  0.00     0.010 A 
ATOM     43  C   UNL A   1      46.914  34.825  29.254  1.00  0.00     0.020 A 
ATOM     44  C   UNL A   1      44.838  34.830  28.009  1.00  0.00     0.020 A 
ATOM     45  C   UNL A   1      45.922  35.513  28.554  1.00  0.00     0.054 A 
BRANCH  45  46
ATOM     46  S   UNL A   1      46.029  37.315  28.397  1.00  0.00     0.124 S 
ATOM     47  O   UNL A   1      46.114  37.483  26.950  1.00  0.00    -0.237 OA
ATOM     48  O   UNL A   1      44.787  37.769  29.016  1.00  0.00    -0.237 OA
ATOM     49  O   UNL A   1      47.244  37.644  29.143  1.00  0.00    -0.744 OA
ENDBRANCH  45  46
ENDBRANCH  26  40
BRANCH  27  50
ATOM     50  C   UNL A   1      37.788  31.208  29.929  1.00  0.00    -0.014 A 
ATOM     51  C   UNL A   1      36.973  31.786  30.917  1.00  0.00     0.010 A 
ATOM     52  C   UNL A   1      37.424  31.397  28.579  1.00  0.00     0.010 A 
ATOM     53  C   UNL A   1      35.846  32.545  30.566  1.00  0.00     0.020 A 
ATOM     54  C   UNL A   1      36.292  32.134  28.222  1.00  0.00     0.020 A 
ATOM     55  C   UNL A   1      35.516  32.717  29.218  1.00  0.00     0.054 A 
BRANCH  55  56
ATOM     56  S   UNL A   1      34.125  33.793  28.771  1.00  0.00     0.124 S 
ATOM     57  O   UNL A   1      33.578  34.149  30.077  1.00  0.00    -0.237 OA
ATOM     58  O   UNL A   1      34.780  34.875  28.043  1.00  0.00    -0.237 OA
ATOM     59  O   UNL A   1      33.271  32.930  27.955  1.00  0.00    -0.744 OA
ENDBRANCH  55  56
ENDBRANCH  27  50
BRANCH  39  60
ATOM     60  C   UNL A   1      42.420  29.755  34.095  1.00  0.00    -0.014 A 
ATOM     61  C   UNL A   1      42.000  28.480  33.677  1.00  0.00     0.010 A 
ATOM     62  C   UNL A   1      42.662  29.970  35.464  1.00  0.00     0.010 A 
ATOM     63  C   UNL A   1      41.802  27.452  34.605  1.00  0.00     0.020 A 
ATOM     64  C   UNL A   1      42.484  28.941  36.395  1.00  0.00     0.020 A 
ATOM     65  C   UNL A   1      42.047  27.687  35.960  1.00  0.00     0.054 A 
BRANCH  65  66
ATOM     66  S   UNL A   1      41.874  26.321  37.141  1.00  0.00     0.124 S 
ATOM     67  O   UNL A   1      40.528  26.530  37.668  1.00  0.00    -0.237 OA
ATOM     68  O   UNL A   1      42.043  25.137  36.300  1.00  0.00    -0.237 OA
ATOM     69  O   UNL A   1      42.958  26.550  38.095  1.00  0.00    -0.744 OA
ENDBRANCH  65  66
ENDBRANCH  39  60
ENDBRANCH  13  14
ENDBRANCH   6   8
ENDBRANCH   3   4
ENDBRANCH   2   3
ENDBRANCH   1   2
BRANCH   1  70
ATOM     70  C   UNL A   1      38.959  24.067  27.367  1.00  0.00     0.002 C 
BRANCH  70  71
ATOM     71  C   UNL A   1      38.288  24.015  25.989  1.00  0.00     0.021 C 
BRANCH  71  72
ATOM     72  C   UNL A   1      36.830  23.565  26.017  1.00  0.00     0.116 C 
BRANCH  72  73
ATOM     73  N   UNL A   1      36.652  22.341  25.276  1.00  0.00    -0.354 N 
ATOM     74  C   UNL A   1      35.566  21.516  25.232  1.00  0.00     0.243 C 
ATOM     75  H   UNL A   1      37.419  22.061  24.726  1.00  0.00     0.163 HD
ATOM     76  O   UNL A   1      35.751  20.383  24.778  1.00  0.00    -0.273 OA
BRANCH  74  77
ATOM     77  C   UNL A   1      34.175  22.007  25.746  1.00  0.00     0.181 C 
ATOM     78  C   UNL A   1      33.640  20.995  26.815  1.00  0.00     0.091 C 
ATOM     79  N   UNL A   1      33.176  22.130  24.631  1.00  0.00    -0.319 N 
ATOM     80  C   UNL A   1      33.098  19.800  26.109  1.00  0.00     0.042 A 
ATOM     81  C   UNL A   1      32.925  20.904  23.834  1.00  0.00     0.178 C 
ATOM     82  N   UNL A   1      32.920  18.534  26.576  1.00  0.00    -0.348 N 
ATOM     83  C   UNL A   1      32.767  19.754  24.772  1.00  0.00     0.081 A 
ATOM     84  C   UNL A   1      32.471  17.783  25.521  1.00  0.00     0.197 A 
ATOM     85  H   UNL A   1      33.084  18.218  27.495  1.00  0.00     0.167 HD
ATOM     86  N   UNL A   1      32.363  18.495  24.419  1.00  0.00    -0.240 NA
BRANCH  79  87
ATOM     87  C   UNL A   1      32.334  23.212  24.391  1.00  0.00     0.274 C 
ATOM     88  O   UNL A   1      31.109  23.088  24.352  1.00  0.00    -0.267 OA
BRANCH  87  89
ATOM     89  C   UNL A   1      32.910  24.524  24.085  1.00  0.00     0.140 A 
ATOM     90  C   UNL A   1      32.958  25.002  22.788  1.00  0.00     0.101 A 
ATOM     91  N   UNL A   1      33.256  25.467  25.060  1.00  0.00    -0.230 NA
ATOM     92  S   UNL A   1      33.474  26.624  22.769  1.00  0.00    -0.121 S 
ATOM     93  C   UNL A   1      33.419  26.653  24.493  1.00  0.00     0.134 A 
BRANCH  93  94
ATOM     94  C   UNL A   1      33.501  27.881  25.261  1.00  0.00     0.063 A 
ATOM     95  C   UNL A   1      34.173  28.067  26.458  1.00  0.00     0.023 A 
ATOM     96  S   UNL A   1      32.664  29.321  24.818  1.00  0.00    -0.141 S 
ATOM     97  C   UNL A   1      33.981  29.369  27.010  1.00  0.00     0.012 A 
ATOM     98  C   UNL A   1      33.166  30.148  26.223  1.00  0.00     0.065 A 
ENDBRANCH  93  94
ENDBRANCH  87  89
ENDBRANCH  79  87
ENDBRANCH  74  77
ENDBRANCH  72  73
ENDBRANCH  71  72
ENDBRANCH  70  71
ENDBRANCH   1  70
TORSDOF 19
ENDMDL
