MODEL 1
REMARK VINA RESULT:     -10.8      0.000      0.000
REMARK SMILES CO[C@@H]1C[C@H](C(=O)NCCCCCCNC(=O)c2ccc(-c3c4nc(c(-c5ccc(S(=O)(=O)[O-])cc5)c5ccc([nH]5)c(-c5ccc(S(=O)(=O)[O-])cc5)c5nc(c(-c6ccc(S(=O)(=O)[O-])cc6)c6ccc3[nH]6)C=C5)C=C4)cc2)N(C(=O)c2ccc([N+](=O)[O-])s2)C1
REMARK SMILES IDX 11 1 10 2 9 3 8 4 6 5 7 6 5 8 3 9 4 10 89 11 78 12 2 13 1 14
REMARK SMILES IDX 79 15 80 16 81 17 82 18 88 19 83 20 84 21 85 22 86 23 87 24
REMARK SMILES IDX 12 25 13 26 14 27 15 28 16 29 17 31 18 32 19 33 77 34 20 35
REMARK SMILES IDX 76 36 21 37 22 38 23 39 70 40 24 41 75 42 69 43 71 44 25 45
REMARK SMILES IDX 74 46 68 47 67 48 26 50 56 51 37 52 55 53 38 54 41 55 54 56
REMARK SMILES IDX 72 57 39 58 40 59 53 61 73 62 42 63 27 64 28 65 36 66 29 67
REMARK SMILES IDX 35 68 30 69 31 70 32 71 33 72 34 73 57 74 58 75 66 76 59 77
REMARK SMILES IDX 65 78 60 79 61 80 62 81 63 82 64 83 43 84 44 85 52 86 45 87
REMARK SMILES IDX 51 88 46 89 47 90 48 91 49 92 50 93
REMARK H PARENT 8 7 15 30 71 49 41 60
REMARK Flexibility Score: inf
ROOT
ATOM      1  C   UNL A   1      34.109  28.472  25.886  1.00  0.00     0.002 C 
ENDROOT
BRANCH   1   2
ATOM      2  C   UNL A   1      33.393  27.123  26.003  1.00  0.00     0.021 C 
BRANCH   2   3
ATOM      3  C   UNL A   1      31.919  27.199  26.402  1.00  0.00     0.116 C 
BRANCH   3   4
ATOM      4  N   UNL A   1      31.412  25.905  26.823  1.00  0.00    -0.354 N 
ATOM      5  C   UNL A   1      30.849  24.887  26.120  1.00  0.00     0.242 C 
ATOM      6  O   UNL A   1      30.371  23.955  26.779  1.00  0.00    -0.273 OA
ATOM      7  H   UNL A   1      31.488  25.736  27.790  1.00  0.00     0.163 HD
BRANCH   5   8
ATOM      8  C   UNL A   1      30.669  24.885  24.583  1.00  0.00     0.177 C 
ATOM      9  C   UNL A   1      30.475  26.854  23.118  1.00  0.00     0.139 C 
ATOM     10  C   UNL A   1      29.702  25.967  24.098  1.00  0.00     0.069 C 
ATOM     11  C   UNL A   1      31.790  26.127  22.842  1.00  0.00     0.152 C 
ATOM     12  N   UNL A   1      31.875  25.024  23.780  1.00  0.00    -0.323 N 
BRANCH   9  13
ATOM     13  O   UNL A   1      30.741  28.134  23.688  1.00  0.00    -0.380 OA
ATOM     14  C   UNL A   1      29.788  29.121  23.303  1.00  0.00     0.195 C 
ENDBRANCH   9  13
BRANCH  12  15
ATOM     15  C   UNL A   1      32.936  24.132  23.690  1.00  0.00     0.264 C 
ATOM     16  O   UNL A   1      34.097  24.533  23.756  1.00  0.00    -0.268 OA
BRANCH  15  17
ATOM     17  C   UNL A   1      32.629  22.733  23.458  1.00  0.00     0.099 A 
ATOM     18  C   UNL A   1      32.285  22.107  22.272  1.00  0.00     0.033 A 
ATOM     19  S   UNL A   1      32.804  21.604  24.736  1.00  0.00    -0.058 S 
ATOM     20  C   UNL A   1      32.138  20.697  22.425  1.00  0.00     0.099 A 
ATOM     21  C   UNL A   1      32.399  20.304  23.720  1.00  0.00     0.324 A 
BRANCH  21  22
ATOM     22  N   UNL A   1      32.377  18.954  24.220  1.00  0.00     0.074 N 
ATOM     23  O   UNL A   1      32.242  18.826  25.445  1.00  0.00    -0.258 OA
ATOM     24  O   UNL A   1      32.489  18.021  23.413  1.00  0.00    -0.258 OA
ENDBRANCH  21  22
ENDBRANCH  15  17
ENDBRANCH  12  15
ENDBRANCH   5   8
ENDBRANCH   3   4
ENDBRANCH   2   3
ENDBRANCH   1   2
BRANCH   1  25
ATOM     25  C   UNL A   1      33.891  29.443  27.052  1.00  0.00     0.002 C 
BRANCH  25  26
ATOM     26  C   UNL A   1      35.080  29.651  28.000  1.00  0.00     0.021 C 
BRANCH  26  27
ATOM     27  C   UNL A   1      35.346  31.090  28.449  1.00  0.00     0.116 C 
BRANCH  27  28
ATOM     28  N   UNL A   1      35.354  31.232  29.893  1.00  0.00    -0.352 N 
ATOM     29  C   UNL A   1      36.345  30.932  30.794  1.00  0.00     0.251 C 
ATOM     30  H   UNL A   1      34.528  31.598  30.284  1.00  0.00     0.163 HD
ATOM     31  O   UNL A   1      36.108  31.000  31.998  1.00  0.00    -0.269 OA
BRANCH  29  32
ATOM     32  C   UNL A   1      37.690  30.508  30.338  1.00  0.00     0.039 A 
ATOM     33  C   UNL A   1      38.496  29.787  31.226  1.00  0.00     0.014 A 
ATOM     34  C   UNL A   1      38.187  30.867  29.080  1.00  0.00     0.014 A 
ATOM     35  C   UNL A   1      39.779  29.385  30.842  1.00  0.00     0.010 A 
ATOM     36  C   UNL A   1      39.466  30.454  28.692  1.00  0.00     0.010 A 
ATOM     37  C   UNL A   1      40.269  29.707  29.567  1.00  0.00    -0.014 A 
BRANCH  37  38
ATOM     38  C   UNL A   1      41.619  29.263  29.143  1.00  0.00     0.031 A 
ATOM     39  C   UNL A   1      42.774  30.221  29.143  1.00  0.00     0.074 A 
ATOM     40  C   UNL A   1      41.804  27.995  28.732  1.00  0.00     0.049 A 
ATOM     41  N   UNL A   1      43.997  30.035  28.717  1.00  0.00    -0.248 NA
ATOM     42  C   UNL A   1      42.518  31.564  29.685  1.00  0.00     0.031 C 
ATOM     43  C   UNL A   1      40.771  26.961  28.677  1.00  0.00     0.029 A 
ATOM     44  N   UNL A   1      42.936  27.364  28.279  1.00  0.00    -0.354 N 
ATOM     45  C   UNL A   1      44.652  31.243  28.910  1.00  0.00     0.074 A 
ATOM     46  C   UNL A   1      43.694  32.152  29.507  1.00  0.00     0.031 C 
ATOM     47  C   UNL A   1      41.317  25.821  28.221  1.00  0.00     0.029 A 
ATOM     48  C   UNL A   1      42.733  26.049  27.942  1.00  0.00     0.049 A 
ATOM     49  H   UNL A   1      43.810  27.813  28.203  1.00  0.00     0.167 HD
ATOM     50  C   UNL A   1      45.932  31.573  28.607  1.00  0.00     0.031 A 
ATOM     51  C   UNL A   1      43.588  25.130  27.457  1.00  0.00     0.031 A 
ATOM     52  C   UNL A   1      46.896  30.680  28.026  1.00  0.00     0.049 A 
ATOM     53  C   UNL A   1      45.020  25.496  27.203  1.00  0.00     0.074 A 
ATOM     54  C   UNL A   1      48.198  30.946  27.638  1.00  0.00     0.029 A 
ATOM     55  N   UNL A   1      46.670  29.338  27.770  1.00  0.00    -0.354 N 
ATOM     56  N   UNL A   1      45.605  26.660  27.342  1.00  0.00    -0.248 NA
ATOM     57  C   UNL A   1      45.904  24.423  26.725  1.00  0.00     0.031 C 
ATOM     58  C   UNL A   1      48.765  29.758  27.156  1.00  0.00     0.029 A 
ATOM     59  C   UNL A   1      47.814  28.756  27.248  1.00  0.00     0.049 A 
ATOM     60  H   UNL A   1      45.822  28.867  27.934  1.00  0.00     0.167 HD
ATOM     61  C   UNL A   1      46.927  26.462  26.961  1.00  0.00     0.074 A 
ATOM     62  C   UNL A   1      47.059  25.064  26.602  1.00  0.00     0.031 C 
ATOM     63  C   UNL A   1      47.936  27.364  26.903  1.00  0.00     0.031 A 
BRANCH  50  64
ATOM     64  C   UNL A   1      46.338  32.990  28.884  1.00  0.00    -0.014 A 
ATOM     65  C   UNL A   1      45.789  34.050  28.143  1.00  0.00     0.010 A 
ATOM     66  C   UNL A   1      47.296  33.261  29.876  1.00  0.00     0.010 A 
ATOM     67  C   UNL A   1      46.222  35.360  28.362  1.00  0.00     0.020 A 
ATOM     68  C   UNL A   1      47.727  34.570  30.101  1.00  0.00     0.020 A 
ATOM     69  C   UNL A   1      47.203  35.609  29.326  1.00  0.00     0.054 A 
BRANCH  69  70
ATOM     70  S   UNL A   1      47.792  37.303  29.597  1.00  0.00     0.124 S 
ATOM     71  O   UNL A   1      48.969  37.079  30.432  1.00  0.00    -0.237 OA
ATOM     72  O   UNL A   1      48.065  37.786  28.246  1.00  0.00    -0.237 OA
ATOM     73  O   UNL A   1      46.662  37.945  30.266  1.00  0.00    -0.744 OA
ENDBRANCH  69  70
ENDBRANCH  50  64
BRANCH  51  74
ATOM     74  C   UNL A   1      43.097  23.759  27.179  1.00  0.00    -0.014 A 
ATOM     75  C   UNL A   1      42.780  23.376  25.865  1.00  0.00     0.010 A 
ATOM     76  C   UNL A   1      42.989  22.824  28.220  1.00  0.00     0.010 A 
ATOM     77  C   UNL A   1      42.365  22.071  25.593  1.00  0.00     0.020 A 
ATOM     78  C   UNL A   1      42.580  21.516  27.950  1.00  0.00     0.020 A 
ATOM     79  C   UNL A   1      42.268  21.149  26.638  1.00  0.00     0.054 A 
BRANCH  79  80
ATOM     80  S   UNL A   1      41.812  19.427  26.287  1.00  0.00     0.124 S 
ATOM     81  O   UNL A   1      42.300  18.737  27.477  1.00  0.00    -0.237 OA
ATOM     82  O   UNL A   1      40.360  19.487  26.144  1.00  0.00    -0.237 OA
ATOM     83  O   UNL A   1      42.540  19.147  25.051  1.00  0.00    -0.744 OA
ENDBRANCH  79  80
ENDBRANCH  51  74
BRANCH  63  84
ATOM     84  C   UNL A   1      49.269  26.862  26.434  1.00  0.00    -0.014 A 
ATOM     85  C   UNL A   1      50.088  26.113  27.296  1.00  0.00     0.010 A 
ATOM     86  C   UNL A   1      49.699  27.123  25.122  1.00  0.00     0.010 A 
ATOM     87  C   UNL A   1      51.331  25.647  26.859  1.00  0.00     0.020 A 
ATOM     88  C   UNL A   1      50.941  26.656  24.682  1.00  0.00     0.020 A 
ATOM     89  C   UNL A   1      51.755  25.931  25.558  1.00  0.00     0.054 A 
BRANCH  89  90
ATOM     90  S   UNL A   1      53.356  25.304  24.980  1.00  0.00     0.124 S 
ATOM     91  O   UNL A   1      54.295  26.150  25.712  1.00  0.00    -0.237 OA
ATOM     92  O   UNL A   1      53.333  23.900  25.383  1.00  0.00    -0.237 OA
ATOM     93  O   UNL A   1      53.304  25.529  23.537  1.00  0.00    -0.744 OA
ENDBRANCH  89  90
ENDBRANCH  63  84
ENDBRANCH  37  38
ENDBRANCH  29  32
ENDBRANCH  27  28
ENDBRANCH  26  27
ENDBRANCH  25  26
ENDBRANCH   1  25
TORSDOF 20
ENDMDL
MODEL 2
REMARK VINA RESULT:     -10.8      5.752     10.633
REMARK SMILES CO[C@@H]1C[C@H](C(=O)NCCCCCCNC(=O)c2ccc(-c3c4nc(c(-c5ccc(S(=O)(=O)[O-])cc5)c5ccc([nH]5)c(-c5ccc(S(=O)(=O)[O-])cc5)c5nc(c(-c6ccc(S(=O)(=O)[O-])cc6)c6ccc3[nH]6)C=C5)C=C4)cc2)N(C(=O)c2ccc([N+](=O)[O-])s2)C1
REMARK SMILES IDX 11 1 10 2 9 3 8 4 6 5 7 6 5 8 3 9 4 10 89 11 78 12 2 13 1 14
REMARK SMILES IDX 79 15 80 16 81 17 82 18 88 19 83 20 84 21 85 22 86 23 87 24
REMARK SMILES IDX 12 25 13 26 14 27 15 28 16 29 17 31 18 32 19 33 77 34 20 35
REMARK SMILES IDX 76 36 21 37 22 38 23 39 70 40 24 41 75 42 69 43 71 44 25 45
REMARK SMILES IDX 74 46 68 47 67 48 26 50 56 51 37 52 55 53 38 54 41 55 54 56
REMARK SMILES IDX 72 57 39 58 40 59 53 61 73 62 42 63 27 64 28 65 36 66 29 67
REMARK SMILES IDX 35 68 30 69 31 70 32 71 33 72 34 73 57 74 58 75 66 76 59 77
REMARK SMILES IDX 65 78 60 79 61 80 62 81 63 82 64 83 43 84 44 85 52 86 45 87
REMARK SMILES IDX 51 88 46 89 47 90 48 91 49 92 50 93
REMARK H PARENT 8 7 15 30 71 49 41 60
REMARK Flexibility Score: inf
ROOT
ATOM      1  C   UNL A   1      33.364  29.057  27.296  1.00  0.00     0.002 C 
ENDROOT
BRANCH   1   2
ATOM      2  C   UNL A   1      34.133  28.482  26.102  1.00  0.00     0.021 C 
BRANCH   2   3
ATOM      3  C   UNL A   1      33.422  27.355  25.351  1.00  0.00     0.116 C 
BRANCH   3   4
ATOM      4  N   UNL A   1      33.168  26.214  26.213  1.00  0.00    -0.354 N 
ATOM      5  C   UNL A   1      33.226  24.878  25.978  1.00  0.00     0.242 C 
ATOM      6  O   UNL A   1      32.807  24.137  26.877  1.00  0.00    -0.273 OA
ATOM      7  H   UNL A   1      32.906  26.453  27.132  1.00  0.00     0.163 HD
BRANCH   5   8
ATOM      8  C   UNL A   1      33.665  24.248  24.634  1.00  0.00     0.177 C 
ATOM      9  C   UNL A   1      34.456  21.944  24.275  1.00  0.00     0.139 C 
ATOM     10  C   UNL A   1      34.878  23.326  24.781  1.00  0.00     0.069 C 
ATOM     11  C   UNL A   1      33.100  22.140  23.599  1.00  0.00     0.152 C 
ATOM     12  N   UNL A   1      32.659  23.488  23.906  1.00  0.00    -0.323 N 
BRANCH   9  13
ATOM     13  O   UNL A   1      34.328  21.022  25.356  1.00  0.00    -0.380 OA
ATOM     14  C   UNL A   1      33.195  20.167  25.224  1.00  0.00     0.195 C 
ENDBRANCH   9  13
BRANCH  12  15
ATOM     15  C   UNL A   1      31.489  23.970  23.335  1.00  0.00     0.264 C 
ATOM     16  O   UNL A   1      30.536  23.218  23.135  1.00  0.00    -0.268 OA
BRANCH  15  17
ATOM     17  C   UNL A   1      31.453  25.364  22.931  1.00  0.00     0.099 A 
ATOM     18  C   UNL A   1      32.229  26.011  21.985  1.00  0.00     0.033 A 
ATOM     19  S   UNL A   1      30.244  26.398  23.568  1.00  0.00    -0.058 S 
ATOM     20  C   UNL A   1      31.843  27.372  21.806  1.00  0.00     0.099 A 
ATOM     21  C   UNL A   1      30.772  27.699  22.609  1.00  0.00     0.324 A 
BRANCH  21  22
ATOM     22  N   UNL A   1      30.105  28.974  22.662  1.00  0.00     0.074 N 
ATOM     23  O   UNL A   1      30.154  29.573  23.746  1.00  0.00    -0.258 OA
ATOM     24  O   UNL A   1      29.536  29.387  21.643  1.00  0.00    -0.258 OA
ENDBRANCH  21  22
ENDBRANCH  15  17
ENDBRANCH  12  15
ENDBRANCH   5   8
ENDBRANCH   3   4
ENDBRANCH   2   3
ENDBRANCH   1   2
BRANCH   1  25
ATOM     25  C   UNL A   1      31.969  29.610  26.985  1.00  0.00     0.002 C 
BRANCH  25  26
ATOM     26  C   UNL A   1      31.859  31.130  26.806  1.00  0.00     0.021 C 
BRANCH  26  27
ATOM     27  C   UNL A   1      33.104  31.946  27.161  1.00  0.00     0.116 C 
BRANCH  27  28
ATOM     28  N   UNL A   1      32.787  33.310  27.544  1.00  0.00    -0.352 N 
ATOM     29  C   UNL A   1      33.360  34.101  28.510  1.00  0.00     0.251 C 
ATOM     30  H   UNL A   1      32.056  33.730  27.037  1.00  0.00     0.163 HD
ATOM     31  O   UNL A   1      32.858  35.190  28.774  1.00  0.00    -0.269 OA
BRANCH  29  32
ATOM     32  C   UNL A   1      34.561  33.651  29.252  1.00  0.00     0.039 A 
ATOM     33  C   UNL A   1      34.395  32.711  30.277  1.00  0.00     0.014 A 
ATOM     34  C   UNL A   1      35.828  34.188  28.998  1.00  0.00     0.014 A 
ATOM     35  C   UNL A   1      35.499  32.275  31.015  1.00  0.00     0.010 A 
ATOM     36  C   UNL A   1      36.934  33.742  29.729  1.00  0.00     0.010 A 
ATOM     37  C   UNL A   1      36.779  32.780  30.739  1.00  0.00    -0.014 A 
BRANCH  37  38
ATOM     38  C   UNL A   1      37.959  32.304  31.501  1.00  0.00     0.031 A 
ATOM     39  C   UNL A   1      38.829  31.210  30.955  1.00  0.00     0.074 A 
ATOM     40  C   UNL A   1      38.238  32.841  32.702  1.00  0.00     0.049 A 
ATOM     41  N   UNL A   1      39.842  30.604  31.522  1.00  0.00    -0.248 NA
ATOM     42  C   UNL A   1      38.516  30.730  29.601  1.00  0.00     0.031 C 
ATOM     43  C   UNL A   1      37.476  33.907  33.353  1.00  0.00     0.029 A 
ATOM     44  N   UNL A   1      39.246  32.558  33.590  1.00  0.00    -0.354 N 
ATOM     45  C   UNL A   1      40.271  29.651  30.609  1.00  0.00     0.074 A 
ATOM     46  C   UNL A   1      39.417  29.769  29.443  1.00  0.00     0.031 C 
ATOM     47  C   UNL A   1      38.046  34.192  34.536  1.00  0.00     0.029 A 
ATOM     48  C   UNL A   1      39.203  33.322  34.730  1.00  0.00     0.049 A 
ATOM     49  H   UNL A   1      39.932  31.872  33.425  1.00  0.00     0.167 HD
ATOM     50  C   UNL A   1      41.275  28.749  30.732  1.00  0.00     0.031 A 
ATOM     51  C   UNL A   1      40.003  33.320  35.813  1.00  0.00     0.031 A 
ATOM     52  C   UNL A   1      42.136  28.627  31.876  1.00  0.00     0.049 A 
ATOM     53  C   UNL A   1      41.156  32.366  35.894  1.00  0.00     0.074 A 
ATOM     54  C   UNL A   1      43.144  27.707  32.107  1.00  0.00     0.029 A 
ATOM     55  N   UNL A   1      42.105  29.469  32.976  1.00  0.00    -0.354 N 
ATOM     56  N   UNL A   1      41.511  31.435  35.042  1.00  0.00    -0.248 NA
ATOM     57  C   UNL A   1      42.015  32.463  37.082  1.00  0.00     0.031 C 
ATOM     58  C   UNL A   1      43.733  28.000  33.345  1.00  0.00     0.029 A 
ATOM     59  C   UNL A   1      43.090  29.105  33.879  1.00  0.00     0.049 A 
ATOM     60  H   UNL A   1      41.477  30.216  33.097  1.00  0.00     0.167 HD
ATOM     61  C   UNL A   1      42.631  30.829  35.596  1.00  0.00     0.074 A 
ATOM     62  C   UNL A   1      42.905  31.507  36.847  1.00  0.00     0.031 C 
ATOM     63  C   UNL A   1      43.359  29.792  35.115  1.00  0.00     0.031 A 
BRANCH  50  64
ATOM     64  C   UNL A   1      41.463  27.800  29.586  1.00  0.00    -0.014 A 
ATOM     65  C   UNL A   1      40.596  26.708  29.412  1.00  0.00     0.010 A 
ATOM     66  C   UNL A   1      42.530  27.988  28.692  1.00  0.00     0.010 A 
ATOM     67  C   UNL A   1      40.818  25.791  28.381  1.00  0.00     0.020 A 
ATOM     68  C   UNL A   1      42.752  27.076  27.657  1.00  0.00     0.020 A 
ATOM     69  C   UNL A   1      41.907  25.971  27.522  1.00  0.00     0.054 A 
BRANCH  69  70
ATOM     70  S   UNL A   1      42.219  24.770  26.199  1.00  0.00     0.124 S 
ATOM     71  O   UNL A   1      43.538  24.260  26.566  1.00  0.00    -0.237 OA
ATOM     72  O   UNL A   1      41.118  23.820  26.337  1.00  0.00    -0.237 OA
ATOM     73  O   UNL A   1      42.179  25.590  24.989  1.00  0.00    -0.744 OA
ENDBRANCH  69  70
ENDBRANCH  50  64
BRANCH  51  74
ATOM     74  C   UNL A   1      39.727  34.269  36.917  1.00  0.00    -0.014 A 
ATOM     75  C   UNL A   1      38.993  33.851  38.041  1.00  0.00     0.010 A 
ATOM     76  C   UNL A   1      40.235  35.577  36.868  1.00  0.00     0.010 A 
ATOM     77  C   UNL A   1      38.775  34.728  39.105  1.00  0.00     0.020 A 
ATOM     78  C   UNL A   1      40.024  36.454  37.934  1.00  0.00     0.020 A 
ATOM     79  C   UNL A   1      39.293  36.024  39.045  1.00  0.00     0.054 A 
BRANCH  79  80
ATOM     80  S   UNL A   1      39.090  37.147  40.457  1.00  0.00     0.124 S 
ATOM     81  O   UNL A   1      40.459  37.600  40.681  1.00  0.00    -0.237 OA
ATOM     82  O   UNL A   1      38.166  38.158  39.952  1.00  0.00    -0.237 OA
ATOM     83  O   UNL A   1      38.537  36.271  41.488  1.00  0.00    -0.744 OA
ENDBRANCH  79  80
ENDBRANCH  51  74
BRANCH  63  84
ATOM     84  C   UNL A   1      44.519  29.333  35.946  1.00  0.00    -0.014 A 
ATOM     85  C   UNL A   1      45.797  29.879  35.742  1.00  0.00     0.010 A 
ATOM     86  C   UNL A   1      44.331  28.366  36.948  1.00  0.00     0.010 A 
ATOM     87  C   UNL A   1      46.880  29.450  36.516  1.00  0.00     0.020 A 
ATOM     88  C   UNL A   1      45.411  27.937  37.724  1.00  0.00     0.020 A 
ATOM     89  C   UNL A   1      46.681  28.473  37.495  1.00  0.00     0.054 A 
BRANCH  89  90
ATOM     90  S   UNL A   1      48.079  27.934  38.519  1.00  0.00     0.124 S 
ATOM     91  O   UNL A   1      49.128  28.866  38.114  1.00  0.00    -0.237 OA
ATOM     92  O   UNL A   1      47.582  28.105  39.882  1.00  0.00    -0.237 OA
ATOM     93  O   UNL A   1      48.281  26.546  38.108  1.00  0.00    -0.744 OA
ENDBRANCH  89  90
ENDBRANCH  63  84
ENDBRANCH  37  38
ENDBRANCH  29  32
ENDBRANCH  27  28
ENDBRANCH  26  27
ENDBRANCH  25  26
ENDBRANCH   1  25
TORSDOF 20
ENDMDL
MODEL 3
REMARK VINA RESULT:     -10.7      2.271      8.937
REMARK SMILES CO[C@@H]1C[C@H](C(=O)NCCCCCCNC(=O)c2ccc(-c3c4nc(c(-c5ccc(S(=O)(=O)[O-])cc5)c5ccc([nH]5)c(-c5ccc(S(=O)(=O)[O-])cc5)c5nc(c(-c6ccc(S(=O)(=O)[O-])cc6)c6ccc3[nH]6)C=C5)C=C4)cc2)N(C(=O)c2ccc([N+](=O)[O-])s2)C1
REMARK SMILES IDX 11 1 10 2 9 3 8 4 6 5 7 6 5 8 3 9 4 10 89 11 78 12 2 13 1 14
REMARK SMILES IDX 79 15 80 16 81 17 82 18 88 19 83 20 84 21 85 22 86 23 87 24
REMARK SMILES IDX 12 25 13 26 14 27 15 28 16 29 17 31 18 32 19 33 77 34 20 35
REMARK SMILES IDX 76 36 21 37 22 38 23 39 70 40 24 41 75 42 69 43 71 44 25 45
REMARK SMILES IDX 74 46 68 47 67 48 26 50 56 51 37 52 55 53 38 54 41 55 54 56
REMARK SMILES IDX 72 57 39 58 40 59 53 61 73 62 42 63 27 64 28 65 36 66 29 67
REMARK SMILES IDX 35 68 30 69 31 70 32 71 33 72 34 73 57 74 58 75 66 76 59 77
REMARK SMILES IDX 65 78 60 79 61 80 62 81 63 82 64 83 43 84 44 85 52 86 45 87
REMARK SMILES IDX 51 88 46 89 47 90 48 91 49 92 50 93
REMARK H PARENT 8 7 15 30 71 49 41 60
REMARK Flexibility Score: inf
ROOT
ATOM      1  C   UNL A   1      39.244  23.095  26.832  1.00  0.00     0.002 C 
ENDROOT
BRANCH   1   2
ATOM      2  C   UNL A   1      38.091  24.053  26.516  1.00  0.00     0.021 C 
BRANCH   2   3
ATOM      3  C   UNL A   1      36.920  23.433  25.752  1.00  0.00     0.116 C 
BRANCH   3   4
ATOM      4  N   UNL A   1      36.143  22.543  26.595  1.00  0.00    -0.354 N 
ATOM      5  C   UNL A   1      34.851  22.129  26.517  1.00  0.00     0.242 C 
ATOM      6  O   UNL A   1      34.418  21.476  27.476  1.00  0.00    -0.273 OA
ATOM      7  H   UNL A   1      36.641  22.175  27.361  1.00  0.00     0.163 HD
BRANCH   5   8
ATOM      8  C   UNL A   1      33.878  22.520  25.379  1.00  0.00     0.177 C 
ATOM      9  C   UNL A   1      32.319  21.026  24.194  1.00  0.00     0.139 C 
ATOM     10  C   UNL A   1      33.787  21.453  24.285  1.00  0.00     0.069 C 
ATOM     11  C   UNL A   1      31.538  22.029  25.041  1.00  0.00     0.152 C 
ATOM     12  N   UNL A   1      32.508  22.829  25.763  1.00  0.00    -0.323 N 
BRANCH   9  13
ATOM     13  O   UNL A   1      32.137  19.710  24.713  1.00  0.00    -0.380 OA
ATOM     14  C   UNL A   1      32.571  18.695  23.813  1.00  0.00     0.195 C 
ENDBRANCH   9  13
BRANCH  12  15
ATOM     15  C   UNL A   1      32.071  23.890  26.545  1.00  0.00     0.264 C 
ATOM     16  O   UNL A   1      31.670  23.698  27.691  1.00  0.00    -0.268 OA
BRANCH  15  17
ATOM     17  C   UNL A   1      32.050  25.212  25.946  1.00  0.00     0.099 A 
ATOM     18  C   UNL A   1      33.013  26.205  26.006  1.00  0.00     0.033 A 
ATOM     19  S   UNL A   1      30.758  25.651  24.909  1.00  0.00    -0.058 S 
ATOM     20  C   UNL A   1      32.669  27.343  25.217  1.00  0.00     0.099 A 
ATOM     21  C   UNL A   1      31.467  27.158  24.569  1.00  0.00     0.324 A 
BRANCH  21  22
ATOM     22  N   UNL A   1      30.835  28.085  23.668  1.00  0.00     0.074 N 
ATOM     23  O   UNL A   1      30.758  29.260  24.056  1.00  0.00    -0.258 OA
ATOM     24  O   UNL A   1      30.416  27.663  22.582  1.00  0.00    -0.258 OA
ENDBRANCH  21  22
ENDBRANCH  15  17
ENDBRANCH  12  15
ENDBRANCH   5   8
ENDBRANCH   3   4
ENDBRANCH   2   3
ENDBRANCH   1   2
BRANCH   1  25
ATOM     25  C   UNL A   1      39.581  22.076  25.739  1.00  0.00     0.002 C 
BRANCH  25  26
ATOM     26  C   UNL A   1      39.357  20.598  26.088  1.00  0.00     0.021 C 
BRANCH  26  27
ATOM     27  C   UNL A   1      40.414  19.944  26.980  1.00  0.00     0.116 C 
BRANCH  27  28
ATOM     28  N   UNL A   1      41.450  19.272  26.217  1.00  0.00    -0.352 N 
ATOM     29  C   UNL A   1      42.599  19.784  25.665  1.00  0.00     0.251 C 
ATOM     30  H   UNL A   1      41.309  18.308  26.075  1.00  0.00     0.163 HD
ATOM     31  O   UNL A   1      43.287  19.074  24.936  1.00  0.00    -0.269 OA
BRANCH  29  32
ATOM     32  C   UNL A   1      43.009  21.185  25.920  1.00  0.00     0.039 A 
ATOM     33  C   UNL A   1      43.310  21.561  27.234  1.00  0.00     0.014 A 
ATOM     34  C   UNL A   1      43.037  22.141  24.898  1.00  0.00     0.014 A 
ATOM     35  C   UNL A   1      43.681  22.878  27.520  1.00  0.00     0.010 A 
ATOM     36  C   UNL A   1      43.421  23.455  25.183  1.00  0.00     0.010 A 
ATOM     37  C   UNL A   1      43.749  23.832  26.494  1.00  0.00    -0.014 A 
BRANCH  37  38
ATOM     38  C   UNL A   1      44.168  25.225  26.785  1.00  0.00     0.031 A 
ATOM     39  C   UNL A   1      45.584  25.662  26.552  1.00  0.00     0.074 A 
ATOM     40  C   UNL A   1      43.275  26.099  27.285  1.00  0.00     0.049 A 
ATOM     41  N   UNL A   1      46.150  26.808  26.838  1.00  0.00    -0.248 NA
ATOM     42  C   UNL A   1      46.483  24.681  25.925  1.00  0.00     0.031 C 
ATOM     43  C   UNL A   1      41.868  25.808  27.563  1.00  0.00     0.029 A 
ATOM     44  N   UNL A   1      43.424  27.414  27.648  1.00  0.00    -0.354 N 
ATOM     45  C   UNL A   1      47.477  26.680  26.454  1.00  0.00     0.074 A 
ATOM     46  C   UNL A   1      47.630  25.349  25.900  1.00  0.00     0.031 C 
ATOM     47  C   UNL A   1      41.281  26.915  28.050  1.00  0.00     0.029 A 
ATOM     48  C   UNL A   1      42.273  27.985  28.128  1.00  0.00     0.049 A 
ATOM     49  H   UNL A   1      44.278  27.900  27.573  1.00  0.00     0.167 HD
ATOM     50  C   UNL A   1      48.483  27.582  26.562  1.00  0.00     0.031 A 
ATOM     51  C   UNL A   1      42.039  29.230  28.585  1.00  0.00     0.031 A 
ATOM     52  C   UNL A   1      48.345  28.908  27.098  1.00  0.00     0.049 A 
ATOM     53  C   UNL A   1      43.150  30.236  28.623  1.00  0.00     0.074 A 
ATOM     54  C   UNL A   1      49.322  29.869  27.294  1.00  0.00     0.029 A 
ATOM     55  N   UNL A   1      47.146  29.470  27.503  1.00  0.00    -0.354 N 
ATOM     56  N   UNL A   1      44.411  30.077  28.305  1.00  0.00    -0.248 NA
ATOM     57  C   UNL A   1      42.803  31.588  29.083  1.00  0.00     0.031 C 
ATOM     58  C   UNL A   1      48.710  31.020  27.809  1.00  0.00     0.029 A 
ATOM     59  C   UNL A   1      47.353  30.773  27.929  1.00  0.00     0.049 A 
ATOM     60  H   UNL A   1      46.275  29.013  27.491  1.00  0.00     0.167 HD
ATOM     61  C   UNL A   1      45.012  31.309  28.534  1.00  0.00     0.074 A 
ATOM     62  C   UNL A   1      43.975  32.206  29.001  1.00  0.00     0.031 C 
ATOM     63  C   UNL A   1      46.313  31.658  28.383  1.00  0.00     0.031 A 
BRANCH  50  64
ATOM     64  C   UNL A   1      49.838  27.127  26.108  1.00  0.00    -0.014 A 
ATOM     65  C   UNL A   1      50.224  27.263  24.764  1.00  0.00     0.010 A 
ATOM     66  C   UNL A   1      50.722  26.538  27.028  1.00  0.00     0.010 A 
ATOM     67  C   UNL A   1      51.462  26.776  24.336  1.00  0.00     0.020 A 
ATOM     68  C   UNL A   1      51.962  26.056  26.604  1.00  0.00     0.020 A 
ATOM     69  C   UNL A   1      52.316  26.159  25.255  1.00  0.00     0.054 A 
BRANCH  69  70
ATOM     70  S   UNL A   1      53.912  25.499  24.702  1.00  0.00     0.124 S 
ATOM     71  O   UNL A   1      54.825  26.060  25.695  1.00  0.00    -0.237 OA
ATOM     72  O   UNL A   1      53.723  24.053  24.771  1.00  0.00    -0.237 OA
ATOM     73  O   UNL A   1      54.046  26.042  23.352  1.00  0.00    -0.744 OA
ENDBRANCH  69  70
ENDBRANCH  50  64
BRANCH  51  74
ATOM     74  C   UNL A   1      40.677  29.587  29.047  1.00  0.00    -0.014 A 
ATOM     75  C   UNL A   1      39.624  29.695  28.123  1.00  0.00     0.010 A 
ATOM     76  C   UNL A   1      40.423  29.776  30.414  1.00  0.00     0.010 A 
ATOM     77  C   UNL A   1      38.329  29.982  28.562  1.00  0.00     0.020 A 
ATOM     78  C   UNL A   1      39.128  30.058  30.856  1.00  0.00     0.020 A 
ATOM     79  C   UNL A   1      38.090  30.161  29.926  1.00  0.00     0.054 A 
BRANCH  79  80
ATOM     80  S   UNL A   1      36.399  30.450  30.519  1.00  0.00     0.124 S 
ATOM     81  O   UNL A   1      35.599  29.877  29.442  1.00  0.00    -0.237 OA
ATOM     82  O   UNL A   1      36.360  29.727  31.787  1.00  0.00    -0.237 OA
ATOM     83  O   UNL A   1      36.345  31.906  30.641  1.00  0.00    -0.744 OA
ENDBRANCH  79  80
ENDBRANCH  51  74
BRANCH  63  84
ATOM     84  C   UNL A   1      46.681  33.070  28.726  1.00  0.00    -0.014 A 
ATOM     85  C   UNL A   1      46.599  34.080  27.752  1.00  0.00     0.010 A 
ATOM     86  C   UNL A   1      47.093  33.396  30.028  1.00  0.00     0.010 A 
ATOM     87  C   UNL A   1      46.943  35.397  28.071  1.00  0.00     0.020 A 
ATOM     88  C   UNL A   1      47.436  34.711  30.351  1.00  0.00     0.020 A 
ATOM     89  C   UNL A   1      47.371  35.702  29.367  1.00  0.00     0.054 A 
BRANCH  89  90
ATOM     90  S   UNL A   1      47.793  37.415  29.791  1.00  0.00     0.124 S 
ATOM     91  O   UNL A   1      46.559  37.885  30.414  1.00  0.00    -0.237 OA
ATOM     92  O   UNL A   1      48.933  37.267  30.693  1.00  0.00    -0.237 OA
ATOM     93  O   UNL A   1      48.108  38.013  28.495  1.00  0.00    -0.744 OA
ENDBRANCH  89  90
ENDBRANCH  63  84
ENDBRANCH  37  38
ENDBRANCH  29  32
ENDBRANCH  27  28
ENDBRANCH  26  27
ENDBRANCH  25  26
ENDBRANCH   1  25
TORSDOF 20
ENDMDL
