MODEL 1
REMARK VINA RESULT:     -10.1      0.000      0.000
REMARK SMILES CC(C)[C@@](O)(C(=O)NCCCCCCNC(=O)c1ccc(-c2c3nc(c(-c4ccc(S(=O)(=O)[O-])cc4)c4ccc([nH]4)c(-c4ccc(S(=O)(=O)[O-])cc4)c4nc(c(-c5ccc(S(=O)(=O)[O-])cc5)c5ccc2[nH]5)C=C4)C=C3)cc1)[C@H](C)c1ccc(F)cc1
REMARK SMILES IDX 12 1 11 2 10 3 9 4 8 5 6 6 7 7 4 9 2 10 1 11 3 12 5 13 78 15
REMARK SMILES IDX 79 16 80 17 81 18 86 19 82 20 85 21 83 22 84 23 13 24 14 25
REMARK SMILES IDX 15 26 16 27 17 29 18 30 19 31 77 32 20 33 76 34 21 35 22 36
REMARK SMILES IDX 23 37 70 38 24 39 75 40 69 41 71 42 25 43 74 44 68 45 67 46
REMARK SMILES IDX 26 48 56 49 37 50 55 51 38 52 41 53 54 54 72 55 39 56 40 57
REMARK SMILES IDX 53 59 73 60 42 61 27 62 28 63 36 64 29 65 35 66 30 67 31 68
REMARK SMILES IDX 32 69 33 70 34 71 57 72 58 73 66 74 59 75 65 76 60 77 61 78
REMARK SMILES IDX 62 79 63 80 64 81 43 82 44 83 52 84 45 85 51 86 46 87 47 88
REMARK SMILES IDX 48 89 49 90 50 91
REMARK H PARENT 8 8 5 14 15 28 71 47 41 58
REMARK Flexibility Score: inf
ROOT
ATOM      1  C   UNL A   1      31.484  27.659  26.617  1.00  0.00     0.002 C 
ENDROOT
BRANCH   1   2
ATOM      2  C   UNL A   1      30.619  26.466  26.198  1.00  0.00     0.002 C 
BRANCH   2   3
ATOM      3  C   UNL A   1      30.204  26.458  24.724  1.00  0.00     0.021 C 
BRANCH   3   4
ATOM      4  C   UNL A   1      30.446  25.126  24.013  1.00  0.00     0.116 C 
BRANCH   4   5
ATOM      5  N   UNL A   1      30.259  24.014  24.930  1.00  0.00    -0.354 N 
ATOM      6  C   UNL A   1      31.107  23.003  25.284  1.00  0.00     0.252 C 
ATOM      7  O   UNL A   1      30.614  22.066  25.917  1.00  0.00    -0.272 OA
ATOM      8  H   UNL A   1      29.378  23.985  25.368  1.00  0.00     0.163 HD
BRANCH   6   9
ATOM      9  C   UNL A   1      32.629  23.031  24.872  1.00  0.00     0.151 C 
BRANCH   9  10
ATOM     10  C   UNL A   1      32.669  22.497  23.391  1.00  0.00     0.025 C 
ATOM     11  C   UNL A   1      33.838  22.952  22.519  1.00  0.00     0.011 C 
ATOM     12  C   UNL A   1      32.504  20.978  23.267  1.00  0.00     0.011 C 
ENDBRANCH   9  10
BRANCH   9  13
ATOM     13  O   UNL A   1      33.066  24.401  24.899  1.00  0.00    -0.379 OA
ATOM     14  H   UNL A   1      33.052  24.728  25.813  1.00  0.00     0.212 HD
ENDBRANCH   9  13
BRANCH   9  15
ATOM     15  C   UNL A   1      33.475  22.219  25.946  1.00  0.00     0.058 C 
ATOM     16  C   UNL A   1      33.234  22.748  27.394  1.00  0.00     0.016 C 
BRANCH  15  17
ATOM     17  C   UNL A   1      34.999  22.072  25.781  1.00  0.00    -0.042 A 
ATOM     18  C   UNL A   1      35.638  20.941  25.255  1.00  0.00     0.007 A 
ATOM     19  C   UNL A   1      35.814  23.176  26.118  1.00  0.00     0.007 A 
ATOM     20  C   UNL A   1      37.029  20.882  25.126  1.00  0.00     0.039 A 
ATOM     21  C   UNL A   1      37.200  23.139  25.941  1.00  0.00     0.039 A 
ATOM     22  C   UNL A   1      37.798  21.984  25.463  1.00  0.00     0.123 A 
ATOM     23  F   UNL A   1      39.127  21.937  25.315  1.00  0.00    -0.207 F 
ENDBRANCH  15  17
ENDBRANCH   9  15
ENDBRANCH   6   9
ENDBRANCH   4   5
ENDBRANCH   3   4
ENDBRANCH   2   3
ENDBRANCH   1   2
BRANCH   1  24
ATOM     24  C   UNL A   1      32.952  27.328  26.892  1.00  0.00     0.021 C 
BRANCH  24  25
ATOM     25  C   UNL A   1      33.948  28.329  26.319  1.00  0.00     0.116 C 
BRANCH  25  26
ATOM     26  N   UNL A   1      33.674  29.684  26.765  1.00  0.00    -0.352 N 
ATOM     27  C   UNL A   1      34.396  30.477  27.621  1.00  0.00     0.251 C 
ATOM     28  H   UNL A   1      32.854  30.091  26.402  1.00  0.00     0.163 HD
ATOM     29  O   UNL A   1      33.908  31.518  28.048  1.00  0.00    -0.269 OA
BRANCH  27  30
ATOM     30  C   UNL A   1      35.756  30.068  28.037  1.00  0.00     0.039 A 
ATOM     31  C   UNL A   1      36.797  30.149  27.109  1.00  0.00     0.014 A 
ATOM     32  C   UNL A   1      35.999  29.577  29.324  1.00  0.00     0.014 A 
ATOM     33  C   UNL A   1      38.088  29.768  27.482  1.00  0.00     0.010 A 
ATOM     34  C   UNL A   1      37.299  29.267  29.715  1.00  0.00     0.010 A 
ATOM     35  C   UNL A   1      38.353  29.339  28.794  1.00  0.00    -0.014 A 
BRANCH  35  36
ATOM     36  C   UNL A   1      39.718  28.921  29.202  1.00  0.00     0.031 A 
ATOM     37  C   UNL A   1      40.596  29.874  29.972  1.00  0.00     0.074 A 
ATOM     38  C   UNL A   1      40.183  27.706  28.851  1.00  0.00     0.049 A 
ATOM     39  N   UNL A   1      41.826  29.711  30.384  1.00  0.00    -0.248 NA
ATOM     40  C   UNL A   1      40.023  31.190  30.300  1.00  0.00     0.031 C 
ATOM     41  C   UNL A   1      39.444  26.706  28.076  1.00  0.00     0.029 A 
ATOM     42  N   UNL A   1      41.392  27.105  29.100  1.00  0.00    -0.354 N 
ATOM     43  C   UNL A   1      42.179  30.905  31.005  1.00  0.00     0.074 A 
ATOM     44  C   UNL A   1      41.053  31.802  30.867  1.00  0.00     0.031 C 
ATOM     45  C   UNL A   1      40.203  25.606  27.940  1.00  0.00     0.029 A 
ATOM     46  C   UNL A   1      41.493  25.835  28.584  1.00  0.00     0.049 A 
ATOM     47  H   UNL A   1      42.118  27.543  29.600  1.00  0.00     0.167 HD
ATOM     48  C   UNL A   1      43.325  31.220  31.654  1.00  0.00     0.031 A 
ATOM     49  C   UNL A   1      42.512  24.953  28.624  1.00  0.00     0.031 A 
ATOM     50  C   UNL A   1      44.437  30.321  31.805  1.00  0.00     0.049 A 
ATOM     51  C   UNL A   1      43.776  25.326  29.350  1.00  0.00     0.074 A 
ATOM     52  C   UNL A   1      45.628  30.529  32.478  1.00  0.00     0.029 A 
ATOM     53  N   UNL A   1      44.494  29.039  31.281  1.00  0.00    -0.354 N 
ATOM     54  N   UNL A   1      44.070  26.443  29.973  1.00  0.00    -0.248 NA
ATOM     55  C   UNL A   1      44.839  24.313  29.394  1.00  0.00     0.031 C 
ATOM     56  C   UNL A   1      46.422  29.388  32.326  1.00  0.00     0.029 A 
ATOM     57  C   UNL A   1      45.702  28.447  31.607  1.00  0.00     0.049 A 
ATOM     58  H   UNL A   1      43.780  28.611  30.755  1.00  0.00     0.167 HD
ATOM     59  C   UNL A   1      45.337  26.251  30.515  1.00  0.00     0.074 A 
ATOM     60  C   UNL A   1      45.746  24.909  30.156  1.00  0.00     0.031 C 
ATOM     61  C   UNL A   1      46.090  27.107  31.250  1.00  0.00     0.031 A 
BRANCH  48  62
ATOM     62  C   UNL A   1      43.430  32.599  32.252  1.00  0.00    -0.014 A 
ATOM     63  C   UNL A   1      42.876  32.888  33.512  1.00  0.00     0.010 A 
ATOM     64  C   UNL A   1      44.127  33.610  31.566  1.00  0.00     0.010 A 
ATOM     65  C   UNL A   1      42.978  34.170  34.056  1.00  0.00     0.020 A 
ATOM     66  C   UNL A   1      44.259  34.887  32.120  1.00  0.00     0.020 A 
ATOM     67  C   UNL A   1      43.669  35.163  33.355  1.00  0.00     0.054 A 
BRANCH  67  68
ATOM     68  S   UNL A   1      43.809  36.812  34.097  1.00  0.00     0.124 S 
ATOM     69  O   UNL A   1      44.455  37.569  33.027  1.00  0.00    -0.237 OA
ATOM     70  O   UNL A   1      42.416  37.164  34.361  1.00  0.00    -0.237 OA
ATOM     71  O   UNL A   1      44.628  36.590  35.285  1.00  0.00    -0.744 OA
ENDBRANCH  67  68
ENDBRANCH  48  62
BRANCH  49  72
ATOM     72  C   UNL A   1      42.370  23.617  27.981  1.00  0.00    -0.014 A 
ATOM     73  C   UNL A   1      41.780  22.548  28.678  1.00  0.00     0.010 A 
ATOM     74  C   UNL A   1      42.827  23.407  26.668  1.00  0.00     0.010 A 
ATOM     75  C   UNL A   1      41.678  21.285  28.087  1.00  0.00     0.020 A 
ATOM     76  C   UNL A   1      42.700  22.153  26.062  1.00  0.00     0.020 A 
ATOM     77  C   UNL A   1      42.140  21.096  26.782  1.00  0.00     0.054 A 
BRANCH  77  78
ATOM     78  S   UNL A   1      41.967  19.458  26.020  1.00  0.00     0.124 S 
ATOM     79  O   UNL A   1      42.803  19.589  24.830  1.00  0.00    -0.237 OA
ATOM     80  O   UNL A   1      42.480  18.570  27.060  1.00  0.00    -0.237 OA
ATOM     81  O   UNL A   1      40.532  19.349  25.770  1.00  0.00    -0.744 OA
ENDBRANCH  77  78
ENDBRANCH  49  72
BRANCH  61  82
ATOM     82  C   UNL A   1      47.412  26.600  31.762  1.00  0.00    -0.014 A 
ATOM     83  C   UNL A   1      47.520  25.955  33.006  1.00  0.00     0.010 A 
ATOM     84  C   UNL A   1      48.558  26.735  30.958  1.00  0.00     0.010 A 
ATOM     85  C   UNL A   1      48.759  25.490  33.455  1.00  0.00     0.020 A 
ATOM     86  C   UNL A   1      49.793  26.245  31.389  1.00  0.00     0.020 A 
ATOM     87  C   UNL A   1      49.888  25.641  32.644  1.00  0.00     0.054 A 
BRANCH  87  88
ATOM     88  S   UNL A   1      51.480  25.000  33.233  1.00  0.00     0.124 S 
ATOM     89  O   UNL A   1      52.204  26.229  33.548  1.00  0.00    -0.237 OA
ATOM     90  O   UNL A   1      51.093  24.186  34.382  1.00  0.00    -0.237 OA
ATOM     91  O   UNL A   1      51.995  24.249  32.091  1.00  0.00    -0.744 OA
ENDBRANCH  87  88
ENDBRANCH  61  82
ENDBRANCH  35  36
ENDBRANCH  27  30
ENDBRANCH  25  26
ENDBRANCH  24  25
ENDBRANCH   1  24
TORSDOF 20
ENDMDL
MODEL 2
REMARK VINA RESULT:      -9.8      2.872      9.304
REMARK SMILES CC(C)[C@@](O)(C(=O)NCCCCCCNC(=O)c1ccc(-c2c3nc(c(-c4ccc(S(=O)(=O)[O-])cc4)c4ccc([nH]4)c(-c4ccc(S(=O)(=O)[O-])cc4)c4nc(c(-c5ccc(S(=O)(=O)[O-])cc5)c5ccc2[nH]5)C=C4)C=C3)cc1)[C@H](C)c1ccc(F)cc1
REMARK SMILES IDX 12 1 11 2 10 3 9 4 8 5 6 6 7 7 4 9 2 10 1 11 3 12 5 13 78 15
REMARK SMILES IDX 79 16 80 17 81 18 86 19 82 20 85 21 83 22 84 23 13 24 14 25
REMARK SMILES IDX 15 26 16 27 17 29 18 30 19 31 77 32 20 33 76 34 21 35 22 36
REMARK SMILES IDX 23 37 70 38 24 39 75 40 69 41 71 42 25 43 74 44 68 45 67 46
REMARK SMILES IDX 26 48 56 49 37 50 55 51 38 52 41 53 54 54 72 55 39 56 40 57
REMARK SMILES IDX 53 59 73 60 42 61 27 62 28 63 36 64 29 65 35 66 30 67 31 68
REMARK SMILES IDX 32 69 33 70 34 71 57 72 58 73 66 74 59 75 65 76 60 77 61 78
REMARK SMILES IDX 62 79 63 80 64 81 43 82 44 83 52 84 45 85 51 86 46 87 47 88
REMARK SMILES IDX 48 89 49 90 50 91
REMARK H PARENT 8 8 5 14 15 28 71 47 41 58
REMARK Flexibility Score: inf
ROOT
ATOM      1  C   UNL A   1      34.392  23.796  24.390  1.00  0.00     0.002 C 
ENDROOT
BRANCH   1   2
ATOM      2  C   UNL A   1      33.914  22.509  23.713  1.00  0.00     0.002 C 
BRANCH   2   3
ATOM      3  C   UNL A   1      32.704  22.678  22.790  1.00  0.00     0.021 C 
BRANCH   3   4
ATOM      4  C   UNL A   1      31.666  23.681  23.294  1.00  0.00     0.116 C 
BRANCH   4   5
ATOM      5  N   UNL A   1      31.515  24.778  22.352  1.00  0.00    -0.354 N 
ATOM      6  C   UNL A   1      31.400  26.122  22.566  1.00  0.00     0.252 C 
ATOM      7  O   UNL A   1      31.062  26.809  21.598  1.00  0.00    -0.272 OA
ATOM      8  H   UNL A   1      31.493  24.509  21.406  1.00  0.00     0.163 HD
BRANCH   6   9
ATOM      9  C   UNL A   1      31.662  26.749  23.989  1.00  0.00     0.151 C 
BRANCH   9  10
ATOM     10  C   UNL A   1      30.253  26.788  24.692  1.00  0.00     0.025 C 
ATOM     11  C   UNL A   1      29.024  26.652  23.794  1.00  0.00     0.011 C 
ATOM     12  C   UNL A   1      30.119  25.834  25.885  1.00  0.00     0.011 C 
ENDBRANCH   9  10
BRANCH   9  13
ATOM     13  O   UNL A   1      32.531  25.857  24.709  1.00  0.00    -0.379 OA
ATOM     14  H   UNL A   1      32.123  24.977  24.758  1.00  0.00     0.212 HD
ENDBRANCH   9  13
BRANCH   9  15
ATOM     15  C   UNL A   1      32.412  28.141  23.818  1.00  0.00     0.058 C 
ATOM     16  C   UNL A   1      33.730  27.991  22.998  1.00  0.00     0.016 C 
BRANCH  15  17
ATOM     17  C   UNL A   1      32.758  28.992  25.053  1.00  0.00    -0.042 A 
ATOM     18  C   UNL A   1      31.914  29.960  25.616  1.00  0.00     0.007 A 
ATOM     19  C   UNL A   1      33.981  28.740  25.714  1.00  0.00     0.007 A 
ATOM     20  C   UNL A   1      32.292  30.690  26.747  1.00  0.00     0.039 A 
ATOM     21  C   UNL A   1      34.339  29.431  26.875  1.00  0.00     0.039 A 
ATOM     22  C   UNL A   1      33.498  30.414  27.371  1.00  0.00     0.123 A 
ATOM     23  F   UNL A   1      33.848  31.095  28.469  1.00  0.00    -0.207 F 
ENDBRANCH  15  17
ENDBRANCH   9  15
ENDBRANCH   6   9
ENDBRANCH   4   5
ENDBRANCH   3   4
ENDBRANCH   2   3
ENDBRANCH   1   2
BRANCH   1  24
ATOM     24  C   UNL A   1      35.349  23.591  25.566  1.00  0.00     0.021 C 
BRANCH  24  25
ATOM     25  C   UNL A   1      36.791  24.007  25.294  1.00  0.00     0.116 C 
BRANCH  25  26
ATOM     26  N   UNL A   1      37.729  22.938  25.591  1.00  0.00    -0.352 N 
ATOM     27  C   UNL A   1      38.962  23.009  26.188  1.00  0.00     0.251 C 
ATOM     28  H   UNL A   1      37.440  22.035  25.324  1.00  0.00     0.163 HD
ATOM     29  O   UNL A   1      39.706  22.034  26.171  1.00  0.00    -0.269 OA
BRANCH  27  30
ATOM     30  C   UNL A   1      39.395  24.265  26.840  1.00  0.00     0.039 A 
ATOM     31  C   UNL A   1      39.026  24.497  28.167  1.00  0.00     0.014 A 
ATOM     32  C   UNL A   1      40.136  25.222  26.139  1.00  0.00     0.014 A 
ATOM     33  C   UNL A   1      39.425  25.676  28.800  1.00  0.00     0.010 A 
ATOM     34  C   UNL A   1      40.594  26.362  26.795  1.00  0.00     0.010 A 
ATOM     35  C   UNL A   1      40.227  26.612  28.125  1.00  0.00    -0.014 A 
BRANCH  35  36
ATOM     36  C   UNL A   1      40.651  27.874  28.781  1.00  0.00     0.031 A 
ATOM     37  C   UNL A   1      42.043  27.995  29.346  1.00  0.00     0.074 A 
ATOM     38  C   UNL A   1      39.779  28.894  28.905  1.00  0.00     0.049 A 
ATOM     39  N   UNL A   1      42.587  28.996  29.988  1.00  0.00    -0.248 NA
ATOM     40  C   UNL A   1      42.929  26.830  29.190  1.00  0.00     0.031 C 
ATOM     41  C   UNL A   1      38.393  28.888  28.430  1.00  0.00     0.029 A 
ATOM     42  N   UNL A   1      39.930  30.136  29.469  1.00  0.00    -0.354 N 
ATOM     43  C   UNL A   1      43.870  28.577  30.324  1.00  0.00     0.074 A 
ATOM     44  C   UNL A   1      44.004  27.213  29.864  1.00  0.00     0.031 C 
ATOM     45  C   UNL A   1      37.832  30.079  28.695  1.00  0.00     0.029 A 
ATOM     46  C   UNL A   1      38.802  30.919  29.390  1.00  0.00     0.049 A 
ATOM     47  H   UNL A   1      40.767  30.438  29.890  1.00  0.00     0.167 HD
ATOM     48  C   UNL A   1      44.859  29.272  30.937  1.00  0.00     0.031 A 
ATOM     49  C   UNL A   1      38.576  32.173  29.829  1.00  0.00     0.031 A 
ATOM     50  C   UNL A   1      44.729  30.634  31.379  1.00  0.00     0.049 A 
ATOM     51  C   UNL A   1      39.689  32.924  30.508  1.00  0.00     0.074 A 
ATOM     52  C   UNL A   1      45.684  31.440  31.975  1.00  0.00     0.029 A 
ATOM     53  N   UNL A   1      43.577  31.396  31.267  1.00  0.00    -0.354 N 
ATOM     54  N   UNL A   1      40.911  32.526  30.772  1.00  0.00    -0.248 NA
ATOM     55  C   UNL A   1      39.398  34.300  30.933  1.00  0.00     0.031 C 
ATOM     56  C   UNL A   1      45.095  32.676  32.262  1.00  0.00     0.029 A 
ATOM     57  C   UNL A   1      43.791  32.659  31.791  1.00  0.00     0.049 A 
ATOM     58  H   UNL A   1      42.730  31.085  30.872  1.00  0.00     0.167 HD
ATOM     59  C   UNL A   1      41.545  33.617  31.359  1.00  0.00     0.074 A 
ATOM     60  C   UNL A   1      40.575  34.692  31.400  1.00  0.00     0.031 C 
ATOM     61  C   UNL A   1      42.818  33.721  31.816  1.00  0.00     0.031 A 
BRANCH  48  62
ATOM     62  C   UNL A   1      46.170  28.564  31.164  1.00  0.00    -0.014 A 
ATOM     63  C   UNL A   1      47.214  28.654  30.226  1.00  0.00     0.010 A 
ATOM     64  C   UNL A   1      46.377  27.834  32.347  1.00  0.00     0.010 A 
ATOM     65  C   UNL A   1      48.425  27.993  30.445  1.00  0.00     0.020 A 
ATOM     66  C   UNL A   1      47.597  27.195  32.587  1.00  0.00     0.020 A 
ATOM     67  C   UNL A   1      48.608  27.266  31.625  1.00  0.00     0.054 A 
BRANCH  67  68
ATOM     68  S   UNL A   1      50.200  26.439  31.897  1.00  0.00     0.124 S 
ATOM     69  O   UNL A   1      51.035  27.541  32.365  1.00  0.00    -0.237 OA
ATOM     70  O   UNL A   1      49.870  25.431  32.902  1.00  0.00    -0.237 OA
ATOM     71  O   UNL A   1      50.546  25.910  30.581  1.00  0.00    -0.744 OA
ENDBRANCH  67  68
ENDBRANCH  48  62
BRANCH  49  72
ATOM     72  C   UNL A   1      37.248  32.811  29.615  1.00  0.00    -0.014 A 
ATOM     73  C   UNL A   1      36.856  33.232  28.332  1.00  0.00     0.010 A 
ATOM     74  C   UNL A   1      36.368  33.005  30.695  1.00  0.00     0.010 A 
ATOM     75  C   UNL A   1      35.623  33.862  28.136  1.00  0.00     0.020 A 
ATOM     76  C   UNL A   1      35.122  33.608  30.500  1.00  0.00     0.020 A 
ATOM     77  C   UNL A   1      34.764  34.047  29.223  1.00  0.00     0.054 A 
BRANCH  77  78
ATOM     78  S   UNL A   1      33.154  34.836  28.943  1.00  0.00     0.124 S 
ATOM     79  O   UNL A   1      32.560  33.961  27.937  1.00  0.00    -0.237 OA
ATOM     80  O   UNL A   1      32.543  34.785  30.269  1.00  0.00    -0.237 OA
ATOM     81  O   UNL A   1      33.507  36.176  28.480  1.00  0.00    -0.744 OA
ENDBRANCH  77  78
ENDBRANCH  49  72
BRANCH  61  82
ATOM     82  C   UNL A   1      43.254  35.059  32.351  1.00  0.00    -0.014 A 
ATOM     83  C   UNL A   1      43.056  35.412  33.697  1.00  0.00     0.010 A 
ATOM     84  C   UNL A   1      43.916  35.958  31.495  1.00  0.00     0.010 A 
ATOM     85  C   UNL A   1      43.476  36.659  34.168  1.00  0.00     0.020 A 
ATOM     86  C   UNL A   1      44.364  37.193  31.970  1.00  0.00     0.020 A 
ATOM     87  C   UNL A   1      44.126  37.543  33.299  1.00  0.00     0.054 A 
BRANCH  87  88
ATOM     88  S   UNL A   1      44.690  39.142  33.942  1.00  0.00     0.124 S 
ATOM     89  O   UNL A   1      43.429  39.841  34.170  1.00  0.00    -0.237 OA
ATOM     90  O   UNL A   1      45.426  38.763  35.145  1.00  0.00    -0.237 OA
ATOM     91  O   UNL A   1      45.513  39.679  32.859  1.00  0.00    -0.744 OA
ENDBRANCH  87  88
ENDBRANCH  61  82
ENDBRANCH  35  36
ENDBRANCH  27  30
ENDBRANCH  25  26
ENDBRANCH  24  25
ENDBRANCH   1  24
TORSDOF 20
ENDMDL
MODEL 3
REMARK VINA RESULT:      -9.7      4.219     10.110
REMARK SMILES CC(C)[C@@](O)(C(=O)NCCCCCCNC(=O)c1ccc(-c2c3nc(c(-c4ccc(S(=O)(=O)[O-])cc4)c4ccc([nH]4)c(-c4ccc(S(=O)(=O)[O-])cc4)c4nc(c(-c5ccc(S(=O)(=O)[O-])cc5)c5ccc2[nH]5)C=C4)C=C3)cc1)[C@H](C)c1ccc(F)cc1
REMARK SMILES IDX 12 1 11 2 10 3 9 4 8 5 6 6 7 7 4 9 2 10 1 11 3 12 5 13 78 15
REMARK SMILES IDX 79 16 80 17 81 18 86 19 82 20 85 21 83 22 84 23 13 24 14 25
REMARK SMILES IDX 15 26 16 27 17 29 18 30 19 31 77 32 20 33 76 34 21 35 22 36
REMARK SMILES IDX 23 37 70 38 24 39 75 40 69 41 71 42 25 43 74 44 68 45 67 46
REMARK SMILES IDX 26 48 56 49 37 50 55 51 38 52 41 53 54 54 72 55 39 56 40 57
REMARK SMILES IDX 53 59 73 60 42 61 27 62 28 63 36 64 29 65 35 66 30 67 31 68
REMARK SMILES IDX 32 69 33 70 34 71 57 72 58 73 66 74 59 75 65 76 60 77 61 78
REMARK SMILES IDX 62 79 63 80 64 81 43 82 44 83 52 84 45 85 51 86 46 87 47 88
REMARK SMILES IDX 48 89 49 90 50 91
REMARK H PARENT 8 8 5 14 15 28 71 47 41 58
REMARK Flexibility Score: inf
ROOT
ATOM      1  C   UNL A   1      37.280  23.312  24.365  1.00  0.00     0.002 C 
ENDROOT
BRANCH   1   2
ATOM      2  C   UNL A   1      36.316  22.301  23.739  1.00  0.00     0.002 C 
BRANCH   2   3
ATOM      3  C   UNL A   1      35.192  21.824  24.664  1.00  0.00     0.021 C 
BRANCH   3   4
ATOM      4  C   UNL A   1      33.788  22.196  24.188  1.00  0.00     0.116 C 
BRANCH   4   5
ATOM      5  N   UNL A   1      33.854  23.019  22.992  1.00  0.00    -0.354 N 
ATOM      6  C   UNL A   1      33.231  24.197  22.690  1.00  0.00     0.252 C 
ATOM      7  O   UNL A   1      33.294  24.570  21.515  1.00  0.00    -0.272 OA
ATOM      8  H   UNL A   1      34.444  22.673  22.286  1.00  0.00     0.163 HD
BRANCH   6   9
ATOM      9  C   UNL A   1      32.451  25.015  23.790  1.00  0.00     0.151 C 
BRANCH   9  10
ATOM     10  C   UNL A   1      31.180  25.589  23.057  1.00  0.00     0.025 C 
ATOM     11  C   UNL A   1      29.907  25.742  23.889  1.00  0.00     0.011 C 
ATOM     12  C   UNL A   1      31.436  26.883  22.276  1.00  0.00     0.011 C 
ENDBRANCH   9  10
BRANCH   9  13
ATOM     13  O   UNL A   1      32.037  24.092  24.812  1.00  0.00    -0.379 OA
ATOM     14  H   UNL A   1      31.201  23.673  24.552  1.00  0.00     0.212 HD
ENDBRANCH   9  13
BRANCH   9  15
ATOM     15  C   UNL A   1      33.434  26.078  24.447  1.00  0.00     0.058 C 
ATOM     16  C   UNL A   1      34.479  25.397  25.384  1.00  0.00     0.016 C 
BRANCH  15  17
ATOM     17  C   UNL A   1      32.868  27.281  25.223  1.00  0.00    -0.042 A 
ATOM     18  C   UNL A   1      32.104  27.185  26.395  1.00  0.00     0.007 A 
ATOM     19  C   UNL A   1      33.192  28.578  24.768  1.00  0.00     0.007 A 
ATOM     20  C   UNL A   1      31.629  28.324  27.053  1.00  0.00     0.039 A 
ATOM     21  C   UNL A   1      32.763  29.719  25.453  1.00  0.00     0.039 A 
ATOM     22  C   UNL A   1      31.969  29.581  26.580  1.00  0.00     0.123 A 
ATOM     23  F   UNL A   1      31.536  30.672  27.225  1.00  0.00    -0.207 F 
ENDBRANCH  15  17
ENDBRANCH   9  15
ENDBRANCH   6   9
ENDBRANCH   4   5
ENDBRANCH   3   4
ENDBRANCH   2   3
ENDBRANCH   1   2
BRANCH   1  24
ATOM     24  C   UNL A   1      37.425  23.212  25.885  1.00  0.00     0.021 C 
BRANCH  24  25
ATOM     25  C   UNL A   1      38.307  24.286  26.513  1.00  0.00     0.116 C 
BRANCH  25  26
ATOM     26  N   UNL A   1      39.695  24.156  26.105  1.00  0.00    -0.352 N 
ATOM     27  C   UNL A   1      40.778  24.918  26.461  1.00  0.00     0.251 C 
ATOM     28  H   UNL A   1      39.885  23.415  25.484  1.00  0.00     0.163 HD
ATOM     29  O   UNL A   1      41.839  24.792  25.860  1.00  0.00    -0.269 OA
BRANCH  27  30
ATOM     30  C   UNL A   1      40.660  25.899  27.563  1.00  0.00     0.039 A 
ATOM     31  C   UNL A   1      41.522  26.998  27.583  1.00  0.00     0.014 A 
ATOM     32  C   UNL A   1      39.725  25.721  28.588  1.00  0.00     0.014 A 
ATOM     33  C   UNL A   1      41.426  27.935  28.614  1.00  0.00     0.010 A 
ATOM     34  C   UNL A   1      39.582  26.694  29.574  1.00  0.00     0.010 A 
ATOM     35  C   UNL A   1      40.444  27.799  29.610  1.00  0.00    -0.014 A 
BRANCH  35  36
ATOM     36  C   UNL A   1      40.337  28.782  30.718  1.00  0.00     0.031 A 
ATOM     37  C   UNL A   1      41.230  28.652  31.926  1.00  0.00     0.074 A 
ATOM     38  C   UNL A   1      39.416  29.764  30.660  1.00  0.00     0.049 A 
ATOM     39  N   UNL A   1      41.262  29.384  33.009  1.00  0.00    -0.248 NA
ATOM     40  C   UNL A   1      42.196  27.541  31.923  1.00  0.00     0.031 C 
ATOM     41  C   UNL A   1      38.469  29.976  29.562  1.00  0.00     0.029 A 
ATOM     42  N   UNL A   1      39.124  30.770  31.547  1.00  0.00    -0.354 N 
ATOM     43  C   UNL A   1      42.237  28.814  33.822  1.00  0.00     0.074 A 
ATOM     44  C   UNL A   1      42.734  27.646  33.130  1.00  0.00     0.031 C 
ATOM     45  C   UNL A   1      37.724  31.061  29.826  1.00  0.00     0.029 A 
ATOM     46  C   UNL A   1      38.112  31.601  31.126  1.00  0.00     0.049 A 
ATOM     47  H   UNL A   1      39.595  30.885  32.404  1.00  0.00     0.167 HD
ATOM     48  C   UNL A   1      42.697  29.239  35.023  1.00  0.00     0.031 A 
ATOM     49  C   UNL A   1      37.559  32.676  31.721  1.00  0.00     0.031 A 
ATOM     50  C   UNL A   1      42.213  30.411  35.701  1.00  0.00     0.049 A 
ATOM     51  C   UNL A   1      38.086  33.127  33.056  1.00  0.00     0.074 A 
ATOM     52  C   UNL A   1      42.641  30.948  36.903  1.00  0.00     0.029 A 
ATOM     53  N   UNL A   1      41.199  31.232  35.234  1.00  0.00    -0.354 N 
ATOM     54  N   UNL A   1      39.042  32.602  33.785  1.00  0.00    -0.248 NA
ATOM     55  C   UNL A   1      37.471  34.326  33.641  1.00  0.00     0.031 C 
ATOM     56  C   UNL A   1      41.856  32.071  37.183  1.00  0.00     0.029 A 
ATOM     57  C   UNL A   1      40.979  32.267  36.127  1.00  0.00     0.049 A 
ATOM     58  H   UNL A   1      40.708  31.100  34.392  1.00  0.00     0.167 HD
ATOM     59  C   UNL A   1      39.169  33.431  34.895  1.00  0.00     0.074 A 
ATOM     60  C   UNL A   1      38.199  34.495  34.736  1.00  0.00     0.031 C 
ATOM     61  C   UNL A   1      40.016  33.324  35.949  1.00  0.00     0.031 A 
BRANCH  48  62
ATOM     62  C   UNL A   1      43.783  28.426  35.679  1.00  0.00    -0.014 A 
ATOM     63  C   UNL A   1      43.471  27.362  36.545  1.00  0.00     0.010 A 
ATOM     64  C   UNL A   1      45.133  28.701  35.396  1.00  0.00     0.010 A 
ATOM     65  C   UNL A   1      44.486  26.616  37.148  1.00  0.00     0.020 A 
ATOM     66  C   UNL A   1      46.152  27.938  35.973  1.00  0.00     0.020 A 
ATOM     67  C   UNL A   1      45.822  26.911  36.859  1.00  0.00     0.054 A 
BRANCH  67  68
ATOM     68  S   UNL A   1      47.119  25.909  37.636  1.00  0.00     0.124 S 
ATOM     69  O   UNL A   1      48.267  26.812  37.585  1.00  0.00    -0.237 OA
ATOM     70  O   UNL A   1      46.577  25.660  38.970  1.00  0.00    -0.237 OA
ATOM     71  O   UNL A   1      47.213  24.733  36.776  1.00  0.00    -0.744 OA
ENDBRANCH  67  68
ENDBRANCH  48  62
BRANCH  49  72
ATOM     72  C   UNL A   1      36.459  33.420  31.046  1.00  0.00    -0.014 A 
ATOM     73  C   UNL A   1      35.227  33.615  31.694  1.00  0.00     0.010 A 
ATOM     74  C   UNL A   1      36.638  33.935  29.750  1.00  0.00     0.010 A 
ATOM     75  C   UNL A   1      34.183  34.285  31.048  1.00  0.00     0.020 A 
ATOM     76  C   UNL A   1      35.607  34.630  29.111  1.00  0.00     0.020 A 
ATOM     77  C   UNL A   1      34.380  34.787  29.759  1.00  0.00     0.054 A 
BRANCH  77  78
ATOM     78  S   UNL A   1      33.024  35.682  28.950  1.00  0.00     0.124 S 
ATOM     79  O   UNL A   1      32.246  36.148  30.094  1.00  0.00    -0.237 OA
ATOM     80  O   UNL A   1      33.732  36.716  28.200  1.00  0.00    -0.237 OA
ATOM     81  O   UNL A   1      32.381  34.658  28.130  1.00  0.00    -0.744 OA
ENDBRANCH  77  78
ENDBRANCH  49  72
BRANCH  61  82
ATOM     82  C   UNL A   1      39.972  34.414  36.986  1.00  0.00    -0.014 A 
ATOM     83  C   UNL A   1      39.143  34.320  38.117  1.00  0.00     0.010 A 
ATOM     84  C   UNL A   1      40.814  35.532  36.844  1.00  0.00     0.010 A 
ATOM     85  C   UNL A   1      39.127  35.344  39.067  1.00  0.00     0.020 A 
ATOM     86  C   UNL A   1      40.823  36.544  37.806  1.00  0.00     0.020 A 
ATOM     87  C   UNL A   1      39.965  36.452  38.904  1.00  0.00     0.054 A 
BRANCH  87  88
ATOM     88  S   UNL A   1      39.950  37.754  40.166  1.00  0.00     0.124 S 
ATOM     89  O   UNL A   1      41.136  38.531  39.816  1.00  0.00    -0.237 OA
ATOM     90  O   UNL A   1      38.671  38.418  39.928  1.00  0.00    -0.237 OA
ATOM     91  O   UNL A   1      40.037  37.017  41.425  1.00  0.00    -0.744 OA
ENDBRANCH  87  88
ENDBRANCH  61  82
ENDBRANCH  35  36
ENDBRANCH  27  30
ENDBRANCH  25  26
ENDBRANCH  24  25
ENDBRANCH   1  24
TORSDOF 20
ENDMDL
