MODEL 1
REMARK VINA RESULT:     -12.0      0.000      0.000
REMARK SMILES CCc1ccc(S(=O)(=O)c2nnn(-c3ccc(C(=O)NCCCCCCNC(=O)c4ccc(-c5c6nc(c(-c7ccc(S(=O)(=O)[O-])cc7)c7ccc([nH]7)c(-c7ccc(S(=O)(=O)[O-])cc7)c7nc(c(-c8ccc(S(=O)(=O)[O-])cc8)c8ccc5[nH]8)C=C7)C=C6)cc4)cc3)c2C)cc1
REMARK SMILES IDX 23 1 22 2 21 3 20 4 18 5 19 6 17 8 14 9 15 10 91 11 16 12
REMARK SMILES IDX 90 13 13 14 10 15 11 16 92 17 12 18 93 19 7 20 8 21 9 22
REMARK SMILES IDX 6 23 3 24 4 25 95 26 5 27 94 28 2 29 1 30 24 31 25 32 26 33
REMARK SMILES IDX 27 34 28 35 29 37 30 38 31 39 89 40 32 41 88 42 33 43 34 44
REMARK SMILES IDX 35 45 82 46 36 47 87 48 81 49 83 50 37 51 86 52 80 53 79 54
REMARK SMILES IDX 38 56 68 57 49 58 67 59 50 60 53 61 66 62 84 63 51 64 52 65
REMARK SMILES IDX 65 67 85 68 54 69 39 70 40 71 48 72 41 73 47 74 42 75 43 76
REMARK SMILES IDX 44 77 45 78 46 79 69 80 70 81 78 82 71 83 77 84 72 85 73 86
REMARK SMILES IDX 74 87 75 88 76 89 55 90 56 91 64 92 57 93 63 94 58 95 59 96
REMARK SMILES IDX 60 97 61 98 62 99
REMARK H PARENT 20 7 27 36 83 55 53 66
REMARK Flexibility Score: inf
ROOT
ATOM      1  C   UNL A   1      32.831  29.240  27.255  1.00  0.00     0.002 C 
ENDROOT
BRANCH   1   2
ATOM      2  C   UNL A   1      31.498  29.920  26.914  1.00  0.00     0.021 C 
BRANCH   2   3
ATOM      3  C   UNL A   1      31.613  30.972  25.807  1.00  0.00     0.116 C 
BRANCH   3   4
ATOM      4  N   UNL A   1      30.574  30.782  24.811  1.00  0.00    -0.352 N 
ATOM      5  C   UNL A   1      30.388  29.852  23.820  1.00  0.00     0.251 C 
ATOM      6  O   UNL A   1      29.353  29.929  23.157  1.00  0.00    -0.269 OA
ATOM      7  H   UNL A   1      29.857  31.457  24.858  1.00  0.00     0.163 HD
BRANCH   5   8
ATOM      8  C   UNL A   1      31.325  28.719  23.571  1.00  0.00     0.039 A 
ATOM      9  C   UNL A   1      32.948  26.446  23.380  1.00  0.00     0.067 A 
ATOM     10  C   UNL A   1      31.566  26.310  23.253  1.00  0.00     0.029 A 
ATOM     11  C   UNL A   1      33.527  27.713  23.474  1.00  0.00     0.029 A 
ATOM     12  C   UNL A   1      30.759  27.445  23.384  1.00  0.00     0.016 A 
ATOM     13  C   UNL A   1      32.714  28.847  23.512  1.00  0.00     0.016 A 
BRANCH   9  14
ATOM     14  N   UNL A   1      33.767  25.303  23.441  1.00  0.00    -0.216 N 
ATOM     15  C   UNL A   1      35.059  23.672  24.064  1.00  0.00     0.205 A 
ATOM     16  N   UNL A   1      34.982  23.673  22.697  1.00  0.00    -0.117 NA
ATOM     17  C   UNL A   1      34.193  24.627  24.573  1.00  0.00     0.081 A 
ATOM     18  N   UNL A   1      34.111  24.606  22.337  1.00  0.00    -0.061 NA
ATOM     19  C   UNL A   1      33.634  24.835  25.933  1.00  0.00     0.070 C 
BRANCH  15  20
ATOM     20  S   UNL A   1      35.893  22.432  24.933  1.00  0.00     0.227 S 
ATOM     21  O   UNL A   1      35.889  22.877  26.307  1.00  0.00    -0.217 OA
ATOM     22  O   UNL A   1      37.115  22.171  24.192  1.00  0.00    -0.217 OA
BRANCH  20  23
ATOM     23  C   UNL A   1      34.889  20.974  24.839  1.00  0.00     0.073 A 
ATOM     24  C   UNL A   1      33.391  18.602  24.738  1.00  0.00    -0.048 A 
ATOM     25  C   UNL A   1      34.791  18.565  24.664  1.00  0.00     0.005 A 
ATOM     26  C   UNL A   1      32.758  19.848  24.871  1.00  0.00     0.005 A 
ATOM     27  C   UNL A   1      35.539  19.744  24.720  1.00  0.00     0.021 A 
ATOM     28  C   UNL A   1      33.496  21.030  24.912  1.00  0.00     0.021 A 
BRANCH  24  29
ATOM     29  C   UNL A   1      32.513  17.373  24.672  1.00  0.00     0.032 C 
ATOM     30  C   UNL A   1      32.713  16.326  25.757  1.00  0.00     0.009 C 
ENDBRANCH  24  29
ENDBRANCH  20  23
ENDBRANCH  15  20
ENDBRANCH   9  14
ENDBRANCH   5   8
ENDBRANCH   3   4
ENDBRANCH   2   3
ENDBRANCH   1   2
BRANCH   1  31
ATOM     31  C   UNL A   1      34.095  30.010  26.840  1.00  0.00     0.002 C 
BRANCH  31  32
ATOM     32  C   UNL A   1      35.057  30.394  27.975  1.00  0.00     0.021 C 
BRANCH  32  33
ATOM     33  C   UNL A   1      35.279  31.893  28.108  1.00  0.00     0.116 C 
BRANCH  33  34
ATOM     34  N   UNL A   1      34.797  32.405  29.387  1.00  0.00    -0.352 N 
ATOM     35  C   UNL A   1      35.134  31.993  30.659  1.00  0.00     0.251 C 
ATOM     36  H   UNL A   1      34.145  33.142  29.335  1.00  0.00     0.163 HD
ATOM     37  O   UNL A   1      34.407  32.259  31.610  1.00  0.00    -0.269 OA
BRANCH  35  38
ATOM     38  C   UNL A   1      36.365  31.208  30.851  1.00  0.00     0.039 A 
ATOM     39  C   UNL A   1      36.303  29.837  31.104  1.00  0.00     0.014 A 
ATOM     40  C   UNL A   1      37.594  31.852  30.733  1.00  0.00     0.014 A 
ATOM     41  C   UNL A   1      37.489  29.104  31.144  1.00  0.00     0.010 A 
ATOM     42  C   UNL A   1      38.750  31.108  30.641  1.00  0.00     0.010 A 
ATOM     43  C   UNL A   1      38.716  29.736  30.881  1.00  0.00    -0.014 A 
BRANCH  43  44
ATOM     44  C   UNL A   1      39.943  28.942  30.781  1.00  0.00     0.031 A 
ATOM     45  C   UNL A   1      40.673  28.694  32.058  1.00  0.00     0.074 A 
ATOM     46  C   UNL A   1      40.346  28.297  29.665  1.00  0.00     0.049 A 
ATOM     47  N   UNL A   1      41.828  29.156  32.408  1.00  0.00    -0.248 NA
ATOM     48  C   UNL A   1      40.003  27.908  33.105  1.00  0.00     0.031 C 
ATOM     49  C   UNL A   1      39.649  28.146  28.383  1.00  0.00     0.029 A 
ATOM     50  N   UNL A   1      41.460  27.533  29.492  1.00  0.00    -0.354 N 
ATOM     51  C   UNL A   1      42.126  28.578  33.640  1.00  0.00     0.074 A 
ATOM     52  C   UNL A   1      40.914  27.931  34.080  1.00  0.00     0.031 C 
ATOM     53  C   UNL A   1      40.226  27.155  27.668  1.00  0.00     0.029 A 
ATOM     54  C   UNL A   1      41.441  26.750  28.347  1.00  0.00     0.049 A 
ATOM     55  H   UNL A   1      42.214  27.536  30.125  1.00  0.00     0.167 HD
ATOM     56  C   UNL A   1      43.400  28.510  34.122  1.00  0.00     0.031 A 
ATOM     57  C   UNL A   1      42.357  25.825  27.977  1.00  0.00     0.031 A 
ATOM     58  C   UNL A   1      44.303  29.352  33.383  1.00  0.00     0.049 A 
ATOM     59  C   UNL A   1      43.620  26.158  28.674  1.00  0.00     0.074 A 
ATOM     60  C   UNL A   1      44.384  30.706  33.124  1.00  0.00     0.029 A 
ATOM     61  N   UNL A   1      45.110  28.743  32.449  1.00  0.00    -0.354 N 
ATOM     62  N   UNL A   1      44.302  27.244  28.439  1.00  0.00    -0.248 NA
ATOM     63  C   UNL A   1      43.925  25.491  29.928  1.00  0.00     0.031 C 
ATOM     64  C   UNL A   1      44.824  30.794  31.769  1.00  0.00     0.029 A 
ATOM     65  C   UNL A   1      45.042  29.495  31.304  1.00  0.00     0.049 A 
ATOM     66  H   UNL A   1      45.637  27.921  32.579  1.00  0.00     0.167 HD
ATOM     67  C   UNL A   1      44.796  27.630  29.676  1.00  0.00     0.074 A 
ATOM     68  C   UNL A   1      44.633  26.453  30.527  1.00  0.00     0.031 C 
ATOM     69  C   UNL A   1      45.042  28.943  29.964  1.00  0.00     0.031 A 
BRANCH  56  70
ATOM     70  C   UNL A   1      43.905  27.419  35.036  1.00  0.00    -0.014 A 
ATOM     71  C   UNL A   1      44.575  27.772  36.226  1.00  0.00     0.010 A 
ATOM     72  C   UNL A   1      43.983  26.070  34.634  1.00  0.00     0.010 A 
ATOM     73  C   UNL A   1      45.336  26.834  36.940  1.00  0.00     0.020 A 
ATOM     74  C   UNL A   1      44.702  25.119  35.361  1.00  0.00     0.020 A 
ATOM     75  C   UNL A   1      45.405  25.516  36.491  1.00  0.00     0.054 A 
BRANCH  75  76
ATOM     76  S   UNL A   1      46.484  24.340  37.348  1.00  0.00     0.124 S 
ATOM     77  O   UNL A   1      45.515  23.476  38.015  1.00  0.00    -0.237 OA
ATOM     78  O   UNL A   1      47.220  23.733  36.243  1.00  0.00    -0.237 OA
ATOM     79  O   UNL A   1      47.281  25.189  38.230  1.00  0.00    -0.744 OA
ENDBRANCH  75  76
ENDBRANCH  56  70
BRANCH  57  80
ATOM     80  C   UNL A   1      42.120  24.540  27.283  1.00  0.00    -0.014 A 
ATOM     81  C   UNL A   1      43.020  24.065  26.314  1.00  0.00     0.010 A 
ATOM     82  C   UNL A   1      41.153  23.644  27.784  1.00  0.00     0.010 A 
ATOM     83  C   UNL A   1      43.001  22.720  25.914  1.00  0.00     0.020 A 
ATOM     84  C   UNL A   1      41.124  22.304  27.385  1.00  0.00     0.020 A 
ATOM     85  C   UNL A   1      42.067  21.842  26.471  1.00  0.00     0.054 A 
BRANCH  85  86
ATOM     86  S   UNL A   1      42.181  20.067  26.099  1.00  0.00     0.124 S 
ATOM     87  O   UNL A   1      42.288  19.478  27.430  1.00  0.00    -0.237 OA
ATOM     88  O   UNL A   1      40.931  19.810  25.391  1.00  0.00    -0.237 OA
ATOM     89  O   UNL A   1      43.386  19.967  25.276  1.00  0.00    -0.744 OA
ENDBRANCH  85  86
ENDBRANCH  57  80
BRANCH  69  90
ATOM     90  C   UNL A   1      45.060  29.941  28.825  1.00  0.00    -0.014 A 
ATOM     91  C   UNL A   1      43.926  30.267  28.053  1.00  0.00     0.010 A 
ATOM     92  C   UNL A   1      46.235  30.688  28.631  1.00  0.00     0.010 A 
ATOM     93  C   UNL A   1      43.979  31.293  27.096  1.00  0.00     0.020 A 
ATOM     94  C   UNL A   1      46.290  31.722  27.693  1.00  0.00     0.020 A 
ATOM     95  C   UNL A   1      45.163  32.014  26.922  1.00  0.00     0.054 A 
BRANCH  95  96
ATOM     96  S   UNL A   1      45.212  33.375  25.721  1.00  0.00     0.124 S 
ATOM     97  O   UNL A   1      44.655  32.759  24.520  1.00  0.00    -0.237 OA
ATOM     98  O   UNL A   1      44.375  34.395  26.350  1.00  0.00    -0.237 OA
ATOM     99  O   UNL A   1      46.631  33.717  25.638  1.00  0.00    -0.744 OA
ENDBRANCH  95  96
ENDBRANCH  69  90
ENDBRANCH  43  44
ENDBRANCH  35  38
ENDBRANCH  33  34
ENDBRANCH  32  33
ENDBRANCH  31  32
ENDBRANCH   1  31
TORSDOF 20
ENDMDL
MODEL 2
REMARK VINA RESULT:     -11.3      1.974      3.153
REMARK SMILES CCc1ccc(S(=O)(=O)c2nnn(-c3ccc(C(=O)NCCCCCCNC(=O)c4ccc(-c5c6nc(c(-c7ccc(S(=O)(=O)[O-])cc7)c7ccc([nH]7)c(-c7ccc(S(=O)(=O)[O-])cc7)c7nc(c(-c8ccc(S(=O)(=O)[O-])cc8)c8ccc5[nH]8)C=C7)C=C6)cc4)cc3)c2C)cc1
REMARK SMILES IDX 23 1 22 2 21 3 20 4 18 5 19 6 17 8 14 9 15 10 91 11 16 12
REMARK SMILES IDX 90 13 13 14 10 15 11 16 92 17 12 18 93 19 7 20 8 21 9 22
REMARK SMILES IDX 6 23 3 24 4 25 95 26 5 27 94 28 2 29 1 30 24 31 25 32 26 33
REMARK SMILES IDX 27 34 28 35 29 37 30 38 31 39 89 40 32 41 88 42 33 43 34 44
REMARK SMILES IDX 35 45 82 46 36 47 87 48 81 49 83 50 37 51 86 52 80 53 79 54
REMARK SMILES IDX 38 56 68 57 49 58 67 59 50 60 53 61 66 62 84 63 51 64 52 65
REMARK SMILES IDX 65 67 85 68 54 69 39 70 40 71 48 72 41 73 47 74 42 75 43 76
REMARK SMILES IDX 44 77 45 78 46 79 69 80 70 81 78 82 71 83 77 84 72 85 73 86
REMARK SMILES IDX 74 87 75 88 76 89 55 90 56 91 64 92 57 93 63 94 58 95 59 96
REMARK SMILES IDX 60 97 61 98 62 99
REMARK H PARENT 20 7 27 36 83 55 53 66
REMARK Flexibility Score: inf
ROOT
ATOM      1  C   UNL A   1      32.439  28.352  26.576  1.00  0.00     0.002 C 
ENDROOT
BRANCH   1   2
ATOM      2  C   UNL A   1      31.167  28.706  25.795  1.00  0.00     0.021 C 
BRANCH   2   3
ATOM      3  C   UNL A   1      31.237  30.066  25.095  1.00  0.00     0.116 C 
BRANCH   3   4
ATOM      4  N   UNL A   1      30.607  30.003  23.789  1.00  0.00    -0.352 N 
ATOM      5  C   UNL A   1      30.740  29.144  22.727  1.00  0.00     0.251 C 
ATOM      6  O   UNL A   1      30.008  29.328  21.753  1.00  0.00    -0.269 OA
ATOM      7  H   UNL A   1      29.950  30.721  23.635  1.00  0.00     0.163 HD
BRANCH   5   8
ATOM      8  C   UNL A   1      31.654  27.966  22.734  1.00  0.00     0.039 A 
ATOM      9  C   UNL A   1      33.198  25.648  23.023  1.00  0.00     0.067 A 
ATOM     10  C   UNL A   1      31.834  25.530  22.760  1.00  0.00     0.029 A 
ATOM     11  C   UNL A   1      33.813  26.902  23.017  1.00  0.00     0.029 A 
ATOM     12  C   UNL A   1      31.062  26.692  22.651  1.00  0.00     0.016 A 
ATOM     13  C   UNL A   1      33.045  28.050  22.816  1.00  0.00     0.016 A 
BRANCH   9  14
ATOM     14  N   UNL A   1      33.961  24.503  23.324  1.00  0.00    -0.216 N 
ATOM     15  C   UNL A   1      35.093  22.926  24.298  1.00  0.00     0.205 A 
ATOM     16  N   UNL A   1      35.214  22.780  22.941  1.00  0.00    -0.117 NA
ATOM     17  C   UNL A   1      34.195  23.947  24.570  1.00  0.00     0.081 A 
ATOM     18  N   UNL A   1      34.437  23.685  22.361  1.00  0.00    -0.061 NA
ATOM     19  C   UNL A   1      33.453  24.311  25.803  1.00  0.00     0.070 C 
BRANCH  15  20
ATOM     20  S   UNL A   1      35.750  21.773  25.404  1.00  0.00     0.227 S 
ATOM     21  O   UNL A   1      35.990  20.592  24.607  1.00  0.00    -0.217 OA
ATOM     22  O   UNL A   1      34.872  21.777  26.561  1.00  0.00    -0.217 OA
BRANCH  20  23
ATOM     23  C   UNL A   1      37.325  22.399  25.924  1.00  0.00     0.073 A 
ATOM     24  C   UNL A   1      39.872  23.311  26.671  1.00  0.00    -0.048 A 
ATOM     25  C   UNL A   1      39.695  22.004  26.194  1.00  0.00     0.005 A 
ATOM     26  C   UNL A   1      38.751  24.153  26.759  1.00  0.00     0.005 A 
ATOM     27  C   UNL A   1      38.428  21.549  25.816  1.00  0.00     0.021 A 
ATOM     28  C   UNL A   1      37.482  23.701  26.399  1.00  0.00     0.021 A 
BRANCH  24  29
ATOM     29  C   UNL A   1      41.205  23.872  27.110  1.00  0.00     0.032 C 
ATOM     30  C   UNL A   1      41.199  24.785  28.328  1.00  0.00     0.009 C 
ENDBRANCH  24  29
ENDBRANCH  20  23
ENDBRANCH  15  20
ENDBRANCH   9  14
ENDBRANCH   5   8
ENDBRANCH   3   4
ENDBRANCH   2   3
ENDBRANCH   1   2
BRANCH   1  31
ATOM     31  C   UNL A   1      33.599  29.353  26.448  1.00  0.00     0.002 C 
BRANCH  31  32
ATOM     32  C   UNL A   1      34.732  29.210  27.475  1.00  0.00     0.021 C 
BRANCH  32  33
ATOM     33  C   UNL A   1      35.547  30.481  27.667  1.00  0.00     0.116 C 
BRANCH  33  34
ATOM     34  N   UNL A   1      35.354  31.058  28.994  1.00  0.00    -0.352 N 
ATOM     35  C   UNL A   1      36.157  30.936  30.108  1.00  0.00     0.251 C 
ATOM     36  H   UNL A   1      34.544  31.606  29.109  1.00  0.00     0.163 HD
ATOM     37  O   UNL A   1      35.708  31.170  31.225  1.00  0.00    -0.269 OA
BRANCH  35  38
ATOM     38  C   UNL A   1      37.553  30.498  29.936  1.00  0.00     0.039 A 
ATOM     39  C   UNL A   1      38.584  31.433  29.826  1.00  0.00     0.014 A 
ATOM     40  C   UNL A   1      37.830  29.134  29.928  1.00  0.00     0.014 A 
ATOM     41  C   UNL A   1      39.904  30.982  29.802  1.00  0.00     0.010 A 
ATOM     42  C   UNL A   1      39.133  28.700  30.037  1.00  0.00     0.010 A 
ATOM     43  C   UNL A   1      40.182  29.612  29.939  1.00  0.00    -0.014 A 
BRANCH  43  44
ATOM     44  C   UNL A   1      41.568  29.155  30.059  1.00  0.00     0.031 A 
ATOM     45  C   UNL A   1      42.128  29.101  31.440  1.00  0.00     0.074 A 
ATOM     46  C   UNL A   1      42.290  28.634  29.044  1.00  0.00     0.049 A 
ATOM     47  N   UNL A   1      43.060  29.841  31.943  1.00  0.00    -0.248 NA
ATOM     48  C   UNL A   1      41.520  28.171  32.404  1.00  0.00     0.031 C 
ATOM     49  C   UNL A   1      41.864  28.311  27.678  1.00  0.00     0.029 A 
ATOM     50  N   UNL A   1      43.574  28.178  29.072  1.00  0.00    -0.354 N 
ATOM     51  C   UNL A   1      43.296  29.359  33.228  1.00  0.00     0.074 A 
ATOM     52  C   UNL A   1      42.232  28.425  33.505  1.00  0.00     0.031 C 
ATOM     53  C   UNL A   1      42.776  27.500  27.099  1.00  0.00     0.029 A 
ATOM     54  C   UNL A   1      43.931  27.416  27.970  1.00  0.00     0.049 A 
ATOM     55  H   UNL A   1      44.194  28.374  29.812  1.00  0.00     0.167 HD
ATOM     56  C   UNL A   1      44.455  29.616  33.900  1.00  0.00     0.031 A 
ATOM     57  C   UNL A   1      45.097  26.755  27.780  1.00  0.00     0.031 A 
ATOM     58  C   UNL A   1      45.222  30.660  33.274  1.00  0.00     0.049 A 
ATOM     59  C   UNL A   1      46.111  27.398  28.647  1.00  0.00     0.074 A 
ATOM     60  C   UNL A   1      45.000  31.990  32.976  1.00  0.00     0.029 A 
ATOM     61  N   UNL A   1      46.292  30.277  32.498  1.00  0.00    -0.354 N 
ATOM     62  N   UNL A   1      46.526  28.622  28.475  1.00  0.00    -0.248 NA
ATOM     63  C   UNL A   1      46.372  26.831  29.958  1.00  0.00     0.031 C 
ATOM     64  C   UNL A   1      45.610  32.188  31.702  1.00  0.00     0.029 A 
ATOM     65  C   UNL A   1      46.218  30.987  31.327  1.00  0.00     0.049 A 
ATOM     66  H   UNL A   1      46.981  29.616  32.740  1.00  0.00     0.167 HD
ATOM     67  C   UNL A   1      46.706  29.120  29.756  1.00  0.00     0.074 A 
ATOM     68  C   UNL A   1      46.713  27.941  30.618  1.00  0.00     0.031 C 
ATOM     69  C   UNL A   1      46.566  30.453  30.026  1.00  0.00     0.031 A 
BRANCH  56  70
ATOM     70  C   UNL A   1      45.067  28.690  34.923  1.00  0.00    -0.014 A 
ATOM     71  C   UNL A   1      45.880  27.622  34.487  1.00  0.00     0.010 A 
ATOM     72  C   UNL A   1      44.651  28.669  36.270  1.00  0.00     0.010 A 
ATOM     73  C   UNL A   1      46.206  26.558  35.342  1.00  0.00     0.020 A 
ATOM     74  C   UNL A   1      45.006  27.636  37.141  1.00  0.00     0.020 A 
ATOM     75  C   UNL A   1      45.752  26.567  36.660  1.00  0.00     0.054 A 
BRANCH  75  76
ATOM     76  S   UNL A   1      46.073  25.136  37.722  1.00  0.00     0.124 S 
ATOM     77  O   UNL A   1      47.338  25.506  38.350  1.00  0.00    -0.237 OA
ATOM     78  O   UNL A   1      44.906  25.131  38.600  1.00  0.00    -0.237 OA
ATOM     79  O   UNL A   1      46.142  24.021  36.780  1.00  0.00    -0.744 OA
ENDBRANCH  75  76
ENDBRANCH  56  70
BRANCH  57  80
ATOM     80  C   UNL A   1      45.302  25.452  27.109  1.00  0.00    -0.014 A 
ATOM     81  C   UNL A   1      44.839  24.259  27.690  1.00  0.00     0.010 A 
ATOM     82  C   UNL A   1      45.704  25.419  25.757  1.00  0.00     0.010 A 
ATOM     83  C   UNL A   1      44.711  23.091  26.923  1.00  0.00     0.020 A 
ATOM     84  C   UNL A   1      45.585  24.256  24.989  1.00  0.00     0.020 A 
ATOM     85  C   UNL A   1      45.064  23.103  25.570  1.00  0.00     0.054 A 
BRANCH  85  86
ATOM     86  S   UNL A   1      44.706  21.647  24.544  1.00  0.00     0.124 S 
ATOM     87  O   UNL A   1      44.423  22.247  23.243  1.00  0.00    -0.237 OA
ATOM     88  O   UNL A   1      45.947  20.884  24.633  1.00  0.00    -0.237 OA
ATOM     89  O   UNL A   1      43.557  21.034  25.209  1.00  0.00    -0.744 OA
ENDBRANCH  85  86
ENDBRANCH  57  80
BRANCH  69  90
ATOM     90  C   UNL A   1      46.511  31.423  28.864  1.00  0.00    -0.014 A 
ATOM     91  C   UNL A   1      45.351  31.665  28.101  1.00  0.00     0.010 A 
ATOM     92  C   UNL A   1      47.640  32.231  28.635  1.00  0.00     0.010 A 
ATOM     93  C   UNL A   1      45.332  32.669  27.121  1.00  0.00     0.020 A 
ATOM     94  C   UNL A   1      47.622  33.243  27.672  1.00  0.00     0.020 A 
ATOM     95  C   UNL A   1      46.470  33.452  26.912  1.00  0.00     0.054 A 
BRANCH  95  96
ATOM     96  S   UNL A   1      46.424  34.785  25.680  1.00  0.00     0.124 S 
ATOM     97  O   UNL A   1      45.324  34.376  24.811  1.00  0.00    -0.237 OA
ATOM     98  O   UNL A   1      46.175  35.973  26.492  1.00  0.00    -0.237 OA
ATOM     99  O   UNL A   1      47.749  34.735  25.062  1.00  0.00    -0.744 OA
ENDBRANCH  95  96
ENDBRANCH  69  90
ENDBRANCH  43  44
ENDBRANCH  35  38
ENDBRANCH  33  34
ENDBRANCH  32  33
ENDBRANCH  31  32
ENDBRANCH   1  31
TORSDOF 20
ENDMDL
MODEL 3
REMARK VINA RESULT:     -11.1      8.572     14.024
REMARK SMILES CCc1ccc(S(=O)(=O)c2nnn(-c3ccc(C(=O)NCCCCCCNC(=O)c4ccc(-c5c6nc(c(-c7ccc(S(=O)(=O)[O-])cc7)c7ccc([nH]7)c(-c7ccc(S(=O)(=O)[O-])cc7)c7nc(c(-c8ccc(S(=O)(=O)[O-])cc8)c8ccc5[nH]8)C=C7)C=C6)cc4)cc3)c2C)cc1
REMARK SMILES IDX 23 1 22 2 21 3 20 4 18 5 19 6 17 8 14 9 15 10 91 11 16 12
REMARK SMILES IDX 90 13 13 14 10 15 11 16 92 17 12 18 93 19 7 20 8 21 9 22
REMARK SMILES IDX 6 23 3 24 4 25 95 26 5 27 94 28 2 29 1 30 24 31 25 32 26 33
REMARK SMILES IDX 27 34 28 35 29 37 30 38 31 39 89 40 32 41 88 42 33 43 34 44
REMARK SMILES IDX 35 45 82 46 36 47 87 48 81 49 83 50 37 51 86 52 80 53 79 54
REMARK SMILES IDX 38 56 68 57 49 58 67 59 50 60 53 61 66 62 84 63 51 64 52 65
REMARK SMILES IDX 65 67 85 68 54 69 39 70 40 71 48 72 41 73 47 74 42 75 43 76
REMARK SMILES IDX 44 77 45 78 46 79 69 80 70 81 78 82 71 83 77 84 72 85 73 86
REMARK SMILES IDX 74 87 75 88 76 89 55 90 56 91 64 92 57 93 63 94 58 95 59 96
REMARK SMILES IDX 60 97 61 98 62 99
REMARK H PARENT 20 7 27 36 83 55 53 66
REMARK Flexibility Score: inf
ROOT
ATOM      1  C   UNL A   1      43.898  38.126  27.307  1.00  0.00     0.002 C 
ENDROOT
BRANCH   1   2
ATOM      2  C   UNL A   1      44.710  39.246  26.644  1.00  0.00     0.021 C 
BRANCH   2   3
ATOM      3  C   UNL A   1      44.065  40.629  26.774  1.00  0.00     0.116 C 
BRANCH   3   4
ATOM      4  N   UNL A   1      45.076  41.646  26.999  1.00  0.00    -0.352 N 
ATOM      5  C   UNL A   1      45.557  42.674  26.227  1.00  0.00     0.251 C 
ATOM      6  O   UNL A   1      46.399  43.417  26.732  1.00  0.00    -0.269 OA
ATOM      7  H   UNL A   1      45.501  41.587  27.885  1.00  0.00     0.163 HD
BRANCH   5   8
ATOM      8  C   UNL A   1      45.049  42.978  24.858  1.00  0.00     0.039 A 
ATOM      9  C   UNL A   1      43.784  43.497  22.415  1.00  0.00     0.067 A 
ATOM     10  C   UNL A   1      43.526  44.327  23.505  1.00  0.00     0.029 A 
ATOM     11  C   UNL A   1      44.756  42.498  22.501  1.00  0.00     0.029 A 
ATOM     12  C   UNL A   1      44.135  44.041  24.732  1.00  0.00     0.016 A 
ATOM     13  C   UNL A   1      45.424  42.282  23.707  1.00  0.00     0.016 A 
BRANCH   9  14
ATOM     14  N   UNL A   1      43.046  43.645  21.225  1.00  0.00    -0.216 N 
ATOM     15  C   UNL A   1      42.360  44.130  19.222  1.00  0.00     0.205 A 
ATOM     16  N   UNL A   1      41.306  43.625  19.937  1.00  0.00    -0.117 NA
ATOM     17  C   UNL A   1      43.515  44.039  19.982  1.00  0.00     0.081 A 
ATOM     18  N   UNL A   1      41.762  43.239  21.121  1.00  0.00    -0.061 NA
ATOM     19  C   UNL A   1      44.952  44.120  19.616  1.00  0.00     0.070 C 
BRANCH  15  20
ATOM     20  S   UNL A   1      42.228  44.505  17.540  1.00  0.00     0.227 S 
ATOM     21  O   UNL A   1      40.809  44.498  17.270  1.00  0.00    -0.217 OA
ATOM     22  O   UNL A   1      43.164  43.629  16.856  1.00  0.00    -0.217 OA
BRANCH  20  23
ATOM     23  C   UNL A   1      42.805  46.169  17.337  1.00  0.00     0.073 A 
ATOM     24  C   UNL A   1      43.805  48.761  16.942  1.00  0.00    -0.048 A 
ATOM     25  C   UNL A   1      44.651  47.647  16.837  1.00  0.00     0.005 A 
ATOM     26  C   UNL A   1      42.449  48.550  17.241  1.00  0.00     0.005 A 
ATOM     27  C   UNL A   1      44.154  46.355  17.027  1.00  0.00     0.021 A 
ATOM     28  C   UNL A   1      41.949  47.266  17.448  1.00  0.00     0.021 A 
BRANCH  24  29
ATOM     29  C   UNL A   1      44.269  50.189  16.762  1.00  0.00     0.032 C 
ATOM     30  C   UNL A   1      45.036  50.813  17.919  1.00  0.00     0.009 C 
ENDBRANCH  24  29
ENDBRANCH  20  23
ENDBRANCH  15  20
ENDBRANCH   9  14
ENDBRANCH   5   8
ENDBRANCH   3   4
ENDBRANCH   2   3
ENDBRANCH   1   2
BRANCH   1  31
ATOM     31  C   UNL A   1      44.261  36.696  26.874  1.00  0.00     0.002 C 
BRANCH  31  32
ATOM     32  C   UNL A   1      44.130  35.610  27.952  1.00  0.00     0.021 C 
BRANCH  32  33
ATOM     33  C   UNL A   1      42.706  35.111  28.148  1.00  0.00     0.116 C 
BRANCH  33  34
ATOM     34  N   UNL A   1      42.274  35.227  29.538  1.00  0.00    -0.352 N 
ATOM     35  C   UNL A   1      41.825  34.234  30.383  1.00  0.00     0.251 C 
ATOM     36  H   UNL A   1      42.307  36.133  29.922  1.00  0.00     0.163 HD
ATOM     37  O   UNL A   1      41.175  34.519  31.383  1.00  0.00    -0.269 OA
BRANCH  35  38
ATOM     38  C   UNL A   1      42.119  32.830  30.052  1.00  0.00     0.039 A 
ATOM     39  C   UNL A   1      43.428  32.419  29.788  1.00  0.00     0.014 A 
ATOM     40  C   UNL A   1      41.074  31.910  30.049  1.00  0.00     0.014 A 
ATOM     41  C   UNL A   1      43.686  31.060  29.614  1.00  0.00     0.010 A 
ATOM     42  C   UNL A   1      41.350  30.561  30.008  1.00  0.00     0.010 A 
ATOM     43  C   UNL A   1      42.648  30.123  29.755  1.00  0.00    -0.014 A 
BRANCH  43  44
ATOM     44  C   UNL A   1      42.946  28.689  29.714  1.00  0.00     0.031 A 
ATOM     45  C   UNL A   1      43.643  28.127  30.907  1.00  0.00     0.074 A 
ATOM     46  C   UNL A   1      42.491  27.841  28.768  1.00  0.00     0.049 A 
ATOM     47  N   UNL A   1      44.850  27.669  30.972  1.00  0.00    -0.248 NA
ATOM     48  C   UNL A   1      42.946  28.156  32.202  1.00  0.00     0.031 C 
ATOM     49  C   UNL A   1      41.552  28.100  27.671  1.00  0.00     0.029 A 
ATOM     50  N   UNL A   1      42.711  26.501  28.663  1.00  0.00    -0.354 N 
ATOM     51  C   UNL A   1      45.015  27.177  32.265  1.00  0.00     0.074 A 
ATOM     52  C   UNL A   1      43.865  27.625  33.012  1.00  0.00     0.031 C 
ATOM     53  C   UNL A   1      41.098  26.927  27.177  1.00  0.00     0.029 A 
ATOM     54  C   UNL A   1      41.861  25.852  27.779  1.00  0.00     0.049 A 
ATOM     55  H   UNL A   1      43.413  26.034  29.171  1.00  0.00     0.167 HD
ATOM     56  C   UNL A   1      45.989  26.276  32.582  1.00  0.00     0.031 A 
ATOM     57  C   UNL A   1      41.783  24.520  27.553  1.00  0.00     0.031 A 
ATOM     58  C   UNL A   1      46.971  26.153  31.537  1.00  0.00     0.049 A 
ATOM     59  C   UNL A   1      43.075  23.929  27.970  1.00  0.00     0.074 A 
ATOM     60  C   UNL A   1      47.853  27.018  30.920  1.00  0.00     0.029 A 
ATOM     61  N   UNL A   1      46.870  25.063  30.703  1.00  0.00    -0.354 N 
ATOM     62  N   UNL A   1      44.204  24.184  27.371  1.00  0.00    -0.248 NA
ATOM     63  C   UNL A   1      43.192  23.373  29.307  1.00  0.00     0.031 C 
ATOM     64  C   UNL A   1      47.843  26.633  29.546  1.00  0.00     0.029 A 
ATOM     65  C   UNL A   1      47.005  25.523  29.418  1.00  0.00     0.049 A 
ATOM     66  H   UNL A   1      46.728  24.129  30.979  1.00  0.00     0.167 HD
ATOM     67  C   UNL A   1      45.146  24.229  28.388  1.00  0.00     0.074 A 
ATOM     68  C   UNL A   1      44.488  23.606  29.534  1.00  0.00     0.031 C 
ATOM     69  C   UNL A   1      46.268  25.003  28.284  1.00  0.00     0.031 A 
BRANCH  56  70
ATOM     70  C   UNL A   1      45.870  25.248  33.680  1.00  0.00    -0.014 A 
ATOM     71  C   UNL A   1      46.921  25.107  34.610  1.00  0.00     0.010 A 
ATOM     72  C   UNL A   1      44.888  24.236  33.667  1.00  0.00     0.010 A 
ATOM     73  C   UNL A   1      47.016  23.978  35.438  1.00  0.00     0.020 A 
ATOM     74  C   UNL A   1      44.949  23.131  34.518  1.00  0.00     0.020 A 
ATOM     75  C   UNL A   1      46.034  22.990  35.373  1.00  0.00     0.054 A 
BRANCH  75  76
ATOM     76  S   UNL A   1      46.225  21.481  36.356  1.00  0.00     0.124 S 
ATOM     77  O   UNL A   1      47.659  21.232  36.248  1.00  0.00    -0.237 OA
ATOM     78  O   UNL A   1      45.751  21.904  37.670  1.00  0.00    -0.237 OA
ATOM     79  O   UNL A   1      45.366  20.517  35.670  1.00  0.00    -0.744 OA
ENDBRANCH  75  76
ENDBRANCH  56  70
BRANCH  57  80
ATOM     80  C   UNL A   1      40.575  23.719  27.261  1.00  0.00    -0.014 A 
ATOM     81  C   UNL A   1      39.335  24.339  27.028  1.00  0.00     0.010 A 
ATOM     82  C   UNL A   1      40.705  22.354  26.927  1.00  0.00     0.010 A 
ATOM     83  C   UNL A   1      38.285  23.637  26.415  1.00  0.00     0.020 A 
ATOM     84  C   UNL A   1      39.661  21.647  26.322  1.00  0.00     0.020 A 
ATOM     85  C   UNL A   1      38.464  22.301  26.044  1.00  0.00     0.054 A 
BRANCH  85  86
ATOM     86  S   UNL A   1      37.175  21.467  25.074  1.00  0.00     0.124 S 
ATOM     87  O   UNL A   1      37.089  22.309  23.884  1.00  0.00    -0.237 OA
ATOM     88  O   UNL A   1      37.743  20.137  24.868  1.00  0.00    -0.237 OA
ATOM     89  O   UNL A   1      36.005  21.508  25.951  1.00  0.00    -0.744 OA
ENDBRANCH  85  86
ENDBRANCH  57  80
BRANCH  69  90
ATOM     90  C   UNL A   1      46.627  25.575  26.929  1.00  0.00    -0.014 A 
ATOM     91  C   UNL A   1      45.947  26.655  26.330  1.00  0.00     0.010 A 
ATOM     92  C   UNL A   1      47.795  25.097  26.308  1.00  0.00     0.010 A 
ATOM     93  C   UNL A   1      46.409  27.220  25.131  1.00  0.00     0.020 A 
ATOM     94  C   UNL A   1      48.271  25.666  25.124  1.00  0.00     0.020 A 
ATOM     95  C   UNL A   1      47.570  26.720  24.535  1.00  0.00     0.054 A 
BRANCH  95  96
ATOM     96  S   UNL A   1      48.194  27.489  23.013  1.00  0.00     0.124 S 
ATOM     97  O   UNL A   1      48.345  26.344  22.118  1.00  0.00    -0.237 OA
ATOM     98  O   UNL A   1      47.130  28.427  22.661  1.00  0.00    -0.237 OA
ATOM     99  O   UNL A   1      49.448  28.116  23.427  1.00  0.00    -0.744 OA
ENDBRANCH  95  96
ENDBRANCH  69  90
ENDBRANCH  43  44
ENDBRANCH  35  38
ENDBRANCH  33  34
ENDBRANCH  32  33
ENDBRANCH  31  32
ENDBRANCH   1  31
TORSDOF 20
ENDMDL
